# DDEC6 charges by PACMAN v1.1 (https://github.com/mtap-research/PACMAN-charge/)
data_2019[Ag][sra]3[ION]4
_chemical_formula_sum              "Ag4 H48 C72 S4 N24 O12 F12"
_cell_length_a       9.079
_cell_length_b       11.1833
_cell_length_c       26.404
_cell_angle_alpha    90
_cell_angle_beta     90
_cell_angle_gamma    90

_symmetry_space_group_name_H-M    "P 1"
_symmetry_Int_Tables_number       1

loop_
  _symmetry_equiv_pos_as_xyz
  'x, y, z'

loop_
  _atom_site_type_symbol
  _atom_site_label
  _atom_site_symmetry_multiplicity
  _atom_site_fract_x
  _atom_site_fract_y
  _atom_site_fract_z
  _atom_site_occupancy
  _atom_site_charge
Ag  Ag1       1.0  0.22870  0.44020  0.60991  1.0000 0.2517332353
Ag  Ag2       1.0  0.72870  0.55980  0.39009  1.0000 0.2517332353
Ag  Ag3       1.0  0.22870  0.05980  0.10991  1.0000 0.2517332353
Ag  Ag4       1.0  0.72870  0.94020  0.89009  1.0000 0.2517332353
H   H1        1.0  0.92810  0.54130  0.57370  1.0000 0.1392619453
H   H2        1.0  0.87180  0.62000  0.49580  1.0000 0.1091665972
H   H3        1.0  0.72310  0.31410  0.44880  1.0000 0.1091665972
H   H4        1.0  0.77840  0.22540  0.52410  1.0000 0.1327917903
H   H5        1.0  0.68090  0.27230  0.74730  1.0000 0.1327917903
H   H6        1.0  0.62460  0.17120  0.82050  1.0000 0.1162419088
H   H7        1.0  0.92820  0.93820  0.79370  1.0000 0.0954354472
H   H8        1.0  0.98730  0.02760  0.71860  1.0000 0.1474335633
H   H9        1.0  0.68910  0.03980  0.63010  1.0000 0.1392619453
H   H10       1.0  0.43540  0.99170  0.61670  1.0000 0.1474335633
H   H11       1.0  0.27230  0.14610  0.60840  1.0000 0.1091665972
H   H12       1.0  0.58030  0.38380  0.62120  1.0000 0.1091665972
H   H13       1.0  0.42810  0.45870  0.42630  1.0000 0.1392619453
H   H14       1.0  0.37180  0.38000  0.50420  1.0000 0.1091665972
H   H15       1.0  0.22310  0.68590  0.55120  1.0000 0.1091665972
H   H16       1.0  0.27840  0.77460  0.47590  1.0000 0.1327917903
H   H17       1.0  0.18090  0.72770  0.25270  1.0000 0.1327917903
H   H18       1.0  0.12460  0.82880  0.17950  1.0000 0.1162419088
H   H19       1.0  0.42820  0.06180  0.20630  1.0000 0.0949246429
H   H20       1.0  0.48730  0.97240  0.28140  1.0000 0.1474335633
H   H21       1.0  0.18910  0.96020  0.36990  1.0000 0.1392619453
H   H22       1.0  0.93540  0.00830  0.38330  1.0000 0.1474335633
H   H23       1.0  0.77230  0.85390  0.39160  1.0000 0.1091665972
H   H24       1.0  0.08030  0.61620  0.37880  1.0000 0.1091665972
H   H25       1.0  0.92810  0.95870  0.07370  1.0000 0.1392619453
H   H26       1.0  0.87180  0.88000  0.99580  1.0000 0.1091665972
H   H27       1.0  0.72310  0.18590  0.94880  1.0000 0.1091665972
H   H28       1.0  0.77840  0.27460  0.02410  1.0000 0.1327917903
H   H29       1.0  0.68090  0.22770  0.24730  1.0000 0.1327917903
H   H30       1.0  0.62460  0.32880  0.32050  1.0000 0.1162419088
H   H31       1.0  0.92820  0.56180  0.29370  1.0000 0.0954354472
H   H32       1.0  0.98730  0.47240  0.21860  1.0000 0.1474335633
H   H33       1.0  0.68910  0.46020  0.13010  1.0000 0.1392619453
H   H34       1.0  0.43540  0.50830  0.11670  1.0000 0.1474335633
H   H35       1.0  0.27230  0.35390  0.10840  1.0000 0.1091665972
H   H36       1.0  0.58030  0.11620  0.12120  1.0000 0.1091665972
H   H37       1.0  0.42810  0.04130  0.92630  1.0000 0.1392619453
H   H38       1.0  0.37180  0.12000  0.00420  1.0000 0.1091665972
H   H39       1.0  0.22310  0.81410  0.05120  1.0000 0.1091665972
H   H40       1.0  0.27840  0.72540  0.97590  1.0000 0.1327917903
H   H41       1.0  0.18090  0.77230  0.75270  1.0000 0.1327917903
H   H42       1.0  0.12460  0.67120  0.67950  1.0000 0.1162419088
H   H43       1.0  0.42820  0.43820  0.70630  1.0000 0.0949246429
H   H44       1.0  0.48730  0.52760  0.78140  1.0000 0.1474335633
H   H45       1.0  0.18910  0.53980  0.86990  1.0000 0.1392619453
H   H46       1.0  0.93540  0.49170  0.88330  1.0000 0.1474335633
H   H47       1.0  0.77230  0.64610  0.89160  1.0000 0.1091665972
H   H48       1.0  0.08030  0.88380  0.87880  1.0000 0.1091665972
C   C1        1.0  0.88590  0.49340  0.54880  1.0000 -0.1820180523
C   C2        1.0  0.85220  0.53960  0.50180  1.0000 0.0711414555
C   C3        1.0  0.76550  0.36030  0.47420  1.0000 0.0816324476
C   C4        1.0  0.79680  0.30650  0.51950  1.0000 -0.1820180523
C   C5        1.0  0.85580  0.37390  0.55820  1.0000 0.0572831809
C   C6        1.0  0.89400  0.32300  0.60770  1.0000 0.2164805896
C   C7        1.0  0.89040  0.22870  0.67960  1.0000 0.2387767948
C   C8        1.0  0.84130  0.16260  0.72480  1.0000 0.0711414555
C   C9        1.0  0.73300  0.20360  0.75580  1.0000 -0.1820180523
C   C10       1.0  0.70040  0.14250  0.80010  1.0000 0.0816324476
C   C11       1.0  0.87650  0.00640  0.78420  1.0000 0.0572831809
C   C12       1.0  0.91420  0.06000  0.73900  1.0000 -0.150872589
C   C13       1.0  0.65590  0.21800  0.62810  1.0000 0.1091665972
C   C14       1.0  0.61850  0.09940  0.62620  1.0000 -0.1341492244
C   C15       1.0  0.46740  0.07060  0.61830  1.0000 -0.1108631425
C   C16       1.0  0.37130  0.16420  0.61300  1.0000 0.0572831809
C   C17       1.0  0.55090  0.30410  0.62110  1.0000 -0.0444964402
C   C18       1.0  0.38590  0.50660  0.45120  1.0000 -0.1820180523
C   C19       1.0  0.35220  0.46040  0.49820  1.0000 0.0711414555
C   C20       1.0  0.26550  0.63970  0.52580  1.0000 0.0816324476
C   C21       1.0  0.29680  0.69350  0.48050  1.0000 -0.1820180523
C   C22       1.0  0.35580  0.62610  0.44180  1.0000 0.0572831809
C   C23       1.0  0.39400  0.67700  0.39230  1.0000 0.2164805896
C   C24       1.0  0.39040  0.77130  0.32040  1.0000 0.2387767948
C   C25       1.0  0.34130  0.83740  0.27520  1.0000 0.0711414555
C   C26       1.0  0.23300  0.79640  0.24420  1.0000 -0.1820180523
C   C27       1.0  0.20040  0.85750  0.19990  1.0000 0.0816324476
C   C28       1.0  0.37650  0.99360  0.21580  1.0000 0.0572831809
C   C29       1.0  0.41420  0.94000  0.26100  1.0000 -0.150872589
C   C30       1.0  0.15590  0.78200  0.37190  1.0000 0.1091665972
C   C31       1.0  0.11850  0.90060  0.37380  1.0000 -0.1341492244
C   C32       1.0  0.96740  0.92940  0.38170  1.0000 -0.1108631425
C   C33       1.0  0.87130  0.83580  0.38700  1.0000 0.0572831809
C   C34       1.0  0.05090  0.69590  0.37890  1.0000 -0.0455204778
C   C35       1.0  0.88590  0.00660  0.04880  1.0000 -0.1820180523
C   C36       1.0  0.85220  0.96040  0.00180  1.0000 0.0711414555
C   C37       1.0  0.76550  0.13970  0.97420  1.0000 0.0816324476
C   C38       1.0  0.79680  0.19350  0.01950  1.0000 -0.1820180523
C   C39       1.0  0.85580  0.12610  0.05820  1.0000 0.0572831809
C   C40       1.0  0.89400  0.17700  0.10770  1.0000 0.2164805896
C   C41       1.0  0.89040  0.27130  0.17960  1.0000 0.2387767948
C   C42       1.0  0.84130  0.33740  0.22480  1.0000 0.0711414555
C   C43       1.0  0.73300  0.29640  0.25580  1.0000 -0.1820180523
C   C44       1.0  0.70040  0.35750  0.30010  1.0000 0.0816324476
C   C45       1.0  0.87650  0.49360  0.28420  1.0000 0.0572831809
C   C46       1.0  0.91420  0.44000  0.23900  1.0000 -0.150872589
C   C47       1.0  0.65590  0.28200  0.12810  1.0000 0.1091665972
C   C48       1.0  0.61850  0.40060  0.12620  1.0000 -0.1341492244
C   C49       1.0  0.46740  0.42940  0.11830  1.0000 -0.1108631425
C   C50       1.0  0.37130  0.33580  0.11300  1.0000 0.0572831809
C   C51       1.0  0.55090  0.19590  0.12110  1.0000 -0.0444964402
C   C52       1.0  0.38590  0.99340  0.95120  1.0000 -0.1820180523
C   C53       1.0  0.35220  0.03960  0.99820  1.0000 0.0711414555
C   C54       1.0  0.26550  0.86030  0.02580  1.0000 0.0816324476
C   C55       1.0  0.29680  0.80650  0.98050  1.0000 -0.1820180523
C   C56       1.0  0.35580  0.87390  0.94180  1.0000 0.0572831809
C   C57       1.0  0.39400  0.82300  0.89230  1.0000 0.2164805896
C   C58       1.0  0.39040  0.72870  0.82040  1.0000 0.2387767948
C   C59       1.0  0.34130  0.66260  0.77520  1.0000 0.0711414555
C   C60       1.0  0.23300  0.70360  0.74420  1.0000 -0.1820180523
C   C61       1.0  0.20040  0.64250  0.69990  1.0000 0.0816324476
C   C62       1.0  0.37650  0.50640  0.71580  1.0000 0.0572831809
C   C63       1.0  0.41420  0.56000  0.76100  1.0000 -0.150872589
C   C64       1.0  0.15590  0.71800  0.87190  1.0000 0.1091665972
C   C65       1.0  0.11850  0.59940  0.87380  1.0000 -0.1341492244
C   C66       1.0  0.96740  0.57060  0.88170  1.0000 -0.1108631425
C   C67       1.0  0.87130  0.66420  0.88700  1.0000 0.0572831809
C   C68       1.0  0.05090  0.80410  0.87890  1.0000 -0.0455204778
C   C69       1.0  0.97000  0.93170  0.53870  1.0000 0.4338627822
C   C70       1.0  0.47000  0.06830  0.46130  1.0000 0.4338627822
C   C71       1.0  0.97000  0.56830  0.03870  1.0000 0.4338627822
C   C72       1.0  0.47000  0.43170  0.96130  1.0000 0.4338627822
S   S1        1.0  0.02930  0.88890  0.60120  1.0000 0.9672511436
S   S2        1.0  0.52930  0.11110  0.39880  1.0000 0.9672511436
S   S3        1.0  0.02930  0.61110  0.10120  1.0000 0.9672511436
S   S4        1.0  0.52930  0.38890  0.89880  1.0000 0.9672511436
N   N1        1.0  0.79250  0.47490  0.46440  1.0000 -0.1989629723
N   N2        1.0  0.02390  0.33670  0.63030  1.0000 -0.1901931733
N   N3        1.0  0.01910  0.27600  0.67542  1.0000 -0.22807137
N   N4        1.0  0.80600  0.25330  0.63759  1.0000 -0.0889006414
N   N5        1.0  0.77220  0.04500  0.81500  1.0000 -0.1989629723
N   N6        1.0  0.40910  0.27980  0.61410  1.0000 -0.1901931733
N   N7        1.0  0.29250  0.52510  0.53560  1.0000 -0.1989629723
N   N8        1.0  0.52390  0.66330  0.36970  1.0000 -0.1901931733
N   N9        1.0  0.51910  0.72400  0.32458  1.0000 -0.22807137
N   N10       1.0  0.30600  0.74670  0.36241  1.0000 -0.0889006414
N   N11       1.0  0.27220  0.95500  0.18500  1.0000 -0.1989629723
N   N12       1.0  0.90910  0.72020  0.38590  1.0000 -0.1901931733
N   N13       1.0  0.79250  0.02510  0.96440  1.0000 -0.1989629723
N   N14       1.0  0.02390  0.16330  0.13030  1.0000 -0.1901931733
N   N15       1.0  0.01910  0.22400  0.17542  1.0000 -0.22807137
N   N16       1.0  0.80600  0.24670  0.13759  1.0000 -0.0889006414
N   N17       1.0  0.77220  0.45500  0.31500  1.0000 -0.1989629723
N   N18       1.0  0.40910  0.22020  0.11410  1.0000 -0.1901931733
N   N19       1.0  0.29250  0.97490  0.03560  1.0000 -0.1989629723
N   N20       1.0  0.52390  0.83670  0.86970  1.0000 -0.1901931733
N   N21       1.0  0.51910  0.77600  0.82458  1.0000 -0.22807137
N   N22       1.0  0.30600  0.75330  0.86241  1.0000 -0.0889006414
N   N23       1.0  0.27220  0.54500  0.68500  1.0000 -0.1989629723
N   N24       1.0  0.90910  0.77980  0.88590  1.0000 -0.1901931733
O   O1        1.0  0.18460  0.89600  0.59800  1.0000 -0.5490702175
O   O2        1.0  0.95290  0.96000  0.63180  1.0000 -0.51917369
O   O3        1.0  0.99220  0.76530  0.60020  1.0000 -0.5588882648
O   O4        1.0  0.68460  0.10400  0.40200  1.0000 -0.5490702175
O   O5        1.0  0.45290  0.04000  0.36820  1.0000 -0.51917369
O   O6        1.0  0.49220  0.23470  0.39980  1.0000 -0.5588882648
O   O7        1.0  0.18460  0.60400  0.09800  1.0000 -0.5490702175
O   O8        1.0  0.95290  0.54000  0.13180  1.0000 -0.51917369
O   O9        1.0  0.99220  0.73470  0.10020  1.0000 -0.5588882648
O   O10       1.0  0.68460  0.39600  0.90200  1.0000 -0.5490702175
O   O11       1.0  0.45290  0.46000  0.86820  1.0000 -0.51917369
O   O12       1.0  0.49220  0.26530  0.89980  1.0000 -0.5588882648
F   F1        1.0  0.83560  0.94370  0.53620  1.0000 -0.150872589
F   F2        1.0  0.02240  0.87450  0.50530  1.0000 -0.150872589
F   F3        1.0  0.01400  0.04650  0.53470  1.0000 -0.170622208
F   F4        1.0  0.33560  0.05630  0.46380  1.0000 -0.150872589
F   F5        1.0  0.52240  0.12550  0.49470  1.0000 -0.150872589
F   F6        1.0  0.51400  0.95350  0.46530  1.0000 -0.170622208
F   F7        1.0  0.83560  0.55630  0.03620  1.0000 -0.150872589
F   F8        1.0  0.02240  0.62550  0.00530  1.0000 -0.150872589
F   F9        1.0  0.01400  0.45350  0.03470  1.0000 -0.170622208
F   F10       1.0  0.33560  0.44370  0.96380  1.0000 -0.150872589
F   F11       1.0  0.52240  0.37450  0.99470  1.0000 -0.150872589
F   F12       1.0  0.51400  0.54650  0.96530  1.0000 -0.170622208
