# DDEC6 charges by PACMAN v1.1 (https://github.com/mtap-research/PACMAN-charge/)
data_2019[Mg][nan]3[ION]1
_chemical_formula_sum              "Mg8 H76 C80 N4 O40"
_cell_length_a       12.5072
_cell_length_b       15.746
_cell_length_c       16.3848
_cell_angle_alpha    90
_cell_angle_beta     90
_cell_angle_gamma    90

_symmetry_space_group_name_H-M    "P 1"
_symmetry_Int_Tables_number       1

loop_
  _symmetry_equiv_pos_as_xyz
  'x, y, z'

loop_
  _atom_site_type_symbol
  _atom_site_label
  _atom_site_symmetry_multiplicity
  _atom_site_fract_x
  _atom_site_fract_y
  _atom_site_fract_z
  _atom_site_occupancy
  _atom_site_charge
Mg  Mg1       1.0  0.51343  0.76307  0.99996  1.0000 1.3892507956
Mg  Mg2       1.0  0.26259  0.74342  0.11030  1.0000 1.3483651087
Mg  Mg3       1.0  0.98657  0.23693  0.49996  1.0000 1.3892507956
Mg  Mg4       1.0  0.23741  0.25658  0.61030  1.0000 1.3483651087
Mg  Mg5       1.0  0.48657  0.26307  0.50004  1.0000 1.3892507956
Mg  Mg6       1.0  0.73741  0.24342  0.38970  1.0000 1.3483651087
Mg  Mg7       1.0  0.01343  0.73693  0.00004  1.0000 1.3892507956
Mg  Mg8       1.0  0.76259  0.75658  0.88970  1.0000 1.3483651087
H   H1        1.0  0.38385  0.94448  0.83638  1.0000 0.1288406708
H   H2        1.0  0.32161  0.04722  0.74759  1.0000 0.120339193
H   H3        1.0  0.60126  0.04286  0.62902  1.0000 0.120339193
H   H4        1.0  0.65870  0.93316  0.71114  1.0000 0.120339193
H   H5        1.0  0.34547  0.55805  0.23967  1.0000 0.120339193
H   H6        1.0  0.38641  0.45191  0.33023  1.0000 0.120339193
H   H7        1.0  0.64658  0.39452  0.19887  1.0000 0.120339193
H   H8        1.0  0.61222  0.50715  0.11293  1.0000 0.1288406708
H   H9        1.0  0.77963  0.80272  0.15520  1.0000 0.1607719019
H   H10       1.0  0.81315  0.70679  0.15465  1.0000 0.1607719019
H   H11       1.0  0.69181  0.73171  0.15360  1.0000 0.1685354218
H   H12       1.0  0.11615  0.05552  0.33638  1.0000 0.1288406708
H   H13       1.0  0.17839  0.95278  0.24759  1.0000 0.120339193
H   H14       1.0  0.89874  0.95714  0.12902  1.0000 0.120339193
H   H15       1.0  0.84130  0.06684  0.21114  1.0000 0.120339193
H   H16       1.0  0.15453  0.44195  0.73967  1.0000 0.120339193
H   H17       1.0  0.11359  0.54809  0.83023  1.0000 0.120339193
H   H18       1.0  0.85342  0.60548  0.69887  1.0000 0.120339193
H   H19       1.0  0.88778  0.49285  0.61293  1.0000 0.1288406708
H   H20       1.0  0.72037  0.19728  0.65520  1.0000 0.1607719019
H   H21       1.0  0.68685  0.29321  0.65465  1.0000 0.1607719019
H   H22       1.0  0.80819  0.26829  0.65360  1.0000 0.1685354218
H   H23       1.0  0.61615  0.44448  0.66362  1.0000 0.1288406708
H   H24       1.0  0.67839  0.54722  0.75241  1.0000 0.120339193
H   H25       1.0  0.39874  0.54286  0.87098  1.0000 0.120339193
H   H26       1.0  0.34130  0.43316  0.78886  1.0000 0.120339193
H   H27       1.0  0.65453  0.05805  0.26033  1.0000 0.120339193
H   H28       1.0  0.61359  0.95191  0.16977  1.0000 0.120339193
H   H29       1.0  0.35342  0.89452  0.30113  1.0000 0.120339193
H   H30       1.0  0.38778  0.00715  0.38707  1.0000 0.1288406708
H   H31       1.0  0.22037  0.30272  0.34480  1.0000 0.1607719019
H   H32       1.0  0.18685  0.20679  0.34535  1.0000 0.1607719019
H   H33       1.0  0.30819  0.23171  0.34640  1.0000 0.1685354218
H   H34       1.0  0.88385  0.55552  0.16362  1.0000 0.1288406708
H   H35       1.0  0.82161  0.45278  0.25241  1.0000 0.120339193
H   H36       1.0  0.10126  0.45714  0.37098  1.0000 0.120339193
H   H37       1.0  0.15870  0.56684  0.28886  1.0000 0.120339193
H   H38       1.0  0.84547  0.94195  0.76033  1.0000 0.120339193
H   H39       1.0  0.88641  0.04809  0.66977  1.0000 0.120339193
H   H40       1.0  0.14658  0.10548  0.80113  1.0000 0.120339193
H   H41       1.0  0.11222  0.99285  0.88707  1.0000 0.1288406708
H   H42       1.0  0.27963  0.69728  0.84480  1.0000 0.1607719019
H   H43       1.0  0.31315  0.79321  0.84535  1.0000 0.1607719019
H   H44       1.0  0.19181  0.76829  0.84640  1.0000 0.1685354218
H   H45       1.0  0.17651  0.46233  0.94865  1.0000 0.1288406708
H   H46       1.0  0.23033  0.55192  0.95599  1.0000 0.1398990333
H   H47       1.0  0.12499  0.53224  0.00427  1.0000 0.1545636199
H   H48       1.0  0.27681  0.52401  0.08145  1.0000 0.265616487
H   H49       1.0  0.31184  0.45273  0.03407  1.0000 0.2507323727
H   H50       1.0  0.14322  0.45011  0.13745  1.0000 0.1288406708
H   H51       1.0  0.25184  0.40267  0.15161  1.0000 0.1288406708
H   H52       1.0  0.17427  0.37265  0.08221  1.0000 0.1398990333
H   H53       1.0  0.32349  0.53767  0.44865  1.0000 0.1288406708
H   H54       1.0  0.26967  0.44808  0.45599  1.0000 0.1398990333
H   H55       1.0  0.37501  0.46776  0.50427  1.0000 0.1545636199
H   H56       1.0  0.22319  0.47599  0.58145  1.0000 0.265616487
H   H57       1.0  0.18816  0.54727  0.53407  1.0000 0.2507323727
H   H58       1.0  0.35678  0.54989  0.63745  1.0000 0.1288406708
H   H59       1.0  0.24816  0.59733  0.65161  1.0000 0.1288406708
H   H60       1.0  0.32573  0.62735  0.58221  1.0000 0.1398990333
H   H61       1.0  0.82349  0.96233  0.55135  1.0000 0.1288406708
H   H62       1.0  0.76967  0.05192  0.54401  1.0000 0.1398990333
H   H63       1.0  0.87501  0.03224  0.49573  1.0000 0.1545636199
H   H64       1.0  0.72319  0.02401  0.41855  1.0000 0.265616487
H   H65       1.0  0.68816  0.95273  0.46593  1.0000 0.2507323727
H   H66       1.0  0.85678  0.95011  0.36255  1.0000 0.1288406708
H   H67       1.0  0.74816  0.90267  0.34839  1.0000 0.1288406708
H   H68       1.0  0.82573  0.87265  0.41779  1.0000 0.1398990333
H   H69       1.0  0.67651  0.03767  0.05135  1.0000 0.1288406708
H   H70       1.0  0.73033  0.94808  0.04401  1.0000 0.1398990333
H   H71       1.0  0.62499  0.96776  0.99573  1.0000 0.1545636199
H   H72       1.0  0.77681  0.97599  0.91855  1.0000 0.265616487
H   H73       1.0  0.81184  0.04727  0.96593  1.0000 0.2507323727
H   H74       1.0  0.64322  0.04989  0.86255  1.0000 0.1288406708
H   H75       1.0  0.75184  0.09733  0.84839  1.0000 0.1288406708
H   H76       1.0  0.67427  0.12735  0.91779  1.0000 0.1398990333
C   C1        1.0  0.52890  0.92910  0.78410  1.0000 -0.0299413594
C   C2        1.0  0.42740  0.96360  0.79420  1.0000 -0.1107660241
C   C3        1.0  0.39070  0.02620  0.74180  1.0000 -0.1019956315
C   C4        1.0  0.45630  0.05740  0.68100  1.0000 -0.0136481964
C   C5        1.0  0.55700  0.02250  0.67020  1.0000 -0.1180385905
C   C6        1.0  0.59220  0.95770  0.72030  1.0000 -0.1180385905
C   C7        1.0  0.57170  0.86420  0.84400  1.0000 0.6012122885
C   C8        1.0  0.41870  0.13030  0.62790  1.0000 0.6192775026
C   C9        1.0  0.47500  0.54490  0.16770  1.0000 -0.0299413594
C   C10       1.0  0.40750  0.52640  0.23240  1.0000 -0.1284748249
C   C11       1.0  0.43100  0.46210  0.28590  1.0000 -0.1107660241
C   C12       1.0  0.52090  0.41210  0.27420  1.0000 -0.0177887979
C   C13       1.0  0.58720  0.42870  0.20810  1.0000 -0.1019956315
C   C14       1.0  0.56590  0.49530  0.15590  1.0000 -0.1180385905
C   C15       1.0  0.44750  0.61790  0.11190  1.0000 0.6012122885
C   C16       1.0  0.54850  0.34390  0.33630  1.0000 0.6192775026
C   C17       1.0  0.76350  0.74820  0.04400  1.0000 0.7189891145
C   C18       1.0  0.76190  0.74730  0.13500  1.0000 -0.6066107646
C   C19       1.0  0.97110  0.07090  0.28410  1.0000 -0.0299413594
C   C20       1.0  0.07260  0.03640  0.29420  1.0000 -0.1107660241
C   C21       1.0  0.10930  0.97380  0.24180  1.0000 -0.1019956315
C   C22       1.0  0.04370  0.94260  0.18100  1.0000 -0.0136481964
C   C23       1.0  0.94300  0.97750  0.17020  1.0000 -0.1180385905
C   C24       1.0  0.90780  0.04230  0.22030  1.0000 -0.1180385905
C   C25       1.0  0.92830  0.13580  0.34400  1.0000 0.6012122885
C   C26       1.0  0.08130  0.86970  0.12790  1.0000 0.6192775026
C   C27       1.0  0.02500  0.45510  0.66770  1.0000 -0.0299413594
C   C28       1.0  0.09250  0.47360  0.73240  1.0000 -0.1284748249
C   C29       1.0  0.06900  0.53790  0.78590  1.0000 -0.1107660241
C   C30       1.0  0.97910  0.58790  0.77420  1.0000 -0.0177887979
C   C31       1.0  0.91280  0.57130  0.70810  1.0000 -0.1019956315
C   C32       1.0  0.93410  0.50470  0.65590  1.0000 -0.1180385905
C   C33       1.0  0.05250  0.38210  0.61190  1.0000 0.6012122885
C   C34       1.0  0.95150  0.65610  0.83630  1.0000 0.6192775026
C   C35       1.0  0.73650  0.25180  0.54400  1.0000 0.7189891145
C   C36       1.0  0.73810  0.25270  0.63500  1.0000 -0.6066107646
C   C37       1.0  0.47110  0.42910  0.71590  1.0000 -0.0299413594
C   C38       1.0  0.57260  0.46360  0.70580  1.0000 -0.1107660241
C   C39       1.0  0.60930  0.52620  0.75820  1.0000 -0.1019956315
C   C40       1.0  0.54370  0.55740  0.81900  1.0000 -0.0136481964
C   C41       1.0  0.44300  0.52250  0.82980  1.0000 -0.1180385905
C   C42       1.0  0.40780  0.45770  0.77970  1.0000 -0.1180385905
C   C43       1.0  0.42830  0.36420  0.65600  1.0000 0.6012122885
C   C44       1.0  0.58130  0.63030  0.87210  1.0000 0.6192775026
C   C45       1.0  0.52500  0.04490  0.33230  1.0000 -0.0299413594
C   C46       1.0  0.59250  0.02640  0.26760  1.0000 -0.1284748249
C   C47       1.0  0.56900  0.96210  0.21410  1.0000 -0.1107660241
C   C48       1.0  0.47910  0.91210  0.22580  1.0000 -0.0177887979
C   C49       1.0  0.41280  0.92870  0.29190  1.0000 -0.1019956315
C   C50       1.0  0.43410  0.99530  0.34410  1.0000 -0.1180385905
C   C51       1.0  0.55250  0.11790  0.38810  1.0000 0.6012122885
C   C52       1.0  0.45150  0.84390  0.16370  1.0000 0.6192775026
C   C53       1.0  0.23650  0.24820  0.45600  1.0000 0.7189891145
C   C54       1.0  0.23810  0.24730  0.36500  1.0000 -0.6066107646
C   C55       1.0  0.02890  0.57090  0.21590  1.0000 -0.0299413594
C   C56       1.0  0.92740  0.53640  0.20580  1.0000 -0.1107660241
C   C57       1.0  0.89070  0.47380  0.25820  1.0000 -0.1019956315
C   C58       1.0  0.95630  0.44260  0.31900  1.0000 -0.0136481964
C   C59       1.0  0.05700  0.47750  0.32980  1.0000 -0.1180385905
C   C60       1.0  0.09220  0.54230  0.27970  1.0000 -0.1180385905
C   C61       1.0  0.07170  0.63580  0.15600  1.0000 0.6012122885
C   C62       1.0  0.91870  0.36970  0.37210  1.0000 0.6192775026
C   C63       1.0  0.97500  0.95510  0.83230  1.0000 -0.0299413594
C   C64       1.0  0.90750  0.97360  0.76760  1.0000 -0.1284748249
C   C65       1.0  0.93100  0.03790  0.71410  1.0000 -0.1107660241
C   C66       1.0  0.02090  0.08790  0.72580  1.0000 -0.0177887979
C   C67       1.0  0.08720  0.07130  0.79190  1.0000 -0.1019956315
C   C68       1.0  0.06590  0.00470  0.84410  1.0000 -0.1180385905
C   C69       1.0  0.94750  0.88210  0.88810  1.0000 0.6012122885
C   C70       1.0  0.04850  0.15610  0.66370  1.0000 0.6192775026
C   C71       1.0  0.26350  0.75180  0.95600  1.0000 0.7189891145
C   C72       1.0  0.26190  0.75270  0.86500  1.0000 -0.6066107646
C   C73       1.0  0.19110  0.50890  0.98480  1.0000 -0.2924826004
C   C74       1.0  0.20130  0.42110  0.11120  1.0000 -0.2924826004
C   C75       1.0  0.30890  0.49110  0.48480  1.0000 -0.2924826004
C   C76       1.0  0.29870  0.57890  0.61120  1.0000 -0.2924826004
C   C77       1.0  0.80890  0.00890  0.51520  1.0000 -0.2924826004
C   C78       1.0  0.79870  0.92110  0.38880  1.0000 -0.2924826004
C   C79       1.0  0.69110  0.99110  0.01520  1.0000 -0.2924826004
C   C80       1.0  0.70130  0.07890  0.88880  1.0000 -0.2924826004
N   N1        1.0  0.25420  0.47890  0.05370  1.0000 -0.1019956315
N   N2        1.0  0.24580  0.52110  0.55370  1.0000 -0.1019956315
N   N3        1.0  0.74580  0.97890  0.44630  1.0000 -0.1019956315
N   N4        1.0  0.75420  0.02110  0.94630  1.0000 -0.1019956315
O   O1        1.0  0.52020  0.85410  0.90860  1.0000 -0.6195783361
O   O2        1.0  0.65690  0.82690  0.82450  1.0000 -0.6399857372
O   O3        1.0  0.32000  0.14670  0.62980  1.0000 -0.6318048581
O   O4        1.0  0.48790  0.16950  0.58790  1.0000 -0.6318048581
O   O5        1.0  0.34810  0.63041  0.10120  1.0000 -0.6607338384
O   O6        1.0  0.52150  0.66110  0.08260  1.0000 -0.6066107646
O   O7        1.0  0.62330  0.29380  0.31760  1.0000 -0.6399857372
O   O8        1.0  0.49650  0.34390  0.40120  1.0000 -0.6195783361
O   O9        1.0  0.68160  0.77193  0.00475  1.0000 -0.6931882694
O   O10       1.0  0.84480  0.72592  0.00417  1.0000 -0.6683369323
O   O11       1.0  0.97980  0.14590  0.40860  1.0000 -0.6195783361
O   O12       1.0  0.84310  0.17310  0.32450  1.0000 -0.6399857372
O   O13       1.0  0.18000  0.85330  0.12980  1.0000 -0.6318048581
O   O14       1.0  0.01210  0.83050  0.08790  1.0000 -0.6318048581
O   O15       1.0  0.15190  0.36959  0.60120  1.0000 -0.6607338384
O   O16       1.0  0.97850  0.33890  0.58260  1.0000 -0.6066107646
O   O17       1.0  0.87670  0.70620  0.81760  1.0000 -0.6399857372
O   O18       1.0  0.00350  0.65610  0.90120  1.0000 -0.6195783361
O   O19       1.0  0.81840  0.22807  0.50475  1.0000 -0.6931882694
O   O20       1.0  0.65520  0.27408  0.50417  1.0000 -0.6683369323
O   O21       1.0  0.47980  0.35410  0.59140  1.0000 -0.6195783361
O   O22       1.0  0.34310  0.32690  0.67550  1.0000 -0.6399857372
O   O23       1.0  0.68000  0.64670  0.87020  1.0000 -0.6318048581
O   O24       1.0  0.51210  0.66950  0.91210  1.0000 -0.6318048581
O   O25       1.0  0.65190  0.13041  0.39880  1.0000 -0.6607338384
O   O26       1.0  0.47850  0.16110  0.41740  1.0000 -0.6066107646
O   O27       1.0  0.37670  0.79380  0.18240  1.0000 -0.6399857372
O   O28       1.0  0.50350  0.84390  0.09880  1.0000 -0.6195783361
O   O29       1.0  0.31840  0.27193  0.49525  1.0000 -0.6931882694
O   O30       1.0  0.15520  0.22592  0.49583  1.0000 -0.6683369323
O   O31       1.0  0.02020  0.64590  0.09140  1.0000 -0.6195783361
O   O32       1.0  0.15690  0.67310  0.17550  1.0000 -0.6399857372
O   O33       1.0  0.82000  0.35330  0.37020  1.0000 -0.6318048581
O   O34       1.0  0.98790  0.33050  0.41210  1.0000 -0.6318048581
O   O35       1.0  0.84810  0.86959  0.89880  1.0000 -0.6607338384
O   O36       1.0  0.02150  0.83890  0.91740  1.0000 -0.6066107646
O   O37       1.0  0.12330  0.20620  0.68240  1.0000 -0.6399857372
O   O38       1.0  0.99650  0.15610  0.59880  1.0000 -0.6195783361
O   O39       1.0  0.18160  0.72807  0.99525  1.0000 -0.6931882694
O   O40       1.0  0.34480  0.77408  0.99583  1.0000 -0.6683369323
