# DDEC6 charges by PACMAN v1.1 (https://github.com/mtap-research/PACMAN-charge/)
data_2019[Ag][nan]2[ION]2
_chemical_formula_sum              "Ag2 B2 H30 C48 N6 O12 F8"
_cell_length_a       17.4622
_cell_length_b       17.4622
_cell_length_c       12.087
_cell_angle_alpha    78.4324
_cell_angle_beta     101.568
_cell_angle_gamma    151.115

_symmetry_space_group_name_H-M    "P 1"
_symmetry_Int_Tables_number       1

loop_
  _symmetry_equiv_pos_as_xyz
  'x, y, z'

loop_
  _atom_site_type_symbol
  _atom_site_label
  _atom_site_symmetry_multiplicity
  _atom_site_fract_x
  _atom_site_fract_y
  _atom_site_fract_z
  _atom_site_occupancy
  _atom_site_charge
Ag  Ag1       1.0  0.60990  0.40850  0.79138  1.0000 0.2761930336
Ag  Ag2       1.0  0.40850  0.60990  0.20862  1.0000 0.2761930336
B   B1        1.0  0.83900  0.00500  0.14600  1.0000 0.922123607
B   B2        1.0  0.00500  0.83900  0.85400  1.0000 0.922123607
H   H1        1.0  0.68527  0.64075  0.68067  1.0000 0.1110587937
H   H2        1.0  0.58916  0.67758  0.60675  1.0000 0.1481233745
H   H3        1.0  0.14849  0.20281  0.61625  1.0000 0.1384462786
H   H4        1.0  0.26705  0.18185  0.71731  1.0000 0.0993548234
H   H5        1.0  0.48852  0.79732  0.99202  1.0000 0.1110587937
H   H6        1.0  0.41087  0.77527  0.80540  1.0000 0.1481233745
H   H7        1.0  0.05174  0.31240  0.83853  1.0000 0.1384462786
H   H8        1.0  0.13202  0.34254  0.02484  1.0000 0.1110587937
H   H9        1.0  0.88713  0.65567  0.62541  1.0000 0.0993548234
H   H10       1.0  0.00840  0.68758  0.51040  1.0000 0.1312961724
H   H11       1.0  0.75098  0.27836  0.65953  1.0000 0.1312961724
H   H12       1.0  0.63960  0.26206  0.76773  1.0000 0.0993548234
H   H13       1.0  0.86294  0.33872  0.31368  1.0000 0.1384462786
H   H14       1.0  0.91657  0.28099  0.22085  1.0000 0.1177621518
H   H15       1.0  0.03928  0.27318  0.32174  1.0000 0.1384462786
H   H16       1.0  0.64075  0.68527  0.31933  1.0000 0.1110587937
H   H17       1.0  0.67758  0.58916  0.39325  1.0000 0.1481233745
H   H18       1.0  0.20281  0.14849  0.38375  1.0000 0.1384462786
H   H19       1.0  0.18185  0.26705  0.28269  1.0000 0.0993548234
H   H20       1.0  0.79732  0.48852  0.00798  1.0000 0.1110587937
H   H21       1.0  0.77527  0.41087  0.19460  1.0000 0.1481233745
H   H22       1.0  0.31240  0.05174  0.16147  1.0000 0.1384462786
H   H23       1.0  0.34254  0.13202  0.97516  1.0000 0.1110587937
H   H24       1.0  0.65567  0.88713  0.37459  1.0000 0.0993548234
H   H25       1.0  0.68758  0.00840  0.48960  1.0000 0.1312961724
H   H26       1.0  0.27836  0.75098  0.34047  1.0000 0.1312961724
H   H27       1.0  0.26206  0.63960  0.23227  1.0000 0.0993548234
H   H28       1.0  0.33872  0.86294  0.68632  1.0000 0.1384462786
H   H29       1.0  0.28099  0.91657  0.77915  1.0000 0.1177621518
H   H30       1.0  0.27318  0.03928  0.67826  1.0000 0.1384462786
C   C1        1.0  0.57330  0.54950  0.67210  1.0000 0.022921352
C   C2        1.0  0.51940  0.57380  0.62640  1.0000 -0.1322375427
C   C3        1.0  0.36310  0.44550  0.60980  1.0000 0.0106458065
C   C4        1.0  0.25930  0.29390  0.63450  1.0000 -0.1626801531
C   C5        1.0  0.33300  0.28300  0.69168  1.0000 0.0993548234
C   C6        1.0  0.28870  0.46090  0.55630  1.0000 0.534706976
C   C7        1.0  0.39540  0.69580  0.96090  1.0000 0.0704243115
C   C8        1.0  0.35210  0.68390  0.85010  1.0000 -0.1539250577
C   C9        1.0  0.22490  0.54110  0.80370  1.0000 0.022921352
C   C10       1.0  0.14230  0.41430  0.86890  1.0000 -0.1539250577
C   C11       1.0  0.18970  0.43310  0.97920  1.0000 0.0704243115
C   C12       1.0  0.18440  0.53420  0.67610  1.0000 0.5351295133
C   C13       1.0  0.85780  0.57680  0.63130  1.0000 0.0993548234
C   C14       1.0  0.93118  0.59782  0.56148  1.0000 -0.1322375427
C   C15       1.0  0.88450  0.47970  0.57170  1.0000 0.022921352
C   C16       1.0  0.77940  0.35680  0.64930  1.0000 -0.1351621489
C   C17       1.0  0.71420  0.34860  0.71380  1.0000 0.0704243115
C   C18       1.0  0.95310  0.49270  0.49510  1.0000 0.5242789646
C   C19       1.0  0.06870  0.33710  0.46420  1.0000 0.1481233745
C   C20       1.0  0.03750  0.37050  0.52310  1.0000 0.0704243115
C   C21       1.0  0.96000  0.36720  0.46690  1.0000 0.1683038657
C   C22       1.0  0.91410  0.33690  0.35340  1.0000 -0.1986542235
C   C23       1.0  0.94660  0.30280  0.29870  1.0000 -0.0492122474
C   C24       1.0  0.02200  0.30060  0.35790  1.0000 -0.1986542235
C   C25       1.0  0.54950  0.57330  0.32790  1.0000 0.022921352
C   C26       1.0  0.57380  0.51940  0.37360  1.0000 -0.1322375427
C   C27       1.0  0.44550  0.36310  0.39020  1.0000 0.0106458065
C   C28       1.0  0.29390  0.25930  0.36550  1.0000 -0.1626801531
C   C29       1.0  0.28300  0.33300  0.30832  1.0000 0.0993548234
C   C30       1.0  0.46090  0.28870  0.44370  1.0000 0.534706976
C   C31       1.0  0.69580  0.39540  0.03910  1.0000 0.0704243115
C   C32       1.0  0.68390  0.35210  0.14990  1.0000 -0.1539250577
C   C33       1.0  0.54110  0.22490  0.19630  1.0000 0.022921352
C   C34       1.0  0.41430  0.14230  0.13110  1.0000 -0.1539250577
C   C35       1.0  0.43310  0.18970  0.02080  1.0000 0.0704243115
C   C36       1.0  0.53420  0.18440  0.32390  1.0000 0.534706976
C   C37       1.0  0.57680  0.85780  0.36870  1.0000 0.0993548234
C   C38       1.0  0.59782  0.93118  0.43852  1.0000 -0.1322375427
C   C39       1.0  0.47970  0.88450  0.42830  1.0000 0.022921352
C   C40       1.0  0.35680  0.77940  0.35070  1.0000 -0.1351621489
C   C41       1.0  0.34860  0.71420  0.28620  1.0000 0.0704243115
C   C42       1.0  0.49270  0.95310  0.50490  1.0000 0.5242789646
C   C43       1.0  0.33710  0.06870  0.53580  1.0000 0.1481233745
C   C44       1.0  0.37050  0.03750  0.47690  1.0000 0.0704243115
C   C45       1.0  0.36720  0.96000  0.53310  1.0000 0.1683038657
C   C46       1.0  0.33690  0.91410  0.64660  1.0000 -0.1986542235
C   C47       1.0  0.30280  0.94660  0.70130  1.0000 -0.0492122474
C   C48       1.0  0.30060  0.02200  0.64210  1.0000 -0.1986542235
N   N1        1.0  0.48470  0.40790  0.70750  1.0000 -0.182492141
N   N2        1.0  0.31090  0.56930  0.02650  1.0000 -0.1886283497
N   N3        1.0  0.75260  0.45720  0.70300  1.0000 -0.1729492212
N   N4        1.0  0.40790  0.48470  0.29250  1.0000 -0.182492141
N   N5        1.0  0.56930  0.31090  0.97350  1.0000 -0.1886283497
N   N6        1.0  0.45720  0.75260  0.29700  1.0000 -0.1729492212
O   O1        1.0  0.36690  0.58770  0.55120  1.0000 -0.4575675095
O   O2        1.0  0.14427  0.33333  0.52437  1.0000 -0.236139972
O   O3        1.0  0.23890  0.63650  0.61930  1.0000 -0.4109580259
O   O4        1.0  0.07771  0.39209  0.64001  1.0000 -0.2290302406
O   O5        1.0  0.02630  0.58250  0.41420  1.0000 -0.4575675095
O   O6        1.0  0.91871  0.38589  0.53031  1.0000 -0.2471168677
O   O7        1.0  0.58770  0.36690  0.44880  1.0000 -0.4575675095
O   O8        1.0  0.33333  0.14427  0.47563  1.0000 -0.236139972
O   O9        1.0  0.63650  0.23890  0.38070  1.0000 -0.4109580259
O   O10       1.0  0.39209  0.07771  0.35999  1.0000 -0.2290302406
O   O11       1.0  0.58250  0.02630  0.58580  1.0000 -0.4575675095
O   O12       1.0  0.38589  0.91871  0.46969  1.0000 -0.2471168677
F   F1        1.0  0.70510  0.85210  0.13250  1.0000 -0.3685858985
F   F2        1.0  0.82490  0.97110  0.25390  1.0000 -0.3634853999
F   F3        1.0  0.93740  0.06260  0.09740  1.0000 -0.4481662253
F   F4        1.0  0.80750  0.05450  0.13620  1.0000 -0.4481662253
F   F5        1.0  0.85210  0.70510  0.86750  1.0000 -0.3685858985
F   F6        1.0  0.97110  0.82490  0.74610  1.0000 -0.3685858985
F   F7        1.0  0.06260  0.93740  0.90260  1.0000 -0.4481662253
F   F8        1.0  0.05450  0.80750  0.86380  1.0000 -0.4481662253
