# DDEC6 charges by PACMAN v1.1 (https://github.com/mtap-research/PACMAN-charge/)
data_2019[Ag][nan]2[ION]3
_chemical_formula_sum              "Ag2 H30 C48 N6 Cl2 O20"
_cell_length_a       17.5553
_cell_length_b       17.5553
_cell_length_c       12.054
_cell_angle_alpha    78.5526
_cell_angle_beta     101.447
_cell_angle_gamma    151.041

_symmetry_space_group_name_H-M    "P 1"
_symmetry_Int_Tables_number       1

loop_
  _symmetry_equiv_pos_as_xyz
  'x, y, z'

loop_
  _atom_site_type_symbol
  _atom_site_label
  _atom_site_symmetry_multiplicity
  _atom_site_fract_x
  _atom_site_fract_y
  _atom_site_fract_z
  _atom_site_occupancy
  _atom_site_charge
Ag  Ag1       1.0  0.05641  0.25579  0.21019  1.0000 0.2837739416
Ag  Ag2       1.0  0.25579  0.05641  0.78981  1.0000 0.2837739416
H   H1        1.0  0.32783  0.28479  0.67631  1.0000 0.1105765877
H   H2        1.0  0.22682  0.31812  0.60198  1.0000 0.1397970533
H   H3        1.0  0.79239  0.84633  0.61840  1.0000 0.1397970533
H   H4        1.0  0.91337  0.82827  0.71191  1.0000 0.10141471
H   H5        1.0  0.11307  0.43217  0.99460  1.0000 0.1105765877
H   H6        1.0  0.04805  0.41499  0.80624  1.0000 0.1458062657
H   H7        1.0  0.69650  0.95534  0.84093  1.0000 0.1397970533
H   H8        1.0  0.76906  0.98432  0.03121  1.0000 0.1105765877
H   H9        1.0  0.53435  0.30135  0.62298  1.0000 0.10141471
H   H10       1.0  0.64623  0.32583  0.50567  1.0000 0.1317827307
H   H11       1.0  0.38481  0.91591  0.65573  1.0000 0.1397970533
H   H12       1.0  0.28229  0.90761  0.76594  1.0000 0.10141471
H   H13       1.0  0.50633  0.98043  0.31113  1.0000 0.1397970533
H   H14       1.0  0.55731  0.92347  0.21851  1.0000 0.1222271823
H   H15       1.0  0.68166  0.91804  0.31938  1.0000 0.1317827307
H   H16       1.0  0.28479  0.32783  0.32369  1.0000 0.1105765877
H   H17       1.0  0.31812  0.22682  0.39802  1.0000 0.1397970533
H   H18       1.0  0.84633  0.79239  0.38160  1.0000 0.1397970533
H   H19       1.0  0.82827  0.91337  0.28809  1.0000 0.10141471
H   H20       1.0  0.43217  0.11307  0.00540  1.0000 0.1105765877
H   H21       1.0  0.41499  0.04805  0.19376  1.0000 0.1458062657
H   H22       1.0  0.95534  0.69650  0.15907  1.0000 0.1397970533
H   H23       1.0  0.98432  0.76906  0.96879  1.0000 0.1105765877
H   H24       1.0  0.30135  0.53435  0.37702  1.0000 0.10141471
H   H25       1.0  0.32583  0.64623  0.49433  1.0000 0.1317827307
H   H26       1.0  0.91591  0.38481  0.34427  1.0000 0.1397970533
H   H27       1.0  0.90761  0.28229  0.23406  1.0000 0.10141471
H   H28       1.0  0.98043  0.50633  0.68887  1.0000 0.1397970533
H   H29       1.0  0.92347  0.55731  0.78149  1.0000 0.1222271823
H   H30       1.0  0.91804  0.68166  0.68062  1.0000 0.1317827307
C   C1        1.0  0.21670  0.19470  0.66890  1.0000 -0.0079098677
C   C2        1.0  0.16000  0.21640  0.62360  1.0000 -0.1292357764
C   C3        1.0  0.00320  0.08540  0.61080  1.0000 0.0187062599
C   C4        1.0  0.90280  0.93740  0.63500  1.0000 -0.158696902
C   C5        1.0  0.97820  0.92880  0.68920  1.0000 0.10141471
C   C6        1.0  0.93080  0.10400  0.56040  1.0000 0.5330234397
C   C7        1.0  0.02640  0.33260  0.96240  1.0000 0.0593467295
C   C8        1.0  0.98820  0.32340  0.85080  1.0000 -0.158696902
C   C9        1.0  0.86120  0.17960  0.80200  1.0000 0.0131160138
C   C10       1.0  0.78360  0.05640  0.87080  1.0000 -0.158696902
C   C11       1.0  0.82870  0.07450  0.98420  1.0000 0.0704275323
C   C12       1.0  0.82510  0.17530  0.67720  1.0000 0.5330234397
C   C13       1.0  0.50210  0.22070  0.62820  1.0000 0.0894160472
C   C14       1.0  0.57150  0.23850  0.55850  1.0000 -0.1400319099
C   C15       1.0  0.52580  0.12140  0.57050  1.0000 0.0187062599
C   C16       1.0  0.41730  0.99690  0.64690  1.0000 -0.1400319099
C   C17       1.0  0.35600  0.99260  0.71140  1.0000 0.0704275323
C   C18       1.0  0.59160  0.13120  0.49350  1.0000 0.5330234397
C   C19       1.0  0.71050  0.98030  0.46610  1.0000 0.1397970533
C   C20       1.0  0.67800  0.01040  0.52400  1.0000 0.0704275323
C   C21       1.0  0.60050  0.00850  0.46640  1.0000 0.1823946067
C   C22       1.0  0.55690  0.97830  0.35140  1.0000 -0.1932439677
C   C23       1.0  0.58770  0.94530  0.29660  1.0000 -0.0590517803
C   C24       1.0  0.66330  0.94410  0.35600  1.0000 -0.2060140989
C   C25       1.0  0.19470  0.21670  0.33110  1.0000 -0.0079098677
C   C26       1.0  0.21640  0.16000  0.37640  1.0000 -0.1292357764
C   C27       1.0  0.08540  0.00320  0.38920  1.0000 0.0187062599
C   C28       1.0  0.93740  0.90280  0.36500  1.0000 -0.158696902
C   C29       1.0  0.92880  0.97820  0.31080  1.0000 0.10141471
C   C30       1.0  0.10400  0.93080  0.43960  1.0000 0.5330234397
C   C31       1.0  0.33260  0.02640  0.03760  1.0000 0.0593467295
C   C32       1.0  0.32340  0.98820  0.14920  1.0000 -0.158696902
C   C33       1.0  0.17960  0.86120  0.19800  1.0000 0.0131160138
C   C34       1.0  0.05640  0.78360  0.12920  1.0000 -0.158696902
C   C35       1.0  0.07450  0.82870  0.01580  1.0000 0.0704275323
C   C36       1.0  0.17530  0.82510  0.32280  1.0000 0.5330234397
C   C37       1.0  0.22070  0.50210  0.37180  1.0000 0.0894160472
C   C38       1.0  0.23850  0.57150  0.44150  1.0000 -0.1400319099
C   C39       1.0  0.12140  0.52580  0.42950  1.0000 0.0187062599
C   C40       1.0  0.99690  0.41730  0.35310  1.0000 -0.1400319099
C   C41       1.0  0.99260  0.35600  0.28860  1.0000 0.0704275323
C   C42       1.0  0.13120  0.59160  0.50650  1.0000 0.5330234397
C   C43       1.0  0.98030  0.71050  0.53390  1.0000 0.1397970533
C   C44       1.0  0.01040  0.67800  0.47600  1.0000 0.0704275323
C   C45       1.0  0.00850  0.60050  0.53360  1.0000 0.1823946067
C   C46       1.0  0.97830  0.55690  0.64860  1.0000 -0.1932439677
C   C47       1.0  0.94530  0.58770  0.70340  1.0000 -0.0590517803
C   C48       1.0  0.94410  0.66330  0.64400  1.0000 -0.2060140989
N   N1        1.0  0.12260  0.04740  0.70630  1.0000 -0.1839119888
N   N2        1.0  0.95050  0.21130  0.02950  1.0000 -0.1932439677
N   N3        1.0  0.39490  0.10070  0.70080  1.0000 -0.1839119888
N   N4        1.0  0.04740  0.12260  0.29370  1.0000 -0.1839119888
N   N5        1.0  0.21130  0.95050  0.97050  1.0000 -0.1932439677
N   N6        1.0  0.10070  0.39490  0.29920  1.0000 -0.1839119888
Cl  Cl1       1.0  0.63237  0.46383  0.85967  1.0000 1.1441427299
Cl  Cl2       1.0  0.46383  0.63237  0.14033  1.0000 1.1475848981
O   O1        1.0  0.00400  0.22740  0.55340  1.0000 -0.4440429381
O   O2        1.0  0.78545  0.97575  0.52465  1.0000 -0.2480224691
O   O3        1.0  0.87680  0.27620  0.62040  1.0000 -0.4106697114
O   O4        1.0  0.71762  0.03298  0.64062  1.0000 -0.2323499791
O   O5        1.0  0.66560  0.22140  0.41110  1.0000 -0.4767431489
O   O6        1.0  0.56056  0.02804  0.53016  1.0000 -0.2480224691
O   O7        1.0  0.22740  0.00400  0.44660  1.0000 -0.4440429381
O   O8        1.0  0.97575  0.78545  0.47535  1.0000 -0.2480224691
O   O9        1.0  0.27620  0.87680  0.37960  1.0000 -0.4153649978
O   O10       1.0  0.03298  0.71762  0.35938  1.0000 -0.2323499791
O   O11       1.0  0.22140  0.66560  0.58890  1.0000 -0.4767431489
O   O12       1.0  0.02804  0.56056  0.46984  1.0000 -0.2480224691
O   O13       1.0  0.48030  0.33130  0.88310  1.0000 -0.4106697114
O   O14       1.0  0.69200  0.44200  0.87380  1.0000 -0.496301087
O   O15       1.0  0.71000  0.58800  0.90000  1.0000 -0.4454776815
O   O16       1.0  0.60340  0.47060  0.74840  1.0000 -0.4021216206
O   O17       1.0  0.33130  0.48030  0.11690  1.0000 -0.4106697114
O   O18       1.0  0.44200  0.69200  0.12620  1.0000 -0.496301087
O   O19       1.0  0.58800  0.71000  0.10000  1.0000 -0.4454776815
O   O20       1.0  0.47060  0.60340  0.25160  1.0000 -0.4021216206
