# DDEC6 charges by PACMAN v1.1 (https://github.com/mtap-research/PACMAN-charge/)
data_2019[Co][sql]2[ION]1
_chemical_formula_sum              "Co1 H32 C42 N12 O6"
_cell_length_a       7.4985
_cell_length_b       11.3099
_cell_length_c       14.7152
_cell_angle_alpha    101.142
_cell_angle_beta     95.336
_cell_angle_gamma    99.286

_symmetry_space_group_name_H-M    "P 1"
_symmetry_Int_Tables_number       1

loop_
  _symmetry_equiv_pos_as_xyz
  'x, y, z'

loop_
  _atom_site_type_symbol
  _atom_site_label
  _atom_site_symmetry_multiplicity
  _atom_site_fract_x
  _atom_site_fract_y
  _atom_site_fract_z
  _atom_site_occupancy
  _atom_site_charge
Co  Co1       1.0  0.50000  0.50000  0.00000  1.0000 0.7711536243
H   H1        1.0  0.80500  0.42000  0.95810  1.0000 0.3312546864
H   H2        1.0  0.82300  0.53900  0.95000  1.0000 0.3312546864
H   H3        1.0  0.60313  0.37450  0.79024  1.0000 0.1126424445
H   H4        1.0  0.11531  0.36990  0.86218  1.0000 0.1315381979
H   H5        1.0  0.16934  0.20019  0.56234  1.0000 0.1203144794
H   H6        1.0  0.90902  0.10005  0.46053  1.0000 0.1126424445
H   H7        1.0  0.60343  0.15299  0.66996  1.0000 0.1033475925
H   H8        1.0  0.86198  0.25351  0.77184  1.0000 0.1315381979
H   H9        1.0  0.70369  0.97746  0.32914  1.0000 0.1126424445
H   H10       1.0  0.67850  0.04869  0.19035  1.0000 0.1315381979
H   H11       1.0  0.34587  0.27261  0.29901  1.0000 0.1315381979
H   H12       1.0  0.37764  0.20343  0.43823  1.0000 0.1203144794
H   H13       1.0  0.52447  0.19714  0.94465  1.0000 0.1126424445
H   H14       1.0  0.45063  0.38578  0.18530  1.0000 0.1203144794
H   H15       1.0  0.19500  0.58000  0.04190  1.0000 0.3312546864
H   H16       1.0  0.17700  0.46100  0.05000  1.0000 0.3312546864
H   H17       1.0  0.39687  0.62550  0.20976  1.0000 0.1126424445
H   H18       1.0  0.88469  0.63010  0.13782  1.0000 0.1315381979
H   H19       1.0  0.83066  0.79981  0.43766  1.0000 0.1203144794
H   H20       1.0  0.09098  0.89995  0.53947  1.0000 0.1126424445
H   H21       1.0  0.39657  0.84701  0.33004  1.0000 0.1033475925
H   H22       1.0  0.13802  0.74649  0.22816  1.0000 0.1315381979
H   H23       1.0  0.29631  0.02254  0.67086  1.0000 0.1126424445
H   H24       1.0  0.32150  0.95131  0.80965  1.0000 0.1315381979
H   H25       1.0  0.65413  0.72739  0.70099  1.0000 0.1315381979
H   H26       1.0  0.62236  0.79657  0.56177  1.0000 0.1203144794
H   H27       1.0  0.47553  0.80286  0.05535  1.0000 0.1126424445
H   H28       1.0  0.54937  0.61422  0.81470  1.0000 0.1203144794
H   H29       1.0  0.88914  0.05925  0.86579  1.0000 0.1126424445
H   H30       1.0  0.07402  0.14178  0.14115  1.0000 0.1033475925
H   H31       1.0  0.11086  0.94075  0.13421  1.0000 0.1126424445
H   H32       1.0  0.92598  0.85822  0.85885  1.0000 0.1033475925
C   C1        1.0  0.47420  0.35850  0.78750  1.0000 0.1315381979
C   C2        1.0  0.21450  0.35720  0.82803  1.0000 0.1126424445
C   C3        1.0  0.03850  0.23580  0.67655  1.0000 0.1415413971
C   C4        1.0  0.05390  0.19030  0.58450  1.0000 -0.1728627056
C   C5        1.0  0.89860  0.12970  0.52440  1.0000 -0.1407650121
C   C6        1.0  0.72860  0.11100  0.55469  1.0000 0.0776787057
C   C7        1.0  0.71860  0.16090  0.64750  1.0000 -0.130408679
C   C8        1.0  0.87200  0.22160  0.70830  1.0000 -0.175394629
C   C9        1.0  0.56310  0.04280  0.48935  1.0000 -0.0219546396
C   C10       1.0  0.54260  0.08370  0.39783  1.0000 0.0776787057
C   C11       1.0  0.63160  0.03800  0.32330  1.0000 -0.1407650121
C   C12       1.0  0.61660  0.07980  0.24064  1.0000 -0.1605658278
C   C13       1.0  0.51010  0.16740  0.23262  1.0000 0.1415413971
C   C14       1.0  0.41980  0.21310  0.30529  1.0000 -0.1856561274
C   C15       1.0  0.43820  0.17120  0.38780  1.0000 -0.130408679
C   C16       1.0  0.51260  0.21930  0.00915  1.0000 0.1606656268
C   C17       1.0  0.47210  0.32250  0.13719  1.0000 0.1033475925
C   C18       1.0  0.52580  0.64150  0.21250  1.0000 0.1315381979
C   C19       1.0  0.78550  0.64280  0.17197  1.0000 0.1126424445
C   C20       1.0  0.96150  0.76420  0.32345  1.0000 0.1415413971
C   C21       1.0  0.94610  0.80970  0.41550  1.0000 -0.1728627056
C   C22       1.0  0.10140  0.87030  0.47560  1.0000 -0.1407650121
C   C23       1.0  0.27140  0.88900  0.44531  1.0000 0.0776787057
C   C24       1.0  0.28140  0.83910  0.35250  1.0000 -0.130408679
C   C25       1.0  0.12800  0.77840  0.29170  1.0000 -0.175394629
C   C26       1.0  0.43690  0.95720  0.51065  1.0000 -0.0219546396
C   C27       1.0  0.45740  0.91630  0.60217  1.0000 0.0776787057
C   C28       1.0  0.36840  0.96200  0.67670  1.0000 -0.1407650121
C   C29       1.0  0.38340  0.92020  0.75936  1.0000 -0.1605658278
C   C30       1.0  0.48990  0.83260  0.76738  1.0000 0.1415413971
C   C31       1.0  0.58020  0.78690  0.69471  1.0000 -0.1856561274
C   C32       1.0  0.56180  0.82880  0.61220  1.0000 -0.130408679
C   C33       1.0  0.48740  0.78070  0.99085  1.0000 0.1606656268
C   C34       1.0  0.52790  0.67750  0.86281  1.0000 0.1033475925
C   C35       1.0  0.95660  0.25180  0.00816  1.0000 0.5493377402
C   C36       1.0  0.97760  0.12120  0.00430  1.0000 -0.0251457978
C   C37       1.0  0.93430  0.03550  0.92069  1.0000 -0.1180572219
C   C38       1.0  0.04360  0.08400  0.08338  1.0000 -0.1180572219
C   C39       1.0  0.04340  0.74820  0.99184  1.0000 0.5493377402
C   C40       1.0  0.02240  0.87880  0.99570  1.0000 -0.0251457978
C   C41       1.0  0.06570  0.96450  0.07931  1.0000 -0.1180572219
C   C42       1.0  0.95640  0.91600  0.91662  1.0000 -0.1180572219
N   N1        1.0  0.38760  0.39666  0.86143  1.0000 -0.3231412143
N   N2        1.0  0.36660  0.29760  0.71181  1.0000 -0.252315943
N   N3        1.0  0.19830  0.29690  0.73947  1.0000 0.1415413971
N   N4        1.0  0.52640  0.14450  0.06599  1.0000 -0.2332174227
N   N5        1.0  0.47980  0.33137  0.04950  1.0000 -0.3231412143
N   N6        1.0  0.49840  0.21281  0.14890  1.0000 0.1315381979
N   N7        1.0  0.61240  0.60334  0.13857  1.0000 -0.3231412143
N   N8        1.0  0.63340  0.70240  0.28819  1.0000 -0.252315943
N   N9        1.0  0.80170  0.70310  0.26053  1.0000 0.1415413971
N   N10       1.0  0.47360  0.85550  0.93401  1.0000 -0.2332174227
N   N11       1.0  0.52020  0.66863  0.95050  1.0000 -0.3231412143
N   N12       1.0  0.50160  0.78719  0.85110  1.0000 0.1315381979
O   O1        1.0  0.75620  0.48623  0.96466  1.0000 -0.6778023884
O   O2        1.0  0.24380  0.51377  0.03534  1.0000 -0.6778023884
O   O3        1.0  0.88590  0.27876  0.93588  1.0000 -0.5722407446
O   O4        1.0  0.01600  0.32976  0.08342  1.0000 -0.5722407446
O   O5        1.0  0.11410  0.72124  0.06412  1.0000 -0.5722407446
O   O6        1.0  0.98400  0.67024  0.91658  1.0000 -0.5722407446
