# DDEC6 charges by PACMAN v1.1 (https://github.com/mtap-research/PACMAN-charge/)
data_2020[MnRu][sql]2[ION]1
_chemical_formula_sum              "Mn2 H80 Ru4 C128 N24 Cl4 O32"
_cell_length_a       8.7472
_cell_length_b       16.6316
_cell_length_c       26.9495
_cell_angle_alpha    90
_cell_angle_beta     90
_cell_angle_gamma    90

_symmetry_space_group_name_H-M    "P 1"
_symmetry_Int_Tables_number       1

loop_
  _symmetry_equiv_pos_as_xyz
  'x, y, z'

loop_
  _atom_site_type_symbol
  _atom_site_label
  _atom_site_symmetry_multiplicity
  _atom_site_fract_x
  _atom_site_fract_y
  _atom_site_fract_z
  _atom_site_occupancy
  _atom_site_charge
Mn  Mn1       1.0  0.00000  0.36926  0.50000  1.0000 1.0181808763
Mn  Mn2       1.0  0.00000  0.86926  0.00000  1.0000 1.0181808763
H   H1        1.0  0.09919  0.60968  0.77092  1.0000 0.1194599104
H   H2        1.0  0.05301  0.96110  0.67688  1.0000 0.1327809145
H   H3        1.0  0.49603  0.73778  0.75119  1.0000 0.1194599104
H   H4        1.0  0.65001  0.47378  0.70751  1.0000 0.1194599104
H   H5        1.0  0.26460  0.77620  0.71975  1.0000 0.140135824
H   H6        1.0  0.97990  0.88640  0.60947  1.0000 0.140135824
H   H7        1.0  0.00467  0.91313  0.75524  1.0000 0.1327809145
H   H8        1.0  0.17225  0.48581  0.62037  1.0000 0.1585823395
H   H9        1.0  0.55923  0.60208  0.54851  1.0000 0.1481349033
H   H10       1.0  0.35279  0.47117  0.68410  1.0000 0.1194599104
H   H11       1.0  0.19723  0.74024  0.63929  1.0000 0.1194599104
H   H12       1.0  0.96141  0.84974  0.83227  1.0000 0.140135824
H   H13       1.0  0.36756  0.66667  0.59077  1.0000 0.1585823395
H   H14       1.0  0.65881  0.53352  0.87401  1.0000 0.1481349033
H   H15       1.0  0.56172  0.40822  0.84824  1.0000 0.1194599104
H   H16       1.0  0.97796  0.50479  0.56470  1.0000 0.140135824
H   H17       1.0  0.55611  0.38025  0.76333  1.0000 0.1194599104
H   H18       1.0  0.32213  0.54228  0.75643  1.0000 0.140135824
H   H19       1.0  0.87397  0.76313  0.61993  1.0000 0.1194599104
H   H20       1.0  0.76508  0.65798  0.89461  1.0000 0.1585823395
H   H21       1.0  0.90081  0.60968  0.22908  1.0000 0.1194599104
H   H22       1.0  0.94699  0.96110  0.32312  1.0000 0.1327809145
H   H23       1.0  0.50397  0.73778  0.24881  1.0000 0.1194599104
H   H24       1.0  0.34999  0.47378  0.29249  1.0000 0.1194599104
H   H25       1.0  0.73540  0.77620  0.28025  1.0000 0.140135824
H   H26       1.0  0.02010  0.88640  0.39053  1.0000 0.140135824
H   H27       1.0  0.99533  0.91313  0.24476  1.0000 0.1327809145
H   H28       1.0  0.82775  0.48581  0.37963  1.0000 0.1585823395
H   H29       1.0  0.44077  0.60208  0.45149  1.0000 0.1481349033
H   H30       1.0  0.64721  0.47117  0.31590  1.0000 0.1194599104
H   H31       1.0  0.80277  0.74024  0.36071  1.0000 0.1194599104
H   H32       1.0  0.03859  0.84974  0.16773  1.0000 0.140135824
H   H33       1.0  0.63244  0.66667  0.40923  1.0000 0.1585823395
H   H34       1.0  0.34119  0.53352  0.12599  1.0000 0.1481349033
H   H35       1.0  0.43828  0.40822  0.15176  1.0000 0.1194599104
H   H36       1.0  0.02204  0.50479  0.43530  1.0000 0.140135824
H   H37       1.0  0.44389  0.38025  0.23667  1.0000 0.1194599104
H   H38       1.0  0.67787  0.54228  0.24357  1.0000 0.140135824
H   H39       1.0  0.12603  0.76313  0.38007  1.0000 0.1194599104
H   H40       1.0  0.23492  0.65798  0.10539  1.0000 0.1585823395
H   H41       1.0  0.09919  0.10968  0.72908  1.0000 0.1194599104
H   H42       1.0  0.05301  0.46110  0.82312  1.0000 0.1327809145
H   H43       1.0  0.49603  0.23778  0.74881  1.0000 0.1194599104
H   H44       1.0  0.65001  0.97378  0.79249  1.0000 0.1194599104
H   H45       1.0  0.26460  0.27620  0.78025  1.0000 0.140135824
H   H46       1.0  0.97990  0.38640  0.89053  1.0000 0.140135824
H   H47       1.0  0.00467  0.41313  0.74476  1.0000 0.1327809145
H   H48       1.0  0.17225  0.98581  0.87963  1.0000 0.1585823395
H   H49       1.0  0.55923  0.10208  0.95149  1.0000 0.1481349033
H   H50       1.0  0.35279  0.97117  0.81590  1.0000 0.1194599104
H   H51       1.0  0.19723  0.24024  0.86071  1.0000 0.1194599104
H   H52       1.0  0.96141  0.34974  0.66773  1.0000 0.140135824
H   H53       1.0  0.36756  0.16667  0.90923  1.0000 0.1585823395
H   H54       1.0  0.65881  0.03352  0.62599  1.0000 0.1481349033
H   H55       1.0  0.56172  0.90822  0.65176  1.0000 0.1194599104
H   H56       1.0  0.97796  0.00479  0.93530  1.0000 0.140135824
H   H57       1.0  0.55611  0.88025  0.73667  1.0000 0.1194599104
H   H58       1.0  0.32213  0.04228  0.74357  1.0000 0.140135824
H   H59       1.0  0.87397  0.26313  0.88007  1.0000 0.1194599104
H   H60       1.0  0.76508  0.15798  0.60539  1.0000 0.1585823395
H   H61       1.0  0.90081  0.10968  0.27092  1.0000 0.1194599104
H   H62       1.0  0.94699  0.46110  0.17688  1.0000 0.1327809145
H   H63       1.0  0.50397  0.23778  0.25119  1.0000 0.1194599104
H   H64       1.0  0.34999  0.97378  0.20751  1.0000 0.1194599104
H   H65       1.0  0.73540  0.27620  0.21975  1.0000 0.140135824
H   H66       1.0  0.02010  0.38640  0.10947  1.0000 0.140135824
H   H67       1.0  0.99533  0.41313  0.25524  1.0000 0.1327809145
H   H68       1.0  0.82775  0.98581  0.12037  1.0000 0.1585823395
H   H69       1.0  0.44077  0.10208  0.04851  1.0000 0.1481349033
H   H70       1.0  0.64721  0.97117  0.18410  1.0000 0.1194599104
H   H71       1.0  0.80277  0.24024  0.13929  1.0000 0.1194599104
H   H72       1.0  0.03859  0.34974  0.33227  1.0000 0.140135824
H   H73       1.0  0.63244  0.16667  0.09077  1.0000 0.1585823395
H   H74       1.0  0.34119  0.03352  0.37401  1.0000 0.1481349033
H   H75       1.0  0.43828  0.90822  0.34824  1.0000 0.1194599104
H   H76       1.0  0.02204  0.00479  0.06470  1.0000 0.140135824
H   H77       1.0  0.44389  0.88025  0.26333  1.0000 0.1194599104
H   H78       1.0  0.67787  0.04228  0.25643  1.0000 0.140135824
H   H79       1.0  0.12603  0.26313  0.11993  1.0000 0.1194599104
H   H80       1.0  0.23492  0.15798  0.39461  1.0000 0.1585823395
Ru  Ru1       1.0  0.79240  0.64810  0.71187  1.0000 0.5301118189
Ru  Ru2       1.0  0.20760  0.64810  0.28813  1.0000 0.5301118189
Ru  Ru3       1.0  0.79240  0.14810  0.78813  1.0000 0.5301118189
Ru  Ru4       1.0  0.20760  0.14810  0.21187  1.0000 0.5301118189
C   C1        1.0  0.02610  0.55400  0.66180  1.0000 0.1585823395
C   C2        1.0  0.91810  0.80610  0.73480  1.0000 0.140135824
C   C3        1.0  0.11360  0.58470  0.74040  1.0000 0.0536606026
C   C4        1.0  0.88390  0.76770  0.78240  1.0000 0.1585823395
C   C5        1.0  0.00700  0.91120  0.68120  1.0000 -0.016249337
C   C6        1.0  0.76840  0.54810  0.54810  1.0000 0.0388355411
C   C7        1.0  0.47160  0.72410  0.71870  1.0000 0.0753025555
C   C8        1.0  0.77480  0.65150  0.81890  1.0000 0.1697675374
C   C9        1.0  0.89880  0.56200  0.62540  1.0000 0.1697675374
C   C10       1.0  0.65200  0.48570  0.74120  1.0000 0.0388355411
C   C11       1.0  0.33200  0.74680  0.70020  1.0000 -0.1499927581
C   C12       1.0  0.96530  0.86640  0.64130  1.0000 -0.1298033974
C   C13       1.0  0.98040  0.88170  0.72780  1.0000 -0.1694120846
C   C14       1.0  0.15780  0.50980  0.65120  1.0000 -0.1499927581
C   C15       1.0  0.64530  0.59170  0.56770  1.0000 -0.1553682096
C   C16       1.0  0.75740  0.51640  0.49540  1.0000 0.5736194246
C   C17       1.0  0.26660  0.50300  0.68880  1.0000 -0.0459994904
C   C18       1.0  0.65360  0.61900  0.61610  1.0000 0.1481349033
C   C19       1.0  0.53470  0.66300  0.64350  1.0000 0.1481349033
C   C20       1.0  0.29200  0.72540  0.65200  1.0000 -0.0283904669
C   C21       1.0  0.91280  0.80030  0.82900  1.0000 -0.1927474707
C   C22       1.0  0.86720  0.75700  0.87060  1.0000 0.0660851368
C   C23       1.0  0.39300  0.68220  0.62290  1.0000 -0.1499927581
C   C24       1.0  0.65690  0.51970  0.84060  1.0000 -0.1370260871
C   C25       1.0  0.59800  0.44530  0.82530  1.0000 -0.016249337
C   C26       1.0  0.89550  0.53350  0.57730  1.0000 -0.1694120846
C   C27       1.0  0.71230  0.57220  0.80490  1.0000 0.1767002859
C   C28       1.0  0.59530  0.42880  0.77480  1.0000 -0.1499927581
C   C29       1.0  0.24620  0.54310  0.73230  1.0000 -0.1298033974
C   C30       1.0  0.90260  0.79260  0.64770  1.0000 -0.016249337
C   C31       1.0  0.79780  0.68530  0.86640  1.0000 -0.1370260871
C   C32       1.0  0.90420  0.79190  0.92180  1.0000 0.5450503522
C   C33       1.0  0.97390  0.55400  0.33820  1.0000 0.1585823395
C   C34       1.0  0.08190  0.80610  0.26520  1.0000 0.140135824
C   C35       1.0  0.88640  0.58470  0.25960  1.0000 0.0536606026
C   C36       1.0  0.11610  0.76770  0.21760  1.0000 0.1585823395
C   C37       1.0  0.99300  0.91120  0.31880  1.0000 -0.016249337
C   C38       1.0  0.23160  0.54810  0.45190  1.0000 0.0388355411
C   C39       1.0  0.52840  0.72410  0.28130  1.0000 0.0753025555
C   C40       1.0  0.22520  0.65150  0.18110  1.0000 0.1697675374
C   C41       1.0  0.10120  0.56200  0.37460  1.0000 0.1697675374
C   C42       1.0  0.34800  0.48570  0.25880  1.0000 0.0388355411
C   C43       1.0  0.66800  0.74680  0.29980  1.0000 -0.1499927581
C   C44       1.0  0.03470  0.86640  0.35870  1.0000 -0.1298033974
C   C45       1.0  0.01960  0.88170  0.27220  1.0000 -0.1694120846
C   C46       1.0  0.84220  0.50980  0.34880  1.0000 -0.1499927581
C   C47       1.0  0.35470  0.59170  0.43230  1.0000 -0.1553682096
C   C48       1.0  0.24260  0.51640  0.50460  1.0000 0.5736194246
C   C49       1.0  0.73340  0.50300  0.31120  1.0000 -0.0459994904
C   C50       1.0  0.34640  0.61900  0.38390  1.0000 0.1481349033
C   C51       1.0  0.46530  0.66300  0.35650  1.0000 0.1481349033
C   C52       1.0  0.70800  0.72540  0.34800  1.0000 -0.0283904669
C   C53       1.0  0.08720  0.80030  0.17100  1.0000 -0.1927474707
C   C54       1.0  0.13280  0.75700  0.12940  1.0000 0.0660851368
C   C55       1.0  0.60700  0.68220  0.37710  1.0000 -0.1499927581
C   C56       1.0  0.34310  0.51970  0.15940  1.0000 -0.1370260871
C   C57       1.0  0.40200  0.44530  0.17470  1.0000 -0.016249337
C   C58       1.0  0.10450  0.53350  0.42270  1.0000 -0.1694120846
C   C59       1.0  0.28770  0.57220  0.19510  1.0000 0.1767002859
C   C60       1.0  0.40470  0.42880  0.22520  1.0000 -0.1499927581
C   C61       1.0  0.75380  0.54310  0.26770  1.0000 -0.1298033974
C   C62       1.0  0.09740  0.79260  0.35230  1.0000 -0.016249337
C   C63       1.0  0.20220  0.68530  0.13360  1.0000 -0.1370260871
C   C64       1.0  0.09580  0.79190  0.07820  1.0000 0.5450503522
C   C65       1.0  0.02610  0.05400  0.83820  1.0000 0.1585823395
C   C66       1.0  0.91810  0.30610  0.76520  1.0000 0.140135824
C   C67       1.0  0.11360  0.08470  0.75960  1.0000 0.0536606026
C   C68       1.0  0.88390  0.26770  0.71760  1.0000 0.1585823395
C   C69       1.0  0.00700  0.41120  0.81880  1.0000 -0.016249337
C   C70       1.0  0.76840  0.04810  0.95190  1.0000 0.0388355411
C   C71       1.0  0.47160  0.22410  0.78130  1.0000 0.0753025555
C   C72       1.0  0.77480  0.15150  0.68110  1.0000 0.1697675374
C   C73       1.0  0.89880  0.06200  0.87460  1.0000 0.1697675374
C   C74       1.0  0.65200  0.98570  0.75880  1.0000 0.0388355411
C   C75       1.0  0.33200  0.24680  0.79980  1.0000 -0.1499927581
C   C76       1.0  0.96530  0.36640  0.85870  1.0000 -0.1298033974
C   C77       1.0  0.98040  0.38170  0.77220  1.0000 -0.1694120846
C   C78       1.0  0.15780  0.00980  0.84880  1.0000 -0.1499927581
C   C79       1.0  0.64530  0.09170  0.93230  1.0000 -0.1553682096
C   C80       1.0  0.75740  0.01640  0.00460  1.0000 0.5736194246
C   C81       1.0  0.26660  0.00300  0.81120  1.0000 -0.0459994904
C   C82       1.0  0.65360  0.11900  0.88390  1.0000 0.1481349033
C   C83       1.0  0.53470  0.16300  0.85650  1.0000 0.1481349033
C   C84       1.0  0.29200  0.22540  0.84800  1.0000 -0.0283904669
C   C85       1.0  0.91280  0.30030  0.67100  1.0000 -0.1927474707
C   C86       1.0  0.86720  0.25700  0.62940  1.0000 0.0660851368
C   C87       1.0  0.39300  0.18220  0.87710  1.0000 -0.1499927581
C   C88       1.0  0.65690  0.01970  0.65940  1.0000 -0.1370260871
C   C89       1.0  0.59800  0.94530  0.67470  1.0000 -0.016249337
C   C90       1.0  0.89550  0.03350  0.92270  1.0000 -0.1694120846
C   C91       1.0  0.71230  0.07220  0.69510  1.0000 0.1767002859
C   C92       1.0  0.59530  0.92880  0.72520  1.0000 -0.1499927581
C   C93       1.0  0.24620  0.04310  0.76770  1.0000 -0.1298033974
C   C94       1.0  0.90260  0.29260  0.85230  1.0000 -0.016249337
C   C95       1.0  0.79780  0.18530  0.63360  1.0000 -0.1370260871
C   C96       1.0  0.90420  0.29190  0.57820  1.0000 0.5450503522
C   C97       1.0  0.97390  0.05400  0.16180  1.0000 0.1585823395
C   C98       1.0  0.08190  0.30610  0.23480  1.0000 0.140135824
C   C99       1.0  0.88640  0.08470  0.24040  1.0000 0.0536606026
C   C100      1.0  0.11610  0.26770  0.28240  1.0000 0.1585823395
C   C101      1.0  0.99300  0.41120  0.18120  1.0000 -0.016249337
C   C102      1.0  0.23160  0.04810  0.04810  1.0000 0.0388355411
C   C103      1.0  0.52840  0.22410  0.21870  1.0000 0.0753025555
C   C104      1.0  0.22520  0.15150  0.31890  1.0000 0.1697675374
C   C105      1.0  0.10120  0.06200  0.12540  1.0000 0.1697675374
C   C106      1.0  0.34800  0.98570  0.24120  1.0000 0.0388355411
C   C107      1.0  0.66800  0.24680  0.20020  1.0000 -0.1499927581
C   C108      1.0  0.03470  0.36640  0.14130  1.0000 -0.1298033974
C   C109      1.0  0.01960  0.38170  0.22780  1.0000 -0.1694120846
C   C110      1.0  0.84220  0.00980  0.15120  1.0000 -0.1499927581
C   C111      1.0  0.35470  0.09170  0.06770  1.0000 -0.1553682096
C   C112      1.0  0.24260  0.01640  0.99540  1.0000 0.5736194246
C   C113      1.0  0.73340  0.00300  0.18880  1.0000 -0.0459994904
C   C114      1.0  0.34640  0.11900  0.11610  1.0000 0.1481349033
C   C115      1.0  0.46530  0.16300  0.14350  1.0000 0.1481349033
C   C116      1.0  0.70800  0.22540  0.15200  1.0000 -0.0283904669
C   C117      1.0  0.08720  0.30030  0.32900  1.0000 -0.1927474707
C   C118      1.0  0.13280  0.25700  0.37060  1.0000 0.0660851368
C   C119      1.0  0.60700  0.18220  0.12290  1.0000 -0.1499927581
C   C120      1.0  0.34310  0.01970  0.34060  1.0000 -0.1370260871
C   C121      1.0  0.40200  0.94530  0.32530  1.0000 -0.016249337
C   C122      1.0  0.10450  0.03350  0.07730  1.0000 -0.1694120846
C   C123      1.0  0.28770  0.07220  0.30490  1.0000 0.1767002859
C   C124      1.0  0.40470  0.92880  0.27480  1.0000 -0.1499927581
C   C125      1.0  0.75380  0.04310  0.23230  1.0000 -0.1298033974
C   C126      1.0  0.09740  0.29260  0.14770  1.0000 -0.016249337
C   C127      1.0  0.20220  0.18530  0.36640  1.0000 -0.1370260871
C   C128      1.0  0.09580  0.29190  0.42180  1.0000 0.5450503522
N   N1        1.0  0.78060  0.60300  0.64410  1.0000 -0.2495545478
N   N2        1.0  0.00380  0.59070  0.70600  1.0000 -0.2312775385
N   N3        1.0  0.81710  0.69560  0.77840  1.0000 -0.2312775385
N   N4        1.0  0.70920  0.55670  0.75580  1.0000 -0.2158280022
N   N5        1.0  0.57330  0.68360  0.69210  1.0000 -0.2312775385
N   N6        1.0  0.87970  0.75970  0.69430  1.0000 -0.2495545478
N   N7        1.0  0.21940  0.60300  0.35590  1.0000 -0.2495545478
N   N8        1.0  0.99620  0.59070  0.29400  1.0000 -0.2312775385
N   N9        1.0  0.18290  0.69560  0.22160  1.0000 -0.2312775385
N   N10       1.0  0.29080  0.55670  0.24420  1.0000 -0.2158280022
N   N11       1.0  0.42670  0.68360  0.30790  1.0000 -0.2312775385
N   N12       1.0  0.12030  0.75970  0.30570  1.0000 -0.2495545478
N   N13       1.0  0.78060  0.10300  0.85590  1.0000 -0.2495545478
N   N14       1.0  0.00380  0.09070  0.79400  1.0000 -0.2312775385
N   N15       1.0  0.81710  0.19560  0.72160  1.0000 -0.2312775385
N   N16       1.0  0.70920  0.05670  0.74420  1.0000 -0.2158280022
N   N17       1.0  0.57330  0.18360  0.80790  1.0000 -0.2312775385
N   N18       1.0  0.87970  0.25970  0.80570  1.0000 -0.2431280024
N   N19       1.0  0.21940  0.10300  0.14410  1.0000 -0.2495545478
N   N20       1.0  0.99620  0.09070  0.20600  1.0000 -0.2312775385
N   N21       1.0  0.18290  0.19560  0.27840  1.0000 -0.2312775385
N   N22       1.0  0.29080  0.05670  0.25580  1.0000 -0.2158280022
N   N23       1.0  0.42670  0.18360  0.19210  1.0000 -0.2312775385
N   N24       1.0  0.12030  0.25970  0.19430  1.0000 -0.2431280024
Cl  Cl1       1.0  0.70720  0.08340  0.36560  1.0000 1.2908911698
Cl  Cl2       1.0  0.29280  0.08340  0.63440  1.0000 1.2908911698
Cl  Cl3       1.0  0.70720  0.58340  0.13440  1.0000 1.2908911698
Cl  Cl4       1.0  0.29280  0.58340  0.86560  1.0000 1.2908911698
O   O1        1.0  0.82830  0.45200  0.48720  1.0000 -0.5667963978
O   O2        1.0  0.00120  0.85070  0.92170  1.0000 -0.557286293
O   O3        1.0  0.67920  0.55460  0.46480  1.0000 -0.5667963978
O   O4        1.0  0.85020  0.76430  0.95880  1.0000 -0.4585873789
O   O5        1.0  0.17170  0.45200  0.51280  1.0000 -0.5667963978
O   O6        1.0  0.99880  0.85070  0.07830  1.0000 -0.557286293
O   O7        1.0  0.32080  0.55460  0.53520  1.0000 -0.5667963978
O   O8        1.0  0.14980  0.76430  0.04120  1.0000 -0.4585873789
O   O9        1.0  0.82830  0.95200  0.01280  1.0000 -0.5667963978
O   O10       1.0  0.00120  0.35070  0.57830  1.0000 -0.557286293
O   O11       1.0  0.67920  0.05460  0.03520  1.0000 -0.5667963978
O   O12       1.0  0.85020  0.26430  0.54120  1.0000 -0.4585873789
O   O13       1.0  0.17170  0.95200  0.98720  1.0000 -0.5667963978
O   O14       1.0  0.99880  0.35070  0.42170  1.0000 -0.557286293
O   O15       1.0  0.32080  0.05460  0.96480  1.0000 -0.5667963978
O   O16       1.0  0.14980  0.26430  0.45880  1.0000 -0.4585873789
O   O17       1.0  0.86400  0.10560  0.37110  1.0000 -0.4820759005
O   O18       1.0  0.62200  0.12700  0.31710  1.0000 -0.625653357
O   O19       1.0  0.71800  0.99180  0.35790  1.0000 -0.5667963978
O   O20       1.0  0.63100  0.09110  0.41940  1.0000 -0.5125541396
O   O21       1.0  0.13600  0.10560  0.62890  1.0000 -0.4820759005
O   O22       1.0  0.37800  0.12700  0.68290  1.0000 -0.6248730726
O   O23       1.0  0.28200  0.99180  0.64210  1.0000 -0.5667963978
O   O24       1.0  0.36900  0.09110  0.58060  1.0000 -0.5125541396
O   O25       1.0  0.86400  0.60560  0.12890  1.0000 -0.4820759005
O   O26       1.0  0.62200  0.62700  0.18290  1.0000 -0.6248730726
O   O27       1.0  0.71800  0.49180  0.14210  1.0000 -0.5667963978
O   O28       1.0  0.63100  0.59110  0.08060  1.0000 -0.5125541396
O   O29       1.0  0.13600  0.60560  0.87110  1.0000 -0.4820759005
O   O30       1.0  0.37800  0.62700  0.81710  1.0000 -0.6248730726
O   O31       1.0  0.28200  0.49180  0.85790  1.0000 -0.5667963978
O   O32       1.0  0.36900  0.59110  0.91940  1.0000 -0.5125541396
