# DDEC6 charges by PACMAN v1.1 (https://github.com/mtap-research/PACMAN-charge/)
data_2020[Cd][rtl]3[ION]1
_chemical_formula_sum              "Cd2 H48 C60 N28 O12"
_cell_length_a       11.6372
_cell_length_b       17.92
_cell_length_c       13.9861
_cell_angle_alpha    90
_cell_angle_beta     123.001
_cell_angle_gamma    90

_symmetry_space_group_name_H-M    "P 1"
_symmetry_Int_Tables_number       1

loop_
  _symmetry_equiv_pos_as_xyz
  'x, y, z'

loop_
  _atom_site_type_symbol
  _atom_site_label
  _atom_site_symmetry_multiplicity
  _atom_site_fract_x
  _atom_site_fract_y
  _atom_site_fract_z
  _atom_site_occupancy
  _atom_site_charge
Cd  Cd1       1.0  0.00000  0.50000  0.50000  1.0000 0.6959154329
Cd  Cd2       1.0  0.00000  0.00000  0.00000  1.0000 0.6949428639
H   H1        1.0  0.81136  0.26871  0.69118  1.0000 0.1312328151
H   H2        1.0  0.51533  0.42046  0.60513  1.0000 0.144127222
H   H3        1.0  0.46705  0.20816  0.67262  1.0000 0.1312328151
H   H4        1.0  0.87596  0.17196  0.87590  1.0000 0.1014441496
H   H5        1.0  0.71615  0.98356  0.72085  1.0000 0.1162085833
H   H6        1.0  0.56077  0.08186  0.59911  1.0000 0.1312328151
H   H7        1.0  0.81456  0.35871  0.54028  1.0000 0.1014441496
H   H8        1.0  0.75867  0.49966  0.73047  1.0000 0.1312328151
H   H9        1.0  0.91493  0.55486  0.68425  1.0000 0.1162085833
H   H10       1.0  0.31450  0.44453  0.57555  1.0000 0.1068583301
H   H11       1.0  0.06203  0.30737  0.58667  1.0000 0.1068583301
H   H12       1.0  0.26605  0.23530  0.63817  1.0000 0.1312328151
H   H13       1.0  0.18864  0.76871  0.80882  1.0000 0.1312328151
H   H14       1.0  0.48467  0.92046  0.89487  1.0000 0.144127222
H   H15       1.0  0.53295  0.70816  0.82738  1.0000 0.1312328151
H   H16       1.0  0.12404  0.67196  0.62410  1.0000 0.1014441496
H   H17       1.0  0.28385  0.48356  0.77915  1.0000 0.1162085833
H   H18       1.0  0.43923  0.58186  0.90089  1.0000 0.1312328151
H   H19       1.0  0.18544  0.85871  0.95972  1.0000 0.1014441496
H   H20       1.0  0.24133  0.99966  0.76953  1.0000 0.1312328151
H   H21       1.0  0.08507  0.05486  0.81575  1.0000 0.1162085833
H   H22       1.0  0.68550  0.94453  0.92445  1.0000 0.1068583301
H   H23       1.0  0.93797  0.80737  0.91333  1.0000 0.1068583301
H   H24       1.0  0.73395  0.73530  0.86183  1.0000 0.1312328151
H   H25       1.0  0.18864  0.73129  0.30882  1.0000 0.1312328151
H   H26       1.0  0.48467  0.57954  0.39487  1.0000 0.144127222
H   H27       1.0  0.53295  0.79184  0.32738  1.0000 0.1312328151
H   H28       1.0  0.12404  0.82804  0.12410  1.0000 0.1014441496
H   H29       1.0  0.28385  0.01644  0.27915  1.0000 0.1162085833
H   H30       1.0  0.43923  0.91814  0.40089  1.0000 0.1312328151
H   H31       1.0  0.18544  0.64129  0.45972  1.0000 0.1014441496
H   H32       1.0  0.24133  0.50034  0.26953  1.0000 0.1312328151
H   H33       1.0  0.08507  0.44514  0.31575  1.0000 0.1162085833
H   H34       1.0  0.68550  0.55547  0.42445  1.0000 0.1068583301
H   H35       1.0  0.93797  0.69263  0.41333  1.0000 0.1068583301
H   H36       1.0  0.73395  0.76470  0.36183  1.0000 0.1312328151
H   H37       1.0  0.81136  0.23129  0.19118  1.0000 0.1312328151
H   H38       1.0  0.51533  0.07954  0.10513  1.0000 0.144127222
H   H39       1.0  0.46705  0.29184  0.17262  1.0000 0.1312328151
H   H40       1.0  0.87596  0.32804  0.37590  1.0000 0.1014441496
H   H41       1.0  0.71615  0.51644  0.22085  1.0000 0.1162085833
H   H42       1.0  0.56077  0.41814  0.09911  1.0000 0.1312328151
H   H43       1.0  0.81456  0.14129  0.04028  1.0000 0.1014441496
H   H44       1.0  0.75867  0.00034  0.23047  1.0000 0.1312328151
H   H45       1.0  0.91493  0.94514  0.18425  1.0000 0.1162085833
H   H46       1.0  0.31450  0.05547  0.07555  1.0000 0.1068583301
H   H47       1.0  0.06203  0.19263  0.08667  1.0000 0.1068583301
H   H48       1.0  0.26605  0.26470  0.13817  1.0000 0.1312328151
C   C1        1.0  0.64650  0.22775  0.68670  1.0000 0.1831093153
C   C2        1.0  0.72600  0.28096  0.67760  1.0000 -0.2704684118
C   C3        1.0  0.67560  0.35285  0.64780  1.0000 0.2092203202
C   C4        1.0  0.54850  0.37203  0.62610  1.0000 -0.2539654726
C   C5        1.0  0.47150  0.31709  0.63630  1.0000 0.2092203202
C   C6        1.0  0.51940  0.24463  0.66630  1.0000 -0.2420898357
C   C7        1.0  0.81750  0.13685  0.82230  1.0000 0.074008072
C   C8        1.0  0.72910  0.03430  0.73710  1.0000 -0.0500102656
C   C9        1.0  0.64300  0.08817  0.66900  1.0000 -0.1008718505
C   C10       1.0  0.82190  0.40053  0.58270  1.0000 0.0835638085
C   C11       1.0  0.78950  0.47785  0.68810  1.0000 -0.0888570973
C   C12       1.0  0.87510  0.50787  0.66120  1.0000 -0.0440310629
C   C13       1.0  0.27630  0.40148  0.58410  1.0000 0.1068583301
C   C14       1.0  0.13880  0.32604  0.59020  1.0000 -0.060643805
C   C15       1.0  0.25140  0.28571  0.61950  1.0000 -0.1008718505
C   C16       1.0  0.35350  0.72775  0.81330  1.0000 0.1831093153
C   C17       1.0  0.27400  0.78096  0.82240  1.0000 -0.2704684118
C   C18       1.0  0.32440  0.85285  0.85220  1.0000 0.2092203202
C   C19       1.0  0.45150  0.87203  0.87390  1.0000 -0.2539654726
C   C20       1.0  0.52850  0.81709  0.86370  1.0000 0.2092203202
C   C21       1.0  0.48060  0.74463  0.83370  1.0000 -0.2420898357
C   C22       1.0  0.18250  0.63685  0.67770  1.0000 0.074008072
C   C23       1.0  0.27090  0.53430  0.76290  1.0000 -0.0500102656
C   C24       1.0  0.35700  0.58817  0.83100  1.0000 -0.1008718505
C   C25       1.0  0.17810  0.90053  0.91730  1.0000 0.0835638085
C   C26       1.0  0.21050  0.97785  0.81190  1.0000 -0.0888570973
C   C27       1.0  0.12490  0.00787  0.83880  1.0000 -0.0440310629
C   C28       1.0  0.72370  0.90148  0.91590  1.0000 0.1068583301
C   C29       1.0  0.86120  0.82604  0.90980  1.0000 -0.060643805
C   C30       1.0  0.74860  0.78571  0.88050  1.0000 -0.1008718505
C   C31       1.0  0.35350  0.77225  0.31330  1.0000 0.1831093153
C   C32       1.0  0.27400  0.71904  0.32240  1.0000 -0.2704684118
C   C33       1.0  0.32440  0.64715  0.35220  1.0000 0.2092203202
C   C34       1.0  0.45150  0.62797  0.37390  1.0000 -0.2539654726
C   C35       1.0  0.52850  0.68291  0.36370  1.0000 0.2092203202
C   C36       1.0  0.48060  0.75537  0.33370  1.0000 -0.2420898357
C   C37       1.0  0.18250  0.86315  0.17770  1.0000 0.074008072
C   C38       1.0  0.27090  0.96570  0.26290  1.0000 -0.0500102656
C   C39       1.0  0.35700  0.91183  0.33100  1.0000 -0.1008718505
C   C40       1.0  0.17810  0.59947  0.41730  1.0000 0.0835638085
C   C41       1.0  0.21050  0.52215  0.31190  1.0000 -0.0888570973
C   C42       1.0  0.12490  0.49213  0.33880  1.0000 -0.0440310629
C   C43       1.0  0.72370  0.59852  0.41590  1.0000 0.1068583301
C   C44       1.0  0.86120  0.67396  0.40980  1.0000 -0.060643805
C   C45       1.0  0.74860  0.71429  0.38050  1.0000 -0.1008718505
C   C46       1.0  0.64650  0.27225  0.18670  1.0000 0.1831093153
C   C47       1.0  0.72600  0.21904  0.17760  1.0000 -0.2704684118
C   C48       1.0  0.67560  0.14715  0.14780  1.0000 0.2092203202
C   C49       1.0  0.54850  0.12797  0.12610  1.0000 -0.2539654726
C   C50       1.0  0.47150  0.18291  0.13630  1.0000 0.2092203202
C   C51       1.0  0.51940  0.25537  0.16630  1.0000 -0.2420898357
C   C52       1.0  0.81750  0.36315  0.32230  1.0000 0.074008072
C   C53       1.0  0.72910  0.46570  0.23710  1.0000 -0.0500102656
C   C54       1.0  0.64300  0.41183  0.16900  1.0000 -0.1008718505
C   C55       1.0  0.82190  0.09947  0.08270  1.0000 0.0835638085
C   C56       1.0  0.78950  0.02215  0.18810  1.0000 -0.0888570973
C   C57       1.0  0.87510  0.99213  0.16120  1.0000 -0.0440310629
C   C58       1.0  0.27630  0.09852  0.08410  1.0000 0.1068583301
C   C59       1.0  0.13880  0.17396  0.09020  1.0000 -0.060643805
C   C60       1.0  0.25140  0.21429  0.11950  1.0000 -0.1008718505
N   N1        1.0  0.70050  0.15408  0.72320  1.0000 0.0068894894
N   N2        1.0  0.83910  0.06482  0.83410  1.0000 -0.2704684118
N   N3        1.0  0.75800  0.40808  0.63910  1.0000 0.0068894894
N   N4        1.0  0.89540  0.45949  0.59520  1.0000 -0.2908385077
N   N5        1.0  0.34010  0.33494  0.61580  1.0000 0.0068894894
N   N6        1.0  0.15340  0.39822  0.56660  1.0000 -0.2823218534
N   N7        1.0  0.29950  0.65408  0.77680  1.0000 0.0068894894
N   N8        1.0  0.16090  0.56482  0.66590  1.0000 -0.2704684118
N   N9        1.0  0.24200  0.90808  0.86090  1.0000 0.0068894894
N   N10       1.0  0.10460  0.95949  0.90480  1.0000 -0.2908385077
N   N11       1.0  0.65990  0.83494  0.88420  1.0000 0.0068894894
N   N12       1.0  0.84660  0.89822  0.93340  1.0000 -0.2823218534
N   N13       1.0  0.29950  0.84592  0.27680  1.0000 0.0068894894
N   N14       1.0  0.16090  0.93518  0.16590  1.0000 -0.2704684118
N   N15       1.0  0.24200  0.59192  0.36090  1.0000 0.0068894894
N   N16       1.0  0.10460  0.54051  0.40480  1.0000 -0.2908385077
N   N17       1.0  0.65990  0.66506  0.38420  1.0000 0.0068894894
N   N18       1.0  0.84660  0.60178  0.43340  1.0000 -0.2823218534
N   N19       1.0  0.70050  0.34592  0.22320  1.0000 0.0068894894
N   N20       1.0  0.83910  0.43518  0.33410  1.0000 -0.2704684118
N   N21       1.0  0.75800  0.09192  0.13910  1.0000 0.0068894894
N   N22       1.0  0.89540  0.04051  0.09520  1.0000 -0.2908385077
N   N23       1.0  0.34010  0.16506  0.11580  1.0000 0.0068894894
N   N24       1.0  0.15340  0.10178  0.06660  1.0000 -0.2823218534
N   N25       1.0  0.46510  0.39251  0.32540  1.0000 0.6742958745
N   N26       1.0  0.53490  0.89251  0.17460  1.0000 0.6742958745
N   N27       1.0  0.53490  0.60749  0.67460  1.0000 0.6751179418
N   N28       1.0  0.46510  0.10749  0.82540  1.0000 0.6751179418
O   O1        1.0  0.35270  0.38966  0.23120  1.0000 -0.4413721838
O   O2        1.0  0.51530  0.45269  0.37080  1.0000 -0.430786466
O   O3        1.0  0.52510  0.33424  0.37200  1.0000 -0.430786466
O   O4        1.0  0.64730  0.88966  0.26880  1.0000 -0.4413721838
O   O5        1.0  0.48470  0.95269  0.12920  1.0000 -0.430786466
O   O6        1.0  0.47490  0.83424  0.12800  1.0000 -0.430786466
O   O7        1.0  0.64730  0.61034  0.76880  1.0000 -0.4413721838
O   O8        1.0  0.48470  0.54731  0.62920  1.0000 -0.430786466
O   O9        1.0  0.47490  0.66576  0.62800  1.0000 -0.430786466
O   O10       1.0  0.35270  0.11034  0.73120  1.0000 -0.4413721838
O   O11       1.0  0.51530  0.04731  0.87080  1.0000 -0.430786466
O   O12       1.0  0.52510  0.16576  0.87200  1.0000 -0.430786466
