# DDEC6 charges by PACMAN v1.1 (https://github.com/mtap-research/PACMAN-charge/)
data_2020[Zn][sql]2[ION]2
_chemical_formula_sum              "Zn4 H80 C80 N16 O24"
_cell_length_a       10.3343
_cell_length_b       10.7386
_cell_length_c       20.4009
_cell_angle_alpha    90
_cell_angle_beta     90
_cell_angle_gamma    90

_symmetry_space_group_name_H-M    "P 1"
_symmetry_Int_Tables_number       1

loop_
  _symmetry_equiv_pos_as_xyz
  'x, y, z'

loop_
  _atom_site_type_symbol
  _atom_site_label
  _atom_site_symmetry_multiplicity
  _atom_site_fract_x
  _atom_site_fract_y
  _atom_site_fract_z
  _atom_site_occupancy
  _atom_site_charge
Zn  Zn1       1.0  0.45696  0.72666  0.05103  1.0000 0.726301036
Zn  Zn2       1.0  0.95696  0.77334  0.94897  1.0000 0.726301036
Zn  Zn3       1.0  0.04304  0.27334  0.55103  1.0000 0.726301036
Zn  Zn4       1.0  0.54304  0.22666  0.44897  1.0000 0.726301036
H   H1        1.0  0.29800  0.47480  0.95470  1.0000 0.1216823868
H   H2        1.0  0.30860  0.28070  0.90610  1.0000 0.1304187543
H   H3        1.0  0.44090  0.43950  0.74100  1.0000 0.1304187543
H   H4        1.0  0.43070  0.63170  0.79030  1.0000 0.1216823868
H   H5        1.0  0.37710  0.76400  0.87840  1.0000 0.1087082454
H   H6        1.0  0.61830  0.54500  0.12680  1.0000 0.1087082454
H   H7        1.0  0.59580  0.38380  0.20010  1.0000 0.1381535348
H   H8        1.0  0.21350  0.39750  0.17240  1.0000 0.1381535348
H   H9        1.0  0.24410  0.55600  0.09890  1.0000 0.1087082454
H   H10       1.0  0.35600  0.32060  0.28990  1.0000 0.1216823868
H   H11       1.0  0.46640  0.24020  0.25910  1.0000 0.1087082454
H   H12       1.0  0.26230  0.13630  0.27770  1.0000 0.1216823868
H   H13       1.0  0.20870  0.21180  0.21810  1.0000 0.1216823868
H   H14       1.0  0.49670  0.14600  0.15620  1.0000 0.1304187543
H   H15       1.0  0.55170  0.98080  0.09040  1.0000 0.1087082454
H   H16       1.0  0.24070  0.80000  0.14130  1.0000 0.1087082454
H   H17       1.0  0.17690  0.95930  0.20790  1.0000 0.1381535348
H   H18       1.0  0.53850  0.77400  0.93960  1.0000 0.2820303059
H   H19       1.0  0.53970  0.63940  0.94680  1.0000 0.2820303059
H   H20       1.0  0.38150  0.17230  0.81470  1.0000 0.3226405598
H   H21       1.0  0.79800  0.02520  0.04530  1.0000 0.1216823868
H   H22       1.0  0.80860  0.21930  0.09390  1.0000 0.1304187543
H   H23       1.0  0.94090  0.06050  0.25900  1.0000 0.1304187543
H   H24       1.0  0.93070  0.86830  0.20970  1.0000 0.1216823868
H   H25       1.0  0.87710  0.73600  0.12160  1.0000 0.1042218076
H   H26       1.0  0.11830  0.95500  0.87320  1.0000 0.1087082454
H   H27       1.0  0.09580  0.11620  0.79990  1.0000 0.1381535348
H   H28       1.0  0.71350  0.10250  0.82760  1.0000 0.1381535348
H   H29       1.0  0.74410  0.94400  0.90110  1.0000 0.1087082454
H   H30       1.0  0.85600  0.17940  0.71010  1.0000 0.1216823868
H   H31       1.0  0.96640  0.25980  0.74090  1.0000 0.1087082454
H   H32       1.0  0.76230  0.36370  0.72230  1.0000 0.1216823868
H   H33       1.0  0.70870  0.28820  0.78190  1.0000 0.1216823868
H   H34       1.0  0.99670  0.35400  0.84380  1.0000 0.1304187543
H   H35       1.0  0.05170  0.51920  0.90960  1.0000 0.1087082454
H   H36       1.0  0.74070  0.70000  0.85870  1.0000 0.1087082454
H   H37       1.0  0.67690  0.54070  0.79210  1.0000 0.1381535348
H   H38       1.0  0.03850  0.72600  0.06040  1.0000 0.2820303059
H   H39       1.0  0.03970  0.86060  0.05320  1.0000 0.2820303059
H   H40       1.0  0.88150  0.32770  0.18530  1.0000 0.3226405598
H   H41       1.0  0.20200  0.52520  0.45470  1.0000 0.1216823868
H   H42       1.0  0.19140  0.71930  0.40610  1.0000 0.1304187543
H   H43       1.0  0.05910  0.56050  0.24100  1.0000 0.1304187543
H   H44       1.0  0.06930  0.36830  0.29030  1.0000 0.1216823868
H   H45       1.0  0.12290  0.23600  0.37840  1.0000 0.1087082454
H   H46       1.0  0.88170  0.45500  0.62680  1.0000 0.1087082454
H   H47       1.0  0.90420  0.61620  0.70010  1.0000 0.1381535348
H   H48       1.0  0.28650  0.60250  0.67240  1.0000 0.1381535348
H   H49       1.0  0.25590  0.44400  0.59890  1.0000 0.1087082454
H   H50       1.0  0.14400  0.67940  0.78990  1.0000 0.1216823868
H   H51       1.0  0.03360  0.75980  0.75910  1.0000 0.1087082454
H   H52       1.0  0.23770  0.86370  0.77770  1.0000 0.1216823868
H   H53       1.0  0.29130  0.78820  0.71810  1.0000 0.1216823868
H   H54       1.0  0.00330  0.85400  0.65620  1.0000 0.1304187543
H   H55       1.0  0.94830  0.01920  0.59040  1.0000 0.1087082454
H   H56       1.0  0.25930  0.20000  0.64130  1.0000 0.1087082454
H   H57       1.0  0.32310  0.04070  0.70790  1.0000 0.1381535348
H   H58       1.0  0.96150  0.22600  0.43960  1.0000 0.2820303059
H   H59       1.0  0.96030  0.36060  0.44680  1.0000 0.2820303059
H   H60       1.0  0.11850  0.82770  0.31470  1.0000 0.3226405598
H   H61       1.0  0.70200  0.97480  0.54530  1.0000 0.1216823868
H   H62       1.0  0.69140  0.78070  0.59390  1.0000 0.1304187543
H   H63       1.0  0.55910  0.93950  0.75900  1.0000 0.1304187543
H   H64       1.0  0.56930  0.13170  0.70970  1.0000 0.1216823868
H   H65       1.0  0.62290  0.26400  0.62160  1.0000 0.1042218076
H   H66       1.0  0.38170  0.04500  0.37320  1.0000 0.1087082454
H   H67       1.0  0.40420  0.88380  0.29990  1.0000 0.1381535348
H   H68       1.0  0.78650  0.89750  0.32760  1.0000 0.1381535348
H   H69       1.0  0.75590  0.05600  0.40110  1.0000 0.1087082454
H   H70       1.0  0.64400  0.82060  0.21010  1.0000 0.1216823868
H   H71       1.0  0.53360  0.74020  0.24090  1.0000 0.1087082454
H   H72       1.0  0.73770  0.63630  0.22230  1.0000 0.1216823868
H   H73       1.0  0.79130  0.71180  0.28190  1.0000 0.1216823868
H   H74       1.0  0.50330  0.64600  0.34380  1.0000 0.1304187543
H   H75       1.0  0.44830  0.48080  0.40960  1.0000 0.1087082454
H   H76       1.0  0.75930  0.30000  0.35870  1.0000 0.1087082454
H   H77       1.0  0.82310  0.45930  0.29210  1.0000 0.1381535348
H   H78       1.0  0.46150  0.27400  0.56040  1.0000 0.2820303059
H   H79       1.0  0.46030  0.13940  0.55320  1.0000 0.2820303059
H   H80       1.0  0.61850  0.67230  0.68530  1.0000 0.3226405598
C   C1        1.0  0.32820  0.46780  0.91195  1.0000 -0.1357949831
C   C2        1.0  0.33380  0.35120  0.88286  1.0000 -0.2249396079
C   C3        1.0  0.37760  0.34090  0.81857  1.0000 0.2726396836
C   C4        1.0  0.41300  0.44620  0.78424  1.0000 -0.2075805448
C   C5        1.0  0.40710  0.56130  0.81399  1.0000 -0.1467436038
C   C6        1.0  0.36670  0.57430  0.87862  1.0000 0.0485453346
C   C7        1.0  0.37250  0.69940  0.91225  1.0000 -0.0509003707
C   C8        1.0  0.25110  0.72300  0.95365  1.0000 0.5711611129
C   C9        1.0  0.53580  0.51600  0.13670  1.0000 0.0897754926
C   C10       1.0  0.52270  0.41890  0.18100  1.0000 -0.2022024128
C   C11       1.0  0.40020  0.37360  0.19711  1.0000 0.1710299935
C   C12       1.0  0.29680  0.42670  0.16454  1.0000 -0.1865367227
C   C13       1.0  0.31550  0.52270  0.12039  1.0000 0.0840153537
C   C14       1.0  0.38290  0.27800  0.25031  1.0000 -0.2389671388
C   C15       1.0  0.28620  0.17440  0.23628  1.0000 -0.2389671388
C   C16       1.0  0.32990  0.07330  0.19068  1.0000 0.1710299935
C   C17       1.0  0.44290  0.07670  0.15417  1.0000 -0.2022024128
C   C18       1.0  0.47550  0.97640  0.11451  1.0000 0.1042218076
C   C19       1.0  0.29280  0.87040  0.14437  1.0000 0.0701512165
C   C20       1.0  0.25400  0.96590  0.18460  1.0000 -0.2022024128
C   C21       1.0  0.82820  0.03220  0.08805  1.0000 -0.1357949831
C   C22       1.0  0.83380  0.14880  0.11714  1.0000 -0.2289882795
C   C23       1.0  0.87760  0.15910  0.18143  1.0000 0.2726396836
C   C24       1.0  0.91300  0.05380  0.21576  1.0000 -0.2075805448
C   C25       1.0  0.90710  0.93870  0.18601  1.0000 -0.1467436038
C   C26       1.0  0.86670  0.92570  0.12138  1.0000 0.0485453346
C   C27       1.0  0.87250  0.80060  0.08775  1.0000 -0.0509003707
C   C28       1.0  0.75110  0.77700  0.04635  1.0000 0.5711611129
C   C29       1.0  0.03580  0.98400  0.86330  1.0000 0.0897754926
C   C30       1.0  0.02270  0.08110  0.81900  1.0000 -0.2022024128
C   C31       1.0  0.90020  0.12640  0.80289  1.0000 0.1710299935
C   C32       1.0  0.79680  0.07330  0.83546  1.0000 -0.1865367227
C   C33       1.0  0.81550  0.97730  0.87961  1.0000 0.0840153537
C   C34       1.0  0.88290  0.22200  0.74969  1.0000 -0.2389671388
C   C35       1.0  0.78620  0.32560  0.76372  1.0000 -0.2289882795
C   C36       1.0  0.82990  0.42670  0.80932  1.0000 0.1710299935
C   C37       1.0  0.94290  0.42330  0.84583  1.0000 -0.2022024128
C   C38       1.0  0.97550  0.52360  0.88549  1.0000 0.1042218076
C   C39       1.0  0.79280  0.62960  0.85563  1.0000 0.0701512165
C   C40       1.0  0.75400  0.53410  0.81540  1.0000 -0.2022024128
C   C41       1.0  0.17180  0.53220  0.41195  1.0000 -0.1357949831
C   C42       1.0  0.16620  0.64880  0.38286  1.0000 -0.2289882795
C   C43       1.0  0.12240  0.65910  0.31857  1.0000 0.2726396836
C   C44       1.0  0.08700  0.55380  0.28424  1.0000 -0.2075805448
C   C45       1.0  0.09290  0.43870  0.31399  1.0000 -0.1467436038
C   C46       1.0  0.13330  0.42570  0.37862  1.0000 0.0485453346
C   C47       1.0  0.12750  0.30060  0.41225  1.0000 -0.0509003707
C   C48       1.0  0.24890  0.27700  0.45365  1.0000 0.5711611129
C   C49       1.0  0.96420  0.48400  0.63670  1.0000 0.0897754926
C   C50       1.0  0.97730  0.58110  0.68100  1.0000 -0.2022024128
C   C51       1.0  0.09980  0.62640  0.69711  1.0000 0.1710299935
C   C52       1.0  0.20320  0.57330  0.66454  1.0000 -0.1865367227
C   C53       1.0  0.18450  0.47730  0.62039  1.0000 0.0840153537
C   C54       1.0  0.11710  0.72200  0.75031  1.0000 -0.2389671388
C   C55       1.0  0.21380  0.82560  0.73628  1.0000 -0.2389671388
C   C56       1.0  0.17010  0.92670  0.69068  1.0000 0.1710299935
C   C57       1.0  0.05710  0.92330  0.65417  1.0000 -0.2022024128
C   C58       1.0  0.02450  0.02360  0.61451  1.0000 0.1042218076
C   C59       1.0  0.20720  0.12960  0.64437  1.0000 0.0701512165
C   C60       1.0  0.24600  0.03410  0.68460  1.0000 -0.2022024128
C   C61       1.0  0.67180  0.96780  0.58805  1.0000 -0.1357949831
C   C62       1.0  0.66620  0.85120  0.61714  1.0000 -0.2249396079
C   C63       1.0  0.62240  0.84090  0.68143  1.0000 0.2726396836
C   C64       1.0  0.58700  0.94620  0.71576  1.0000 -0.2075805448
C   C65       1.0  0.59290  0.06130  0.68601  1.0000 -0.1467436038
C   C66       1.0  0.63330  0.07430  0.62138  1.0000 0.0485453346
C   C67       1.0  0.62750  0.19940  0.58775  1.0000 -0.0509003707
C   C68       1.0  0.74890  0.22300  0.54635  1.0000 0.5711611129
C   C69       1.0  0.46420  0.01600  0.36330  1.0000 0.0897754926
C   C70       1.0  0.47730  0.91890  0.31900  1.0000 -0.2022024128
C   C71       1.0  0.59980  0.87360  0.30289  1.0000 0.1710299935
C   C72       1.0  0.70320  0.92670  0.33546  1.0000 -0.1865367227
C   C73       1.0  0.68450  0.02270  0.37961  1.0000 0.0840153537
C   C74       1.0  0.61710  0.77800  0.24969  1.0000 -0.2389671388
C   C75       1.0  0.71380  0.67440  0.26372  1.0000 -0.2289882795
C   C76       1.0  0.67010  0.57330  0.30932  1.0000 0.1710299935
C   C77       1.0  0.55710  0.57670  0.34583  1.0000 -0.2022024128
C   C78       1.0  0.52450  0.47640  0.38549  1.0000 0.1042218076
C   C79       1.0  0.70720  0.37040  0.35563  1.0000 0.0701512165
C   C80       1.0  0.74600  0.46590  0.31540  1.0000 -0.2022024128
N   N1        1.0  0.49170  0.70820  0.95324  1.0000 -0.5238143586
N   N2        1.0  0.43320  0.56960  0.10746  1.0000 -0.2568372124
N   N3        1.0  0.40320  0.87420  0.10919  1.0000 -0.2289882795
N   N4        1.0  0.99170  0.79180  0.04676  1.0000 -0.5238143586
N   N5        1.0  0.93320  0.93040  0.89254  1.0000 -0.2568372124
N   N6        1.0  0.90320  0.62580  0.89081  1.0000 -0.2289882795
N   N7        1.0  0.00830  0.29180  0.45324  1.0000 -0.5238143586
N   N8        1.0  0.06680  0.43040  0.60746  1.0000 -0.2568372124
N   N9        1.0  0.09680  0.12580  0.60919  1.0000 -0.2289882795
N   N10       1.0  0.50830  0.20820  0.54676  1.0000 -0.5238143586
N   N11       1.0  0.56680  0.06960  0.39254  1.0000 -0.2568372124
N   N12       1.0  0.59680  0.37420  0.39081  1.0000 -0.2289882795
N   N13       1.0  0.08540  0.00020  0.40843  1.0000 0.70290289
N   N14       1.0  0.41460  0.99980  0.90843  1.0000 0.70290289
N   N15       1.0  0.91460  0.50020  0.09157  1.0000 0.70290289
N   N16       1.0  0.58540  0.49980  0.59157  1.0000 0.70290289
O   O1        1.0  0.25945  0.71756  0.01489  1.0000 -0.5452428841
O   O2        1.0  0.14938  0.74346  0.92121  1.0000 -0.5582070433
O   O3        1.0  0.39010  0.22850  0.78781  1.0000 -0.446789258
O   O4        1.0  0.75945  0.78244  0.98511  1.0000 -0.5452428841
O   O5        1.0  0.64938  0.75654  0.07879  1.0000 -0.5582070433
O   O6        1.0  0.89010  0.27150  0.21219  1.0000 -0.446789258
O   O7        1.0  0.24055  0.28244  0.51489  1.0000 -0.5449552916
O   O8        1.0  0.35062  0.25654  0.42121  1.0000 -0.5582070433
O   O9        1.0  0.10990  0.77150  0.28781  1.0000 -0.446789258
O   O10       1.0  0.74055  0.21756  0.48511  1.0000 -0.5452428841
O   O11       1.0  0.85062  0.24346  0.57879  1.0000 -0.5582070433
O   O12       1.0  0.60990  0.72850  0.71219  1.0000 -0.446789258
O   O13       1.0  0.98180  0.02930  0.38126  1.0000 -0.4566552721
O   O14       1.0  0.10290  0.02460  0.46795  1.0000 -0.4388987058
O   O15       1.0  0.17430  0.94790  0.37639  1.0000 -0.4731767707
O   O16       1.0  0.51820  0.97070  0.88126  1.0000 -0.4566552721
O   O17       1.0  0.39710  0.97540  0.96795  1.0000 -0.4388987058
O   O18       1.0  0.32570  0.05210  0.87639  1.0000 -0.4731767707
O   O19       1.0  0.01820  0.52930  0.11874  1.0000 -0.4566552721
O   O20       1.0  0.89710  0.52460  0.03205  1.0000 -0.4388987058
O   O21       1.0  0.82570  0.44790  0.12361  1.0000 -0.4731767707
O   O22       1.0  0.48180  0.47070  0.61874  1.0000 -0.4566552721
O   O23       1.0  0.60290  0.47540  0.53205  1.0000 -0.4388987058
O   O24       1.0  0.67430  0.55210  0.62361  1.0000 -0.4731767707
