# DDEC6 charges by PACMAN v1.1 (https://github.com/mtap-research/PACMAN-charge/)
data_2020[Zn][sql]2[ION]1
_chemical_formula_sum              "Zn4 H80 C80 N16 O24"
_cell_length_a       10.3289
_cell_length_b       10.7323
_cell_length_c       20.4158
_cell_angle_alpha    90
_cell_angle_beta     90
_cell_angle_gamma    90

_symmetry_space_group_name_H-M    "P 1"
_symmetry_Int_Tables_number       1

loop_
  _symmetry_equiv_pos_as_xyz
  'x, y, z'

loop_
  _atom_site_type_symbol
  _atom_site_label
  _atom_site_symmetry_multiplicity
  _atom_site_fract_x
  _atom_site_fract_y
  _atom_site_fract_z
  _atom_site_occupancy
  _atom_site_charge
Zn  Zn1       1.0  0.54301  0.72665  0.05100  1.0000 0.7282195332
Zn  Zn2       1.0  0.04301  0.77335  0.94900  1.0000 0.7282195332
Zn  Zn3       1.0  0.95699  0.27335  0.55100  1.0000 0.7282195332
Zn  Zn4       1.0  0.45699  0.22665  0.44900  1.0000 0.7282195332
H   H1        1.0  0.70150  0.47400  0.95510  1.0000 0.1211309436
H   H2        1.0  0.69150  0.28080  0.90560  1.0000 0.1293697946
H   H3        1.0  0.56000  0.44000  0.74050  1.0000 0.1293697946
H   H4        1.0  0.56830  0.63170  0.79070  1.0000 0.1211309436
H   H5        1.0  0.62270  0.76430  0.87830  1.0000 0.1039760866
H   H6        1.0  0.38250  0.54570  0.12710  1.0000 0.1094732816
H   H7        1.0  0.40370  0.38380  0.19960  1.0000 0.1374519013
H   H8        1.0  0.78720  0.39790  0.17190  1.0000 0.1374519013
H   H9        1.0  0.75560  0.55620  0.09920  1.0000 0.1094732816
H   H10       1.0  0.53340  0.24010  0.25900  1.0000 0.1094732816
H   H11       1.0  0.64350  0.32080  0.29000  1.0000 0.1211309436
H   H12       1.0  0.79210  0.21170  0.21810  1.0000 0.1211309436
H   H13       1.0  0.73870  0.13600  0.27760  1.0000 0.1211309436
H   H14       1.0  0.82300  0.95870  0.20820  1.0000 0.1374519013
H   H15       1.0  0.75950  0.80080  0.14060  1.0000 0.1094732816
H   H16       1.0  0.44840  0.98120  0.08990  1.0000 0.1094732816
H   H17       1.0  0.50400  0.14640  0.15590  1.0000 0.1293697946
H   H18       1.0  0.46060  0.63910  0.94710  1.0000 0.281984018
H   H19       1.0  0.46120  0.77370  0.94000  1.0000 0.281984018
H   H20       1.0  0.62520  0.17170  0.81410  1.0000 0.3233859482
H   H21       1.0  0.20150  0.02600  0.04490  1.0000 0.1211309436
H   H22       1.0  0.19150  0.21920  0.09440  1.0000 0.1293697946
H   H23       1.0  0.06000  0.06000  0.25950  1.0000 0.1293697946
H   H24       1.0  0.06830  0.86830  0.20930  1.0000 0.1211309436
H   H25       1.0  0.12270  0.73570  0.12170  1.0000 0.1039760866
H   H26       1.0  0.88250  0.95430  0.87290  1.0000 0.1094732816
H   H27       1.0  0.90370  0.11620  0.80040  1.0000 0.1374519013
H   H28       1.0  0.28720  0.10210  0.82810  1.0000 0.1374519013
H   H29       1.0  0.25560  0.94380  0.90080  1.0000 0.1094732816
H   H30       1.0  0.03340  0.25990  0.74100  1.0000 0.1094732816
H   H31       1.0  0.14350  0.17920  0.71000  1.0000 0.1211309436
H   H32       1.0  0.29210  0.28830  0.78190  1.0000 0.1211309436
H   H33       1.0  0.23870  0.36400  0.72240  1.0000 0.1211309436
H   H34       1.0  0.32300  0.54130  0.79180  1.0000 0.1374519013
H   H35       1.0  0.25950  0.69920  0.85940  1.0000 0.1094732816
H   H36       1.0  0.94840  0.51880  0.91010  1.0000 0.1094732816
H   H37       1.0  0.00400  0.35360  0.84410  1.0000 0.1293697946
H   H38       1.0  0.96060  0.86090  0.05290  1.0000 0.281984018
H   H39       1.0  0.96120  0.72630  0.06000  1.0000 0.281984018
H   H40       1.0  0.12520  0.32830  0.18590  1.0000 0.3233859482
H   H41       1.0  0.79850  0.52600  0.45510  1.0000 0.1211309436
H   H42       1.0  0.80850  0.71920  0.40560  1.0000 0.1293697946
H   H43       1.0  0.94000  0.56000  0.24050  1.0000 0.1293697946
H   H44       1.0  0.93170  0.36830  0.29070  1.0000 0.1211309436
H   H45       1.0  0.87730  0.23570  0.37830  1.0000 0.1039760866
H   H46       1.0  0.11750  0.45430  0.62710  1.0000 0.1094732816
H   H47       1.0  0.09630  0.61620  0.69960  1.0000 0.1374519013
H   H48       1.0  0.71280  0.60210  0.67190  1.0000 0.1374519013
H   H49       1.0  0.74440  0.44380  0.59920  1.0000 0.1094732816
H   H50       1.0  0.96660  0.75990  0.75900  1.0000 0.1094732816
H   H51       1.0  0.85650  0.67920  0.79000  1.0000 0.1211309436
H   H52       1.0  0.70790  0.78830  0.71810  1.0000 0.1211309436
H   H53       1.0  0.76130  0.86400  0.77760  1.0000 0.1211309436
H   H54       1.0  0.67700  0.04130  0.70820  1.0000 0.1374519013
H   H55       1.0  0.74050  0.19920  0.64060  1.0000 0.1094732816
H   H56       1.0  0.05160  0.01880  0.58990  1.0000 0.1094732816
H   H57       1.0  0.99600  0.85360  0.65590  1.0000 0.1293697946
H   H58       1.0  0.03940  0.36090  0.44710  1.0000 0.281984018
H   H59       1.0  0.03880  0.22630  0.44000  1.0000 0.281984018
H   H60       1.0  0.87480  0.82830  0.31410  1.0000 0.3233859482
H   H61       1.0  0.29850  0.97400  0.54490  1.0000 0.1211309436
H   H62       1.0  0.30850  0.78080  0.59440  1.0000 0.1293697946
H   H63       1.0  0.44000  0.94000  0.75950  1.0000 0.1293697946
H   H64       1.0  0.43170  0.13170  0.70930  1.0000 0.1211309436
H   H65       1.0  0.37730  0.26430  0.62170  1.0000 0.1039760866
H   H66       1.0  0.61750  0.04570  0.37290  1.0000 0.1094732816
H   H67       1.0  0.59630  0.88380  0.30040  1.0000 0.1374519013
H   H68       1.0  0.21280  0.89790  0.32810  1.0000 0.1374519013
H   H69       1.0  0.24440  0.05620  0.40080  1.0000 0.1094732816
H   H70       1.0  0.46660  0.74010  0.24100  1.0000 0.1094732816
H   H71       1.0  0.35650  0.82080  0.21000  1.0000 0.1211309436
H   H72       1.0  0.20790  0.71170  0.28190  1.0000 0.1211309436
H   H73       1.0  0.26130  0.63600  0.22240  1.0000 0.1211309436
H   H74       1.0  0.17700  0.45870  0.29180  1.0000 0.1374519013
H   H75       1.0  0.24050  0.30080  0.35940  1.0000 0.1094732816
H   H76       1.0  0.55160  0.48120  0.41010  1.0000 0.1094732816
H   H77       1.0  0.49600  0.64640  0.34410  1.0000 0.1293697946
H   H78       1.0  0.53940  0.13910  0.55290  1.0000 0.281984018
H   H79       1.0  0.53880  0.27370  0.56000  1.0000 0.281984018
H   H80       1.0  0.37480  0.67170  0.68590  1.0000 0.3233859482
C   C1        1.0  0.67180  0.46740  0.91220  1.0000 -0.1379803327
C   C2        1.0  0.66600  0.35150  0.88262  1.0000 -0.2234572024
C   C3        1.0  0.62220  0.34090  0.81859  1.0000 0.2702282312
C   C4        1.0  0.58710  0.44640  0.78385  1.0000 -0.2077727151
C   C5        1.0  0.59260  0.56110  0.81408  1.0000 -0.1481380222
C   C6        1.0  0.63370  0.57400  0.87869  1.0000 0.0501447915
C   C7        1.0  0.62730  0.69970  0.91211  1.0000 -0.0542210882
C   C8        1.0  0.74860  0.72280  0.95393  1.0000 0.5698621812
C   C9        1.0  0.46500  0.51620  0.13674  1.0000 0.0907168555
C   C10       1.0  0.47720  0.41900  0.18087  1.0000 -0.2077727151
C   C11       1.0  0.59980  0.37380  0.19721  1.0000 0.1729433852
C   C12       1.0  0.70380  0.42710  0.16430  1.0000 -0.1879812983
C   C13       1.0  0.68410  0.52260  0.12056  1.0000 0.0789052638
C   C14       1.0  0.61690  0.27810  0.25038  1.0000 -0.2498770562
C   C15       1.0  0.71470  0.17410  0.23630  1.0000 -0.2355881242
C   C16       1.0  0.67040  0.07240  0.19039  1.0000 0.1729433852
C   C17       1.0  0.74620  0.96570  0.18466  1.0000 -0.2001638768
C   C18       1.0  0.70700  0.87090  0.14413  1.0000 0.0717777851
C   C19       1.0  0.52440  0.97660  0.11417  1.0000 0.1039760866
C   C20       1.0  0.55740  0.07670  0.15385  1.0000 -0.2001638768
C   C21       1.0  0.17180  0.03260  0.08780  1.0000 -0.1379803327
C   C22       1.0  0.16600  0.14850  0.11738  1.0000 -0.2234572024
C   C23       1.0  0.12220  0.15910  0.18141  1.0000 0.2702282312
C   C24       1.0  0.08710  0.05360  0.21615  1.0000 -0.2077727151
C   C25       1.0  0.09260  0.93890  0.18592  1.0000 -0.1481380222
C   C26       1.0  0.13370  0.92600  0.12131  1.0000 0.0501447915
C   C27       1.0  0.12730  0.80030  0.08789  1.0000 -0.0542210882
C   C28       1.0  0.24860  0.77720  0.04607  1.0000 0.5698621812
C   C29       1.0  0.96500  0.98380  0.86326  1.0000 0.0907168555
C   C30       1.0  0.97720  0.08100  0.81913  1.0000 -0.2077727151
C   C31       1.0  0.09980  0.12620  0.80279  1.0000 0.1729433852
C   C32       1.0  0.20380  0.07290  0.83570  1.0000 -0.1879812983
C   C33       1.0  0.18410  0.97740  0.87944  1.0000 0.0789052638
C   C34       1.0  0.11690  0.22190  0.74962  1.0000 -0.2498770562
C   C35       1.0  0.21470  0.32590  0.76370  1.0000 -0.2355881242
C   C36       1.0  0.17040  0.42760  0.80961  1.0000 0.1729433852
C   C37       1.0  0.24620  0.53430  0.81534  1.0000 -0.2001638768
C   C38       1.0  0.20700  0.62910  0.85587  1.0000 0.0717777851
C   C39       1.0  0.02440  0.52340  0.88583  1.0000 0.1039760866
C   C40       1.0  0.05740  0.42330  0.84615  1.0000 -0.2001638768
C   C41       1.0  0.82820  0.53260  0.41220  1.0000 -0.1379803327
C   C42       1.0  0.83400  0.64850  0.38262  1.0000 -0.2234572024
C   C43       1.0  0.87780  0.65910  0.31859  1.0000 0.2702282312
C   C44       1.0  0.91290  0.55360  0.28385  1.0000 -0.2077727151
C   C45       1.0  0.90740  0.43890  0.31408  1.0000 -0.1481380222
C   C46       1.0  0.86630  0.42600  0.37869  1.0000 0.0501447915
C   C47       1.0  0.87270  0.30030  0.41211  1.0000 -0.0542210882
C   C48       1.0  0.75140  0.27720  0.45393  1.0000 0.5698621812
C   C49       1.0  0.03500  0.48380  0.63674  1.0000 0.0907168555
C   C50       1.0  0.02280  0.58100  0.68087  1.0000 -0.2077727151
C   C51       1.0  0.90020  0.62620  0.69721  1.0000 0.1729433852
C   C52       1.0  0.79620  0.57290  0.66430  1.0000 -0.1879812983
C   C53       1.0  0.81590  0.47740  0.62056  1.0000 0.0789052638
C   C54       1.0  0.88310  0.72190  0.75038  1.0000 -0.2498770562
C   C55       1.0  0.78530  0.82590  0.73630  1.0000 -0.2355881242
C   C56       1.0  0.82960  0.92760  0.69039  1.0000 0.1729433852
C   C57       1.0  0.75380  0.03430  0.68466  1.0000 -0.2001638768
C   C58       1.0  0.79300  0.12910  0.64413  1.0000 0.0717777851
C   C59       1.0  0.97560  0.02340  0.61417  1.0000 0.1039760866
C   C60       1.0  0.94260  0.92330  0.65385  1.0000 -0.2001638768
C   C61       1.0  0.32820  0.96740  0.58780  1.0000 -0.1379803327
C   C62       1.0  0.33400  0.85150  0.61738  1.0000 -0.2234572024
C   C63       1.0  0.37780  0.84090  0.68141  1.0000 0.2702282312
C   C64       1.0  0.41290  0.94640  0.71615  1.0000 -0.2077727151
C   C65       1.0  0.40740  0.06110  0.68592  1.0000 -0.1481380222
C   C66       1.0  0.36630  0.07400  0.62131  1.0000 0.0501447915
C   C67       1.0  0.37270  0.19970  0.58789  1.0000 -0.0542210882
C   C68       1.0  0.25140  0.22280  0.54607  1.0000 0.5698621812
C   C69       1.0  0.53500  0.01620  0.36326  1.0000 0.0907168555
C   C70       1.0  0.52280  0.91900  0.31913  1.0000 -0.2077727151
C   C71       1.0  0.40020  0.87380  0.30279  1.0000 0.1729433852
C   C72       1.0  0.29620  0.92710  0.33570  1.0000 -0.1879812983
C   C73       1.0  0.31590  0.02260  0.37944  1.0000 0.0789052638
C   C74       1.0  0.38310  0.77810  0.24962  1.0000 -0.2498770562
C   C75       1.0  0.28530  0.67410  0.26370  1.0000 -0.2355881242
C   C76       1.0  0.32960  0.57240  0.30961  1.0000 0.1729433852
C   C77       1.0  0.25380  0.46570  0.31534  1.0000 -0.2001638768
C   C78       1.0  0.29300  0.37090  0.35587  1.0000 0.0717777851
C   C79       1.0  0.47560  0.47660  0.38583  1.0000 0.1039760866
C   C80       1.0  0.44260  0.57670  0.34615  1.0000 -0.2001638768
N   N1        1.0  0.50844  0.70810  0.95351  1.0000 -0.5261402783
N   N2        1.0  0.56670  0.56960  0.10725  1.0000 -0.2498770562
N   N3        1.0  0.59680  0.87440  0.10939  1.0000 -0.2234572024
N   N4        1.0  0.00844  0.79190  0.04649  1.0000 -0.5261402783
N   N5        1.0  0.06670  0.93040  0.89275  1.0000 -0.2498770562
N   N6        1.0  0.09680  0.62560  0.89061  1.0000 -0.2234572024
N   N7        1.0  0.99156  0.29190  0.45351  1.0000 -0.5261402783
N   N8        1.0  0.93330  0.43040  0.60725  1.0000 -0.2498770562
N   N9        1.0  0.90320  0.12560  0.60939  1.0000 -0.2234572024
N   N10       1.0  0.49156  0.20810  0.54649  1.0000 -0.5261402783
N   N11       1.0  0.43330  0.06960  0.39275  1.0000 -0.2498770562
N   N12       1.0  0.40320  0.37440  0.39061  1.0000 -0.2234572024
N   N13       1.0  0.91420  0.00030  0.40894  1.0000 0.701509321
N   N14       1.0  0.58580  0.99970  0.90894  1.0000 0.701509321
N   N15       1.0  0.08580  0.50030  0.09106  1.0000 0.701509321
N   N16       1.0  0.41420  0.49970  0.59106  1.0000 0.701509321
O   O1        1.0  0.74092  0.71763  0.01474  1.0000 -0.5383724627
O   O2        1.0  0.85048  0.74366  0.92121  1.0000 -0.5590498504
O   O3        1.0  0.60990  0.22770  0.78791  1.0000 -0.4497256187
O   O4        1.0  0.24092  0.78237  0.98526  1.0000 -0.5383724627
O   O5        1.0  0.35048  0.75634  0.07879  1.0000 -0.5590498504
O   O6        1.0  0.10990  0.27230  0.21209  1.0000 -0.4497256187
O   O7        1.0  0.75908  0.28237  0.51474  1.0000 -0.5383724627
O   O8        1.0  0.64952  0.25634  0.42121  1.0000 -0.5590498504
O   O9        1.0  0.89010  0.77230  0.28791  1.0000 -0.4497256187
O   O10       1.0  0.25908  0.21763  0.48526  1.0000 -0.5383724627
O   O11       1.0  0.14952  0.24366  0.57879  1.0000 -0.5590498504
O   O12       1.0  0.39010  0.72770  0.71209  1.0000 -0.4497256187
O   O13       1.0  0.01813  0.02880  0.38133  1.0000 -0.456177598
O   O14       1.0  0.89740  0.02490  0.46794  1.0000 -0.4293849823
O   O15       1.0  0.82579  0.94810  0.37650  1.0000 -0.4707417471
O   O16       1.0  0.48187  0.97120  0.88133  1.0000 -0.456177598
O   O17       1.0  0.60260  0.97510  0.96794  1.0000 -0.4293849823
O   O18       1.0  0.67421  0.05190  0.87650  1.0000 -0.4707417471
O   O19       1.0  0.98187  0.52880  0.11867  1.0000 -0.456177598
O   O20       1.0  0.10260  0.52490  0.03206  1.0000 -0.4293849823
O   O21       1.0  0.17421  0.44810  0.12350  1.0000 -0.4707417471
O   O22       1.0  0.51813  0.47120  0.61867  1.0000 -0.456177598
O   O23       1.0  0.39740  0.47510  0.53206  1.0000 -0.4293849823
O   O24       1.0  0.32579  0.55190  0.62350  1.0000 -0.4707417471
