# DDEC6 charges by PACMAN v1.1 (https://github.com/mtap-research/PACMAN-charge/)
data_2021[Zn][dia]3[ION]1
_chemical_formula_sum              "Zn2 H40 C52 N2 O16"
_cell_length_a       11.834
_cell_length_b       12.2447
_cell_length_c       15.846
_cell_angle_alpha    73.191
_cell_angle_beta     77.901
_cell_angle_gamma    68.305

_symmetry_space_group_name_H-M    "P 1"
_symmetry_Int_Tables_number       1

loop_
  _symmetry_equiv_pos_as_xyz
  'x, y, z'

loop_
  _atom_site_type_symbol
  _atom_site_label
  _atom_site_symmetry_multiplicity
  _atom_site_fract_x
  _atom_site_fract_y
  _atom_site_fract_z
  _atom_site_occupancy
  _atom_site_charge
Zn  Zn1       1.0  0.78685  0.57880  0.28410  1.0000 0.9195184997
Zn  Zn2       1.0  0.21315  0.42120  0.71590  1.0000 0.9195184997
H   H1        1.0  0.82546  0.18830  0.54966  1.0000 0.1292030291
H   H2        1.0  0.05223  0.22354  0.32105  1.0000 0.1292030291
H   H3        1.0  0.15164  0.01770  0.35101  1.0000 0.1292030291
H   H4        1.0  0.08485  0.69640  0.10310  1.0000 0.1148907384
H   H5        1.0  0.20262  0.80664  0.01123  1.0000 0.1292030291
H   H6        1.0  0.77957  0.99234  0.07824  1.0000 0.1377316555
H   H7        1.0  0.45202  0.56316  0.20544  1.0000 0.1188911088
H   H8        1.0  0.31296  0.56164  0.12425  1.0000 0.1188911088
H   H9        1.0  0.72921  0.46897  0.01531  1.0000 0.1292030291
H   H10       1.0  0.81377  0.86268  0.47468  1.0000 0.1188911088
H   H11       1.0  0.69765  0.02543  0.53485  1.0000 0.1188911088
H   H12       1.0  0.50747  0.82885  0.42549  1.0000 0.1377316555
H   H13       1.0  0.17454  0.81170  0.45034  1.0000 0.1292030291
H   H14       1.0  0.94777  0.77646  0.67895  1.0000 0.1292030291
H   H15       1.0  0.84836  0.98230  0.64899  1.0000 0.1292030291
H   H16       1.0  0.91515  0.30360  0.89690  1.0000 0.1148907384
H   H17       1.0  0.79738  0.19336  0.98877  1.0000 0.1292030291
H   H18       1.0  0.22043  0.00766  0.92176  1.0000 0.1377316555
H   H19       1.0  0.54798  0.43684  0.79456  1.0000 0.1188911088
H   H20       1.0  0.68704  0.43836  0.87575  1.0000 0.1188911088
H   H21       1.0  0.27079  0.53103  0.98469  1.0000 0.1292030291
H   H22       1.0  0.18623  0.13732  0.52532  1.0000 0.1188911088
H   H23       1.0  0.30235  0.97457  0.46515  1.0000 0.1188911088
H   H24       1.0  0.49253  0.17115  0.57451  1.0000 0.1377316555
H   H25       1.0  0.90817  0.48077  0.71186  1.0000 0.2599373451
H   H26       1.0  0.99603  0.41173  0.64993  1.0000 0.2786193481
H   H27       1.0  0.89057  0.29275  0.73890  1.0000 0.1377316555
H   H28       1.0  0.76526  0.39765  0.71284  1.0000 0.1292030291
H   H29       1.0  0.85471  0.32790  0.64029  1.0000 0.1472166656
H   H30       1.0  0.91937  0.59986  0.56896  1.0000 0.1377316555
H   H31       1.0  0.86486  0.51606  0.54015  1.0000 0.1472166656
H   H32       1.0  0.78342  0.59867  0.60743  1.0000 0.1292030291
H   H33       1.0  0.09183  0.51923  0.28814  1.0000 0.2599373451
H   H34       1.0  0.00397  0.58827  0.35007  1.0000 0.2786193481
H   H35       1.0  0.10943  0.70725  0.26110  1.0000 0.1377316555
H   H36       1.0  0.23474  0.60235  0.28716  1.0000 0.1292030291
H   H37       1.0  0.14529  0.67210  0.35971  1.0000 0.1472166656
H   H38       1.0  0.08063  0.40014  0.43104  1.0000 0.1377316555
H   H39       1.0  0.13514  0.48394  0.45985  1.0000 0.1472166656
H   H40       1.0  0.21658  0.40133  0.39257  1.0000 0.1292030291
C   C1        1.0  0.85860  0.35980  0.41170  1.0000 0.5416116407
C   C2        1.0  0.92770  0.22530  0.43330  1.0000 0.0015231613
C   C3        1.0  0.89150  0.15280  0.50970  1.0000 -0.1514885584
C   C4        1.0  0.95040  0.02610  0.53020  1.0000 0.0630480191
C   C5        1.0  0.02660  0.17340  0.37380  1.0000 -0.0970259579
C   C6        1.0  0.08540  0.05130  0.39170  1.0000 -0.1415685126
C   C7        1.0  0.84360  0.76180  0.15960  1.0000 0.5416116407
C   C8        1.0  0.04750  0.78020  0.07930  1.0000 -0.1079026135
C   C9        1.0  0.11760  0.84560  0.02520  1.0000 -0.1514885584
C   C10       1.0  0.06420  0.97190  0.98950  1.0000 0.0739905527
C   C11       1.0  0.86540  0.95620  0.06550  1.0000 -0.1415685126
C   C12       1.0  0.92040  0.83460  0.10050  1.0000 0.009015155
C   C13       1.0  0.69540  0.52180  0.16980  1.0000 0.5416116407
C   C14       1.0  0.60480  0.51620  0.11720  1.0000 0.0157991545
C   C15       1.0  0.47950  0.54380  0.14910  1.0000 -0.0930425683
C   C16       1.0  0.39700  0.54320  0.10120  1.0000 -0.1514885584
C   C17       1.0  0.56310  0.48530  0.98430  1.0000 0.0739905527
C   C18       1.0  0.64460  0.48770  0.03670  1.0000 -0.1415685126
C   C19       1.0  0.74870  0.72960  0.39860  1.0000 0.5633427194
C   C20       1.0  0.67000  0.83140  0.44220  1.0000 -0.0049361484
C   C21       1.0  0.72720  0.89040  0.47660  1.0000 -0.0970259579
C   C22       1.0  0.65810  0.98670  0.51230  1.0000 -0.1415685126
C   C23       1.0  0.52930  0.03020  0.51650  1.0000 0.0787469139
C   C24       1.0  0.54520  0.87010  0.44710  1.0000 -0.1415685126
C   C25       1.0  0.14140  0.64020  0.58830  1.0000 0.5416116407
C   C26       1.0  0.07230  0.77470  0.56670  1.0000 0.0015231613
C   C27       1.0  0.10850  0.84720  0.49030  1.0000 -0.1514885584
C   C28       1.0  0.04960  0.97390  0.46980  1.0000 0.0630480191
C   C29       1.0  0.97340  0.82660  0.62620  1.0000 -0.0970259579
C   C30       1.0  0.91460  0.94870  0.60830  1.0000 -0.1415685126
C   C31       1.0  0.15640  0.23820  0.84040  1.0000 0.5416116407
C   C32       1.0  0.95250  0.21980  0.92070  1.0000 -0.1079026135
C   C33       1.0  0.88240  0.15440  0.97480  1.0000 -0.1514885584
C   C34       1.0  0.93580  0.02810  0.01050  1.0000 0.0739905527
C   C35       1.0  0.13460  0.04380  0.93450  1.0000 -0.1415685126
C   C36       1.0  0.07960  0.16540  0.89950  1.0000 0.009015155
C   C37       1.0  0.30460  0.47820  0.83020  1.0000 0.5416116407
C   C38       1.0  0.39520  0.48380  0.88280  1.0000 0.0157991545
C   C39       1.0  0.52050  0.45620  0.85090  1.0000 -0.0930425683
C   C40       1.0  0.60300  0.45680  0.89880  1.0000 -0.1514885584
C   C41       1.0  0.43690  0.51470  0.01570  1.0000 0.0739905527
C   C42       1.0  0.35540  0.51230  0.96330  1.0000 -0.1415685126
C   C43       1.0  0.25130  0.27040  0.60140  1.0000 0.5633427194
C   C44       1.0  0.33000  0.16860  0.55780  1.0000 -0.0049361484
C   C45       1.0  0.27280  0.10960  0.52340  1.0000 -0.0970259579
C   C46       1.0  0.34190  0.01330  0.48770  1.0000 -0.1415685126
C   C47       1.0  0.47070  0.96980  0.48350  1.0000 0.0787469139
C   C48       1.0  0.45480  0.12990  0.55290  1.0000 -0.1415685126
C   C49       1.0  0.85100  0.35930  0.69140  1.0000 -0.2852306971
C   C50       1.0  0.86660  0.54950  0.58890  1.0000 -0.3059839913
C   C51       1.0  0.14900  0.64070  0.30860  1.0000 -0.2852306971
C   C52       1.0  0.13340  0.45050  0.41110  1.0000 -0.3059839913
N   N1        1.0  0.91500  0.44950  0.66470  1.0000 -0.0970259579
N   N2        1.0  0.08500  0.55050  0.33530  1.0000 -0.0970259579
O   O1        1.0  0.77020  0.40190  0.46290  1.0000 -0.5125004211
O   O2        1.0  0.89820  0.42010  0.33940  1.0000 -0.536796839
O   O3        1.0  0.73040  0.80460  0.16410  1.0000 -0.4499998996
O   O4        1.0  0.90250  0.65730  0.20358  1.0000 -0.5505269179
O   O5        1.0  0.65100  0.55860  0.24150  1.0000 -0.475472481
O   O6        1.0  0.80440  0.49270  0.14200  1.0000 -0.4637966463
O   O7        1.0  0.68940  0.68430  0.36610  1.0000 -0.5125004211
O   O8        1.0  0.86130  0.69850  0.39430  1.0000 -0.5505269179
O   O9        1.0  0.22980  0.59810  0.53710  1.0000 -0.5125004211
O   O10       1.0  0.10180  0.57990  0.66060  1.0000 -0.536796839
O   O11       1.0  0.26960  0.19540  0.83590  1.0000 -0.4499998996
O   O12       1.0  0.09750  0.34270  0.79642  1.0000 -0.5505269179
O   O13       1.0  0.34900  0.44140  0.75850  1.0000 -0.475472481
O   O14       1.0  0.19560  0.50730  0.85800  1.0000 -0.4637966463
O   O15       1.0  0.31060  0.31570  0.63390  1.0000 -0.5125004211
O   O16       1.0  0.13870  0.30150  0.60570  1.0000 -0.5505269179
