# DDEC6 charges by PACMAN v1.1 (https://github.com/mtap-research/PACMAN-charge/)
data_2021[U][pcu]3[ION]1
_chemical_formula_sum              "U4 H80 C72 N30 O40"
_cell_length_a       12.6937
_cell_length_b       16.8729
_cell_length_c       18.3064
_cell_angle_alpha    91.7037
_cell_angle_beta     102.721
_cell_angle_gamma    107.416

_symmetry_space_group_name_H-M    "P 1"
_symmetry_Int_Tables_number       1

loop_
  _symmetry_equiv_pos_as_xyz
  'x, y, z'

loop_
  _atom_site_type_symbol
  _atom_site_label
  _atom_site_symmetry_multiplicity
  _atom_site_fract_x
  _atom_site_fract_y
  _atom_site_fract_z
  _atom_site_occupancy
  _atom_site_charge
U   U1        1.0  0.46991  0.53662  0.08738  1.0000 2.5700234387
U   U2        1.0  0.35163  0.60195  0.87344  1.0000 2.5700234387
U   U3        1.0  0.53009  0.46338  0.91262  1.0000 2.5700234387
U   U4        1.0  0.64837  0.39805  0.12656  1.0000 2.5700234387
H   H1        1.0  0.35050  0.38400  0.70490  1.0000 0.1281004314
H   H2        1.0  0.27060  0.42040  0.73990  1.0000 0.1400106017
H   H3        1.0  0.23410  0.79100  0.98500  1.0000 0.1202936491
H   H4        1.0  0.18080  0.66990  0.76930  1.0000 0.4047682498
H   H5        1.0  0.22450  0.73220  0.84340  1.0000 0.4151616309
H   H6        1.0  0.12840  0.51450  0.42720  1.0000 0.1093492371
H   H7        1.0  0.03960  0.56040  0.39540  1.0000 0.1093492371
H   H8        1.0  0.99030  0.41680  0.47420  1.0000 0.1015039129
H   H9        1.0  0.90040  0.46120  0.44140  1.0000 0.1093492371
H   H10       1.0  0.19680  0.44020  0.31210  1.0000 0.1400106017
H   H11       1.0  0.94940  0.19840  0.38010  1.0000 0.1281004314
H   H12       1.0  0.92130  0.13930  0.44240  1.0000 0.1202936491
H   H13       1.0  0.52340  0.61600  0.62160  1.0000 0.1202936491
H   H14       1.0  0.17190  0.89990  0.96200  1.0000 0.1093492371
H   H15       1.0  0.25820  0.98540  0.00210  1.0000 0.1202936491
H   H16       1.0  0.46540  0.74090  0.66910  1.0000 0.1281004314
H   H17       1.0  0.37710  0.71460  0.71860  1.0000 0.1202936491
H   H18       1.0  0.47550  0.48100  0.63970  1.0000 0.1093492371
H   H19       1.0  0.06330  0.17130  0.56420  1.0000 0.1015039129
H   H20       1.0  0.95040  0.53210  0.22410  1.0000 0.1494434987
H   H21       1.0  0.01830  0.39430  0.34490  1.0000 0.1281004314
H   H22       1.0  0.92520  0.43700  0.31500  1.0000 0.1202936491
H   H23       1.0  0.22380  0.58050  0.14130  1.0000 0.1400106017
H   H24       1.0  0.48520  0.70960  0.51400  1.0000 0.1093492371
H   H25       1.0  0.41610  0.65800  0.43660  1.0000 0.1202936491
H   H26       1.0  0.33480  0.36340  0.46190  1.0000 0.1202936491
H   H27       1.0  0.38490  0.34650  0.54380  1.0000 0.1093492371
H   H28       1.0  0.74410  0.13890  0.48640  1.0000 0.1015039129
H   H29       1.0  0.59230  0.18670  0.44240  1.0000 0.1093492371
H   H30       1.0  0.12030  0.83880  0.39110  1.0000 0.1202936491
H   H31       1.0  0.11060  0.76310  0.33550  1.0000 0.1202936491
H   H32       1.0  0.09550  0.04010  0.97400  1.0000 0.093771166
H   H33       1.0  0.01090  0.95150  0.94100  1.0000 0.093771166
H   H34       1.0  0.15030  0.98680  0.08940  1.0000 0.1015039129
H   H35       1.0  0.06700  0.89780  0.05500  1.0000 0.1093492371
H   H36       1.0  0.24570  0.25540  0.60580  1.0000 0.1093492371
H   H37       1.0  0.05270  0.59810  0.13950  1.0000 0.1494434987
H   H38       1.0  0.46710  0.79070  0.17110  1.0000 0.1554926549
H   H39       1.0  0.46000  0.92030  0.21410  1.0000 0.1400106017
H   H40       1.0  0.34960  0.98400  0.13900  1.0000 0.1202936491
H   H41       1.0  0.64950  0.61600  0.29510  1.0000 0.1281004314
H   H42       1.0  0.72940  0.57960  0.26010  1.0000 0.1400106017
H   H43       1.0  0.76590  0.20900  0.01500  1.0000 0.1202936491
H   H44       1.0  0.81920  0.33010  0.23070  1.0000 0.4047682498
H   H45       1.0  0.77550  0.26780  0.15660  1.0000 0.4151616309
H   H46       1.0  0.87160  0.48550  0.57280  1.0000 0.1093492371
H   H47       1.0  0.96040  0.43960  0.60460  1.0000 0.1093492371
H   H48       1.0  0.00970  0.58320  0.52580  1.0000 0.1015039129
H   H49       1.0  0.09960  0.53880  0.55860  1.0000 0.1093492371
H   H50       1.0  0.80320  0.55980  0.68790  1.0000 0.1400106017
H   H51       1.0  0.05060  0.80160  0.61990  1.0000 0.1281004314
H   H52       1.0  0.07870  0.86070  0.55760  1.0000 0.1202936491
H   H53       1.0  0.47660  0.38400  0.37840  1.0000 0.1202936491
H   H54       1.0  0.82810  0.10010  0.03800  1.0000 0.1093492371
H   H55       1.0  0.74180  0.01460  0.99790  1.0000 0.1202936491
H   H56       1.0  0.53460  0.25910  0.33090  1.0000 0.1281004314
H   H57       1.0  0.62290  0.28540  0.28140  1.0000 0.1202936491
H   H58       1.0  0.52450  0.51900  0.36030  1.0000 0.1093492371
H   H59       1.0  0.93670  0.82870  0.43580  1.0000 0.1093492371
H   H60       1.0  0.04960  0.46790  0.77590  1.0000 0.1494434987
H   H61       1.0  0.98170  0.60570  0.65510  1.0000 0.1281004314
H   H62       1.0  0.07480  0.56300  0.68500  1.0000 0.1202936491
H   H63       1.0  0.77620  0.41950  0.85870  1.0000 0.1400106017
H   H64       1.0  0.51480  0.29040  0.48600  1.0000 0.1093492371
H   H65       1.0  0.58390  0.34200  0.56340  1.0000 0.1202936491
H   H66       1.0  0.66520  0.63660  0.53810  1.0000 0.1202936491
H   H67       1.0  0.61510  0.65350  0.45620  1.0000 0.1093492371
H   H68       1.0  0.25590  0.86110  0.51360  1.0000 0.1015039129
H   H69       1.0  0.40770  0.81330  0.55760  1.0000 0.1093492371
H   H70       1.0  0.87970  0.16120  0.60890  1.0000 0.1202936491
H   H71       1.0  0.88940  0.23690  0.66450  1.0000 0.1202936491
H   H72       1.0  0.90450  0.95990  0.02600  1.0000 0.093771166
H   H73       1.0  0.98910  0.04850  0.05900  1.0000 0.093771166
H   H74       1.0  0.84970  0.01320  0.91060  1.0000 0.1015039129
H   H75       1.0  0.93300  0.10220  0.94500  1.0000 0.1093492371
H   H76       1.0  0.75430  0.74460  0.39420  1.0000 0.1093492371
H   H77       1.0  0.94730  0.40190  0.86050  1.0000 0.1494434987
H   H78       1.0  0.53290  0.20930  0.82890  1.0000 0.1554926549
H   H79       1.0  0.54000  0.07970  0.78590  1.0000 0.1400106017
H   H80       1.0  0.65040  0.01600  0.86100  1.0000 0.1202936491
C   C1        1.0  0.28770  0.40670  0.69300  1.0000 0.0481594851
C   C2        1.0  0.34440  0.49790  0.22860  1.0000 0.5771696184
C   C3        1.0  0.27750  0.81540  0.03270  1.0000 -0.0080181255
C   C4        1.0  0.34600  0.77620  0.07500  1.0000 -0.074009889
C   C5        1.0  0.04830  0.50650  0.40630  1.0000 -0.1522465955
C   C6        1.0  0.98060  0.47030  0.46300  1.0000 -0.139098397
C   C7        1.0  0.16850  0.47230  0.27720  1.0000 0.0481594851
C   C8        1.0  0.31840  0.55760  0.68580  1.0000 0.5576336597
C   C9        1.0  0.23080  0.50940  0.22680  1.0000 -0.0425861079
C   C10       1.0  0.93610  0.19660  0.43030  1.0000 0.0296995359
C   C11       1.0  0.44090  0.58900  0.60630  1.0000 0.1093492371
C   C12       1.0  0.20690  0.93280  0.01040  1.0000 -0.139098397
C   C13       1.0  0.38910  0.70600  0.66880  1.0000 0.0392369208
C   C14       1.0  0.40950  0.49640  0.61370  1.0000 0.1281004314
C   C15       1.0  0.06940  0.23040  0.56110  1.0000 0.1093492371
C   C16       1.0  0.02170  0.52740  0.22490  1.0000 0.0696122561
C   C17       1.0  0.00620  0.44720  0.33410  1.0000 -0.1172876816
C   C18       1.0  0.18360  0.55560  0.17580  1.0000 -0.0425861079
C   C19       1.0  0.41270  0.66990  0.48810  1.0000 0.0481594851
C   C20       1.0  0.12740  0.29570  0.45920  1.0000 0.5225746845
C   C21       1.0  0.36370  0.51480  0.48680  1.0000 0.5225746845
C   C22       1.0  0.33160  0.37090  0.51400  1.0000 0.0481594851
C   C23       1.0  0.76880  0.19940  0.48340  1.0000 0.1093492371
C   C24       1.0  0.66500  0.23180  0.45300  1.0000 0.1202936491
C   C25       1.0  0.78670  0.25470  0.37040  1.0000 0.5285428379
C   C26       1.0  0.10220  0.77860  0.38480  1.0000 0.0296995359
C   C27       1.0  0.08860  0.32400  0.66480  1.0000 0.5121379112
C   C28       1.0  0.04520  0.98950  0.98670  1.0000 -0.1767462577
C   C29       1.0  0.11560  0.94970  0.04320  1.0000 -0.2115774836
C   C30       1.0  0.19470  0.28780  0.58730  1.0000 0.1202936491
C   C31       1.0  0.35740  0.69590  0.04280  1.0000 0.6387053345
C   C32       1.0  0.24440  0.70600  0.42350  1.0000 0.5121379112
C   C33       1.0  0.08180  0.56600  0.17390  1.0000 -0.1172876816
C   C34       1.0  0.41780  0.81560  0.14270  1.0000 -0.0593774106
C   C35       1.0  0.41470  0.89350  0.16760  1.0000 -0.139098397
C   C36       1.0  0.34640  0.92990  0.12440  1.0000 -0.0593774106
C   C37       1.0  0.71230  0.59330  0.30700  1.0000 0.0481594851
C   C38       1.0  0.65560  0.50210  0.77140  1.0000 0.5771696184
C   C39       1.0  0.72250  0.18460  0.96730  1.0000 -0.0080181255
C   C40       1.0  0.65400  0.22380  0.92500  1.0000 -0.074009889
C   C41       1.0  0.95170  0.49350  0.59370  1.0000 -0.1522465955
C   C42       1.0  0.01940  0.52970  0.53700  1.0000 -0.139098397
C   C43       1.0  0.83150  0.52770  0.72280  1.0000 0.0481594851
C   C44       1.0  0.68160  0.44240  0.31420  1.0000 0.5576336597
C   C45       1.0  0.76920  0.49060  0.77320  1.0000 -0.0425861079
C   C46       1.0  0.06390  0.80340  0.56970  1.0000 0.0296995359
C   C47       1.0  0.55910  0.41100  0.39370  1.0000 0.1093492371
C   C48       1.0  0.79310  0.06720  0.98960  1.0000 -0.139098397
C   C49       1.0  0.61090  0.29400  0.33120  1.0000 0.0392369208
C   C50       1.0  0.59050  0.50360  0.38630  1.0000 0.1281004314
C   C51       1.0  0.93060  0.76960  0.43890  1.0000 0.1093492371
C   C52       1.0  0.97830  0.47260  0.77510  1.0000 0.0696122561
C   C53       1.0  0.99380  0.55280  0.66590  1.0000 -0.1172876816
C   C54       1.0  0.81640  0.44440  0.82420  1.0000 -0.0425861079
C   C55       1.0  0.58730  0.33010  0.51190  1.0000 0.0481594851
C   C56       1.0  0.87260  0.70430  0.54080  1.0000 0.5225746845
C   C57       1.0  0.63630  0.48520  0.51320  1.0000 0.5225746845
C   C58       1.0  0.66840  0.62910  0.48600  1.0000 0.0481594851
C   C59       1.0  0.23120  0.80060  0.51660  1.0000 0.1093492371
C   C60       1.0  0.33500  0.76820  0.54700  1.0000 0.1202936491
C   C61       1.0  0.21330  0.74530  0.62960  1.0000 0.5285428379
C   C62       1.0  0.89780  0.22140  0.61520  1.0000 0.0296995359
C   C63       1.0  0.91140  0.67600  0.33520  1.0000 0.5121379112
C   C64       1.0  0.95480  0.01050  0.01330  1.0000 -0.1767462577
C   C65       1.0  0.88440  0.05030  0.95680  1.0000 -0.2115774836
C   C66       1.0  0.80530  0.71220  0.41270  1.0000 0.1202936491
C   C67       1.0  0.64260  0.30410  0.95720  1.0000 0.6387053345
C   C68       1.0  0.75560  0.29400  0.57650  1.0000 0.5121379112
C   C69       1.0  0.91820  0.43400  0.82610  1.0000 -0.1172876816
C   C70       1.0  0.58220  0.18440  0.85730  1.0000 -0.0593774106
C   C71       1.0  0.58530  0.10650  0.83240  1.0000 -0.139098397
C   C72       1.0  0.65360  0.07010  0.87560  1.0000 -0.0593774106
N   N1        1.0  0.38280  0.62070  0.65520  1.0000 -0.1952143546
N   N2        1.0  0.32320  0.48250  0.65770  1.0000 -0.2434582945
N   N3        1.0  0.06720  0.48300  0.27550  1.0000 0.1281004314
N   N4        1.0  0.18170  0.75400  0.44150  1.0000 -0.2489828403
N   N5        1.0  0.19110  0.34440  0.64800  1.0000 -0.2277585763
N   N6        1.0  0.69120  0.26630  0.38490  1.0000 -0.2489828403
N   N7        1.0  0.27240  0.88830  0.05940  1.0000 0.0592612762
N   N8        1.0  0.22000  0.32620  0.52060  1.0000 -0.2434582945
N   N9        1.0  0.39570  0.59240  0.52490  1.0000 -0.2785491582
N   N10       1.0  0.83670  0.22140  0.43020  1.0000 -0.2190625231
N   N11       1.0  0.03820  0.24860  0.48340  1.0000 -0.2277585763
N   N12       1.0  0.36800  0.45850  0.53750  1.0000 -0.2115774836
N   N13       1.0  0.01290  0.25900  0.61170  1.0000 -0.2489828403
N   N14       1.0  0.32640  0.70670  0.48730  1.0000 -0.2190625231
N   N15       1.0  0.61720  0.37930  0.34480  1.0000 -0.1941984083
N   N16       1.0  0.67680  0.51750  0.34230  1.0000 -0.2434582945
N   N17       1.0  0.93280  0.51700  0.72450  1.0000 0.1281004314
N   N18       1.0  0.81830  0.24600  0.55850  1.0000 -0.2489828403
N   N19       1.0  0.80890  0.65560  0.35200  1.0000 -0.2277585763
N   N20       1.0  0.30880  0.73370  0.61510  1.0000 -0.2489828403
N   N21       1.0  0.72760  0.11170  0.94060  1.0000 0.0592612762
N   N22       1.0  0.78000  0.67380  0.47940  1.0000 -0.2434582945
N   N23       1.0  0.60430  0.40760  0.47510  1.0000 -0.2785491582
N   N24       1.0  0.16330  0.77860  0.56980  1.0000 -0.2190625231
N   N25       1.0  0.96180  0.75140  0.51660  1.0000 -0.2277585763
N   N26       1.0  0.63200  0.54150  0.46250  1.0000 -0.2115774836
N   N27       1.0  0.98710  0.74100  0.38830  1.0000 -0.2489828403
N   N28       1.0  0.67360  0.29330  0.51270  1.0000 -0.2190625231
N   N29       1.0  0.31220  0.14580  0.45790  1.0000 0.7649444555
N   N30       1.0  0.68780  0.85420  0.54210  1.0000 0.7764363502
O   O1        1.0  0.46190  0.56030  0.96530  1.0000 -1.1631518389
O   O2        1.0  0.45890  0.54180  0.82060  1.0000 -0.9790805365
O   O3        1.0  0.35780  0.43080  0.24880  1.0000 -0.4815281596
O   O4        1.0  0.32750  0.46600  0.06070  1.0000 -0.6234497215
O   O5        1.0  0.41370  0.55670  0.20670  1.0000 -0.5907474543
O   O6        1.0  0.34230  0.50000  0.41890  1.0000 -0.4883644567
O   O7        1.0  0.23690  0.50720  0.87710  1.0000 -0.6912768469
O   O8        1.0  0.12930  0.31140  0.39400  1.0000 -0.5073915805
O   O9        1.0  0.26470  0.56750  0.73180  1.0000 -0.5692403849
O   O10       1.0  0.40780  0.65750  0.08620  1.0000 -0.5692403849
O   O11       1.0  0.82210  0.27050  0.31370  1.0000 -0.531913736
O   O12       1.0  0.60850  0.61180  0.11830  1.0000 -0.6267803397
O   O13       1.0  0.31420  0.67530  0.97340  1.0000 -0.6267803397
O   O14       1.0  0.45420  0.70050  0.86450  1.0000 -0.6961041476
O   O15       1.0  0.06540  0.35410  0.71620  1.0000 -0.4815281596
O   O16       1.0  0.20330  0.67080  0.82560  1.0000 -0.8187808778
O   O17       1.0  0.23180  0.66960  0.36280  1.0000 -0.4815281596
O   O18       1.0  0.53810  0.43970  0.03470  1.0000 -1.1685650136
O   O19       1.0  0.54110  0.45820  0.17940  1.0000 -0.9853365804
O   O20       1.0  0.64220  0.56920  0.75120  1.0000 -0.4883644567
O   O21       1.0  0.67250  0.53400  0.93930  1.0000 -0.6234497215
O   O22       1.0  0.58630  0.44330  0.79330  1.0000 -0.5907474543
O   O23       1.0  0.65770  0.50000  0.58110  1.0000 -0.4883644567
O   O24       1.0  0.76310  0.49280  0.12290  1.0000 -0.6912768469
O   O25       1.0  0.87070  0.68860  0.60600  1.0000 -0.5073915805
O   O26       1.0  0.73530  0.43250  0.26820  1.0000 -0.5692403849
O   O27       1.0  0.59220  0.34250  0.91380  1.0000 -0.5692403849
O   O28       1.0  0.17790  0.72950  0.68630  1.0000 -0.531913736
O   O29       1.0  0.39150  0.38820  0.88170  1.0000 -0.6267803397
O   O30       1.0  0.68580  0.32470  0.02660  1.0000 -0.6267803397
O   O31       1.0  0.54580  0.29950  0.13550  1.0000 -0.6912768469
O   O32       1.0  0.93460  0.64590  0.28380  1.0000 -0.4815281596
O   O33       1.0  0.79670  0.32920  0.17440  1.0000 -0.8187808778
O   O34       1.0  0.76820  0.33040  0.63720  1.0000 -0.4815281596
O   O35       1.0  0.34330  0.17020  0.39740  1.0000 -0.5215935792
O   O36       1.0  0.20330  0.11840  0.46500  1.0000 -0.5618170585
O   O37       1.0  0.38890  0.15700  0.52430  1.0000 -0.5802809384
O   O38       1.0  0.65670  0.82980  0.60260  1.0000 -0.5215935792
O   O39       1.0  0.79670  0.88160  0.53500  1.0000 -0.5618170585
O   O40       1.0  0.61110  0.84300  0.47570  1.0000 -0.5802809384
