# DDEC6 charges by PACMAN v1.1 (https://github.com/mtap-research/PACMAN-charge/)
data_2022[MnCu][sql]2[ION]1
_chemical_formula_sum              "Mn4 Cu4 H140 C112 N16 O48"
_cell_length_a       9.5588
_cell_length_b       24.6546
_cell_length_c       18.9161
_cell_angle_alpha    90
_cell_angle_beta     113.224
_cell_angle_gamma    90

_symmetry_space_group_name_H-M    "P 1"
_symmetry_Int_Tables_number       1

loop_
  _symmetry_equiv_pos_as_xyz
  'x, y, z'

loop_
  _atom_site_type_symbol
  _atom_site_label
  _atom_site_symmetry_multiplicity
  _atom_site_fract_x
  _atom_site_fract_y
  _atom_site_fract_z
  _atom_site_occupancy
  _atom_site_charge
Mn  Mn1       1.0  0.84400  0.80827  0.61393  1.0000 1.0165174402
Mn  Mn2       1.0  0.84400  0.69173  0.11393  1.0000 1.0147085982
Mn  Mn3       1.0  0.15600  0.30827  0.88607  1.0000 1.0147085982
Mn  Mn4       1.0  0.15600  0.19173  0.38607  1.0000 1.0147085982
Cu  Cu1       1.0  0.33774  0.80641  0.11112  1.0000 0.7512290873
Cu  Cu2       1.0  0.33774  0.69359  0.61112  1.0000 0.7512290873
Cu  Cu3       1.0  0.66226  0.30641  0.38888  1.0000 0.7512290873
Cu  Cu4       1.0  0.66226  0.19359  0.88888  1.0000 0.7512290873
H   H1        1.0  0.97611  0.89718  0.00628  1.0000 0.1307348855
H   H2        1.0  0.86306  0.93356  0.88413  1.0000 0.1206542835
H   H3        1.0  0.97817  0.80025  0.79953  1.0000 0.1307348855
H   H4        1.0  0.08577  0.76334  0.92066  1.0000 0.1416085415
H   H5        1.0  0.79518  0.76847  0.30407  1.0000 0.1307348855
H   H6        1.0  0.86886  0.80450  0.42569  1.0000 0.1206542835
H   H7        1.0  0.55490  0.92022  0.34502  1.0000 0.1307348855
H   H8        1.0  0.47207  0.88258  0.22464  1.0000 0.1307348855
H   H9        1.0  0.27688  0.95164  0.95981  1.0000 0.1588844226
H   H10       1.0  0.30119  0.99362  0.02587  1.0000 0.1588844226
H   H11       1.0  0.44171  0.96451  0.01965  1.0000 0.1588844226
H   H12       1.0  0.97611  0.60282  0.50628  1.0000 0.1307348855
H   H13       1.0  0.86306  0.56644  0.38413  1.0000 0.1206542835
H   H14       1.0  0.97817  0.69975  0.29953  1.0000 0.1307348855
H   H15       1.0  0.08577  0.73666  0.42066  1.0000 0.1416085415
H   H16       1.0  0.79518  0.73153  0.80407  1.0000 0.1307348855
H   H17       1.0  0.86886  0.69550  0.92569  1.0000 0.1206542835
H   H18       1.0  0.55490  0.57978  0.84502  1.0000 0.1307348855
H   H19       1.0  0.47207  0.61742  0.72464  1.0000 0.1307348855
H   H20       1.0  0.27688  0.54836  0.45981  1.0000 0.1588844226
H   H21       1.0  0.30119  0.50638  0.52587  1.0000 0.1588844226
H   H22       1.0  0.44171  0.53549  0.51965  1.0000 0.1588844226
H   H23       1.0  0.02389  0.39718  0.49372  1.0000 0.1307348855
H   H24       1.0  0.13694  0.43356  0.61587  1.0000 0.1206542835
H   H25       1.0  0.02183  0.30025  0.70047  1.0000 0.1307348855
H   H26       1.0  0.91423  0.26334  0.57934  1.0000 0.1416085415
H   H27       1.0  0.20482  0.26847  0.19593  1.0000 0.1307348855
H   H28       1.0  0.13114  0.30450  0.07431  1.0000 0.1206542835
H   H29       1.0  0.44510  0.42022  0.15498  1.0000 0.1307348855
H   H30       1.0  0.52793  0.38258  0.27536  1.0000 0.1307348855
H   H31       1.0  0.72312  0.45164  0.54019  1.0000 0.1588844226
H   H32       1.0  0.69881  0.49362  0.47413  1.0000 0.1588844226
H   H33       1.0  0.55829  0.46451  0.48035  1.0000 0.1588844226
H   H34       1.0  0.02389  0.10282  0.99372  1.0000 0.1307348855
H   H35       1.0  0.13694  0.06644  0.11587  1.0000 0.1206542835
H   H36       1.0  0.02183  0.19975  0.20047  1.0000 0.1307348855
H   H37       1.0  0.91423  0.23666  0.07934  1.0000 0.1416085415
H   H38       1.0  0.20482  0.23153  0.69593  1.0000 0.1307348855
H   H39       1.0  0.13114  0.19550  0.57431  1.0000 0.1206542835
H   H40       1.0  0.44510  0.07978  0.65498  1.0000 0.1307348855
H   H41       1.0  0.52793  0.11742  0.77536  1.0000 0.1307348855
H   H42       1.0  0.72312  0.04836  0.04019  1.0000 0.1588844226
H   H43       1.0  0.69881  0.00638  0.97413  1.0000 0.1588844226
H   H44       1.0  0.55829  0.03549  0.98035  1.0000 0.1588844226
H   H45       1.0  0.85509  0.84262  0.17465  1.0000 0.1588844226
H   H46       1.0  0.88754  0.87468  0.11115  1.0000 0.1506914398
H   H47       1.0  0.76934  0.89714  0.14235  1.0000 0.1506914398
H   H48       1.0  0.85357  0.93991  0.26697  1.0000 0.1506914398
H   H49       1.0  0.02520  0.93600  0.32328  1.0000 0.1653392412
H   H50       1.0  0.92396  0.88366  0.30157  1.0000 0.1416085415
H   H51       1.0  0.11727  0.84226  0.26608  1.0000 0.1588844226
H   H52       1.0  0.21412  0.89535  0.27771  1.0000 0.1653392412
H   H53       1.0  0.15272  0.86574  0.19790  1.0000 0.1506914398
H   H54       1.0  0.03399  0.95453  0.14025  1.0000 0.1506914398
H   H55       1.0  0.10245  0.97824  0.22390  1.0000 0.1588844226
H   H56       1.0  0.92789  0.98397  0.17359  1.0000 0.1416085415
H   H57       1.0  0.73484  0.16290  0.19451  1.0000 0.1588844226
H   H58       1.0  0.69862  0.14968  0.10799  1.0000 0.1506914398
H   H59       1.0  0.63844  0.11147  0.15605  1.0000 0.1506914398
H   H60       1.0  0.43635  0.13709  0.18929  1.0000 0.1506914398
H   H61       1.0  0.34929  0.19201  0.16146  1.0000 0.1416085415
H   H62       1.0  0.51130  0.19171  0.22850  1.0000 0.1588844226
H   H63       1.0  0.46136  0.16358  0.01200  1.0000 0.1506914398
H   H64       1.0  0.32303  0.18476  0.02893  1.0000 0.1506914398
H   H65       1.0  0.38205  0.12529  0.05117  1.0000 0.1416085415
H   H66       1.0  0.61875  0.25236  0.16985  1.0000 0.1506914398
H   H67       1.0  0.46275  0.26024  0.09984  1.0000 0.1506914398
H   H68       1.0  0.60777  0.24326  0.08580  1.0000 0.1588844226
H   H69       1.0  0.14491  0.34262  0.32535  1.0000 0.1588844226
H   H70       1.0  0.11246  0.37468  0.38885  1.0000 0.1506914398
H   H71       1.0  0.23066  0.39714  0.35765  1.0000 0.1506914398
H   H72       1.0  0.14643  0.43991  0.23303  1.0000 0.1506914398
H   H73       1.0  0.97480  0.43600  0.17672  1.0000 0.1588844226
H   H74       1.0  0.07604  0.38366  0.19843  1.0000 0.1416085415
H   H75       1.0  0.88273  0.34226  0.23392  1.0000 0.1588844226
H   H76       1.0  0.78588  0.39535  0.22229  1.0000 0.1653392412
H   H77       1.0  0.84728  0.36574  0.30210  1.0000 0.1506914398
H   H78       1.0  0.96601  0.45453  0.35975  1.0000 0.1506914398
H   H79       1.0  0.89755  0.47824  0.27610  1.0000 0.1588844226
H   H80       1.0  0.07211  0.48397  0.32641  1.0000 0.1416085415
H   H81       1.0  0.26516  0.66290  0.30549  1.0000 0.1588844226
H   H82       1.0  0.30138  0.64968  0.39201  1.0000 0.1506914398
H   H83       1.0  0.36156  0.61147  0.34395  1.0000 0.1506914398
H   H84       1.0  0.56365  0.63709  0.31071  1.0000 0.1506914398
H   H85       1.0  0.65071  0.69201  0.33854  1.0000 0.1416085415
H   H86       1.0  0.48870  0.69171  0.27150  1.0000 0.1588844226
H   H87       1.0  0.53864  0.66358  0.48800  1.0000 0.1506914398
H   H88       1.0  0.67697  0.68476  0.47107  1.0000 0.1506914398
H   H89       1.0  0.61795  0.62529  0.44883  1.0000 0.1416085415
H   H90       1.0  0.38125  0.75236  0.33015  1.0000 0.1506914398
H   H91       1.0  0.53725  0.76024  0.40016  1.0000 0.1506914398
H   H92       1.0  0.39223  0.74326  0.41420  1.0000 0.1588844226
H   H93       1.0  0.14491  0.15738  0.82535  1.0000 0.1588844226
H   H94       1.0  0.11246  0.12532  0.88885  1.0000 0.1506914398
H   H95       1.0  0.23066  0.10286  0.85765  1.0000 0.1506914398
H   H96       1.0  0.14643  0.06009  0.73303  1.0000 0.1506914398
H   H97       1.0  0.97480  0.06400  0.67672  1.0000 0.1588844226
H   H98       1.0  0.07604  0.11634  0.69843  1.0000 0.1416085415
H   H99       1.0  0.88273  0.15774  0.73392  1.0000 0.1588844226
H   H100      1.0  0.78588  0.10465  0.72229  1.0000 0.1653392412
H   H101      1.0  0.84728  0.13426  0.80210  1.0000 0.1506914398
H   H102      1.0  0.96601  0.04547  0.85975  1.0000 0.1506914398
H   H103      1.0  0.89755  0.02176  0.77610  1.0000 0.1588844226
H   H104      1.0  0.07211  0.01603  0.82641  1.0000 0.1416085415
H   H105      1.0  0.26516  0.83710  0.80549  1.0000 0.1588844226
H   H106      1.0  0.30138  0.85032  0.89201  1.0000 0.1506914398
H   H107      1.0  0.36156  0.88853  0.84395  1.0000 0.1506914398
H   H108      1.0  0.56365  0.86291  0.81071  1.0000 0.1506914398
H   H109      1.0  0.65071  0.80799  0.83854  1.0000 0.1416085415
H   H110      1.0  0.48870  0.80829  0.77150  1.0000 0.1588844226
H   H111      1.0  0.53864  0.83642  0.98800  1.0000 0.1506914398
H   H112      1.0  0.67697  0.81524  0.97107  1.0000 0.1506914398
H   H113      1.0  0.61795  0.87471  0.94883  1.0000 0.1416085415
H   H114      1.0  0.38125  0.74764  0.83015  1.0000 0.1506914398
H   H115      1.0  0.53725  0.73976  0.90016  1.0000 0.1506914398
H   H116      1.0  0.39223  0.75674  0.91420  1.0000 0.1588844226
H   H117      1.0  0.85509  0.65738  0.67465  1.0000 0.1588844226
H   H118      1.0  0.88754  0.62532  0.61115  1.0000 0.1506914398
H   H119      1.0  0.76934  0.60286  0.64235  1.0000 0.1506914398
H   H120      1.0  0.85357  0.56009  0.76697  1.0000 0.1506914398
H   H121      1.0  0.02520  0.56400  0.82328  1.0000 0.1588844226
H   H122      1.0  0.92396  0.61634  0.80157  1.0000 0.1416085415
H   H123      1.0  0.11727  0.65774  0.76608  1.0000 0.1588844226
H   H124      1.0  0.21412  0.60465  0.77771  1.0000 0.1653392412
H   H125      1.0  0.15272  0.63426  0.69790  1.0000 0.1506914398
H   H126      1.0  0.03399  0.54547  0.64025  1.0000 0.1506914398
H   H127      1.0  0.10245  0.52176  0.72390  1.0000 0.1588844226
H   H128      1.0  0.92789  0.51603  0.67359  1.0000 0.1416085415
H   H129      1.0  0.73484  0.33710  0.69451  1.0000 0.1588844226
H   H130      1.0  0.69862  0.35032  0.60799  1.0000 0.1506914398
H   H131      1.0  0.63844  0.38853  0.65605  1.0000 0.1506914398
H   H132      1.0  0.43635  0.36291  0.68929  1.0000 0.1506914398
H   H133      1.0  0.34929  0.30799  0.66146  1.0000 0.1416085415
H   H134      1.0  0.51130  0.30829  0.72850  1.0000 0.1588844226
H   H135      1.0  0.46136  0.33642  0.51200  1.0000 0.1506914398
H   H136      1.0  0.32303  0.31524  0.52893  1.0000 0.1506914398
H   H137      1.0  0.38205  0.37471  0.55117  1.0000 0.1416085415
H   H138      1.0  0.61875  0.24764  0.66985  1.0000 0.1506914398
H   H139      1.0  0.46275  0.23976  0.59984  1.0000 0.1506914398
H   H140      1.0  0.60777  0.25674  0.58580  1.0000 0.1588844226
C   C1        1.0  0.14510  0.74340  0.15540  1.0000 0.4667126037
C   C2        1.0  0.04130  0.77100  0.07890  1.0000 0.3581777908
C   C3        1.0  0.04130  0.82620  0.97660  1.0000 0.2494794525
C   C4        1.0  0.97520  0.87730  0.96430  1.0000 -0.1813442844
C   C5        1.0  0.90790  0.89940  0.89130  1.0000 -0.0927624382
C   C6        1.0  0.90870  0.86960  0.82880  1.0000 -0.0276835427
C   C7        1.0  0.97620  0.81980  0.84120  1.0000 -0.080155122
C   C8        1.0  0.04150  0.79760  0.91390  1.0000 -0.1813442844
C   C9        1.0  0.83110  0.89250  0.74790  1.0000 0.5679532088
C   C10       1.0  0.53630  0.73370  0.07460  1.0000 0.4808727898
C   C11       1.0  0.63380  0.76340  0.15100  1.0000 0.3678617202
C   C12       1.0  0.74390  0.79830  0.31220  1.0000 -0.1813442844
C   C13       1.0  0.78910  0.82050  0.38510  1.0000 -0.080155122
C   C14       1.0  0.71850  0.86600  0.39920  1.0000 -0.0225763615
C   C15       1.0  0.60170  0.88900  0.33750  1.0000 -0.080155122
C   C16       1.0  0.55260  0.86670  0.26500  1.0000 -0.1813442844
C   C17       1.0  0.76600  0.88880  0.47960  1.0000 0.575958962
C   C18       1.0  0.32420  0.91520  0.06380  1.0000 0.6555028953
C   C19       1.0  0.33720  0.96040  0.01260  1.0000 -0.5861467324
C   C20       1.0  0.62250  0.82050  0.25140  1.0000 0.2420505233
C   C21       1.0  0.14510  0.75660  0.65540  1.0000 0.4667126037
C   C22       1.0  0.04130  0.72900  0.57890  1.0000 0.3581777908
C   C23       1.0  0.04130  0.67380  0.47660  1.0000 0.2494794525
C   C24       1.0  0.97520  0.62270  0.46430  1.0000 -0.1813442844
C   C25       1.0  0.90790  0.60060  0.39130  1.0000 -0.0927624382
C   C26       1.0  0.90870  0.63040  0.32880  1.0000 -0.0276835427
C   C27       1.0  0.97620  0.68020  0.34120  1.0000 -0.080155122
C   C28       1.0  0.04150  0.70240  0.41390  1.0000 -0.1813442844
C   C29       1.0  0.83110  0.60750  0.24790  1.0000 0.5679532088
C   C30       1.0  0.53630  0.76630  0.57460  1.0000 0.4808727898
C   C31       1.0  0.63380  0.73660  0.65100  1.0000 0.3678617202
C   C32       1.0  0.74390  0.70170  0.81220  1.0000 -0.1855190896
C   C33       1.0  0.78910  0.67950  0.88510  1.0000 -0.080155122
C   C34       1.0  0.71850  0.63400  0.89920  1.0000 -0.0225763615
C   C35       1.0  0.60170  0.61100  0.83750  1.0000 -0.080155122
C   C36       1.0  0.55260  0.63330  0.76500  1.0000 -0.1813442844
C   C37       1.0  0.76600  0.61120  0.97960  1.0000 0.575958962
C   C38       1.0  0.32420  0.58480  0.56380  1.0000 0.6555028953
C   C39       1.0  0.33720  0.53960  0.51260  1.0000 -0.5861467324
C   C40       1.0  0.62250  0.67950  0.75140  1.0000 0.2420505233
C   C41       1.0  0.85490  0.24340  0.34460  1.0000 0.4667126037
C   C42       1.0  0.95870  0.27100  0.42110  1.0000 0.3581777908
C   C43       1.0  0.95870  0.32620  0.52340  1.0000 0.2494794525
C   C44       1.0  0.02480  0.37730  0.53570  1.0000 -0.1813442844
C   C45       1.0  0.09210  0.39940  0.60870  1.0000 -0.0927624382
C   C46       1.0  0.09130  0.36960  0.67120  1.0000 -0.0276835427
C   C47       1.0  0.02380  0.31980  0.65880  1.0000 -0.080155122
C   C48       1.0  0.95850  0.29760  0.58610  1.0000 -0.1813442844
C   C49       1.0  0.16890  0.39250  0.75210  1.0000 0.5679532088
C   C50       1.0  0.46370  0.23370  0.42540  1.0000 0.4808727898
C   C51       1.0  0.36620  0.26340  0.34900  1.0000 0.3678617202
C   C52       1.0  0.25610  0.29830  0.18780  1.0000 -0.1813442844
C   C53       1.0  0.21090  0.32050  0.11490  1.0000 -0.080155122
C   C54       1.0  0.28150  0.36600  0.10080  1.0000 -0.0225763615
C   C55       1.0  0.39830  0.38900  0.16250  1.0000 -0.080155122
C   C56       1.0  0.44740  0.36670  0.23500  1.0000 -0.1813442844
C   C57       1.0  0.23400  0.38880  0.02040  1.0000 0.575958962
C   C58       1.0  0.67580  0.41520  0.43620  1.0000 0.6555028953
C   C59       1.0  0.66280  0.46040  0.48740  1.0000 -0.5861467324
C   C60       1.0  0.37750  0.32050  0.24860  1.0000 0.2420505233
C   C61       1.0  0.85490  0.25660  0.84460  1.0000 0.4667126037
C   C62       1.0  0.95870  0.22900  0.92110  1.0000 0.3581777908
C   C63       1.0  0.95870  0.17380  0.02340  1.0000 0.2494794525
C   C64       1.0  0.02480  0.12270  0.03570  1.0000 -0.1813442844
C   C65       1.0  0.09210  0.10060  0.10870  1.0000 -0.0927624382
C   C66       1.0  0.09130  0.13040  0.17120  1.0000 -0.0276835427
C   C67       1.0  0.02380  0.18020  0.15880  1.0000 -0.080155122
C   C68       1.0  0.95850  0.20240  0.08610  1.0000 -0.1813442844
C   C69       1.0  0.16890  0.10750  0.25210  1.0000 0.5679532088
C   C70       1.0  0.46370  0.26630  0.92540  1.0000 0.4808727898
C   C71       1.0  0.36620  0.23660  0.84900  1.0000 0.3678617202
C   C72       1.0  0.25610  0.20170  0.68780  1.0000 -0.1855190896
C   C73       1.0  0.21090  0.17950  0.61490  1.0000 -0.080155122
C   C74       1.0  0.28150  0.13400  0.60080  1.0000 -0.0225763615
C   C75       1.0  0.39830  0.11100  0.66250  1.0000 -0.080155122
C   C76       1.0  0.44740  0.13330  0.73500  1.0000 -0.1813442844
C   C77       1.0  0.23400  0.11120  0.52040  1.0000 0.575958962
C   C78       1.0  0.67580  0.08480  0.93620  1.0000 0.6555028953
C   C79       1.0  0.66280  0.03960  0.98740  1.0000 -0.5861467324
C   C80       1.0  0.37750  0.17950  0.74860  1.0000 0.2420505233
C   C81       1.0  0.86390  0.87810  0.15580  1.0000 -0.3593041278
C   C82       1.0  0.94360  0.91790  0.28300  1.0000 -0.3505240619
C   C83       1.0  0.13090  0.87490  0.24180  1.0000 -0.3593041278
C   C84       1.0  0.01530  0.96090  0.18580  1.0000 -0.3593041278
C   C85       1.0  0.66010  0.14840  0.14780  1.0000 -0.3505240619
C   C86       1.0  0.44750  0.17500  0.18080  1.0000 -0.3505240619
C   C87       1.0  0.41170  0.16200  0.04730  1.0000 -0.3593041278
C   C88       1.0  0.55510  0.23940  0.11950  1.0000 -0.3505240619
C   C89       1.0  0.13610  0.37810  0.34420  1.0000 -0.3593041278
C   C90       1.0  0.05640  0.41790  0.21700  1.0000 -0.3505240619
C   C91       1.0  0.86910  0.37490  0.25820  1.0000 -0.3593041278
C   C92       1.0  0.98470  0.46090  0.31420  1.0000 -0.3593041278
C   C93       1.0  0.33990  0.64840  0.35220  1.0000 -0.3505240619
C   C94       1.0  0.55250  0.67500  0.31920  1.0000 -0.3505240619
C   C95       1.0  0.58830  0.66200  0.45270  1.0000 -0.3593041278
C   C96       1.0  0.44490  0.73940  0.38050  1.0000 -0.3505240619
C   C97       1.0  0.13610  0.12190  0.84420  1.0000 -0.3593041278
C   C98       1.0  0.05640  0.08210  0.71700  1.0000 -0.3505240619
C   C99       1.0  0.86910  0.12510  0.75820  1.0000 -0.3593041278
C   C100      1.0  0.98470  0.03910  0.81420  1.0000 -0.3593041278
C   C101      1.0  0.33990  0.85160  0.85220  1.0000 -0.3505240619
C   C102      1.0  0.55250  0.82500  0.81920  1.0000 -0.3505240619
C   C103      1.0  0.58830  0.83800  0.95270  1.0000 -0.3593041278
C   C104      1.0  0.44490  0.76060  0.88050  1.0000 -0.3505240619
C   C105      1.0  0.86390  0.62190  0.65580  1.0000 -0.3593041278
C   C106      1.0  0.94360  0.58210  0.78300  1.0000 -0.3505240619
C   C107      1.0  0.13090  0.62510  0.74180  1.0000 -0.3593041278
C   C108      1.0  0.01530  0.53910  0.68580  1.0000 -0.3593041278
C   C109      1.0  0.66010  0.35160  0.64780  1.0000 -0.3505240619
C   C110      1.0  0.44750  0.32500  0.68080  1.0000 -0.3505240619
C   C111      1.0  0.41170  0.33800  0.54730  1.0000 -0.3593041278
C   C112      1.0  0.55510  0.26060  0.61950  1.0000 -0.3505240619
N   N1        1.0  0.11630  0.80360  0.05190  1.0000 -0.4504667871
N   N2        1.0  0.55780  0.79680  0.17630  1.0000 -0.4380549766
N   N3        1.0  0.11630  0.69640  0.55190  1.0000 -0.4504667871
N   N4        1.0  0.55780  0.70320  0.67630  1.0000 -0.4380549766
N   N5        1.0  0.88370  0.30360  0.44810  1.0000 -0.4504667871
N   N6        1.0  0.44220  0.29680  0.32370  1.0000 -0.4380549766
N   N7        1.0  0.88370  0.19640  0.94810  1.0000 -0.4504667871
N   N8        1.0  0.44220  0.20320  0.82370  1.0000 -0.4380549766
N   N9        1.0  0.98680  0.90850  0.21630  1.0000 0.2971495487
N   N10       1.0  0.51800  0.18120  0.12420  1.0000 0.306785474
N   N11       1.0  0.01320  0.40850  0.28370  1.0000 0.2971495487
N   N12       1.0  0.48200  0.68120  0.37580  1.0000 0.306785474
N   N13       1.0  0.01320  0.09150  0.78370  1.0000 0.2971495487
N   N14       1.0  0.48200  0.81880  0.87580  1.0000 0.306785474
N   N15       1.0  0.98680  0.59150  0.71630  1.0000 0.2971495487
N   N16       1.0  0.51800  0.31880  0.62420  1.0000 0.306785474
O   O1        1.0  0.28240  0.75870  0.18360  1.0000 -0.4810999436
O   O2        1.0  0.08590  0.70890  0.18230  1.0000 -0.4504667871
O   O3        1.0  0.90260  0.75830  0.05090  1.0000 -0.4810999436
O   O4        1.0  0.85240  0.86870  0.69480  1.0000 -0.5402000226
O   O5        1.0  0.75230  0.93440  0.73790  1.0000 -0.5402000226
O   O6        1.0  0.39450  0.74440  0.04420  1.0000 -0.5079751812
O   O7        1.0  0.60370  0.70060  0.04980  1.0000 -0.4566360714
O   O8        1.0  0.77200  0.75170  0.17930  1.0000 -0.4810999436
O   O9        1.0  0.70010  0.93130  0.48620  1.0000 -0.4504667871
O   O10       1.0  0.86670  0.86420  0.53420  1.0000 -0.5472626887
O   O11       1.0  0.36950  0.86870  0.05210  1.0000 -0.563208928
O   O12       1.0  0.27590  0.92540  0.11350  1.0000 -0.5742805503
O   O13       1.0  0.28240  0.74130  0.68360  1.0000 -0.4810999436
O   O14       1.0  0.08590  0.79110  0.68230  1.0000 -0.4504667871
O   O15       1.0  0.90260  0.74170  0.55090  1.0000 -0.4810999436
O   O16       1.0  0.85240  0.63130  0.19480  1.0000 -0.5402000226
O   O17       1.0  0.75230  0.56560  0.23790  1.0000 -0.5402000226
O   O18       1.0  0.39450  0.75560  0.54420  1.0000 -0.5079751812
O   O19       1.0  0.60370  0.79940  0.54980  1.0000 -0.4566360714
O   O20       1.0  0.77200  0.74830  0.67930  1.0000 -0.4810999436
O   O21       1.0  0.70010  0.56870  0.98620  1.0000 -0.4504667871
O   O22       1.0  0.86670  0.63580  0.03420  1.0000 -0.5472626887
O   O23       1.0  0.36950  0.63130  0.55210  1.0000 -0.563208928
O   O24       1.0  0.27590  0.57460  0.61350  1.0000 -0.5742805503
O   O25       1.0  0.71760  0.25870  0.31640  1.0000 -0.4810999436
O   O26       1.0  0.91410  0.20890  0.31770  1.0000 -0.4566360714
O   O27       1.0  0.09740  0.25830  0.44910  1.0000 -0.4810999436
O   O28       1.0  0.14760  0.36870  0.80520  1.0000 -0.5402000226
O   O29       1.0  0.24770  0.43440  0.76210  1.0000 -0.5402000226
O   O30       1.0  0.60550  0.24440  0.45580  1.0000 -0.5079751812
O   O31       1.0  0.39630  0.20060  0.45020  1.0000 -0.4566360714
O   O32       1.0  0.22800  0.25170  0.32070  1.0000 -0.4810999436
O   O33       1.0  0.29990  0.43130  0.01380  1.0000 -0.4504667871
O   O34       1.0  0.13330  0.36420  0.96580  1.0000 -0.5472626887
O   O35       1.0  0.63050  0.36870  0.44790  1.0000 -0.563208928
O   O36       1.0  0.72410  0.42540  0.38650  1.0000 -0.5742805503
O   O37       1.0  0.71760  0.24130  0.81640  1.0000 -0.4810999436
O   O38       1.0  0.91410  0.29110  0.81770  1.0000 -0.4566360714
O   O39       1.0  0.09740  0.24170  0.94910  1.0000 -0.4810999436
O   O40       1.0  0.14760  0.13130  0.30520  1.0000 -0.5402000226
O   O41       1.0  0.24770  0.06560  0.26210  1.0000 -0.5402000226
O   O42       1.0  0.60550  0.25560  0.95580  1.0000 -0.5079751812
O   O43       1.0  0.39630  0.29940  0.95020  1.0000 -0.4566360714
O   O44       1.0  0.22800  0.24830  0.82070  1.0000 -0.4810999436
O   O45       1.0  0.29990  0.06870  0.51380  1.0000 -0.4504667871
O   O46       1.0  0.13330  0.13580  0.46580  1.0000 -0.5472626887
O   O47       1.0  0.63050  0.13130  0.94790  1.0000 -0.563208928
O   O48       1.0  0.72410  0.07460  0.88650  1.0000 -0.5742805503
