# DDEC6 charges by PACMAN v1.1 (https://github.com/mtap-research/PACMAN-charge/)
data_2022[CoMo][sql]2[ION]1
_chemical_formula_sum              "Co4 Mo24 P2 H48 C60 N24 Cl4 O80"
_cell_length_a       13.8604
_cell_length_b       13.8604
_cell_length_c       19.7977
_cell_angle_alpha    72.6785
_cell_angle_beta     107.321
_cell_angle_gamma    113.387

_symmetry_space_group_name_H-M    "P 1"
_symmetry_Int_Tables_number       1

loop_
  _symmetry_equiv_pos_as_xyz
  'x, y, z'

loop_
  _atom_site_type_symbol
  _atom_site_label
  _atom_site_symmetry_multiplicity
  _atom_site_fract_x
  _atom_site_fract_y
  _atom_site_fract_z
  _atom_site_occupancy
  _atom_site_charge
Co  Co1       1.0  0.28942  0.05906  0.48049  1.0000 0.9307729765
Co  Co2       1.0  0.05906  0.28942  0.01951  1.0000 0.9307729765
Co  Co3       1.0  0.71058  0.94094  0.51951  1.0000 0.9307729765
Co  Co4       1.0  0.94094  0.71058  0.98049  1.0000 0.9307729765
Mo  Mo1       1.0  0.40952  0.27430  0.37602  1.0000 2.2196163549
Mo  Mo2       1.0  0.23672  0.43928  0.27869  1.0000 2.1933021758
Mo  Mo3       1.0  0.13580  0.19930  0.41488  1.0000 2.1933021758
Mo  Mo4       1.0  0.01708  0.34134  0.15336  1.0000 2.1702032103
Mo  Mo5       1.0  0.91327  0.10399  0.28980  1.0000 2.2196163549
Mo  Mo6       1.0  0.94289  0.06397  0.12192  1.0000 2.2356255664
Mo  Mo7       1.0  0.27430  0.40952  0.12398  1.0000 2.2196163549
Mo  Mo8       1.0  0.43928  0.23672  0.22131  1.0000 2.1933021758
Mo  Mo9       1.0  0.19930  0.13580  0.08512  1.0000 2.1958270683
Mo  Mo10      1.0  0.34134  0.01708  0.34664  1.0000 2.1702032103
Mo  Mo11      1.0  0.10399  0.91327  0.21020  1.0000 2.2132875337
Mo  Mo12      1.0  0.06397  0.94289  0.37808  1.0000 2.2346555604
Mo  Mo13      1.0  0.59048  0.72570  0.62398  1.0000 2.2196163549
Mo  Mo14      1.0  0.76328  0.56072  0.72131  1.0000 2.1958270683
Mo  Mo15      1.0  0.86420  0.80070  0.58512  1.0000 2.1933021758
Mo  Mo16      1.0  0.98292  0.65866  0.84664  1.0000 2.1702032103
Mo  Mo17      1.0  0.08673  0.89601  0.71020  1.0000 2.2132875337
Mo  Mo18      1.0  0.05711  0.93603  0.87808  1.0000 2.2346555604
Mo  Mo19      1.0  0.72570  0.59048  0.87602  1.0000 2.2196163549
Mo  Mo20      1.0  0.56072  0.76328  0.77869  1.0000 2.1933021758
Mo  Mo21      1.0  0.80070  0.86420  0.91488  1.0000 2.1933021758
Mo  Mo22      1.0  0.65866  0.98292  0.65336  1.0000 2.1702032103
Mo  Mo23      1.0  0.89601  0.08673  0.78980  1.0000 2.2132875337
Mo  Mo24      1.0  0.93603  0.05711  0.62192  1.0000 2.2356255664
P   P1        1.0  0.17225  0.17225  0.25000  1.0000 1.507647933
P   P2        1.0  0.82775  0.82775  0.75000  1.0000 1.507647933
H   H1        1.0  0.13040  0.85420  0.56210  1.0000 0.1406804151
H   H2        1.0  0.42220  0.88500  0.54860  1.0000 0.1497123466
H   H3        1.0  0.34790  0.70530  0.62380  1.0000 0.1582459961
H   H4        1.0  0.01600  0.63880  0.55320  1.0000 0.1582459961
H   H5        1.0  0.95350  0.40370  0.73060  1.0000 0.1582459961
H   H6        1.0  0.24260  0.64500  0.73930  1.0000 0.1582459961
H   H7        1.0  0.30340  0.51100  0.83630  1.0000 0.1497123466
H   H8        1.0  0.28990  0.39830  0.95900  1.0000 0.1406804151
H   H9        1.0  0.99460  0.39100  0.85420  1.0000 0.1204401604
H   H10       1.0  0.82270  0.58410  0.52750  1.0000 0.1204401604
H   H11       1.0  0.66630  0.26710  0.55400  1.0000 0.1406804151
H   H12       1.0  0.83920  0.29700  0.63960  1.0000 0.1497123466
H   H13       1.0  0.85420  0.13040  0.93790  1.0000 0.1406804151
H   H14       1.0  0.88500  0.42220  0.95140  1.0000 0.1497123466
H   H15       1.0  0.70530  0.34790  0.87620  1.0000 0.1582459961
H   H16       1.0  0.63880  0.01600  0.94680  1.0000 0.1582459961
H   H17       1.0  0.40370  0.95350  0.76940  1.0000 0.1582459961
H   H18       1.0  0.64500  0.24260  0.76070  1.0000 0.1582459961
H   H19       1.0  0.51100  0.30340  0.66370  1.0000 0.1497123466
H   H20       1.0  0.39830  0.28990  0.54100  1.0000 0.1406804151
H   H21       1.0  0.39100  0.99460  0.64580  1.0000 0.1204401604
H   H22       1.0  0.58410  0.82270  0.97250  1.0000 0.1204401604
H   H23       1.0  0.26710  0.66630  0.94600  1.0000 0.1406804151
H   H24       1.0  0.29700  0.83920  0.86040  1.0000 0.1497123466
H   H25       1.0  0.86960  0.14580  0.43790  1.0000 0.1406804151
H   H26       1.0  0.57780  0.11500  0.45140  1.0000 0.1497123466
H   H27       1.0  0.65210  0.29470  0.37620  1.0000 0.1582459961
H   H28       1.0  0.98400  0.36120  0.44680  1.0000 0.1582459961
H   H29       1.0  0.04650  0.59630  0.26940  1.0000 0.1582459961
H   H30       1.0  0.75740  0.35500  0.26070  1.0000 0.1582459961
H   H31       1.0  0.69660  0.48900  0.16370  1.0000 0.1497123466
H   H32       1.0  0.71010  0.60170  0.04100  1.0000 0.1406804151
H   H33       1.0  0.00540  0.60900  0.14580  1.0000 0.1204401604
H   H34       1.0  0.17730  0.41590  0.47250  1.0000 0.1204401604
H   H35       1.0  0.33370  0.73290  0.44600  1.0000 0.1406804151
H   H36       1.0  0.16080  0.70300  0.36040  1.0000 0.1497123466
H   H37       1.0  0.14580  0.86960  0.06210  1.0000 0.1406804151
H   H38       1.0  0.11500  0.57780  0.04860  1.0000 0.1497123466
H   H39       1.0  0.29470  0.65210  0.12380  1.0000 0.1582459961
H   H40       1.0  0.36120  0.98400  0.05320  1.0000 0.1582459961
H   H41       1.0  0.59630  0.04650  0.23060  1.0000 0.1582459961
H   H42       1.0  0.35500  0.75740  0.23930  1.0000 0.1582459961
H   H43       1.0  0.48900  0.69660  0.33630  1.0000 0.1497123466
H   H44       1.0  0.60170  0.71010  0.45900  1.0000 0.1406804151
H   H45       1.0  0.60900  0.00540  0.35420  1.0000 0.1204401604
H   H46       1.0  0.41590  0.17730  0.02750  1.0000 0.1204401604
H   H47       1.0  0.73290  0.33370  0.05400  1.0000 0.1406804151
H   H48       1.0  0.70300  0.16080  0.13960  1.0000 0.1497123466
C   C1        1.0  0.19430  0.83990  0.56770  1.0000 0.1406804151
C   C2        1.0  0.35350  0.85570  0.56080  1.0000 -0.0227458431
C   C3        1.0  0.31330  0.75730  0.60200  1.0000 -0.0655892999
C   C4        1.0  0.13910  0.65490  0.64210  1.0000 0.2304284139
C   C5        1.0  0.03800  0.60800  0.60240  1.0000 -0.2394065116
C   C6        1.0  0.97020  0.51460  0.63720  1.0000 0.2217416032
C   C7        1.0  0.00100  0.46820  0.70800  1.0000 -0.2394065116
C   C8        1.0  0.10260  0.51680  0.74610  1.0000 0.2304284139
C   C9        1.0  0.17300  0.61140  0.71320  1.0000 -0.2581782104
C   C10       1.0  0.23960  0.47280  0.85480  1.0000 -0.078297772
C   C11       1.0  0.23170  0.41150  0.92230  1.0000 0.0118337236
C   C12       1.0  0.07030  0.40670  0.86550  1.0000 0.1327206264
C   C13       1.0  0.80610  0.50870  0.54440  1.0000 0.1327206264
C   C14       1.0  0.72060  0.33460  0.55920  1.0000 -0.0227458431
C   C15       1.0  0.81370  0.35090  0.60580  1.0000 -0.0852912949
C   C16       1.0  0.83990  0.19430  0.93230  1.0000 0.1406804151
C   C17       1.0  0.85570  0.35350  0.93920  1.0000 -0.0227458431
C   C18       1.0  0.75730  0.31330  0.89800  1.0000 -0.0655892999
C   C19       1.0  0.65490  0.13910  0.85790  1.0000 0.2217416032
C   C20       1.0  0.60800  0.03800  0.89760  1.0000 -0.2394065116
C   C21       1.0  0.51460  0.97020  0.86280  1.0000 0.2217416032
C   C22       1.0  0.46820  0.00100  0.79200  1.0000 -0.2394065116
C   C23       1.0  0.51680  0.10260  0.75390  1.0000 0.2304284139
C   C24       1.0  0.61140  0.17300  0.78680  1.0000 -0.2581782104
C   C25       1.0  0.47280  0.23960  0.64520  1.0000 -0.078297772
C   C26       1.0  0.41150  0.23170  0.57770  1.0000 0.0153040676
C   C27       1.0  0.40670  0.07030  0.63450  1.0000 0.1327206264
C   C28       1.0  0.50870  0.80610  0.95560  1.0000 0.1327206264
C   C29       1.0  0.33460  0.72060  0.94080  1.0000 -0.0227458431
C   C30       1.0  0.35090  0.81370  0.89420  1.0000 -0.0852912949
C   C31       1.0  0.80570  0.16010  0.43230  1.0000 0.1406804151
C   C32       1.0  0.64650  0.14430  0.43920  1.0000 -0.0227458431
C   C33       1.0  0.68670  0.24270  0.39800  1.0000 -0.0655892999
C   C34       1.0  0.86090  0.34510  0.35790  1.0000 0.2304284139
C   C35       1.0  0.96200  0.39200  0.39760  1.0000 -0.2394065116
C   C36       1.0  0.02980  0.48540  0.36280  1.0000 0.2217416032
C   C37       1.0  0.99900  0.53180  0.29200  1.0000 -0.2394065116
C   C38       1.0  0.89740  0.48320  0.25390  1.0000 0.2304284139
C   C39       1.0  0.82700  0.38860  0.28680  1.0000 -0.2581782104
C   C40       1.0  0.76040  0.52720  0.14520  1.0000 -0.078297772
C   C41       1.0  0.76830  0.58850  0.07770  1.0000 0.0153040676
C   C42       1.0  0.92970  0.59330  0.13450  1.0000 0.1327206264
C   C43       1.0  0.19390  0.49130  0.45560  1.0000 0.1327206264
C   C44       1.0  0.27940  0.66540  0.44080  1.0000 -0.0227458431
C   C45       1.0  0.18630  0.64910  0.39420  1.0000 -0.0852912949
C   C46       1.0  0.16010  0.80570  0.06770  1.0000 0.1406804151
C   C47       1.0  0.14430  0.64650  0.06080  1.0000 -0.0227458431
C   C48       1.0  0.24270  0.68670  0.10200  1.0000 -0.0655892999
C   C49       1.0  0.34510  0.86090  0.14210  1.0000 0.2304284139
C   C50       1.0  0.39200  0.96200  0.10240  1.0000 -0.2394065116
C   C51       1.0  0.48540  0.02980  0.13720  1.0000 0.2217416032
C   C52       1.0  0.53180  0.99900  0.20800  1.0000 -0.2394065116
C   C53       1.0  0.48320  0.89740  0.24610  1.0000 0.2304284139
C   C54       1.0  0.38860  0.82700  0.21320  1.0000 -0.2581782104
C   C55       1.0  0.52720  0.76040  0.35480  1.0000 -0.078297772
C   C56       1.0  0.58850  0.76830  0.42230  1.0000 0.0153040676
C   C57       1.0  0.59330  0.92970  0.36550  1.0000 0.1327206264
C   C58       1.0  0.49130  0.19390  0.04440  1.0000 0.1327206264
C   C59       1.0  0.66540  0.27940  0.05920  1.0000 -0.0227458431
C   C60       1.0  0.64910  0.18630  0.10580  1.0000 -0.0852912949
N   N1        1.0  0.27760  0.90640  0.53950  1.0000 -0.2983483956
N   N2        1.0  0.21280  0.74780  0.60590  1.0000 0.0118337236
N   N3        1.0  0.86760  0.46100  0.59670  1.0000 0.0118337236
N   N4        1.0  0.71780  0.43420  0.51970  1.0000 -0.186892816
N   N5        1.0  0.13690  0.46830  0.81900  1.0000 0.0118337236
N   N6        1.0  0.12570  0.37170  0.92880  1.0000 -0.2913354472
N   N7        1.0  0.90640  0.27760  0.96050  1.0000 -0.2983483956
N   N8        1.0  0.74780  0.21280  0.89410  1.0000 0.0118337236
N   N9        1.0  0.46100  0.86760  0.90330  1.0000 0.0118337236
N   N10       1.0  0.43420  0.71780  0.98030  1.0000 -0.186892816
N   N11       1.0  0.46830  0.13690  0.68100  1.0000 0.0118337236
N   N12       1.0  0.37170  0.12570  0.57120  1.0000 -0.2913354472
N   N13       1.0  0.72240  0.09360  0.46050  1.0000 -0.2983483956
N   N14       1.0  0.78720  0.25220  0.39410  1.0000 0.0118337236
N   N15       1.0  0.13240  0.53900  0.40330  1.0000 0.0118337236
N   N16       1.0  0.28220  0.56580  0.48030  1.0000 -0.1761431233
N   N17       1.0  0.86310  0.53170  0.18100  1.0000 0.0118337236
N   N18       1.0  0.87430  0.62830  0.07120  1.0000 -0.2913354472
N   N19       1.0  0.09360  0.72240  0.03950  1.0000 -0.2983483956
N   N20       1.0  0.25220  0.78720  0.10590  1.0000 0.0118337236
N   N21       1.0  0.53900  0.13240  0.09670  1.0000 0.0118337236
N   N22       1.0  0.56580  0.28220  0.01970  1.0000 -0.186892816
N   N23       1.0  0.53170  0.86310  0.31900  1.0000 0.0118337236
N   N24       1.0  0.62830  0.87430  0.42880  1.0000 -0.2913354472
Cl  Cl1       1.0  0.64260  0.89260  0.13770  1.0000 -0.4715962396
Cl  Cl2       1.0  0.89260  0.64260  0.36230  1.0000 -0.4715962396
Cl  Cl3       1.0  0.35740  0.10740  0.86230  1.0000 -0.4715962396
Cl  Cl4       1.0  0.10740  0.35740  0.63770  1.0000 -0.4715962396
O   O1        1.0  0.50730  0.32990  0.44210  1.0000 -0.5736408021
O   O2        1.0  0.48920  0.29640  0.30910  1.0000 -0.8301292861
O   O3        1.0  0.35480  0.38380  0.32520  1.0000 -0.8228047675
O   O4        1.0  0.28290  0.21050  0.42150  1.0000 -0.9138150996
O   O5        1.0  0.27830  0.55410  0.30770  1.0000 -0.5898585902
O   O6        1.0  0.16580  0.33420  0.35160  1.0000 -0.8450574265
O   O7        1.0  0.14510  0.23350  0.49160  1.0000 -0.5601446093
O   O8        1.0  0.11970  0.04290  0.44890  1.0000 -0.8912212409
O   O9        1.0  0.28818  0.17402  0.28390  1.0000 -0.9222578541
O   O10       1.0  0.10340  0.44040  0.21280  1.0000 -0.8301292861
O   O11       1.0  0.98760  0.16180  0.37540  1.0000 -0.8301292861
O   O12       1.0  0.12530  0.10270  0.19240  1.0000 -0.9222578541
O   O13       1.0  0.12200  0.40480  0.08850  1.0000 -0.8821881251
O   O14       1.0  0.95210  0.24090  0.22880  1.0000 -0.8228047675
O   O15       1.0  0.92170  0.39470  0.10390  1.0000 -0.5999779613
O   O16       1.0  0.78450  0.08090  0.28970  1.0000 -0.5999779613
O   O17       1.0  0.98250  0.21810  0.11050  1.0000 -0.8912212409
O   O18       1.0  0.90180  0.04840  0.20700  1.0000 -0.8441183128
O   O19       1.0  0.96950  0.93490  0.14990  1.0000 -0.8021411435
O   O20       1.0  0.82210  0.03290  0.06480  1.0000 -0.5601446093
O   O21       1.0  0.32990  0.50730  0.05790  1.0000 -0.5736408021
O   O22       1.0  0.29640  0.48920  0.19090  1.0000 -0.8301292861
O   O23       1.0  0.38380  0.35480  0.17480  1.0000 -0.8228047675
O   O24       1.0  0.21050  0.28290  0.07850  1.0000 -0.9138150996
O   O25       1.0  0.55410  0.27830  0.19230  1.0000 -0.5898585902
O   O26       1.0  0.33420  0.16580  0.14840  1.0000 -0.8441183128
O   O27       1.0  0.23350  0.14510  0.00840  1.0000 -0.5601446093
O   O28       1.0  0.04290  0.11970  0.05110  1.0000 -0.8912212409
O   O29       1.0  0.17402  0.28818  0.21610  1.0000 -0.9222578541
O   O30       1.0  0.44040  0.10340  0.28720  1.0000 -0.8228047675
O   O31       1.0  0.16180  0.98760  0.12460  1.0000 -0.8301292861
O   O32       1.0  0.10270  0.12530  0.30760  1.0000 -0.9222578541
O   O33       1.0  0.40480  0.12200  0.41150  1.0000 -0.8821881251
O   O34       1.0  0.24090  0.95210  0.27120  1.0000 -0.8228047675
O   O35       1.0  0.39470  0.92170  0.39610  1.0000 -0.5999779613
O   O36       1.0  0.08090  0.78450  0.21030  1.0000 -0.5999779613
O   O37       1.0  0.21810  0.98250  0.38950  1.0000 -0.8912212409
O   O38       1.0  0.04840  0.90180  0.29300  1.0000 -0.8441183128
O   O39       1.0  0.93490  0.96950  0.35010  1.0000 -0.8021411435
O   O40       1.0  0.03290  0.82210  0.43520  1.0000 -0.5601446093
O   O41       1.0  0.49270  0.67010  0.55790  1.0000 -0.5752740489
O   O42       1.0  0.51080  0.70360  0.69090  1.0000 -0.8301292861
O   O43       1.0  0.64520  0.61620  0.67480  1.0000 -0.8228047675
O   O44       1.0  0.71710  0.78950  0.57850  1.0000 -0.9222578541
O   O45       1.0  0.72170  0.44590  0.69230  1.0000 -0.5898585902
O   O46       1.0  0.83420  0.66580  0.64840  1.0000 -0.8441183128
O   O47       1.0  0.85490  0.76650  0.50840  1.0000 -0.5601446093
O   O48       1.0  0.88030  0.95710  0.55110  1.0000 -0.8976845131
O   O49       1.0  0.71182  0.82598  0.71610  1.0000 -0.9222578541
O   O50       1.0  0.89660  0.55960  0.78720  1.0000 -0.8301292861
O   O51       1.0  0.01240  0.83820  0.62460  1.0000 -0.8301292861
O   O52       1.0  0.87470  0.89730  0.80760  1.0000 -0.926481484
O   O53       1.0  0.87800  0.59520  0.91150  1.0000 -0.8821881251
O   O54       1.0  0.04790  0.75910  0.77120  1.0000 -0.8228047675
O   O55       1.0  0.07830  0.60530  0.89610  1.0000 -0.5999779613
O   O56       1.0  0.21550  0.91910  0.71030  1.0000 -0.5999779613
O   O57       1.0  0.01750  0.78190  0.88950  1.0000 -0.8912212409
O   O58       1.0  0.09820  0.95160  0.79300  1.0000 -0.8441183128
O   O59       1.0  0.03050  0.06510  0.85010  1.0000 -0.8021411435
O   O60       1.0  0.17790  0.96710  0.93520  1.0000 -0.5601446093
O   O61       1.0  0.67010  0.49270  0.94210  1.0000 -0.5736408021
O   O62       1.0  0.70360  0.51080  0.80910  1.0000 -0.8301292861
O   O63       1.0  0.61620  0.64520  0.82520  1.0000 -0.8228047675
O   O64       1.0  0.78950  0.71710  0.92150  1.0000 -0.9138150996
O   O65       1.0  0.44590  0.72170  0.80770  1.0000 -0.5898585902
O   O66       1.0  0.66580  0.83420  0.85160  1.0000 -0.8441183128
O   O67       1.0  0.76650  0.85490  0.99160  1.0000 -0.5601446093
O   O68       1.0  0.95710  0.88030  0.94890  1.0000 -0.8912212409
O   O69       1.0  0.82598  0.71182  0.78390  1.0000 -0.9222578541
O   O70       1.0  0.55960  0.89660  0.71280  1.0000 -0.8301292861
O   O71       1.0  0.83820  0.01240  0.87540  1.0000 -0.8301292861
O   O72       1.0  0.89730  0.87470  0.69240  1.0000 -0.9222578541
O   O73       1.0  0.59520  0.87800  0.58850  1.0000 -0.8821881251
O   O74       1.0  0.75910  0.04790  0.72880  1.0000 -0.8228047675
O   O75       1.0  0.60530  0.07830  0.60390  1.0000 -0.5999779613
O   O76       1.0  0.91910  0.21550  0.78970  1.0000 -0.5999779613
O   O77       1.0  0.78190  0.01750  0.61050  1.0000 -0.8912212409
O   O78       1.0  0.95160  0.09820  0.70700  1.0000 -0.8441183128
O   O79       1.0  0.06510  0.03050  0.64990  1.0000 -0.8021411435
O   O80       1.0  0.96710  0.17790  0.56480  1.0000 -0.5601446093
