# DDEC6 charges by PACMAN v1.1 (https://github.com/mtap-research/PACMAN-charge/)
data_2022[CoPt][fes]2[ION]1
_chemical_formula_sum              "Co4 H108 Pt8 C112 S16 N24 Cl8 O32"
_cell_length_a       17.822
_cell_length_b       9.0411
_cell_length_c       30.3333
_cell_angle_alpha    90
_cell_angle_beta     107.226
_cell_angle_gamma    90

_symmetry_space_group_name_H-M    "P 1"
_symmetry_Int_Tables_number       1

loop_
  _symmetry_equiv_pos_as_xyz
  'x, y, z'

loop_
  _atom_site_type_symbol
  _atom_site_label
  _atom_site_symmetry_multiplicity
  _atom_site_fract_x
  _atom_site_fract_y
  _atom_site_fract_z
  _atom_site_occupancy
  _atom_site_charge
Co  Co1       1.0  0.30637  0.56871  0.30271  1.0000 0.8889760014
Co  Co2       1.0  0.69363  0.06871  0.19729  1.0000 0.8889760014
Co  Co3       1.0  0.69363  0.43129  0.69729  1.0000 0.8889760014
Co  Co4       1.0  0.30637  0.93129  0.80271  1.0000 0.8889760014
H   H1        1.0  0.11850  0.97598  0.38591  1.0000 0.1184697237
H   H2        1.0  0.23571  0.28027  0.41156  1.0000 0.1184697237
H   H3        1.0  0.44901  0.05326  0.61534  1.0000 0.112427966
H   H4        1.0  0.29673  0.96754  0.65387  1.0000 0.1301025084
H   H5        1.0  0.33247  0.50590  0.57098  1.0000 0.1393251949
H   H6        1.0  0.03012  0.02854  0.58541  1.0000 0.1393251949
H   H7        1.0  0.16654  0.52536  0.46057  1.0000 0.1393251949
H   H8        1.0  0.45423  0.97418  0.44760  1.0000 0.1393251949
H   H9        1.0  0.45702  0.49714  0.62410  1.0000 0.1393251949
H   H10       1.0  0.07791  0.00197  0.66477  1.0000 0.1393251949
H   H11       1.0  0.09949  0.53377  0.38196  1.0000 0.1301025084
H   H12       1.0  0.43356  0.12649  0.38508  1.0000 0.1498201781
H   H13       1.0  0.80458  0.30232  0.68273  1.0000 0.238037719
H   H14       1.0  0.80824  0.07744  0.69967  1.0000 0.1301025084
H   H15       1.0  0.79312  0.16918  0.74135  1.0000 0.1393251949
H   H16       1.0  0.72245  0.08091  0.70629  1.0000 0.1498201781
H   H17       1.0  0.75570  0.15415  0.62357  1.0000 0.112427966
H   H18       1.0  0.70504  0.30320  0.61368  1.0000 0.1393251949
H   H19       1.0  0.66992  0.15762  0.63020  1.0000 0.1301025084
H   H20       1.0  0.88150  0.47598  0.11409  1.0000 0.1184697237
H   H21       1.0  0.76429  0.78027  0.08844  1.0000 0.1184697237
H   H22       1.0  0.55099  0.55326  0.88466  1.0000 0.112427966
H   H23       1.0  0.70327  0.46754  0.84613  1.0000 0.1301025084
H   H24       1.0  0.66753  0.00590  0.92902  1.0000 0.1393251949
H   H25       1.0  0.96988  0.52854  0.91459  1.0000 0.1393251949
H   H26       1.0  0.83346  0.02536  0.03943  1.0000 0.1393251949
H   H27       1.0  0.54577  0.47418  0.05240  1.0000 0.1393251949
H   H28       1.0  0.54298  0.99714  0.87590  1.0000 0.1393251949
H   H29       1.0  0.92209  0.50197  0.83523  1.0000 0.1393251949
H   H30       1.0  0.90051  0.03377  0.11804  1.0000 0.1301025084
H   H31       1.0  0.56644  0.62649  0.11492  1.0000 0.1498201781
H   H32       1.0  0.19542  0.80232  0.81727  1.0000 0.238037719
H   H33       1.0  0.19176  0.57744  0.80033  1.0000 0.1301025084
H   H34       1.0  0.20688  0.66918  0.75865  1.0000 0.1393251949
H   H35       1.0  0.27755  0.58091  0.79371  1.0000 0.1498201781
H   H36       1.0  0.24430  0.65415  0.87643  1.0000 0.112427966
H   H37       1.0  0.29496  0.80320  0.88632  1.0000 0.1393251949
H   H38       1.0  0.33008  0.65762  0.86980  1.0000 0.1301025084
H   H39       1.0  0.88150  0.02402  0.61409  1.0000 0.1184697237
H   H40       1.0  0.76429  0.71973  0.58844  1.0000 0.1184697237
H   H41       1.0  0.55099  0.94674  0.38466  1.0000 0.112427966
H   H42       1.0  0.70327  0.03246  0.34613  1.0000 0.1301025084
H   H43       1.0  0.66753  0.49410  0.42902  1.0000 0.1393251949
H   H44       1.0  0.96988  0.97146  0.41459  1.0000 0.1393251949
H   H45       1.0  0.83346  0.47464  0.53943  1.0000 0.1393251949
H   H46       1.0  0.54577  0.02582  0.55240  1.0000 0.1393251949
H   H47       1.0  0.54298  0.50286  0.37590  1.0000 0.1393251949
H   H48       1.0  0.92209  0.99803  0.33523  1.0000 0.1393251949
H   H49       1.0  0.90051  0.46623  0.61804  1.0000 0.1301025084
H   H50       1.0  0.56644  0.87351  0.61492  1.0000 0.1498201781
H   H51       1.0  0.19542  0.69768  0.31727  1.0000 0.238037719
H   H52       1.0  0.19176  0.92256  0.30033  1.0000 0.1301025084
H   H53       1.0  0.20688  0.83082  0.25865  1.0000 0.1393251949
H   H54       1.0  0.27755  0.91909  0.29371  1.0000 0.1498201781
H   H55       1.0  0.24430  0.84585  0.37643  1.0000 0.112427966
H   H56       1.0  0.29496  0.69680  0.38632  1.0000 0.1393251949
H   H57       1.0  0.33008  0.84238  0.36980  1.0000 0.1301025084
H   H58       1.0  0.11850  0.52402  0.88591  1.0000 0.1184697237
H   H59       1.0  0.23571  0.21973  0.91156  1.0000 0.1184697237
H   H60       1.0  0.44901  0.44674  0.11534  1.0000 0.112427966
H   H61       1.0  0.29673  0.53246  0.15387  1.0000 0.1301025084
H   H62       1.0  0.33247  0.99410  0.07098  1.0000 0.1393251949
H   H63       1.0  0.03012  0.47146  0.08541  1.0000 0.1393251949
H   H64       1.0  0.16654  0.97464  0.96057  1.0000 0.1393251949
H   H65       1.0  0.45423  0.52582  0.94760  1.0000 0.1393251949
H   H66       1.0  0.45702  0.00286  0.12410  1.0000 0.1393251949
H   H67       1.0  0.07791  0.49803  0.16477  1.0000 0.1393251949
H   H68       1.0  0.09949  0.96623  0.88196  1.0000 0.1301025084
H   H69       1.0  0.43356  0.37351  0.88508  1.0000 0.1498201781
H   H70       1.0  0.80458  0.19768  0.18273  1.0000 0.238037719
H   H71       1.0  0.80824  0.42256  0.19967  1.0000 0.1301025084
H   H72       1.0  0.79312  0.33082  0.24135  1.0000 0.1393251949
H   H73       1.0  0.72245  0.41909  0.20629  1.0000 0.1498201781
H   H74       1.0  0.75570  0.34585  0.12357  1.0000 0.112427966
H   H75       1.0  0.70504  0.19680  0.11368  1.0000 0.1393251949
H   H76       1.0  0.66992  0.34238  0.13020  1.0000 0.1301025084
H   H77       1.0  0.97670  0.63190  0.75240  1.0000 0.2661593791
H   H78       1.0  0.94170  0.54600  0.70370  1.0000 0.2661593791
H   H79       1.0  0.05657  0.61194  0.70643  1.0000 0.1301025084
H   H80       1.0  0.99370  0.69876  0.66601  1.0000 0.1301025084
H   H81       1.0  0.03823  0.78245  0.71296  1.0000 0.1393251949
H   H82       1.0  0.85008  0.72254  0.72339  1.0000 0.1393251949
H   H83       1.0  0.91337  0.84816  0.72344  1.0000 0.1393251949
H   H84       1.0  0.86884  0.76447  0.67649  1.0000 0.1301025084
H   H85       1.0  0.02330  0.13190  0.74760  1.0000 0.2661593791
H   H86       1.0  0.05830  0.04600  0.79630  1.0000 0.2661593791
H   H87       1.0  0.94343  0.11194  0.79357  1.0000 0.1301025084
H   H88       1.0  0.00630  0.19876  0.83399  1.0000 0.1301025084
H   H89       1.0  0.96177  0.28245  0.78704  1.0000 0.1393251949
H   H90       1.0  0.14992  0.22254  0.77661  1.0000 0.1393251949
H   H91       1.0  0.08663  0.34816  0.77656  1.0000 0.1393251949
H   H92       1.0  0.13116  0.26447  0.82351  1.0000 0.1301025084
H   H93       1.0  0.02330  0.36810  0.24760  1.0000 0.2661593791
H   H94       1.0  0.05830  0.45400  0.29630  1.0000 0.2661593791
H   H95       1.0  0.94343  0.38806  0.29357  1.0000 0.1301025084
H   H96       1.0  0.00630  0.30124  0.33399  1.0000 0.1301025084
H   H97       1.0  0.96177  0.21755  0.28704  1.0000 0.1393251949
H   H98       1.0  0.14992  0.27746  0.27661  1.0000 0.1393251949
H   H99       1.0  0.08663  0.15184  0.27656  1.0000 0.1393251949
H   H100      1.0  0.13116  0.23553  0.32351  1.0000 0.1301025084
H   H101      1.0  0.97670  0.86810  0.25240  1.0000 0.2661593791
H   H102      1.0  0.94170  0.95400  0.20370  1.0000 0.2661593791
H   H103      1.0  0.05657  0.88806  0.20643  1.0000 0.1301025084
H   H104      1.0  0.99370  0.80124  0.16601  1.0000 0.1301025084
H   H105      1.0  0.03823  0.71755  0.21296  1.0000 0.1393251949
H   H106      1.0  0.85008  0.77746  0.22339  1.0000 0.1393251949
H   H107      1.0  0.91337  0.65184  0.22344  1.0000 0.1393251949
H   H108      1.0  0.86884  0.73553  0.17649  1.0000 0.1301025084
Pt  Pt1       1.0  0.19775  0.08164  0.48398  1.0000 0.238037719
Pt  Pt2       1.0  0.29116  0.95177  0.55265  1.0000 0.238037719
Pt  Pt3       1.0  0.80225  0.58164  0.01602  1.0000 0.238037719
Pt  Pt4       1.0  0.70884  0.45177  0.94735  1.0000 0.238037719
Pt  Pt5       1.0  0.80225  0.91836  0.51602  1.0000 0.238037719
Pt  Pt6       1.0  0.70884  0.04823  0.44735  1.0000 0.238037719
Pt  Pt7       1.0  0.19775  0.41836  0.98398  1.0000 0.238037719
Pt  Pt8       1.0  0.29116  0.54823  0.05265  1.0000 0.238037719
C   C1        1.0  0.31800  0.28350  0.56330  1.0000 0.1894166059
C   C2        1.0  0.13700  0.01290  0.57310  1.0000 0.1894166059
C   C3        1.0  0.18040  0.74910  0.46910  1.0000 0.1989764934
C   C4        1.0  0.12740  0.88350  0.40140  1.0000 0.0311453838
C   C5        1.0  0.35330  0.02730  0.46460  1.0000 0.1989764934
C   C6        1.0  0.27880  0.21360  0.41820  1.0000 0.0386558867
C   C7        1.0  0.42460  0.14670  0.60680  1.0000 0.0386558867
C   C8        1.0  0.24200  0.98030  0.63960  1.0000 0.067739689
C   C9        1.0  0.35680  0.41320  0.58070  1.0000 -0.1510931974
C   C10       1.0  0.08480  0.01620  0.59980  1.0000 -0.1423368648
C   C11       1.0  0.15580  0.61770  0.44500  1.0000 -0.1324081931
C   C12       1.0  0.10010  0.75870  0.37690  1.0000 -0.0518994595
C   C13       1.0  0.40870  0.03490  0.43880  1.0000 -0.1510931974
C   C14       1.0  0.33100  0.21950  0.39220  1.0000 -0.0028134754
C   C15       1.0  0.46490  0.27150  0.62560  1.0000 -0.0518994595
C   C16       1.0  0.19290  0.98620  0.66690  1.0000 -0.0380695516
C   C17       1.0  0.43030  0.40840  0.61200  1.0000 -0.0207075381
C   C18       1.0  0.11280  0.00160  0.64640  1.0000 -0.028200778
C   C19       1.0  0.11600  0.62260  0.39880  1.0000 -0.0207075381
C   C20       1.0  0.05590  0.76990  0.32580  1.0000 0.5321469989
C   C21       1.0  0.39790  0.12500  0.40300  1.0000 -0.028200778
C   C22       1.0  0.31860  0.33050  0.35230  1.0000 0.5109260764
C   C23       1.0  0.54630  0.26020  0.65940  1.0000 0.5627165672
C   C24       1.0  0.22510  0.97140  0.71840  1.0000 0.5381805536
C   C25       1.0  0.77030  0.13840  0.70920  1.0000 -0.2478355344
C   C26       1.0  0.71780  0.21500  0.63320  1.0000 -0.3331619564
C   C27       1.0  0.68200  0.78350  0.93670  1.0000 0.1894166059
C   C28       1.0  0.86300  0.51290  0.92690  1.0000 0.1894166059
C   C29       1.0  0.81960  0.24910  0.03090  1.0000 0.1989764934
C   C30       1.0  0.87260  0.38350  0.09860  1.0000 0.0311453838
C   C31       1.0  0.64670  0.52730  0.03540  1.0000 0.1989764934
C   C32       1.0  0.72120  0.71360  0.08180  1.0000 0.0386558867
C   C33       1.0  0.57540  0.64670  0.89320  1.0000 0.0386558867
C   C34       1.0  0.75800  0.48030  0.86040  1.0000 0.067739689
C   C35       1.0  0.64320  0.91320  0.91930  1.0000 -0.1510931974
C   C36       1.0  0.91520  0.51620  0.90020  1.0000 -0.1423368648
C   C37       1.0  0.84420  0.11770  0.05500  1.0000 -0.1324081931
C   C38       1.0  0.89990  0.25870  0.12310  1.0000 -0.0518994595
C   C39       1.0  0.59130  0.53490  0.06120  1.0000 -0.1510931974
C   C40       1.0  0.66900  0.71950  0.10780  1.0000 -0.0028134754
C   C41       1.0  0.53510  0.77150  0.87440  1.0000 -0.0518994595
C   C42       1.0  0.80710  0.48620  0.83310  1.0000 -0.0380695516
C   C43       1.0  0.56970  0.90840  0.88800  1.0000 -0.0207075381
C   C44       1.0  0.88720  0.50160  0.85360  1.0000 -0.028200778
C   C45       1.0  0.88400  0.12260  0.10120  1.0000 -0.0207075381
C   C46       1.0  0.94410  0.26990  0.17420  1.0000 0.5321469989
C   C47       1.0  0.60210  0.62500  0.09700  1.0000 -0.028200778
C   C48       1.0  0.68140  0.83050  0.14770  1.0000 0.5109260764
C   C49       1.0  0.45370  0.76020  0.84060  1.0000 0.5627165672
C   C50       1.0  0.77490  0.47140  0.78160  1.0000 0.5381805536
C   C51       1.0  0.22970  0.63840  0.79080  1.0000 -0.2478355344
C   C52       1.0  0.28220  0.71500  0.86680  1.0000 -0.3331619564
C   C53       1.0  0.68200  0.71650  0.43670  1.0000 0.1894166059
C   C54       1.0  0.86300  0.98710  0.42690  1.0000 0.1894166059
C   C55       1.0  0.81960  0.25090  0.53090  1.0000 0.1894166059
C   C56       1.0  0.87260  0.11650  0.59860  1.0000 0.0311453838
C   C57       1.0  0.64670  0.97270  0.53540  1.0000 0.1989764934
C   C58       1.0  0.72120  0.78640  0.58180  1.0000 0.0386558867
C   C59       1.0  0.57540  0.85330  0.39320  1.0000 0.0386558867
C   C60       1.0  0.75800  0.01970  0.36040  1.0000 0.067739689
C   C61       1.0  0.64320  0.58680  0.41930  1.0000 -0.1510931974
C   C62       1.0  0.91520  0.98380  0.40020  1.0000 -0.1423368648
C   C63       1.0  0.84420  0.38230  0.55500  1.0000 -0.1324081931
C   C64       1.0  0.89990  0.24130  0.62310  1.0000 -0.0518994595
C   C65       1.0  0.59130  0.96510  0.56120  1.0000 -0.1510931974
C   C66       1.0  0.66900  0.78050  0.60780  1.0000 -0.0028134754
C   C67       1.0  0.53510  0.72850  0.37440  1.0000 -0.0518994595
C   C68       1.0  0.80710  0.01380  0.33310  1.0000 -0.0380695516
C   C69       1.0  0.56970  0.59160  0.38800  1.0000 -0.0207075381
C   C70       1.0  0.88720  0.99840  0.35360  1.0000 -0.028200778
C   C71       1.0  0.88400  0.37740  0.60120  1.0000 -0.0207075381
C   C72       1.0  0.94410  0.23010  0.67420  1.0000 0.5321469989
C   C73       1.0  0.60210  0.87500  0.59700  1.0000 -0.028200778
C   C74       1.0  0.68140  0.66950  0.64770  1.0000 0.5109260764
C   C75       1.0  0.45370  0.73980  0.34060  1.0000 0.5627165672
C   C76       1.0  0.77490  0.02860  0.28160  1.0000 0.5381805536
C   C77       1.0  0.22970  0.86160  0.29080  1.0000 -0.2478355344
C   C78       1.0  0.28220  0.78500  0.36680  1.0000 -0.3331619564
C   C79       1.0  0.31800  0.21650  0.06330  1.0000 0.1894166059
C   C80       1.0  0.13700  0.48710  0.07310  1.0000 0.1894166059
C   C81       1.0  0.18040  0.75090  0.96910  1.0000 0.1989764934
C   C82       1.0  0.12740  0.61650  0.90140  1.0000 0.0311453838
C   C83       1.0  0.35330  0.47270  0.96460  1.0000 0.1989764934
C   C84       1.0  0.27880  0.28640  0.91820  1.0000 0.0386558867
C   C85       1.0  0.42460  0.35330  0.10680  1.0000 0.0386558867
C   C86       1.0  0.24200  0.51970  0.13960  1.0000 0.067739689
C   C87       1.0  0.35680  0.08680  0.08070  1.0000 -0.1510931974
C   C88       1.0  0.08480  0.48380  0.09980  1.0000 -0.1423368648
C   C89       1.0  0.15580  0.88230  0.94500  1.0000 -0.1324081931
C   C90       1.0  0.10010  0.74130  0.87690  1.0000 -0.0518994595
C   C91       1.0  0.40870  0.46510  0.93880  1.0000 -0.1510931974
C   C92       1.0  0.33100  0.28050  0.89220  1.0000 -0.0028134754
C   C93       1.0  0.46490  0.22850  0.12560  1.0000 -0.0518994595
C   C94       1.0  0.19290  0.51380  0.16690  1.0000 -0.0380695516
C   C95       1.0  0.43030  0.09160  0.11200  1.0000 -0.0207075381
C   C96       1.0  0.11280  0.49840  0.14640  1.0000 -0.028200778
C   C97       1.0  0.11600  0.87740  0.89880  1.0000 -0.0207075381
C   C98       1.0  0.05590  0.73010  0.82580  1.0000 0.5321469989
C   C99       1.0  0.39790  0.37500  0.90300  1.0000 -0.028200778
C   C100      1.0  0.31860  0.16950  0.85230  1.0000 0.5109260764
C   C101      1.0  0.54630  0.23980  0.15940  1.0000 0.5627165672
C   C102      1.0  0.22510  0.52860  0.21840  1.0000 0.5381805536
C   C103      1.0  0.77030  0.36160  0.20920  1.0000 -0.2478355344
C   C104      1.0  0.71780  0.28500  0.13320  1.0000 -0.3331619564
C   C105      1.0  0.01550  0.68800  0.69950  1.0000 -0.2937771145
C   C106      1.0  0.89130  0.75340  0.71000  1.0000 -0.2617364812
C   C107      1.0  0.98450  0.18800  0.80050  1.0000 -0.2937771145
C   C108      1.0  0.10870  0.25340  0.79000  1.0000 -0.2617364812
C   C109      1.0  0.98450  0.31200  0.30050  1.0000 -0.2937771145
C   C110      1.0  0.10870  0.24660  0.29000  1.0000 -0.2617364812
C   C111      1.0  0.01550  0.81200  0.19950  1.0000 -0.2937771145
C   C112      1.0  0.89130  0.74660  0.21000  1.0000 -0.2617364812
S   S1        1.0  0.22498  0.29991  0.52377  1.0000 -0.1510931974
S   S2        1.0  0.09679  0.03950  0.51423  1.0000 -0.1324081931
S   S3        1.0  0.22603  0.73382  0.52830  1.0000 -0.1423368648
S   S4        1.0  0.37351  0.90170  0.50943  1.0000 -0.1562622811
S   S5        1.0  0.77502  0.79991  0.97623  1.0000 -0.1510931974
S   S6        1.0  0.90321  0.53950  0.98577  1.0000 -0.1324081931
S   S7        1.0  0.77397  0.23382  0.97170  1.0000 -0.1423368648
S   S8        1.0  0.62649  0.40170  0.99057  1.0000 -0.1562622811
S   S9        1.0  0.77502  0.70009  0.47623  1.0000 -0.1510931974
S   S10       1.0  0.90321  0.96050  0.48577  1.0000 -0.1324081931
S   S11       1.0  0.77397  0.26618  0.47170  1.0000 -0.1423368648
S   S12       1.0  0.62649  0.09830  0.49057  1.0000 -0.1562622811
S   S13       1.0  0.22498  0.20009  0.02377  1.0000 -0.1510931974
S   S14       1.0  0.09679  0.46050  0.01423  1.0000 -0.1324081931
S   S15       1.0  0.22603  0.76618  0.02830  1.0000 -0.1423368648
S   S16       1.0  0.37351  0.59830  0.00943  1.0000 -0.1562622811
N   N1        1.0  0.16710  0.88130  0.44740  1.0000 -0.1725242369
N   N2        1.0  0.28840  0.11410  0.45320  1.0000 -0.1796930495
N   N3        1.0  0.35129  0.15060  0.57649  1.0000 -0.1796930495
N   N4        1.0  0.21514  0.99210  0.59304  1.0000 -0.1725242369
N   N5        1.0  0.75230  0.25990  0.68180  1.0000 -0.213227934
N   N6        1.0  0.83290  0.38130  0.05260  1.0000 -0.1725242369
N   N7        1.0  0.71160  0.61410  0.04680  1.0000 -0.1796930495
N   N8        1.0  0.64871  0.65060  0.92351  1.0000 -0.1796930495
N   N9        1.0  0.78486  0.49210  0.90696  1.0000 -0.1725242369
N   N10       1.0  0.24770  0.75990  0.81820  1.0000 -0.213227934
N   N11       1.0  0.83290  0.11870  0.55260  1.0000 -0.1725242369
N   N12       1.0  0.71160  0.88590  0.54680  1.0000 -0.1796930495
N   N13       1.0  0.64871  0.84940  0.42351  1.0000 -0.1796930495
N   N14       1.0  0.78486  0.00790  0.40696  1.0000 -0.1725242369
N   N15       1.0  0.24770  0.74010  0.31820  1.0000 -0.213227934
N   N16       1.0  0.16710  0.61870  0.94740  1.0000 -0.1725242369
N   N17       1.0  0.28840  0.38590  0.95320  1.0000 -0.1796930495
N   N18       1.0  0.35129  0.34940  0.07649  1.0000 -0.1796930495
N   N19       1.0  0.21514  0.50790  0.09304  1.0000 -0.1725242369
N   N20       1.0  0.75230  0.24010  0.18180  1.0000 -0.213227934
N   N21       1.0  0.95210  0.64390  0.71960  1.0000 -0.1199794624
N   N22       1.0  0.04790  0.14390  0.78040  1.0000 -0.1199794624
N   N23       1.0  0.04790  0.35610  0.28040  1.0000 -0.1199794624
N   N24       1.0  0.95210  0.85610  0.21960  1.0000 -0.1199794624
Cl  Cl1       1.0  0.10106  0.22300  0.42440  1.0000 -0.3976509932
Cl  Cl2       1.0  0.38005  0.80085  0.61284  1.0000 -0.3565915886
Cl  Cl3       1.0  0.89894  0.72300  0.07560  1.0000 -0.3976509932
Cl  Cl4       1.0  0.61995  0.30085  0.88716  1.0000 -0.3565915886
Cl  Cl5       1.0  0.89894  0.77700  0.57560  1.0000 -0.3976509932
Cl  Cl6       1.0  0.61995  0.19915  0.38716  1.0000 -0.3565915886
Cl  Cl7       1.0  0.10106  0.27700  0.92440  1.0000 -0.3976509932
Cl  Cl8       1.0  0.38005  0.69915  0.11284  1.0000 -0.3565915886
O   O1        1.0  0.03203  0.89470  0.31033  1.0000 -0.53660453
O   O2        1.0  0.04640  0.65570  0.30290  1.0000 -0.53660453
O   O3        1.0  0.27470  0.43350  0.35330  1.0000 -0.517094827
O   O4        1.0  0.35320  0.31340  0.32300  1.0000 -0.4776463795
O   O5        1.0  0.58170  0.38340  0.66880  1.0000 -0.517094827
O   O6        1.0  0.57090  0.13800  0.67450  1.0000 -0.4776463795
O   O7        1.0  0.18150  0.98450  0.74300  1.0000 -0.5260752055
O   O8        1.0  0.29827  0.94340  0.73487  1.0000 -0.517094827
O   O9        1.0  0.96797  0.39470  0.18967  1.0000 -0.53660453
O   O10       1.0  0.95360  0.15570  0.19710  1.0000 -0.53660453
O   O11       1.0  0.72530  0.93350  0.14670  1.0000 -0.517094827
O   O12       1.0  0.64680  0.81340  0.17700  1.0000 -0.4776463795
O   O13       1.0  0.41830  0.88340  0.83120  1.0000 -0.517094827
O   O14       1.0  0.42910  0.63800  0.82550  1.0000 -0.4776463795
O   O15       1.0  0.81850  0.48450  0.75700  1.0000 -0.5260752055
O   O16       1.0  0.70173  0.44340  0.76513  1.0000 -0.514922655
O   O17       1.0  0.96797  0.10530  0.68967  1.0000 -0.53660453
O   O18       1.0  0.95360  0.34430  0.69710  1.0000 -0.53660453
O   O19       1.0  0.72530  0.56650  0.64670  1.0000 -0.517094827
O   O20       1.0  0.64680  0.68660  0.67700  1.0000 -0.4776463795
O   O21       1.0  0.41830  0.61660  0.33120  1.0000 -0.517094827
O   O22       1.0  0.42910  0.86200  0.32550  1.0000 -0.4776463795
O   O23       1.0  0.81850  0.01550  0.25700  1.0000 -0.5260752055
O   O24       1.0  0.70173  0.05660  0.26513  1.0000 -0.517094827
O   O25       1.0  0.03203  0.60530  0.81033  1.0000 -0.53660453
O   O26       1.0  0.04640  0.84430  0.80290  1.0000 -0.53660453
O   O27       1.0  0.27470  0.06650  0.85330  1.0000 -0.517094827
O   O28       1.0  0.35320  0.18660  0.82300  1.0000 -0.4776463795
O   O29       1.0  0.58170  0.11660  0.16880  1.0000 -0.517094827
O   O30       1.0  0.57090  0.36200  0.17450  1.0000 -0.4776463795
O   O31       1.0  0.18150  0.51550  0.24300  1.0000 -0.5260752055
O   O32       1.0  0.29827  0.55660  0.23487  1.0000 -0.514922655
