# DDEC6 charges by PACMAN v1.1 (https://github.com/mtap-research/PACMAN-charge/)
data_2022[EuCd][pts]3[ION]1
_chemical_formula_sum              "Eu2 Cd2 H44 C44 N18 O28"
_cell_length_a       9.9363
_cell_length_b       12.2898
_cell_length_c       15.0121
_cell_angle_alpha    71.398
_cell_angle_beta     87.28
_cell_angle_gamma    88.596

_symmetry_space_group_name_H-M    "P 1"
_symmetry_Int_Tables_number       1

loop_
  _symmetry_equiv_pos_as_xyz
  'x, y, z'

loop_
  _atom_site_type_symbol
  _atom_site_label
  _atom_site_symmetry_multiplicity
  _atom_site_fract_x
  _atom_site_fract_y
  _atom_site_fract_z
  _atom_site_occupancy
  _atom_site_charge
Eu  Eu1       1.0  0.36641  0.99851  0.74732  1.0000 2.0332006362
Eu  Eu2       1.0  0.63359  0.00149  0.25268  1.0000 2.0332006362
Cd  Cd1       1.0  0.27054  0.48838  0.75865  1.0000 0.7505084422
Cd  Cd2       1.0  0.72946  0.51162  0.24135  1.0000 0.7505084422
H   H1        1.0  0.63271  0.92082  0.71944  1.0000 0.3820933249
H   H2        1.0  0.64782  0.98450  0.78070  1.0000 0.389176736
H   H3        1.0  0.20930  0.20608  0.71752  1.0000 0.3820933249
H   H4        1.0  0.11500  0.11624  0.75599  1.0000 0.389176736
H   H5        1.0  0.18373  0.81959  0.74803  1.0000 0.389176736
H   H6        1.0  0.09783  0.91069  0.75725  1.0000 0.3694594946
H   H7        1.0  0.80692  0.42027  0.63641  1.0000 0.1417756804
H   H8        1.0  0.79732  0.56324  0.88979  1.0000 0.1417756804
H   H9        1.0  0.00516  0.37534  0.71684  1.0000 0.0994699743
H   H10       1.0  0.00694  0.60813  0.81469  1.0000 0.1090691235
H   H11       1.0  0.16363  0.67203  0.56782  1.0000 0.1182934817
H   H12       1.0  0.14125  0.29269  0.94043  1.0000 0.1182934817
H   H13       1.0  0.97093  0.72328  0.48090  1.0000 0.1417756804
H   H14       1.0  0.93643  0.24257  0.02324  1.0000 0.1502889764
H   H15       1.0  0.75082  0.68393  0.44669  1.0000 0.1417756804
H   H16       1.0  0.71638  0.55081  0.47016  1.0000 0.1318748782
H   H17       1.0  0.71375  0.29523  0.06781  1.0000 0.1502889764
H   H18       1.0  0.67722  0.42923  0.04098  1.0000 0.1318748782
H   H19       1.0  0.75741  0.81443  0.56477  1.0000 0.1579226178
H   H20       1.0  0.62637  0.87567  0.59371  1.0000 0.16746252
H   H21       1.0  0.76565  0.17333  0.92653  1.0000 0.1502889764
H   H22       1.0  0.63826  0.10547  0.91078  1.0000 0.1764418033
H   H23       1.0  0.36729  0.07918  0.28056  1.0000 0.3820933249
H   H24       1.0  0.35218  0.01550  0.21930  1.0000 0.389176736
H   H25       1.0  0.79070  0.79392  0.28248  1.0000 0.3820933249
H   H26       1.0  0.88500  0.88376  0.24401  1.0000 0.389176736
H   H27       1.0  0.81627  0.18041  0.25197  1.0000 0.389176736
H   H28       1.0  0.90217  0.08931  0.24275  1.0000 0.3694594946
H   H29       1.0  0.19308  0.57973  0.36359  1.0000 0.1417756804
H   H30       1.0  0.20268  0.43676  0.11021  1.0000 0.1417756804
H   H31       1.0  0.99484  0.62466  0.28316  1.0000 0.0994699743
H   H32       1.0  0.99306  0.39187  0.18531  1.0000 0.1090691235
H   H33       1.0  0.83637  0.32797  0.43218  1.0000 0.1182934817
H   H34       1.0  0.85875  0.70731  0.05957  1.0000 0.1182934817
H   H35       1.0  0.02907  0.27672  0.51910  1.0000 0.1417756804
H   H36       1.0  0.06357  0.75743  0.97676  1.0000 0.1502889764
H   H37       1.0  0.24918  0.31607  0.55331  1.0000 0.1417756804
H   H38       1.0  0.28362  0.44919  0.52984  1.0000 0.1318748782
H   H39       1.0  0.28625  0.70477  0.93219  1.0000 0.1502889764
H   H40       1.0  0.32278  0.57077  0.95902  1.0000 0.1318748782
H   H41       1.0  0.24259  0.18557  0.43523  1.0000 0.1579226178
H   H42       1.0  0.37363  0.12433  0.40629  1.0000 0.16746252
H   H43       1.0  0.23435  0.82667  0.07347  1.0000 0.1502889764
H   H44       1.0  0.36174  0.89453  0.08922  1.0000 0.1764418033
C   C1        1.0  0.86650  0.57800  0.55100  1.0000 0.1502889764
C   C2        1.0  0.84370  0.39690  0.96530  1.0000 0.1579226178
C   C3        1.0  0.87890  0.47340  0.62110  1.0000 -0.1893639419
C   C4        1.0  0.86700  0.50680  0.90160  1.0000 -0.1893639419
C   C5        1.0  0.99740  0.44720  0.66880  1.0000 0.0754724857
C   C6        1.0  0.99130  0.53250  0.85600  1.0000 0.0754724857
C   C7        1.0  0.09040  0.62020  0.58150  1.0000 0.0994699743
C   C8        1.0  0.07040  0.34810  0.93020  1.0000 0.0754724857
C   C9        1.0  0.97520  0.65190  0.53000  1.0000 -0.1824170602
C   C10       1.0  0.94820  0.31750  0.97970  1.0000 -0.1893639419
C   C11       1.0  0.73780  0.61070  0.49840  1.0000 -0.1893639419
C   C12       1.0  0.70710  0.36770  0.01490  1.0000 -0.1824170602
C   C13       1.0  0.59060  0.71510  0.59030  1.0000 0.16746252
C   C14       1.0  0.59020  0.26590  0.91620  1.0000 0.1579226178
C   C15       1.0  0.65960  0.82720  0.55560  1.0000 -0.4032713178
C   C16       1.0  0.66950  0.15640  0.94500  1.0000 -0.4032713178
C   C17       1.0  0.63780  0.89130  0.45230  1.0000 0.6586348858
C   C18       1.0  0.65670  0.09360  0.05040  1.0000 0.6586348858
C   C19       1.0  0.47930  0.67700  0.65030  1.0000 -0.0627060908
C   C20       1.0  0.48430  0.30270  0.85740  1.0000 -0.0743101615
C   C21       1.0  0.39530  0.73170  0.70900  1.0000 0.6098396924
C   C22       1.0  0.41340  0.24770  0.79800  1.0000 0.6098396924
C   C23       1.0  0.13350  0.42200  0.44900  1.0000 0.1502889764
C   C24       1.0  0.15630  0.60310  0.03470  1.0000 0.1579226178
C   C25       1.0  0.12110  0.52660  0.37890  1.0000 -0.1893639419
C   C26       1.0  0.13300  0.49320  0.09840  1.0000 -0.1893639419
C   C27       1.0  0.00260  0.55280  0.33120  1.0000 0.0746231597
C   C28       1.0  0.00870  0.46750  0.14400  1.0000 0.0754724857
C   C29       1.0  0.90960  0.37980  0.41850  1.0000 0.0994699743
C   C30       1.0  0.92960  0.65190  0.06980  1.0000 0.0754724857
C   C31       1.0  0.02480  0.34810  0.47000  1.0000 -0.1824170602
C   C32       1.0  0.05180  0.68250  0.02030  1.0000 -0.1893639419
C   C33       1.0  0.26220  0.38930  0.50160  1.0000 -0.1893639419
C   C34       1.0  0.29290  0.63230  0.98510  1.0000 -0.1824170602
C   C35       1.0  0.40940  0.28490  0.40970  1.0000 0.16746252
C   C36       1.0  0.40980  0.73410  0.08380  1.0000 0.1579226178
C   C37       1.0  0.34040  0.17280  0.44440  1.0000 -0.4032713178
C   C38       1.0  0.33050  0.84360  0.05500  1.0000 -0.4032713178
C   C39       1.0  0.36220  0.10870  0.54770  1.0000 0.6586348858
C   C40       1.0  0.34330  0.90640  0.94960  1.0000 0.6586348858
C   C41       1.0  0.52070  0.32300  0.34970  1.0000 -0.0627060908
C   C42       1.0  0.51570  0.69730  0.14260  1.0000 -0.0743101615
C   C43       1.0  0.60470  0.26830  0.29100  1.0000 0.6098396924
C   C44       1.0  0.58660  0.75230  0.20200  1.0000 0.6098396924
N   N1        1.0  0.10210  0.51960  0.64970  1.0000 -0.2395915243
N   N2        1.0  0.09240  0.45310  0.86820  1.0000 -0.2521315667
N   N3        1.0  0.62480  0.62320  0.56100  1.0000 0.1318748782
N   N4        1.0  0.60760  0.35500  0.94990  1.0000 0.1318748782
N   N5        1.0  0.54060  0.53500  0.59920  1.0000 -0.1130554977
N   N6        1.0  0.51850  0.44160  0.91450  1.0000 -0.0993670191
N   N7        1.0  0.45230  0.56850  0.65230  1.0000 -0.1893639419
N   N8        1.0  0.44420  0.40850  0.85940  1.0000 -0.1824170602
N   N9        1.0  0.89790  0.48040  0.35030  1.0000 -0.2395915243
N   N10       1.0  0.90760  0.54690  0.13180  1.0000 -0.2521315667
N   N11       1.0  0.37520  0.37680  0.43900  1.0000 0.1318748782
N   N12       1.0  0.39240  0.64500  0.05010  1.0000 0.1182934817
N   N13       1.0  0.45940  0.46500  0.40080  1.0000 -0.1130554977
N   N14       1.0  0.48150  0.55840  0.08550  1.0000 -0.0993670191
N   N15       1.0  0.54770  0.43150  0.34770  1.0000 -0.1893639419
N   N16       1.0  0.55580  0.59150  0.14060  1.0000 -0.1824170602
N   N17       1.0  0.12910  0.18840  0.26500  1.0000 0.6953610328
N   N18       1.0  0.87090  0.81160  0.73500  1.0000 0.6953610328
O   O1        1.0  0.29000  0.67890  0.74980  1.0000 -0.5491300676
O   O2        1.0  0.31500  0.30470  0.75290  1.0000 -0.5712282213
O   O3        1.0  0.43520  0.82410  0.71510  1.0000 -0.6149859283
O   O4        1.0  0.45280  0.15180  0.79600  1.0000 -0.61938943
O   O5        1.0  0.57060  0.84850  0.40330  1.0000 -0.61938943
O   O6        1.0  0.56250  0.12290  0.09920  1.0000 -0.6624345633
O   O7        1.0  0.69290  0.98740  0.41670  1.0000 -0.61938943
O   O8        1.0  0.73940  0.01550  0.08850  1.0000 -0.6420334432
O   O9        1.0  0.60810  0.98720  0.72730  1.0000 -0.7637671086
O   O10       1.0  0.18440  0.13750  0.71230  1.0000 -0.7980752441
O   O11       1.0  0.17540  0.87190  0.78000  1.0000 -0.8108213398
O   O12       1.0  0.71000  0.32110  0.25020  1.0000 -0.5491300676
O   O13       1.0  0.68500  0.69530  0.24710  1.0000 -0.5712282213
O   O14       1.0  0.56480  0.17590  0.28490  1.0000 -0.6149859283
O   O15       1.0  0.54720  0.84820  0.20400  1.0000 -0.61938943
O   O16       1.0  0.42940  0.15150  0.59670  1.0000 -0.61938943
O   O17       1.0  0.43750  0.87710  0.90080  1.0000 -0.6624345633
O   O18       1.0  0.30710  0.01260  0.58330  1.0000 -0.61938943
O   O19       1.0  0.26060  0.98450  0.91150  1.0000 -0.6420334432
O   O20       1.0  0.39190  0.01280  0.27270  1.0000 -0.7637671086
O   O21       1.0  0.81560  0.86250  0.28770  1.0000 -0.7980752441
O   O22       1.0  0.82460  0.12810  0.22000  1.0000 -0.8108213398
O   O23       1.0  0.04980  0.22500  0.31540  1.0000 -0.440169141
O   O24       1.0  0.09520  0.10720  0.23740  1.0000 -0.4522323314
O   O25       1.0  0.24550  0.22920  0.24260  1.0000 -0.457065523
O   O26       1.0  0.95020  0.77500  0.68460  1.0000 -0.440169141
O   O27       1.0  0.90480  0.89280  0.76260  1.0000 -0.4522323314
O   O28       1.0  0.75450  0.77080  0.75740  1.0000 -0.457065523
