# DDEC6 charges by PACMAN v1.1 (https://github.com/mtap-research/PACMAN-charge/)
data_2023[Cd][dia]3[ION]1
_chemical_formula_sum              "Cd4 H72 C96 S4 N12 O40"
_cell_length_a       10.3036
_cell_length_b       17.8834
_cell_length_c       20.4909
_cell_angle_alpha    104.434
_cell_angle_beta     95.917
_cell_angle_gamma    97.1

_symmetry_space_group_name_H-M    "P 1"
_symmetry_Int_Tables_number       1

loop_
  _symmetry_equiv_pos_as_xyz
  'x, y, z'

loop_
  _atom_site_type_symbol
  _atom_site_label
  _atom_site_symmetry_multiplicity
  _atom_site_fract_x
  _atom_site_fract_y
  _atom_site_fract_z
  _atom_site_occupancy
  _atom_site_charge
Cd  Cd1       1.0  0.47303  0.17418  0.71081  1.0000 0.9777534335
Cd  Cd2       1.0  0.41579  0.17604  0.20941  1.0000 0.9622413247
Cd  Cd3       1.0  0.52697  0.82582  0.28919  1.0000 0.9777534335
Cd  Cd4       1.0  0.58421  0.82396  0.79059  1.0000 0.9622413247
H   H1        1.0  0.76424  0.85423  0.16131  1.0000 0.2965010061
H   H2        1.0  0.81434  0.85216  0.66796  1.0000 0.2965010061
H   H3        1.0  0.59541  0.49635  0.08332  1.0000 0.2805954247
H   H4        1.0  0.60884  0.49878  0.57855  1.0000 0.289936158
H   H5        1.0  0.10462  0.95485  0.65137  1.0000 0.1399821378
H   H6        1.0  0.57915  0.38648  0.91989  1.0000 0.1399821378
H   H7        1.0  0.43885  0.18146  0.95343  1.0000 0.1399821378
H   H8        1.0  0.05458  0.96427  0.15448  1.0000 0.1497253234
H   H9        1.0  0.99847  0.16743  0.70980  1.0000 0.1307626907
H   H10       1.0  0.44079  0.18288  0.45696  1.0000 0.1307626907
H   H11       1.0  0.55512  0.38731  0.41434  1.0000 0.1209777163
H   H12       1.0  0.57885  0.37526  0.60833  1.0000 0.1497253234
H   H13       1.0  0.54644  0.37315  0.10978  1.0000 0.1399821378
H   H14       1.0  0.72092  0.59951  0.16160  1.0000 0.1399821378
H   H15       1.0  0.79861  0.73967  0.19832  1.0000 0.1497253234
H   H16       1.0  0.66886  0.97208  0.16687  1.0000 0.1592342734
H   H17       1.0  0.84213  0.73353  0.69249  1.0000 0.1497253234
H   H18       1.0  0.92372  0.17079  0.20082  1.0000 0.1209777163
H   H19       1.0  0.74986  0.59467  0.65323  1.0000 0.1399821378
H   H20       1.0  0.73101  0.97526  0.68091  1.0000 0.1592342734
H   H21       1.0  0.23576  0.14577  0.83869  1.0000 0.2965010061
H   H22       1.0  0.18566  0.14784  0.33204  1.0000 0.2965010061
H   H23       1.0  0.40459  0.50365  0.91668  1.0000 0.2805954247
H   H24       1.0  0.39116  0.50122  0.42145  1.0000 0.289936158
H   H25       1.0  0.89538  0.04515  0.34863  1.0000 0.1399821378
H   H26       1.0  0.42085  0.61352  0.08011  1.0000 0.1399821378
H   H27       1.0  0.56115  0.81854  0.04657  1.0000 0.1399821378
H   H28       1.0  0.94542  0.03573  0.84552  1.0000 0.1497253234
H   H29       1.0  0.00153  0.83257  0.29020  1.0000 0.1307626907
H   H30       1.0  0.55921  0.81712  0.54304  1.0000 0.1307626907
H   H31       1.0  0.44488  0.61269  0.58566  1.0000 0.1209777163
H   H32       1.0  0.42115  0.62474  0.39167  1.0000 0.1497253234
H   H33       1.0  0.45356  0.62685  0.89022  1.0000 0.1399821378
H   H34       1.0  0.27908  0.40049  0.83840  1.0000 0.1399821378
H   H35       1.0  0.20139  0.26033  0.80168  1.0000 0.1497253234
H   H36       1.0  0.33114  0.02792  0.83313  1.0000 0.1592342734
H   H37       1.0  0.15787  0.26647  0.30751  1.0000 0.1497253234
H   H38       1.0  0.07628  0.82921  0.79918  1.0000 0.1209777163
H   H39       1.0  0.25014  0.40533  0.34677  1.0000 0.1399821378
H   H40       1.0  0.26899  0.02474  0.31909  1.0000 0.1592342734
H   H41       1.0  0.11845  0.04451  0.53593  1.0000 0.1307626907
H   H42       1.0  0.22243  0.11564  0.53435  1.0000 0.1399821378
H   H43       1.0  0.15399  0.05596  0.46612  1.0000 0.1209777163
H   H44       1.0  0.33452  0.02442  0.55880  1.0000 0.2606741368
H   H45       1.0  0.35630  0.02682  0.49114  1.0000 0.2606741368
H   H46       1.0  0.18886  0.91354  0.51970  1.0000 0.1497253234
H   H47       1.0  0.20635  0.91684  0.44532  1.0000 0.1399821378
H   H48       1.0  0.32384  0.90155  0.49278  1.0000 0.1399821378
H   H49       1.0  0.88155  0.95549  0.46407  1.0000 0.1307626907
H   H50       1.0  0.77757  0.88436  0.46565  1.0000 0.1399821378
H   H51       1.0  0.84601  0.94404  0.53388  1.0000 0.1209777163
H   H52       1.0  0.66548  0.97558  0.44120  1.0000 0.2606741368
H   H53       1.0  0.64370  0.97318  0.50886  1.0000 0.2606741368
H   H54       1.0  0.81114  0.08646  0.48030  1.0000 0.1497253234
H   H55       1.0  0.79365  0.08316  0.55468  1.0000 0.1399821378
H   H56       1.0  0.67616  0.09845  0.50722  1.0000 0.1399821378
H   H57       1.0  0.83040  0.34813  0.39363  1.0000 0.1307626907
H   H58       1.0  0.82511  0.28480  0.32457  1.0000 0.1399821378
H   H59       1.0  0.91829  0.36509  0.33933  1.0000 0.1307626907
H   H60       1.0  0.71750  0.41251  0.34783  1.0000 0.2501291364
H   H61       1.0  0.65971  0.33588  0.30752  1.0000 0.2685340076
H   H62       1.0  0.82404  0.43430  0.26538  1.0000 0.1307626907
H   H63       1.0  0.75796  0.35086  0.22122  1.0000 0.1497253234
H   H64       1.0  0.67062  0.41602  0.24379  1.0000 0.1307626907
H   H65       1.0  0.16960  0.65187  0.60637  1.0000 0.1307626907
H   H66       1.0  0.17489  0.71520  0.67543  1.0000 0.1399821378
H   H67       1.0  0.08171  0.63491  0.66067  1.0000 0.1307626907
H   H68       1.0  0.28250  0.58749  0.65217  1.0000 0.2501291364
H   H69       1.0  0.34029  0.66412  0.69248  1.0000 0.2685340076
H   H70       1.0  0.17596  0.56570  0.73462  1.0000 0.1307626907
H   H71       1.0  0.24204  0.64914  0.77878  1.0000 0.1497253234
H   H72       1.0  0.32938  0.58398  0.75621  1.0000 0.1307626907
C   C1        1.0  0.07290  0.06710  0.68120  1.0000 -0.0069443689
C   C2        1.0  0.50840  0.27810  0.92490  1.0000 0.001806847
C   C3        1.0  0.14940  0.11550  0.18620  1.0000 0.5403434902
C   C4        1.0  0.49270  0.23870  0.85020  1.0000 0.5403434902
C   C5        1.0  0.00990  0.07360  0.17860  1.0000 -0.0026608286
C   C6        1.0  0.04040  0.98600  0.66340  1.0000 -0.1795912554
C   C7        1.0  0.49410  0.27890  0.42390  1.0000 -0.0069443689
C   C8        1.0  0.55720  0.35720  0.94990  1.0000 -0.1795912554
C   C9        1.0  0.47210  0.23440  0.96990  1.0000 -0.122174121
C   C10       1.0  0.21390  0.10450  0.68450  1.0000 0.5403434902
C   C11       1.0  0.98550  0.99280  0.16220  1.0000 -0.1583543018
C   C12       1.0  0.45740  0.24040  0.34920  1.0000 0.5469127525
C   C13       1.0  0.91240  0.95200  0.66350  1.0000 0.202121175
C   C14       1.0  0.97680  0.11330  0.69810  1.0000 -0.1298075686
C   C15       1.0  0.57850  0.39430  0.51470  1.0000 0.2186249673
C   C16       1.0  0.47530  0.23580  0.47150  1.0000 -0.1298075686
C   C17       1.0  0.85720  0.95430  0.15710  1.0000 0.2254700988
C   C18       1.0  0.54440  0.35840  0.44590  1.0000 -0.1974211033
C   C19       1.0  0.57370  0.39270  0.01850  1.0000 0.2096373319
C   C20       1.0  0.55840  0.35100  0.56200  1.0000 -0.1974211033
C   C21       1.0  0.53680  0.34920  0.06340  1.0000 -0.1974211033
C   C22       1.0  0.48590  0.27020  0.03900  1.0000 0.0111938472
C   C23       1.0  0.75230  0.62830  0.13290  1.0000 -0.122174121
C   C24       1.0  0.50840  0.27250  0.54020  1.0000 0.0111938472
C   C25       1.0  0.71830  0.51550  0.51270  1.0000 0.4709088136
C   C26       1.0  0.79740  0.70910  0.15420  1.0000 -0.0921390139
C   C27       1.0  0.44410  0.22420  0.08750  1.0000 0.5469127525
C   C28       1.0  0.71560  0.51550  0.02240  1.0000 0.476878795
C   C29       1.0  0.77900  0.07860  0.18540  1.0000 0.0111938472
C   C30       1.0  0.74230  0.13050  0.71210  1.0000 0.5403434902
C   C31       1.0  0.75430  0.99760  0.16940  1.0000 -0.1583543018
C   C32       1.0  0.84770  0.07900  0.69780  1.0000 0.0111938472
C   C33       1.0  0.83070  0.70450  0.64730  1.0000 -0.0995558173
C   C34       1.0  0.90690  0.11650  0.19000  1.0000 -0.1084465979
C   C35       1.0  0.83940  0.73760  0.10270  1.0000 -0.1084465979
C   C36       1.0  0.77770  0.62430  0.62450  1.0000 -0.1298075686
C   C37       1.0  0.66667  0.12530  0.19700  1.0000 0.5403434902
C   C38       1.0  0.81690  0.99840  0.68080  1.0000 -0.1795912554
C   C39       1.0  0.75920  0.59640  0.06600  1.0000 -0.1084465979
C   C40       1.0  0.77170  0.59510  0.55630  1.0000 -0.122174121
C   C41       1.0  0.49170  0.22680  0.59310  1.0000 0.5469127525
C   C42       1.0  0.86350  0.73470  0.59430  1.0000 -0.1084465979
C   C43       1.0  0.91960  0.81650  0.59890  1.0000 0.4709088136
C   C44       1.0  0.89040  0.81930  0.10420  1.0000 0.4709088136
C   C45       1.0  0.92710  0.93290  0.31880  1.0000 -0.0069443689
C   C46       1.0  0.49160  0.72190  0.07510  1.0000 0.001806847
C   C47       1.0  0.85060  0.88450  0.81380  1.0000 0.5403434902
C   C48       1.0  0.50730  0.76130  0.14980  1.0000 0.5403434902
C   C49       1.0  0.99010  0.92640  0.82140  1.0000 -0.0026608286
C   C50       1.0  0.95960  0.01400  0.33660  1.0000 -0.1795912554
C   C51       1.0  0.50590  0.72110  0.57610  1.0000 -0.0069443689
C   C52       1.0  0.44280  0.64280  0.05010  1.0000 -0.1795912554
C   C53       1.0  0.52790  0.76560  0.03010  1.0000 -0.122174121
C   C54       1.0  0.78610  0.89550  0.31550  1.0000 0.5403434902
C   C55       1.0  0.01450  0.00720  0.83780  1.0000 -0.1583543018
C   C56       1.0  0.54260  0.75960  0.65080  1.0000 0.5469127525
C   C57       1.0  0.08760  0.04800  0.33650  1.0000 0.202121175
C   C58       1.0  0.02320  0.88670  0.30190  1.0000 -0.1298075686
C   C59       1.0  0.42150  0.60570  0.48530  1.0000 0.2186249673
C   C60       1.0  0.52470  0.76420  0.52850  1.0000 -0.1298075686
C   C61       1.0  0.14280  0.04570  0.84290  1.0000 0.2254700988
C   C62       1.0  0.45560  0.64160  0.55410  1.0000 -0.1974211033
C   C63       1.0  0.42630  0.60730  0.98150  1.0000 0.2096373319
C   C64       1.0  0.44160  0.64900  0.43800  1.0000 -0.1974211033
C   C65       1.0  0.46320  0.65080  0.93660  1.0000 -0.1974211033
C   C66       1.0  0.51410  0.72980  0.96100  1.0000 0.0111938472
C   C67       1.0  0.24770  0.37170  0.86710  1.0000 -0.122174121
C   C68       1.0  0.49160  0.72750  0.45980  1.0000 0.0111938472
C   C69       1.0  0.28170  0.48450  0.48730  1.0000 0.4709088136
C   C70       1.0  0.20260  0.29090  0.84580  1.0000 -0.0921390139
C   C71       1.0  0.55590  0.77580  0.91250  1.0000 0.5469127525
C   C72       1.0  0.28440  0.48450  0.97760  1.0000 0.476878795
C   C73       1.0  0.22100  0.92140  0.81460  1.0000 0.0111938472
C   C74       1.0  0.25770  0.86950  0.28790  1.0000 0.5403434902
C   C75       1.0  0.24570  0.00240  0.83060  1.0000 -0.1583543018
C   C76       1.0  0.15230  0.92100  0.30220  1.0000 0.0111938472
C   C77       1.0  0.16930  0.29550  0.35270  1.0000 -0.0995558173
C   C78       1.0  0.09310  0.88350  0.81000  1.0000 -0.1084465979
C   C79       1.0  0.16060  0.26240  0.89730  1.0000 -0.1084465979
C   C80       1.0  0.22230  0.37570  0.37550  1.0000 -0.1298075686
C   C81       1.0  0.33333  0.87470  0.80300  1.0000 0.5403434902
C   C82       1.0  0.18310  0.00160  0.31920  1.0000 -0.1795912554
C   C83       1.0  0.24080  0.40360  0.93400  1.0000 -0.1084465979
C   C84       1.0  0.22830  0.40490  0.44370  1.0000 -0.122174121
C   C85       1.0  0.50830  0.77320  0.40690  1.0000 0.5469127525
C   C86       1.0  0.13650  0.26530  0.40570  1.0000 -0.1084465979
C   C87       1.0  0.08040  0.18350  0.40110  1.0000 0.4709088136
C   C88       1.0  0.10960  0.18070  0.89580  1.0000 0.4709088136
C   C89       1.0  0.18800  0.06170  0.51280  1.0000 -0.2865158738
C   C90       1.0  0.24970  0.92910  0.49130  1.0000 -0.2772493482
C   C91       1.0  0.81200  0.93830  0.48720  1.0000 -0.2865158738
C   C92       1.0  0.75030  0.07090  0.50870  1.0000 -0.2772493482
C   C93       1.0  0.83460  0.33980  0.34580  1.0000 -0.2600302965
C   C94       1.0  0.74740  0.39500  0.25700  1.0000 -0.2358863697
C   C95       1.0  0.16540  0.66020  0.65420  1.0000 -0.2600302965
C   C96       1.0  0.25260  0.60500  0.74300  1.0000 -0.2358863697
S   S1        1.0  0.82547  0.66526  0.02809  1.0000 0.202121175
S   S2        1.0  0.83303  0.66526  0.51858  1.0000 0.181197065
S   S3        1.0  0.17453  0.33474  0.97191  1.0000 0.202121175
S   S4        1.0  0.16697  0.33474  0.48142  1.0000 0.181197065
N   N1        1.0  0.82840  0.87240  0.14310  1.0000 -0.3380852908
N   N2        1.0  0.87300  0.86970  0.64630  1.0000 -0.3464336738
N   N3        1.0  0.62470  0.47280  0.04710  1.0000 -0.3464336738
N   N4        1.0  0.63270  0.47430  0.54110  1.0000 -0.359487024
N   N5        1.0  0.17160  0.12760  0.85690  1.0000 -0.3380852908
N   N6        1.0  0.12700  0.13030  0.35370  1.0000 -0.3464336738
N   N7        1.0  0.37530  0.52720  0.95290  1.0000 -0.3464336738
N   N8        1.0  0.36730  0.52570  0.45890  1.0000 -0.359487024
N   N9        1.0  0.29580  0.01350  0.51590  1.0000 -0.0921390139
N   N10       1.0  0.70420  0.98650  0.48410  1.0000 -0.0921390139
N   N11       1.0  0.73240  0.37130  0.31640  1.0000 -0.0921390139
N   N12       1.0  0.26760  0.62870  0.68360  1.0000 -0.0921390139
O   O1        1.0  0.53470  0.27910  0.81072  1.0000 -0.5120756895
O   O2        1.0  0.30160  0.06250  0.67230  1.0000 -0.5195002229
O   O3        1.0  0.43860  0.16960  0.82769  1.0000 -0.5388901055
O   O4        1.0  0.49270  0.27910  0.30795  1.0000 -0.5527207524
O   O5        1.0  0.44250  0.26250  0.14840  1.0000 -0.5311504036
O   O6        1.0  0.50420  0.26640  0.65450  1.0000 -0.4958936841
O   O7        1.0  0.39760  0.17190  0.32893  1.0000 -0.5311504036
O   O8        1.0  0.24030  0.07400  0.17750  1.0000 -0.4869339238
O   O9        1.0  0.62470  0.09620  0.70200  1.0000 -0.5311504036
O   O10       1.0  0.23930  0.17820  0.70110  1.0000 -0.5388901055
O   O11       1.0  0.17340  0.18760  0.20230  1.0000 -0.5311504036
O   O12       1.0  0.76180  0.49150  0.96990  1.0000 -0.437113908
O   O13       1.0  0.55440  0.08860  0.19420  1.0000 -0.4698748559
O   O14       1.0  0.75280  0.49120  0.45680  1.0000 -0.4869339238
O   O15       1.0  0.47030  0.15530  0.57580  1.0000 -0.5594207317
O   O16       1.0  0.41740  0.15280  0.06820  1.0000 -0.4602092699
O   O17       1.0  0.99870  0.83230  0.56250  1.0000 -0.4602092699
O   O18       1.0  0.77210  0.20200  0.72970  1.0000 -0.4869339238
O   O19       1.0  0.97660  0.83540  0.07140  1.0000 -0.415783462
O   O20       1.0  0.69050  0.19670  0.20810  1.0000 -0.5311504036
O   O21       1.0  0.46530  0.72090  0.18928  1.0000 -0.5120756895
O   O22       1.0  0.69840  0.93750  0.32770  1.0000 -0.5195002229
O   O23       1.0  0.56140  0.83040  0.17231  1.0000 -0.5388901055
O   O24       1.0  0.50730  0.72090  0.69205  1.0000 -0.5527207524
O   O25       1.0  0.55750  0.73750  0.85160  1.0000 -0.5311504036
O   O26       1.0  0.49580  0.73360  0.34550  1.0000 -0.4958936841
O   O27       1.0  0.60240  0.82810  0.67107  1.0000 -0.5311504036
O   O28       1.0  0.75970  0.92600  0.82250  1.0000 -0.4869339238
O   O29       1.0  0.37530  0.90380  0.29800  1.0000 -0.5311504036
O   O30       1.0  0.76070  0.82180  0.29890  1.0000 -0.5388901055
O   O31       1.0  0.82660  0.81240  0.79770  1.0000 -0.5311504036
O   O32       1.0  0.23820  0.50850  0.03010  1.0000 -0.437113908
O   O33       1.0  0.44560  0.91140  0.80580  1.0000 -0.4698748559
O   O34       1.0  0.24720  0.50880  0.54320  1.0000 -0.4869339238
O   O35       1.0  0.52970  0.84470  0.42420  1.0000 -0.5594207317
O   O36       1.0  0.58260  0.84720  0.93180  1.0000 -0.4602092699
O   O37       1.0  0.00130  0.16770  0.43750  1.0000 -0.4602092699
O   O38       1.0  0.22790  0.79800  0.27030  1.0000 -0.4869339238
O   O39       1.0  0.02340  0.16460  0.92860  1.0000 -0.4138067633
O   O40       1.0  0.30950  0.80330  0.79190  1.0000 -0.5311504036
