# DDEC6 charges by PACMAN v1.1 (https://github.com/mtap-research/PACMAN-charge/)
data_2023[Ni][dia]3[ION]7
_chemical_formula_sum              "Ni4 H72 C76 N16 O24"
_cell_length_a       10.0979
_cell_length_b       16.0566
_cell_length_c       18.2095
_cell_angle_alpha    90
_cell_angle_beta     90
_cell_angle_gamma    90

_symmetry_space_group_name_H-M    "P 1"
_symmetry_Int_Tables_number       1

loop_
  _symmetry_equiv_pos_as_xyz
  'x, y, z'

loop_
  _atom_site_type_symbol
  _atom_site_label
  _atom_site_symmetry_multiplicity
  _atom_site_fract_x
  _atom_site_fract_y
  _atom_site_fract_z
  _atom_site_occupancy
  _atom_site_charge
Ni  Ni1       1.0  0.85722  0.72890  0.54932  1.0000 0.6961979412
Ni  Ni2       1.0  0.64278  0.27110  0.04932  1.0000 0.6961979412
Ni  Ni3       1.0  0.14278  0.22890  0.95068  1.0000 0.6961979412
Ni  Ni4       1.0  0.35722  0.77110  0.45068  1.0000 0.6961979412
H   H1        1.0  0.76626  0.60240  0.48372  1.0000 0.3250615143
H   H2        1.0  0.73374  0.39760  0.98372  1.0000 0.3250615143
H   H3        1.0  0.23374  0.10240  0.01628  1.0000 0.3250615143
H   H4        1.0  0.26626  0.89760  0.51628  1.0000 0.3250615143
H   H5        1.0  0.87950  0.62438  0.44622  1.0000 0.3250615143
H   H6        1.0  0.62050  0.37562  0.94622  1.0000 0.3250615143
H   H7        1.0  0.12050  0.12438  0.05378  1.0000 0.3250615143
H   H8        1.0  0.37950  0.87562  0.55378  1.0000 0.3250615143
H   H9        1.0  0.24147  0.69666  0.55958  1.0000 0.2714454674
H   H10       1.0  0.25853  0.30334  0.05958  1.0000 0.2714454674
H   H11       1.0  0.75853  0.19666  0.94042  1.0000 0.2714454674
H   H12       1.0  0.74147  0.80334  0.44042  1.0000 0.2714454674
H   H13       1.0  0.04720  0.58462  0.55377  1.0000 0.1033628725
H   H14       1.0  0.45280  0.41538  0.05377  1.0000 0.1033628725
H   H15       1.0  0.95280  0.08462  0.94623  1.0000 0.1033628725
H   H16       1.0  0.54720  0.91538  0.44623  1.0000 0.1033628725
H   H17       1.0  0.90690  0.32156  0.89501  1.0000 0.1101568598
H   H18       1.0  0.59310  0.67844  0.39501  1.0000 0.1101568598
H   H19       1.0  0.09310  0.82156  0.60499  1.0000 0.1101568598
H   H20       1.0  0.40690  0.17844  0.10499  1.0000 0.1101568598
H   H21       1.0  0.19938  0.58020  0.43615  1.0000 0.1208072633
H   H22       1.0  0.30062  0.41980  0.93615  1.0000 0.1208072633
H   H23       1.0  0.80062  0.08020  0.06385  1.0000 0.1208072633
H   H24       1.0  0.69938  0.91980  0.56385  1.0000 0.1208072633
H   H25       1.0  0.84511  0.42218  0.81217  1.0000 0.12964347
H   H26       1.0  0.65489  0.57782  0.31217  1.0000 0.12964347
H   H27       1.0  0.15489  0.92218  0.68783  1.0000 0.12964347
H   H28       1.0  0.34511  0.07782  0.18783  1.0000 0.12964347
H   H29       1.0  0.27333  0.32456  0.82192  1.0000 0.1033628725
H   H30       1.0  0.22667  0.67544  0.32192  1.0000 0.1033628725
H   H31       1.0  0.72667  0.82456  0.67808  1.0000 0.1033628725
H   H32       1.0  0.77333  0.17544  0.17808  1.0000 0.1033628725
H   H33       1.0  0.20815  0.43321  0.43416  1.0000 0.1101568598
H   H34       1.0  0.29185  0.56679  0.93416  1.0000 0.1101568598
H   H35       1.0  0.79185  0.93321  0.06584  1.0000 0.1101568598
H   H36       1.0  0.70815  0.06679  0.56584  1.0000 0.1101568598
H   H37       1.0  0.12022  0.48025  0.63152  1.0000 0.12964347
H   H38       1.0  0.37978  0.51975  0.13152  1.0000 0.12964347
H   H39       1.0  0.87978  0.98025  0.86848  1.0000 0.12964347
H   H40       1.0  0.62022  0.01975  0.36848  1.0000 0.12964347
H   H41       1.0  0.22237  0.42724  0.73732  1.0000 0.12964347
H   H42       1.0  0.27763  0.57276  0.23732  1.0000 0.12964347
H   H43       1.0  0.77763  0.92724  0.76268  1.0000 0.12964347
H   H44       1.0  0.72237  0.07276  0.26268  1.0000 0.12964347
H   H45       1.0  0.84025  0.55388  0.77760  1.0000 0.12964347
H   H46       1.0  0.65975  0.44612  0.27760  1.0000 0.12964347
H   H47       1.0  0.15975  0.05388  0.72240  1.0000 0.12964347
H   H48       1.0  0.34025  0.94612  0.22240  1.0000 0.12964347
H   H49       1.0  0.78016  0.65798  0.69666  1.0000 0.1101568598
H   H50       1.0  0.71984  0.34202  0.19666  1.0000 0.1101568598
H   H51       1.0  0.21984  0.15798  0.80334  1.0000 0.1101568598
H   H52       1.0  0.28016  0.84202  0.30334  1.0000 0.1101568598
H   H53       1.0  0.40023  0.73638  0.62909  1.0000 0.1101568598
H   H54       1.0  0.09977  0.26362  0.12909  1.0000 0.1101568598
H   H55       1.0  0.59977  0.23638  0.87091  1.0000 0.1101568598
H   H56       1.0  0.90023  0.76362  0.37091  1.0000 0.1101568598
H   H57       1.0  0.33522  0.36170  0.52022  1.0000 0.1101568598
H   H58       1.0  0.16478  0.63830  0.02022  1.0000 0.1101568598
H   H59       1.0  0.66478  0.86170  0.97978  1.0000 0.1101568598
H   H60       1.0  0.83522  0.13830  0.47978  1.0000 0.1101568598
H   H61       1.0  0.44779  0.43337  0.61300  1.0000 0.1208072633
H   H62       1.0  0.05221  0.56663  0.11300  1.0000 0.1208072633
H   H63       1.0  0.55221  0.93337  0.88700  1.0000 0.1208072633
H   H64       1.0  0.94779  0.06663  0.38700  1.0000 0.1208072633
H   H65       1.0  0.54987  0.59936  0.63813  1.0000 0.12964347
H   H66       1.0  0.95013  0.40064  0.13813  1.0000 0.12964347
H   H67       1.0  0.45013  0.09936  0.86187  1.0000 0.12964347
H   H68       1.0  0.04987  0.90064  0.36187  1.0000 0.12964347
H   H69       1.0  0.40906  0.60887  0.67915  1.0000 0.12964347
H   H70       1.0  0.09094  0.39113  0.17915  1.0000 0.12964347
H   H71       1.0  0.59094  0.10887  0.82085  1.0000 0.12964347
H   H72       1.0  0.90906  0.89113  0.32085  1.0000 0.12964347
C   C1        1.0  0.00560  0.57841  0.60025  1.0000 0.0789525238
C   C2        1.0  0.49440  0.42159  0.10025  1.0000 0.0789525238
C   C3        1.0  0.99440  0.07841  0.89975  1.0000 0.0789525238
C   C4        1.0  0.50560  0.92159  0.39975  1.0000 0.0789525238
C   C5        1.0  0.97200  0.34348  0.86269  1.0000 0.0789525238
C   C6        1.0  0.52800  0.65652  0.36269  1.0000 0.0789525238
C   C7        1.0  0.02800  0.84348  0.63731  1.0000 0.0789525238
C   C8        1.0  0.47200  0.15652  0.13731  1.0000 0.0789525238
C   C9        1.0  0.25030  0.55042  0.47130  1.0000 -0.1914418682
C   C10       1.0  0.24970  0.44958  0.97130  1.0000 -0.1914418682
C   C11       1.0  0.74970  0.05042  0.02870  1.0000 -0.1914418682
C   C12       1.0  0.75030  0.94958  0.52870  1.0000 -0.1914418682
C   C13       1.0  0.55820  0.72826  0.55438  1.0000 0.5661143802
C   C14       1.0  0.94180  0.27174  0.05438  1.0000 0.5661143802
C   C15       1.0  0.44180  0.22826  0.94562  1.0000 0.5661143802
C   C16       1.0  0.05820  0.77174  0.44562  1.0000 0.5661143802
C   C17       1.0  0.02710  0.43811  0.76565  1.0000 0.1101568598
C   C18       1.0  0.47290  0.56189  0.26565  1.0000 0.1101568598
C   C19       1.0  0.97290  0.93811  0.73435  1.0000 0.1101568598
C   C20       1.0  0.52710  0.06189  0.23435  1.0000 0.1101568598
C   C21       1.0  0.32130  0.59161  0.52504  1.0000 0.143749892
C   C22       1.0  0.17870  0.40839  0.02504  1.0000 0.143749892
C   C23       1.0  0.67870  0.09161  0.97496  1.0000 0.143749892
C   C24       1.0  0.82130  0.90839  0.47496  1.0000 0.143749892
C   C25       1.0  0.93450  0.40379  0.81354  1.0000 -0.1914418682
C   C26       1.0  0.56550  0.59621  0.31354  1.0000 -0.1914418682
C   C27       1.0  0.06550  0.90379  0.68646  1.0000 -0.1914418682
C   C28       1.0  0.43450  0.09621  0.18646  1.0000 -0.1914418682
C   C29       1.0  0.39390  0.54965  0.57809  1.0000 0.0462290386
C   C30       1.0  0.10610  0.45035  0.07809  1.0000 0.0462290386
C   C31       1.0  0.60610  0.04965  0.92191  1.0000 0.0462290386
C   C32       1.0  0.89390  0.95035  0.42191  1.0000 0.0462290386
C   C33       1.0  0.98860  0.50478  0.71422  1.0000 0.1208072633
C   C34       1.0  0.51140  0.49522  0.21422  1.0000 0.1208072633
C   C35       1.0  0.01140  0.00478  0.78578  1.0000 0.1208072633
C   C36       1.0  0.48860  0.99522  0.28578  1.0000 0.1208072633
C   C37       1.0  0.18540  0.34545  0.82023  1.0000 0.0789525238
C   C38       1.0  0.31460  0.65455  0.32023  1.0000 0.0789525238
C   C39       1.0  0.81460  0.84545  0.67977  1.0000 0.0789525238
C   C40       1.0  0.68540  0.15455  0.17977  1.0000 0.0746803798
C   C41       1.0  0.25580  0.46336  0.47043  1.0000 -0.0912435062
C   C42       1.0  0.24420  0.53664  0.97043  1.0000 -0.0912435062
C   C43       1.0  0.74420  0.96336  0.02957  1.0000 -0.0912435062
C   C44       1.0  0.75580  0.03664  0.52957  1.0000 -0.0912435062
C   C45       1.0  0.04950  0.51557  0.64616  1.0000 -0.18383658
C   C46       1.0  0.45050  0.48443  0.14616  1.0000 -0.18383658
C   C47       1.0  0.95050  0.01557  0.85384  1.0000 -0.18383658
C   C48       1.0  0.54950  0.98443  0.35384  1.0000 -0.18383658
C   C49       1.0  0.15570  0.40673  0.76939  1.0000 -0.1914418682
C   C50       1.0  0.34430  0.59327  0.26939  1.0000 -0.1914418682
C   C51       1.0  0.84430  0.90673  0.73061  1.0000 -0.1914418682
C   C52       1.0  0.65570  0.09327  0.23061  1.0000 -0.1914418682
C   C53       1.0  0.88540  0.55930  0.73207  1.0000 -0.1914418682
C   C54       1.0  0.61460  0.44070  0.23207  1.0000 -0.1914418682
C   C55       1.0  0.11460  0.05930  0.76793  1.0000 -0.1914418682
C   C56       1.0  0.38540  0.94070  0.26793  1.0000 -0.1914418682
C   C57       1.0  0.84940  0.62095  0.68324  1.0000 0.0882591747
C   C58       1.0  0.65060  0.37905  0.18324  1.0000 0.0882591747
C   C59       1.0  0.15060  0.12095  0.81676  1.0000 0.0882591747
C   C60       1.0  0.34940  0.87905  0.31676  1.0000 0.0882591747
C   C61       1.0  0.43220  0.69462  0.59240  1.0000 -0.0057146317
C   C62       1.0  0.06780  0.30538  0.09240  1.0000 -0.0057146317
C   C63       1.0  0.56780  0.19462  0.90760  1.0000 -0.0057146317
C   C64       1.0  0.93220  0.80538  0.40760  1.0000 -0.0057146317
C   C65       1.0  0.33060  0.42075  0.52225  1.0000 -0.1143420606
C   C66       1.0  0.16940  0.57925  0.02225  1.0000 -0.1143420606
C   C67       1.0  0.66940  0.92075  0.97775  1.0000 -0.1143420606
C   C68       1.0  0.83060  0.07925  0.47775  1.0000 -0.1143420606
C   C69       1.0  0.39870  0.46302  0.57697  1.0000 -0.1598655141
C   C70       1.0  0.10130  0.53698  0.07697  1.0000 -0.1598655141
C   C71       1.0  0.60130  0.96302  0.92303  1.0000 -0.1598655141
C   C72       1.0  0.89870  0.03698  0.42303  1.0000 -0.1598655141
C   C73       1.0  0.45430  0.61059  0.63095  1.0000 -0.2547922589
C   C74       1.0  0.04570  0.38941  0.13095  1.0000 -0.2547922589
C   C75       1.0  0.54570  0.11059  0.86905  1.0000 -0.2547922589
C   C76       1.0  0.95430  0.88941  0.36905  1.0000 -0.2547922589
N   N1        1.0  0.90760  0.63098  0.61784  1.0000 -0.2287581719
N   N2        1.0  0.59240  0.36902  0.11784  1.0000 -0.2287581719
N   N3        1.0  0.09240  0.13098  0.88216  1.0000 -0.2287581719
N   N4        1.0  0.40760  0.86902  0.38216  1.0000 -0.2287581719
N   N5        1.0  0.09580  0.31395  0.86743  1.0000 -0.2225537307
N   N6        1.0  0.40420  0.68605  0.36743  1.0000 -0.2225537307
N   N7        1.0  0.90420  0.81395  0.63257  1.0000 -0.2225537307
N   N8        1.0  0.59580  0.18605  0.13257  1.0000 -0.2225537307
N   N9        1.0  0.32692  0.68107  0.53547  1.0000 -0.3829823367
N   N10       1.0  0.17308  0.31893  0.03547  1.0000 -0.3829823367
N   N11       1.0  0.67308  0.18107  0.96453  1.0000 -0.3829823367
N   N12       1.0  0.82692  0.81893  0.46453  1.0000 -0.3829823367
N   N13       1.0  0.48890  0.94262  0.67789  1.0000 0.6617965244
N   N14       1.0  0.01110  0.05738  0.17789  1.0000 0.6617965244
N   N15       1.0  0.51110  0.44262  0.82211  1.0000 0.6617965244
N   N16       1.0  0.98890  0.55738  0.32211  1.0000 0.6617965244
O   O1        1.0  0.54512  0.76611  0.49397  1.0000 -0.5604745604
O   O2        1.0  0.95488  0.23389  0.99397  1.0000 -0.5604745604
O   O3        1.0  0.45488  0.26611  0.00603  1.0000 -0.5604745604
O   O4        1.0  0.04512  0.73389  0.50603  1.0000 -0.5604745604
O   O5        1.0  0.80736  0.64523  0.46504  1.0000 -0.6591167904
O   O6        1.0  0.69264  0.35477  0.96504  1.0000 -0.6591167904
O   O7        1.0  0.19264  0.14523  0.03496  1.0000 -0.6591167904
O   O8        1.0  0.30736  0.85477  0.53496  1.0000 -0.6591167904
O   O9        1.0  0.66577  0.71765  0.58701  1.0000 -0.5381891138
O   O10       1.0  0.83423  0.28235  0.08701  1.0000 -0.5381891138
O   O11       1.0  0.33423  0.21765  0.91299  1.0000 -0.5381891138
O   O12       1.0  0.16577  0.78235  0.41299  1.0000 -0.5381891138
O   O13       1.0  0.45850  0.97210  0.61506  1.0000 -0.4406197302
O   O14       1.0  0.51110  0.98670  0.72908  1.0000 -0.3727971472
O   O15       1.0  0.49590  0.86733  0.68190  1.0000 -0.38660089
O   O16       1.0  0.04150  0.02790  0.11506  1.0000 -0.4406197302
O   O17       1.0  0.98890  0.01330  0.22908  1.0000 -0.3727971472
O   O18       1.0  0.00410  0.13267  0.18190  1.0000 -0.38660089
O   O19       1.0  0.54150  0.47210  0.88494  1.0000 -0.4406197302
O   O20       1.0  0.48890  0.48670  0.77092  1.0000 -0.3727971472
O   O21       1.0  0.50410  0.36733  0.81810  1.0000 -0.38660089
O   O22       1.0  0.95850  0.52790  0.38494  1.0000 -0.4406197302
O   O23       1.0  0.01110  0.51330  0.27092  1.0000 -0.3727971472
O   O24       1.0  0.99590  0.63267  0.31810  1.0000 -0.38660089
