# DDEC6 charges by PACMAN v1.1 (https://github.com/mtap-research/PACMAN-charge/)
data_2023[Ni][dia]3[ION]12
_chemical_formula_sum              "Ni4 H72 C76 N16 O24"
_cell_length_a       9.85
_cell_length_b       15.8685
_cell_length_c       18.1599
_cell_angle_alpha    90
_cell_angle_beta     90
_cell_angle_gamma    90

_symmetry_space_group_name_H-M    "P 1"
_symmetry_Int_Tables_number       1

loop_
  _symmetry_equiv_pos_as_xyz
  'x, y, z'

loop_
  _atom_site_type_symbol
  _atom_site_label
  _atom_site_symmetry_multiplicity
  _atom_site_fract_x
  _atom_site_fract_y
  _atom_site_fract_z
  _atom_site_occupancy
  _atom_site_charge
Ni  Ni1       1.0  0.83593  0.73332  0.55097  1.0000 0.7111694651
Ni  Ni2       1.0  0.66407  0.26668  0.05097  1.0000 0.7111694651
Ni  Ni3       1.0  0.16407  0.23332  0.94903  1.0000 0.7111694651
Ni  Ni4       1.0  0.33593  0.76668  0.44903  1.0000 0.7111694651
H   H1        1.0  0.21273  0.69225  0.55838  1.0000 0.2740240382
H   H2        1.0  0.28727  0.30775  0.05838  1.0000 0.2740240382
H   H3        1.0  0.78727  0.19225  0.94162  1.0000 0.2740240382
H   H4        1.0  0.71273  0.80775  0.44162  1.0000 0.2740240382
H   H5        1.0  0.28770  0.33083  0.81558  1.0000 0.1101804276
H   H6        1.0  0.21230  0.66917  0.31558  1.0000 0.1101804276
H   H7        1.0  0.71230  0.83083  0.68442  1.0000 0.1101804276
H   H8        1.0  0.78770  0.16917  0.18442  1.0000 0.1101804276
H   H9        1.0  0.02655  0.58711  0.55557  1.0000 0.1041065889
H   H10       1.0  0.47345  0.41289  0.05557  1.0000 0.1041065889
H   H11       1.0  0.97345  0.08711  0.94443  1.0000 0.1041065889
H   H12       1.0  0.52655  0.91289  0.44443  1.0000 0.1041065889
H   H13       1.0  0.11158  0.48749  0.63433  1.0000 0.1288424765
H   H14       1.0  0.38842  0.51251  0.13433  1.0000 0.1288424765
H   H15       1.0  0.88842  0.98749  0.86567  1.0000 0.1288424765
H   H16       1.0  0.61158  0.01251  0.36567  1.0000 0.1288424765
H   H17       1.0  0.85493  0.44027  0.82914  1.0000 0.1288424765
H   H18       1.0  0.64507  0.55973  0.32914  1.0000 0.1288424765
H   H19       1.0  0.14507  0.94027  0.67086  1.0000 0.1288424765
H   H20       1.0  0.35493  0.05973  0.17086  1.0000 0.1288424765
H   H21       1.0  0.84415  0.57066  0.78835  1.0000 0.1363064932
H   H22       1.0  0.65585  0.42934  0.28835  1.0000 0.1363064932
H   H23       1.0  0.15585  0.07066  0.71165  1.0000 0.1363064932
H   H24       1.0  0.34415  0.92934  0.21165  1.0000 0.1363064932
H   H25       1.0  0.22609  0.43470  0.73332  1.0000 0.1288424765
H   H26       1.0  0.27391  0.56530  0.23332  1.0000 0.1288424765
H   H27       1.0  0.77391  0.93470  0.76668  1.0000 0.1288424765
H   H28       1.0  0.72609  0.06530  0.26668  1.0000 0.1288424765
H   H29       1.0  0.16409  0.57806  0.43599  1.0000 0.1288424765
H   H30       1.0  0.33591  0.42194  0.93599  1.0000 0.1288424765
H   H31       1.0  0.83591  0.07806  0.06401  1.0000 0.1288424765
H   H32       1.0  0.66409  0.92194  0.56401  1.0000 0.1288424765
H   H33       1.0  0.77254  0.66888  0.70608  1.0000 0.118330999
H   H34       1.0  0.72746  0.33112  0.20608  1.0000 0.118330999
H   H35       1.0  0.22746  0.16888  0.79392  1.0000 0.118330999
H   H36       1.0  0.27254  0.83112  0.29392  1.0000 0.118330999
H   H37       1.0  0.37286  0.72914  0.63175  1.0000 0.1101804276
H   H38       1.0  0.12714  0.27086  0.13175  1.0000 0.1101804276
H   H39       1.0  0.62714  0.22914  0.86825  1.0000 0.1101804276
H   H40       1.0  0.87286  0.77086  0.36825  1.0000 0.1101804276
H   H41       1.0  0.92612  0.33793  0.90961  1.0000 0.1101804276
H   H42       1.0  0.57388  0.66207  0.40961  1.0000 0.1101804276
H   H43       1.0  0.07388  0.83793  0.59039  1.0000 0.1101804276
H   H44       1.0  0.42612  0.16207  0.09039  1.0000 0.1101804276
H   H45       1.0  0.53284  0.59371  0.63576  1.0000 0.1288424765
H   H46       1.0  0.96716  0.40629  0.13576  1.0000 0.1288424765
H   H47       1.0  0.46716  0.09371  0.86424  1.0000 0.1288424765
H   H48       1.0  0.03284  0.90629  0.36424  1.0000 0.1288424765
H   H49       1.0  0.38740  0.59814  0.67647  1.0000 0.1288424765
H   H50       1.0  0.11260  0.40186  0.17647  1.0000 0.1288424765
H   H51       1.0  0.61260  0.09814  0.82353  1.0000 0.1288424765
H   H52       1.0  0.88740  0.90186  0.32353  1.0000 0.1288424765
H   H53       1.0  0.18349  0.43153  0.42536  1.0000 0.1101804276
H   H54       1.0  0.31651  0.56847  0.92536  1.0000 0.1101804276
H   H55       1.0  0.81651  0.93153  0.07464  1.0000 0.1101804276
H   H56       1.0  0.68349  0.06847  0.57464  1.0000 0.1101804276
H   H57       1.0  0.43782  0.42602  0.60112  1.0000 0.1288424765
H   H58       1.0  0.06218  0.57398  0.10112  1.0000 0.1288424765
H   H59       1.0  0.56218  0.92602  0.89888  1.0000 0.1288424765
H   H60       1.0  0.93782  0.07398  0.39888  1.0000 0.1288424765
H   H61       1.0  0.31501  0.35540  0.50812  1.0000 0.1101804276
H   H62       1.0  0.18499  0.64460  0.00812  1.0000 0.1101804276
H   H63       1.0  0.68499  0.85540  0.99188  1.0000 0.1101804276
H   H64       1.0  0.81501  0.14460  0.49188  1.0000 0.1101804276
H   H65       1.0  0.83600  0.62400  0.43500  1.0000 0.3309108453
H   H66       1.0  0.66400  0.37600  0.93500  1.0000 0.3309108453
H   H67       1.0  0.16400  0.12400  0.06500  1.0000 0.3309108453
H   H68       1.0  0.33600  0.87600  0.56500  1.0000 0.3309108453
H   H69       1.0  0.76600  0.59000  0.49400  1.0000 0.3309108453
H   H70       1.0  0.73400  0.41000  0.99400  1.0000 0.3309108453
H   H71       1.0  0.23400  0.09000  0.00600  1.0000 0.3309108453
H   H72       1.0  0.26600  0.91000  0.50600  1.0000 0.3309108453
C   C1        1.0  0.19880  0.35380  0.81850  1.0000 0.0836551018
C   C2        1.0  0.30120  0.64620  0.31850  1.0000 0.0836551018
C   C3        1.0  0.80120  0.85380  0.68150  1.0000 0.0836551018
C   C4        1.0  0.69880  0.14620  0.18150  1.0000 0.0836551018
C   C5        1.0  0.29680  0.58790  0.52200  1.0000 0.1470442551
C   C6        1.0  0.20320  0.41210  0.02200  1.0000 0.1470442551
C   C7        1.0  0.70320  0.08790  0.97800  1.0000 0.1470442551
C   C8        1.0  0.79680  0.91210  0.47800  1.0000 0.1470442551
C   C9        1.0  0.03340  0.45100  0.77270  1.0000 0.1101804276
C   C10       1.0  0.46660  0.54900  0.27270  1.0000 0.1101804276
C   C11       1.0  0.96660  0.95100  0.72730  1.0000 0.1101804276
C   C12       1.0  0.53340  0.04900  0.22730  1.0000 0.1101804276
C   C13       1.0  0.53330  0.72720  0.55720  1.0000 0.5784408288
C   C14       1.0  0.96670  0.27280  0.05720  1.0000 0.5784408288
C   C15       1.0  0.46670  0.22720  0.94280  1.0000 0.5784408288
C   C16       1.0  0.03330  0.77280  0.44280  1.0000 0.5784408288
C   C17       1.0  0.99100  0.58410  0.60410  1.0000 0.0727141654
C   C18       1.0  0.50900  0.41590  0.10410  1.0000 0.0727141654
C   C19       1.0  0.00900  0.08410  0.89590  1.0000 0.0727141654
C   C20       1.0  0.49100  0.91590  0.39590  1.0000 0.0727141654
C   C21       1.0  0.04070  0.52390  0.65000  1.0000 -0.1793934368
C   C22       1.0  0.45930  0.47610  0.15000  1.0000 -0.1793934368
C   C23       1.0  0.95930  0.02390  0.85000  1.0000 -0.1793934368
C   C24       1.0  0.54070  0.97610  0.35000  1.0000 -0.1793934368
C   C25       1.0  0.94500  0.41920  0.82590  1.0000 -0.1793934368
C   C26       1.0  0.55500  0.58080  0.32590  1.0000 -0.1793934368
C   C27       1.0  0.05500  0.91920  0.67410  1.0000 -0.1793934368
C   C28       1.0  0.44500  0.08080  0.17410  1.0000 -0.1793934368
C   C29       1.0  0.88400  0.57310  0.74080  1.0000 -0.1746717704
C   C30       1.0  0.61600  0.42690  0.24080  1.0000 -0.1746717704
C   C31       1.0  0.11600  0.07310  0.75920  1.0000 -0.1746717704
C   C32       1.0  0.38400  0.92690  0.25920  1.0000 -0.1746717704
C   C33       1.0  0.16300  0.41590  0.76930  1.0000 -0.1793934368
C   C34       1.0  0.33700  0.58410  0.26930  1.0000 -0.1793934368
C   C35       1.0  0.83700  0.91590  0.73070  1.0000 -0.1793934368
C   C36       1.0  0.66300  0.08410  0.23070  1.0000 -0.1793934368
C   C37       1.0  0.22130  0.54720  0.46830  1.0000 -0.1865471316
C   C38       1.0  0.27870  0.45280  0.96830  1.0000 -0.1865471316
C   C39       1.0  0.77870  0.04720  0.03170  1.0000 -0.1865471316
C   C40       1.0  0.72130  0.95280  0.53170  1.0000 -0.1865471316
C   C41       1.0  0.84270  0.63120  0.69170  1.0000 0.0836551018
C   C42       1.0  0.65730  0.36880  0.19170  1.0000 0.0836551018
C   C43       1.0  0.15730  0.13120  0.80830  1.0000 0.0836551018
C   C44       1.0  0.34270  0.86880  0.30830  1.0000 0.0836551018
C   C45       1.0  0.37610  0.54330  0.57220  1.0000 0.0487519061
C   C46       1.0  0.12390  0.45670  0.07220  1.0000 0.0487519061
C   C47       1.0  0.62390  0.04330  0.92780  1.0000 0.0487519061
C   C48       1.0  0.87610  0.95670  0.42780  1.0000 0.0487519061
C   C49       1.0  0.98570  0.51650  0.72100  1.0000 0.118330999
C   C50       1.0  0.51430  0.48350  0.22100  1.0000 0.118330999
C   C51       1.0  0.01430  0.01650  0.77900  1.0000 0.118330999
C   C52       1.0  0.48570  0.98350  0.27900  1.0000 0.118330999
C   C53       1.0  0.40790  0.68940  0.59350  1.0000 -0.0144178005
C   C54       1.0  0.09210  0.31060  0.09350  1.0000 -0.0144178005
C   C55       1.0  0.59210  0.18940  0.90650  1.0000 -0.0144178005
C   C56       1.0  0.90790  0.81060  0.40650  1.0000 -0.0144178005
C   C57       1.0  0.98770  0.35780  0.87330  1.0000 0.0727141654
C   C58       1.0  0.51230  0.64220  0.37330  1.0000 0.0727141654
C   C59       1.0  0.01230  0.85780  0.62670  1.0000 0.0727141654
C   C60       1.0  0.48770  0.14220  0.12670  1.0000 0.0727141654
C   C61       1.0  0.43450  0.60350  0.62850  1.0000 -0.2511826059
C   C62       1.0  0.06550  0.39650  0.12850  1.0000 -0.2511826059
C   C63       1.0  0.56550  0.10350  0.87150  1.0000 -0.2511826059
C   C64       1.0  0.93450  0.89650  0.37150  1.0000 -0.2511826059
C   C65       1.0  0.23150  0.46040  0.46310  1.0000 -0.0898754759
C   C66       1.0  0.26850  0.53960  0.96310  1.0000 -0.0898754759
C   C67       1.0  0.76850  0.96040  0.03690  1.0000 -0.0898754759
C   C68       1.0  0.73150  0.03960  0.53690  1.0000 -0.0898754759
C   C69       1.0  0.38360  0.45700  0.56740  1.0000 -0.1572485877
C   C70       1.0  0.11640  0.54300  0.06740  1.0000 -0.1572485877
C   C71       1.0  0.61640  0.95700  0.93260  1.0000 -0.1572485877
C   C72       1.0  0.88360  0.04300  0.43260  1.0000 -0.1572485877
C   C73       1.0  0.31030  0.41500  0.51200  1.0000 -0.1047792895
C   C74       1.0  0.18970  0.58500  0.01200  1.0000 -0.1053325472
C   C75       1.0  0.68970  0.91500  0.98800  1.0000 -0.1053325472
C   C76       1.0  0.81030  0.08500  0.48800  1.0000 -0.1047792895
N   N1        1.0  0.11430  0.32390  0.87070  1.0000 -0.2281081075
N   N2        1.0  0.38570  0.67610  0.37070  1.0000 -0.2281081075
N   N3        1.0  0.88570  0.82390  0.62930  1.0000 -0.2281081075
N   N4        1.0  0.61430  0.17610  0.12930  1.0000 -0.2281081075
N   N5        1.0  0.89460  0.63940  0.62360  1.0000 -0.2281081075
N   N6        1.0  0.60540  0.36060  0.12360  1.0000 -0.2281081075
N   N7        1.0  0.10540  0.13940  0.87640  1.0000 -0.2281081075
N   N8        1.0  0.39460  0.86060  0.37640  1.0000 -0.2281081075
N   N9        1.0  0.30150  0.67690  0.53530  1.0000 -0.3832221491
N   N10       1.0  0.19850  0.32310  0.03530  1.0000 -0.3832221491
N   N11       1.0  0.69850  0.17690  0.96470  1.0000 -0.3832221491
N   N12       1.0  0.80150  0.82310  0.46470  1.0000 -0.3832221491
N   N13       1.0  0.45010  0.94780  0.67850  1.0000 0.6967430996
N   N14       1.0  0.04990  0.05220  0.17850  1.0000 0.6967430996
N   N15       1.0  0.54990  0.44780  0.82150  1.0000 0.6967430996
N   N16       1.0  0.95010  0.55220  0.32150  1.0000 0.6967430996
O   O1        1.0  0.64460  0.72090  0.59260  1.0000 -0.5478421463
O   O2        1.0  0.85540  0.27910  0.09260  1.0000 -0.5478421463
O   O3        1.0  0.35540  0.22090  0.90740  1.0000 -0.5478421463
O   O4        1.0  0.14460  0.77910  0.40740  1.0000 -0.5478421463
O   O5        1.0  0.52440  0.76450  0.49600  1.0000 -0.5478421463
O   O6        1.0  0.97560  0.23550  0.99600  1.0000 -0.5478421463
O   O7        1.0  0.47560  0.26450  0.00400  1.0000 -0.5478421463
O   O8        1.0  0.02440  0.73550  0.50400  1.0000 -0.5478421463
O   O9        1.0  0.78710  0.63880  0.47200  1.0000 -0.6631099445
O   O10       1.0  0.71290  0.36120  0.97200  1.0000 -0.6631099445
O   O11       1.0  0.21290  0.13880  0.02800  1.0000 -0.6631099445
O   O12       1.0  0.28710  0.86120  0.52800  1.0000 -0.6631099445
O   O13       1.0  0.45680  0.87750  0.64630  1.0000 -0.4601427367
O   O14       1.0  0.50790  0.95760  0.73870  1.0000 -0.4351474507
O   O15       1.0  0.38530  0.00610  0.64790  1.0000 -0.4601427367
O   O16       1.0  0.04320  0.12250  0.14630  1.0000 -0.4601427367
O   O17       1.0  0.99210  0.04240  0.23870  1.0000 -0.4349221451
O   O18       1.0  0.11470  0.99390  0.14790  1.0000 -0.4601427367
O   O19       1.0  0.54320  0.37750  0.85370  1.0000 -0.4601427367
O   O20       1.0  0.49210  0.45760  0.76130  1.0000 -0.4351474507
O   O21       1.0  0.61470  0.50610  0.85210  1.0000 -0.4601427367
O   O22       1.0  0.95680  0.62250  0.35370  1.0000 -0.4601427367
O   O23       1.0  0.00790  0.54240  0.26130  1.0000 -0.4351474507
O   O24       1.0  0.88530  0.49390  0.35210  1.0000 -0.4601427367
