# DDEC6 charges by PACMAN v1.1 (https://github.com/mtap-research/PACMAN-charge/)
data_2023[Ni][dia]3[ION]5
_chemical_formula_sum              "Ni4 H72 C76 N16 O24"
_cell_length_a       9.908
_cell_length_b       14.9893
_cell_length_c       19.161
_cell_angle_alpha    90
_cell_angle_beta     90
_cell_angle_gamma    90

_symmetry_space_group_name_H-M    "P 1"
_symmetry_Int_Tables_number       1

loop_
  _symmetry_equiv_pos_as_xyz
  'x, y, z'

loop_
  _atom_site_type_symbol
  _atom_site_label
  _atom_site_symmetry_multiplicity
  _atom_site_fract_x
  _atom_site_fract_y
  _atom_site_fract_z
  _atom_site_occupancy
  _atom_site_charge
Ni  Ni1       1.0  0.16869  0.73528  0.44986  1.0000 0.7016917535
Ni  Ni2       1.0  0.33131  0.26472  0.94986  1.0000 0.7016917535
Ni  Ni3       1.0  0.83131  0.23528  0.05014  1.0000 0.7016917535
Ni  Ni4       1.0  0.66869  0.76472  0.55014  1.0000 0.7016917535
H   H1        1.0  0.22020  0.57034  0.49733  1.0000 0.3845997372
H   H2        1.0  0.27980  0.42966  0.99733  1.0000 0.3851326921
H   H3        1.0  0.77980  0.07034  0.00267  1.0000 0.3845997372
H   H4        1.0  0.72020  0.92966  0.50267  1.0000 0.3845997372
H   H5        1.0  0.15789  0.61841  0.55593  1.0000 0.3610545316
H   H6        1.0  0.34211  0.38159  0.05593  1.0000 0.3610545316
H   H7        1.0  0.84211  0.11841  0.94407  1.0000 0.3610545316
H   H8        1.0  0.65789  0.88159  0.44407  1.0000 0.3610545316
H   H9        1.0  0.79122  0.69812  0.44369  1.0000 0.2721789398
H   H10       1.0  0.70878  0.30188  0.94369  1.0000 0.2721789398
H   H11       1.0  0.20878  0.19812  0.05631  1.0000 0.2721789398
H   H12       1.0  0.29122  0.80188  0.55631  1.0000 0.2721789398
H   H13       1.0  0.14850  0.43604  0.17550  1.0000 0.1294803116
H   H14       1.0  0.35150  0.56396  0.67550  1.0000 0.1294803116
H   H15       1.0  0.85150  0.93604  0.32450  1.0000 0.1294803116
H   H16       1.0  0.64850  0.06396  0.82450  1.0000 0.1294803116
H   H17       1.0  0.07139  0.33958  0.09120  1.0000 0.1106924852
H   H18       1.0  0.42861  0.66042  0.59120  1.0000 0.1106924852
H   H19       1.0  0.92861  0.83958  0.40880  1.0000 0.1106924852
H   H20       1.0  0.57139  0.16042  0.90880  1.0000 0.1106924852
H   H21       1.0  0.70863  0.35069  0.16828  1.0000 0.1106924852
H   H22       1.0  0.79137  0.64931  0.66828  1.0000 0.1106924852
H   H23       1.0  0.29137  0.85069  0.33172  1.0000 0.1106924852
H   H24       1.0  0.20863  0.14931  0.83172  1.0000 0.1106924852
H   H25       1.0  0.76931  0.45221  0.25054  1.0000 0.1369588419
H   H26       1.0  0.73069  0.54779  0.75054  1.0000 0.1369588419
H   H27       1.0  0.23069  0.95221  0.24946  1.0000 0.1369588419
H   H28       1.0  0.26931  0.04779  0.74946  1.0000 0.1369588419
H   H29       1.0  0.89321  0.48089  0.35449  1.0000 0.1294803116
H   H30       1.0  0.60679  0.51911  0.85449  1.0000 0.1294803116
H   H31       1.0  0.10679  0.98089  0.14551  1.0000 0.1294803116
H   H32       1.0  0.39321  0.01911  0.64551  1.0000 0.1294803116
H   H33       1.0  0.16315  0.58177  0.21671  1.0000 0.1369588419
H   H34       1.0  0.33685  0.41823  0.71671  1.0000 0.1369588419
H   H35       1.0  0.83685  0.08177  0.28329  1.0000 0.1369588419
H   H36       1.0  0.66315  0.91823  0.78329  1.0000 0.1369588419
H   H37       1.0  0.24664  0.67180  0.30519  1.0000 0.1106924852
H   H38       1.0  0.25336  0.32820  0.80519  1.0000 0.1106924852
H   H39       1.0  0.75336  0.17180  0.19481  1.0000 0.1106924852
H   H40       1.0  0.74664  0.82820  0.69481  1.0000 0.1106924852
H   H41       1.0  0.98120  0.57634  0.43757  1.0000 0.1011831381
H   H42       1.0  0.51880  0.42366  0.93757  1.0000 0.1011831381
H   H43       1.0  0.01880  0.07634  0.06243  1.0000 0.1011831381
H   H44       1.0  0.48120  0.92366  0.56243  1.0000 0.1011831381
H   H45       1.0  0.63019  0.74518  0.37658  1.0000 0.1106924852
H   H46       1.0  0.86981  0.25482  0.87658  1.0000 0.1106924852
H   H47       1.0  0.36981  0.24518  0.12342  1.0000 0.1106924852
H   H48       1.0  0.13019  0.75482  0.62342  1.0000 0.1106924852
H   H49       1.0  0.47355  0.60215  0.36296  1.0000 0.1294803116
H   H50       1.0  0.02645  0.39785  0.86296  1.0000 0.1294803116
H   H51       1.0  0.52645  0.10215  0.13704  1.0000 0.1294803116
H   H52       1.0  0.97355  0.89785  0.63704  1.0000 0.1294803116
H   H53       1.0  0.61828  0.61140  0.32526  1.0000 0.1294803116
H   H54       1.0  0.88172  0.38860  0.82526  1.0000 0.1294803116
H   H55       1.0  0.38172  0.11140  0.17474  1.0000 0.1294803116
H   H56       1.0  0.11828  0.88860  0.67474  1.0000 0.1294803116
H   H57       1.0  0.68733  0.33560  0.46605  1.0000 0.1106924852
H   H58       1.0  0.81267  0.66440  0.96605  1.0000 0.1106924852
H   H59       1.0  0.31267  0.83560  0.03395  1.0000 0.1106924852
H   H60       1.0  0.18733  0.16440  0.53395  1.0000 0.1106924852
H   H61       1.0  0.56708  0.41922  0.38378  1.0000 0.1294803116
H   H62       1.0  0.93292  0.58078  0.88378  1.0000 0.1294803116
H   H63       1.0  0.43292  0.91922  0.11622  1.0000 0.1294803116
H   H64       1.0  0.06708  0.08078  0.61622  1.0000 0.1294803116
H   H65       1.0  0.83215  0.56376  0.55135  1.0000 0.1294803116
H   H66       1.0  0.66785  0.43624  0.05135  1.0000 0.1294803116
H   H67       1.0  0.16785  0.06376  0.94865  1.0000 0.1294803116
H   H68       1.0  0.33215  0.93624  0.44865  1.0000 0.1294803116
H   H69       1.0  0.81987  0.40788  0.54984  1.0000 0.1106924852
H   H70       1.0  0.68013  0.59212  0.04984  1.0000 0.1106924852
H   H71       1.0  0.18013  0.90788  0.95016  1.0000 0.1106924852
H   H72       1.0  0.31987  0.09212  0.45016  1.0000 0.1106924852
C   C1        1.0  0.47010  0.73320  0.44770  1.0000 0.5694640943
C   C2        1.0  0.02990  0.26680  0.94770  1.0000 0.5694640943
C   C3        1.0  0.52990  0.23320  0.05230  1.0000 0.5694640943
C   C4        1.0  0.97010  0.76680  0.55230  1.0000 0.5694640943
C   C5        1.0  0.97080  0.45630  0.22370  1.0000 0.1106924852
C   C6        1.0  0.52920  0.54370  0.72370  1.0000 0.1106924852
C   C7        1.0  0.02920  0.95630  0.27630  1.0000 0.1106924852
C   C8        1.0  0.47080  0.04370  0.77630  1.0000 0.1106924852
C   C9        1.0  0.05570  0.42020  0.17500  1.0000 -0.1829193874
C   C10       1.0  0.44430  0.57980  0.67500  1.0000 -0.1829193874
C   C11       1.0  0.94430  0.92020  0.32500  1.0000 -0.1829193874
C   C12       1.0  0.55570  0.07980  0.82500  1.0000 -0.1829193874
C   C13       1.0  0.00940  0.36120  0.12500  1.0000 0.0834024319
C   C14       1.0  0.49060  0.63880  0.62500  1.0000 0.0834024319
C   C15       1.0  0.99060  0.86120  0.37500  1.0000 0.0834024319
C   C16       1.0  0.50940  0.13880  0.87500  1.0000 0.0834024319
C   C17       1.0  0.80030  0.36910  0.16960  1.0000 0.0595116963
C   C18       1.0  0.69970  0.63090  0.66960  1.0000 0.0595116963
C   C19       1.0  0.19970  0.86910  0.33040  1.0000 0.0595116963
C   C20       1.0  0.30030  0.13090  0.83040  1.0000 0.0595116963
C   C21       1.0  0.83500  0.42910  0.21930  1.0000 -0.1829193874
C   C22       1.0  0.66500  0.57090  0.71930  1.0000 -0.1829193874
C   C23       1.0  0.16500  0.92910  0.28070  1.0000 -0.1829193874
C   C24       1.0  0.33500  0.07090  0.78070  1.0000 -0.1829193874
C   C25       1.0  0.96470  0.52040  0.34280  1.0000 -0.1709680936
C   C26       1.0  0.53530  0.47960  0.84280  1.0000 -0.1709680936
C   C27       1.0  0.03530  0.02040  0.15720  1.0000 -0.1709680936
C   C28       1.0  0.46470  0.97960  0.65720  1.0000 -0.1709680936
C   C29       1.0  0.01920  0.52050  0.27670  1.0000 0.1161950001
C   C30       1.0  0.48080  0.47950  0.77670  1.0000 0.1161950001
C   C31       1.0  0.98080  0.02050  0.22330  1.0000 0.1161950001
C   C32       1.0  0.51920  0.97950  0.72330  1.0000 0.1161950001
C   C33       1.0  0.12420  0.57970  0.26200  1.0000 -0.1896136186
C   C34       1.0  0.37580  0.42030  0.76200  1.0000 -0.1896136186
C   C35       1.0  0.87580  0.07970  0.23800  1.0000 -0.1896136186
C   C36       1.0  0.62420  0.92030  0.73800  1.0000 -0.1896136186
C   C37       1.0  0.17050  0.63510  0.31440  1.0000 0.1011831381
C   C38       1.0  0.32950  0.36490  0.81440  1.0000 0.1011831381
C   C39       1.0  0.82950  0.13510  0.18560  1.0000 0.1011831381
C   C40       1.0  0.67050  0.86490  0.68560  1.0000 0.1011831381
C   C41       1.0  0.01580  0.57860  0.39140  1.0000 0.0505917131
C   C42       1.0  0.48420  0.42140  0.89140  1.0000 0.0505917131
C   C43       1.0  0.98420  0.07860  0.10860  1.0000 0.0505917131
C   C44       1.0  0.51580  0.92140  0.60860  1.0000 0.0505917131
C   C45       1.0  0.59640  0.69880  0.40980  1.0000 -0.0097030883
C   C46       1.0  0.90360  0.30120  0.90980  1.0000 -0.0097030883
C   C47       1.0  0.40360  0.19880  0.09020  1.0000 -0.0097030883
C   C48       1.0  0.09640  0.80120  0.59020  1.0000 -0.0097030883
C   C49       1.0  0.57130  0.61160  0.37080  1.0000 -0.2544347129
C   C50       1.0  0.92870  0.38840  0.87080  1.0000 -0.2544347129
C   C51       1.0  0.42870  0.11160  0.12920  1.0000 -0.2544347129
C   C52       1.0  0.07130  0.88840  0.62920  1.0000 -0.2544347129
C   C53       1.0  0.69230  0.39890  0.46670  1.0000 -0.1105662274
C   C54       1.0  0.80770  0.60110  0.96670  1.0000 -0.1105662274
C   C55       1.0  0.30770  0.89890  0.03330  1.0000 -0.1105662274
C   C56       1.0  0.19230  0.10110  0.53330  1.0000 -0.1105662274
C   C57       1.0  0.62090  0.44860  0.41780  1.0000 -0.1572661183
C   C58       1.0  0.87910  0.55140  0.91780  1.0000 -0.1572661183
C   C59       1.0  0.37910  0.94860  0.08220  1.0000 -0.1572661183
C   C60       1.0  0.12090  0.05140  0.58220  1.0000 -0.1572661183
C   C61       1.0  0.62820  0.54120  0.41870  1.0000 0.0505917131
C   C62       1.0  0.87180  0.45880  0.91870  1.0000 0.0505917131
C   C63       1.0  0.37180  0.04120  0.08130  1.0000 0.0505917131
C   C64       1.0  0.12820  0.95880  0.58130  1.0000 0.0505917131
C   C65       1.0  0.70690  0.58410  0.46850  1.0000 0.1369588419
C   C66       1.0  0.79310  0.41590  0.96850  1.0000 0.1369588419
C   C67       1.0  0.29310  0.08410  0.03150  1.0000 0.1369588419
C   C68       1.0  0.20690  0.91590  0.53150  1.0000 0.1369588419
C   C69       1.0  0.77830  0.53440  0.51730  1.0000 -0.1896136186
C   C70       1.0  0.72170  0.46560  0.01730  1.0000 -0.1896136186
C   C71       1.0  0.22170  0.03440  0.98270  1.0000 -0.1896136186
C   C72       1.0  0.27830  0.96560  0.48270  1.0000 -0.1896136186
C   C73       1.0  0.77100  0.44180  0.51640  1.0000 -0.0956438265
C   C74       1.0  0.72900  0.55820  0.01640  1.0000 -0.0956438265
C   C75       1.0  0.22900  0.94180  0.98360  1.0000 -0.0956438265
C   C76       1.0  0.27100  0.05820  0.48360  1.0000 -0.0956438265
N   N1        1.0  0.70310  0.67930  0.46440  1.0000 -0.3853674612
N   N2        1.0  0.79690  0.32070  0.96440  1.0000 -0.3853674612
N   N3        1.0  0.29690  0.17930  0.03560  1.0000 -0.3853674612
N   N4        1.0  0.20310  0.82070  0.53560  1.0000 -0.3853674612
N   N5        1.0  0.88330  0.33350  0.12210  1.0000 -0.2163043252
N   N6        1.0  0.61670  0.66650  0.62210  1.0000 -0.2163043252
N   N7        1.0  0.11670  0.83350  0.37790  1.0000 -0.2163043252
N   N8        1.0  0.38330  0.16650  0.87790  1.0000 -0.2163043252
N   N9        1.0  0.11380  0.63940  0.37640  1.0000 -0.2318645275
N   N10       1.0  0.38620  0.36060  0.87640  1.0000 -0.2318645275
N   N11       1.0  0.88620  0.13940  0.12360  1.0000 -0.2318645275
N   N12       1.0  0.61380  0.86060  0.62360  1.0000 -0.2318645275
N   N13       1.0  0.55100  0.96700  0.32940  1.0000 0.6833743968
N   N14       1.0  0.94900  0.03300  0.82940  1.0000 0.6833743968
N   N15       1.0  0.44900  0.46700  0.17060  1.0000 0.6833743968
N   N16       1.0  0.05100  0.53300  0.67060  1.0000 0.6833743968
O   O1        1.0  0.22150  0.62840  0.51890  1.0000 -0.7083578786
O   O2        1.0  0.27850  0.37160  0.01890  1.0000 -0.7083578786
O   O3        1.0  0.77850  0.12840  0.98110  1.0000 -0.7083578786
O   O4        1.0  0.72150  0.87160  0.48110  1.0000 -0.7083578786
O   O5        1.0  0.36070  0.72910  0.41240  1.0000 -0.5457300029
O   O6        1.0  0.13930  0.27090  0.91240  1.0000 -0.5457300029
O   O7        1.0  0.63930  0.22910  0.08760  1.0000 -0.5457300029
O   O8        1.0  0.86070  0.77090  0.58760  1.0000 -0.5457300029
O   O9        1.0  0.47950  0.76480  0.50680  1.0000 -0.5322657309
O   O10       1.0  0.02050  0.23520  0.00680  1.0000 -0.5322657309
O   O11       1.0  0.52050  0.26480  0.99320  1.0000 -0.5322657309
O   O12       1.0  0.97950  0.73520  0.49320  1.0000 -0.5322657309
O   O13       1.0  0.55950  0.89930  0.36690  1.0000 -0.4486094539
O   O14       1.0  0.49680  0.97580  0.27100  1.0000 -0.4486094539
O   O15       1.0  0.61180  0.03160  0.35630  1.0000 -0.4393254123
O   O16       1.0  0.94050  0.10070  0.86690  1.0000 -0.4486094539
O   O17       1.0  0.00320  0.02420  0.77100  1.0000 -0.4486094539
O   O18       1.0  0.88820  0.96840  0.85630  1.0000 -0.4393254123
O   O19       1.0  0.44050  0.39930  0.13310  1.0000 -0.4486094539
O   O20       1.0  0.50320  0.47580  0.22900  1.0000 -0.4486094539
O   O21       1.0  0.38820  0.53160  0.14370  1.0000 -0.4393254123
O   O22       1.0  0.05950  0.60070  0.63310  1.0000 -0.4486094539
O   O23       1.0  0.99680  0.52420  0.72900  1.0000 -0.4393254123
O   O24       1.0  0.11180  0.46840  0.64370  1.0000 -0.4393254123
