# DDEC6 charges by PACMAN v1.1 (https://github.com/mtap-research/PACMAN-charge/)
data_2023[Sm][nan]3[ION]1
_chemical_formula_sum              "Sm4 H120 C152 N16 Cl8 O32"
_cell_length_a       18.3104
_cell_length_b       18.3104
_cell_length_c       18.3104
_cell_angle_alpha    97.8815
_cell_angle_beta     97.8815
_cell_angle_gamma    136.531

_symmetry_space_group_name_H-M    "P 1"
_symmetry_Int_Tables_number       1

loop_
  _symmetry_equiv_pos_as_xyz
  'x, y, z'

loop_
  _atom_site_type_symbol
  _atom_site_label
  _atom_site_symmetry_multiplicity
  _atom_site_fract_x
  _atom_site_fract_y
  _atom_site_fract_z
  _atom_site_occupancy
  _atom_site_charge
Sm  Sm1       1.0  0.59684  0.09684  0.50000  1.0000 2.0629721941
Sm  Sm2       1.0  0.34684  0.34684  0.00000  1.0000 2.0629721941
Sm  Sm3       1.0  0.65316  0.65316  0.00000  1.0000 2.0629721941
Sm  Sm4       1.0  0.90316  0.40316  0.50000  1.0000 2.0629721941
H   H1        1.0  0.88640  0.68550  0.02970  1.0000 0.1551184828
H   H2        1.0  0.65580  0.85670  0.97030  1.0000 0.1551184828
H   H3        1.0  0.10670  0.63640  0.70090  1.0000 0.1551184828
H   H4        1.0  0.93550  0.40580  0.29910  1.0000 0.1551184828
H   H5        1.0  0.36360  0.06450  0.47030  1.0000 0.1551184828
H   H6        1.0  0.59420  0.89330  0.52970  1.0000 0.1551184828
H   H7        1.0  0.14330  0.11360  0.79910  1.0000 0.1551184828
H   H8        1.0  0.31450  0.34420  0.20090  1.0000 0.1551184828
H   H9        1.0  0.28720  0.03750  0.03250  1.0000 0.1291091241
H   H10       1.0  0.00500  0.25470  0.96750  1.0000 0.1291091241
H   H11       1.0  0.50470  0.03720  0.74970  1.0000 0.1291091241
H   H12       1.0  0.28750  0.75500  0.25030  1.0000 0.1291091241
H   H13       1.0  0.96280  0.71250  0.46750  1.0000 0.1291091241
H   H14       1.0  0.24500  0.49530  0.53250  1.0000 0.1291091241
H   H15       1.0  0.74530  0.71280  0.75030  1.0000 0.1291091241
H   H16       1.0  0.96250  0.99500  0.24970  1.0000 0.1291091241
H   H17       1.0  0.67160  0.24760  0.71320  1.0000 0.1291091241
H   H18       1.0  0.53440  0.95840  0.28680  1.0000 0.1291091241
H   H19       1.0  0.20840  0.42160  0.92400  1.0000 0.1291091241
H   H20       1.0  0.49760  0.28440  0.07600  1.0000 0.1291091241
H   H21       1.0  0.57840  0.50240  0.78680  1.0000 0.1291091241
H   H22       1.0  0.71560  0.79160  0.21320  1.0000 0.1291091241
H   H23       1.0  0.04160  0.32840  0.57600  1.0000 0.1291091241
H   H24       1.0  0.75240  0.46560  0.42400  1.0000 0.1291091241
H   H25       1.0  0.13160  0.07460  0.13480  1.0000 0.1210545571
H   H26       1.0  0.93980  0.99680  0.86520  1.0000 0.1210545571
H   H27       1.0  0.24680  0.88160  0.55700  1.0000 0.1210545571
H   H28       1.0  0.32460  0.68980  0.44300  1.0000 0.1210545571
H   H29       1.0  0.11840  0.67540  0.36520  1.0000 0.1210545571
H   H30       1.0  0.31020  0.75320  0.63480  1.0000 0.1210545571
H   H31       1.0  0.00320  0.86840  0.94300  1.0000 0.1210545571
H   H32       1.0  0.92540  0.06020  0.05700  1.0000 0.1210545571
H   H33       1.0  0.03460  0.78800  0.19120  1.0000 0.1291091241
H   H34       1.0  0.59680  0.84340  0.80880  1.0000 0.1291091241
H   H35       1.0  0.09340  0.78460  0.74660  1.0000 0.1291091241
H   H36       1.0  0.03800  0.34680  0.25340  1.0000 0.1291091241
H   H37       1.0  0.21540  0.96200  0.30880  1.0000 0.1291091241
H   H38       1.0  0.65320  0.90660  0.69120  1.0000 0.1291091241
H   H39       1.0  0.15660  0.96540  0.75340  1.0000 0.1291091241
H   H40       1.0  0.21200  0.40320  0.24660  1.0000 0.1291091241
H   H41       1.0  0.12850  0.80370  0.18060  1.0000 0.1291091241
H   H42       1.0  0.62310  0.94790  0.81940  1.0000 0.1291091241
H   H43       1.0  0.19790  0.87850  0.82480  1.0000 0.1291091241
H   H44       1.0  0.05370  0.37310  0.17520  1.0000 0.1291091241
H   H45       1.0  0.12150  0.94630  0.31940  1.0000 0.1291091241
H   H46       1.0  0.62690  0.80210  0.68060  1.0000 0.1291091241
H   H47       1.0  0.05210  0.87150  0.67520  1.0000 0.1291091241
H   H48       1.0  0.19630  0.37690  0.32480  1.0000 0.1291091241
H   H49       1.0  0.04420  0.91620  0.16940  1.0000 0.1291091241
H   H50       1.0  0.74680  0.87480  0.83060  1.0000 0.1291091241
H   H51       1.0  0.12480  0.79420  0.62800  1.0000 0.1291091241
H   H52       1.0  0.16620  0.49680  0.37200  1.0000 0.1291091241
H   H53       1.0  0.20580  0.83380  0.33060  1.0000 0.1291091241
H   H54       1.0  0.50320  0.87520  0.66940  1.0000 0.1291091241
H   H55       1.0  0.12520  0.95580  0.87200  1.0000 0.1291091241
H   H56       1.0  0.08380  0.25320  0.12800  1.0000 0.1291091241
H   H57       1.0  0.64770  0.28660  0.82790  1.0000 0.1291091241
H   H58       1.0  0.45870  0.81980  0.17210  1.0000 0.1291091241
H   H59       1.0  0.06980  0.39770  0.86110  1.0000 0.1291091241
H   H60       1.0  0.53660  0.20870  0.13890  1.0000 0.1291091241
H   H61       1.0  0.60230  0.46340  0.67210  1.0000 0.1291091241
H   H62       1.0  0.79130  0.93020  0.32790  1.0000 0.1291091241
H   H63       1.0  0.18020  0.35230  0.63890  1.0000 0.1291091241
H   H64       1.0  0.71340  0.54130  0.36110  1.0000 0.1291091241
H   H65       1.0  0.66720  0.40200  0.92440  1.0000 0.1417471902
H   H66       1.0  0.47760  0.74280  0.07560  1.0000 0.1417471902
H   H67       1.0  0.99280  0.41720  0.76520  1.0000 0.1417471902
H   H68       1.0  0.65200  0.22760  0.23480  1.0000 0.1417471902
H   H69       1.0  0.58280  0.34800  0.57560  1.0000 0.1417471902
H   H70       1.0  0.77240  0.00720  0.42440  1.0000 0.1417471902
H   H71       1.0  0.25720  0.33280  0.73480  1.0000 0.1417471902
H   H72       1.0  0.59800  0.52240  0.26520  1.0000 0.1417471902
H   H73       1.0  0.71640  0.51300  0.91440  1.0000 0.1468634145
H   H74       1.0  0.59860  0.80200  0.08560  1.0000 0.1468634145
H   H75       1.0  0.05200  0.46640  0.70340  1.0000 0.1468634145
H   H76       1.0  0.76300  0.34860  0.29660  1.0000 0.1468634145
H   H77       1.0  0.53360  0.23700  0.58560  1.0000 0.1468634145
H   H78       1.0  0.65140  0.94800  0.41440  1.0000 0.1468634145
H   H79       1.0  0.19800  0.28360  0.79660  1.0000 0.1468634145
H   H80       1.0  0.48700  0.40140  0.20340  1.0000 0.1468634145
H   H81       1.0  0.88570  0.56990  0.72700  1.0000 0.1210545571
H   H82       1.0  0.84290  0.15870  0.27300  1.0000 0.1210545571
H   H83       1.0  0.40870  0.63570  0.81580  1.0000 0.1210545571
H   H84       1.0  0.81990  0.59290  0.18420  1.0000 0.1210545571
H   H85       1.0  0.36430  0.18010  0.77300  1.0000 0.1210545571
H   H86       1.0  0.40710  0.59130  0.22700  1.0000 0.1210545571
H   H87       1.0  0.84130  0.11430  0.68420  1.0000 0.1210545571
H   H88       1.0  0.43010  0.15710  0.31580  1.0000 0.1210545571
H   H89       1.0  0.85580  0.60480  0.83800  1.0000 0.1291091241
H   H90       1.0  0.76680  0.01780  0.16200  1.0000 0.1291091241
H   H91       1.0  0.26780  0.60580  0.75100  1.0000 0.1291091241
H   H92       1.0  0.85480  0.51680  0.24900  1.0000 0.1291091241
H   H93       1.0  0.39420  0.14520  0.66200  1.0000 0.1291091241
H   H94       1.0  0.48320  0.73220  0.33800  1.0000 0.1291091241
H   H95       1.0  0.98220  0.14420  0.74900  1.0000 0.1291091241
H   H96       1.0  0.39520  0.23320  0.25100  1.0000 0.1291091241
H   H97       1.0  0.20820  0.88780  0.07300  1.0000 0.1210545571
H   H98       1.0  0.81480  0.13520  0.92700  1.0000 0.1210545571
H   H99       1.0  0.38520  0.95820  0.82040  1.0000 0.1210545571
H   H100      1.0  0.13780  0.56480  0.17960  1.0000 0.1210545571
H   H101      1.0  0.04180  0.86220  0.42700  1.0000 0.1210545571
H   H102      1.0  0.43520  0.61480  0.57300  1.0000 0.1210545571
H   H103      1.0  0.86480  0.79180  0.67960  1.0000 0.1210545571
H   H104      1.0  0.11220  0.18520  0.32040  1.0000 0.1210545571
H   H105      1.0  0.84710  0.44020  0.99350  1.0000 0.1417471902
H   H106      1.0  0.44670  0.85360  0.00650  1.0000 0.1417471902
H   H107      1.0  0.10360  0.59710  0.90690  1.0000 0.1417471902
H   H108      1.0  0.69020  0.19670  0.09310  1.0000 0.1417471902
H   H109      1.0  0.40290  0.30980  0.50650  1.0000 0.1417471902
H   H110      1.0  0.80330  0.89640  0.49350  1.0000 0.1417471902
H   H111      1.0  0.14640  0.15290  0.59310  1.0000 0.1417471902
H   H112      1.0  0.55980  0.55330  0.40690  1.0000 0.1417471902
H   H113      1.0  0.01690  0.60000  0.10730  1.0000 0.1468634145
H   H114      1.0  0.49270  0.90960  0.89270  1.0000 0.1468634145
H   H115      1.0  0.15960  0.76690  0.91690  1.0000 0.1468634145
H   H116      1.0  0.85000  0.24270  0.08310  1.0000 0.1468634145
H   H117      1.0  0.23310  0.15000  0.39270  1.0000 0.1468634145
H   H118      1.0  0.75730  0.84040  0.60730  1.0000 0.1468634145
H   H119      1.0  0.09040  0.98310  0.58310  1.0000 0.1468634145
H   H120      1.0  0.40000  0.50730  0.41690  1.0000 0.1468634145
C   C1        1.0  0.26680  0.16810  0.05230  1.0000 0.5552888872
C   C2        1.0  0.11580  0.21450  0.94770  1.0000 0.5552888872
C   C3        1.0  0.46450  0.01680  0.59870  1.0000 0.5552888872
C   C4        1.0  0.41810  0.86580  0.40130  1.0000 0.5552888872
C   C5        1.0  0.98320  0.58190  0.44770  1.0000 0.5552888872
C   C6        1.0  0.13420  0.53550  0.55230  1.0000 0.5552888872
C   C7        1.0  0.78550  0.73320  0.90130  1.0000 0.5552888872
C   C8        1.0  0.83190  0.88420  0.09870  1.0000 0.5552888872
C   C9        1.0  0.21600  0.07070  0.07890  1.0000 -0.0278130718
C   C10       1.0  0.99180  0.13710  0.92110  1.0000 -0.0278130718
C   C11       1.0  0.38710  0.96600  0.64530  1.0000 -0.0278130718
C   C12       1.0  0.32070  0.74180  0.35470  1.0000 -0.0278130718
C   C13       1.0  0.03400  0.67930  0.42110  1.0000 -0.0278130718
C   C14       1.0  0.25820  0.61290  0.57890  1.0000 -0.0278130718
C   C15       1.0  0.86290  0.78400  0.85470  1.0000 -0.0278130718
C   C16       1.0  0.92930  0.00820  0.14530  1.0000 -0.0278130718
C   C17       1.0  0.79250  0.37570  0.63360  1.0000 0.6384414496
C   C18       1.0  0.74210  0.15890  0.36640  1.0000 0.6384414496
C   C19       1.0  0.40890  0.54250  0.91680  1.0000 0.6384414496
C   C20       1.0  0.62570  0.49210  0.08320  1.0000 0.6384414496
C   C21       1.0  0.45750  0.37430  0.86640  1.0000 0.6384414496
C   C22       1.0  0.50790  0.59110  0.13360  1.0000 0.6384414496
C   C23       1.0  0.84110  0.20750  0.58320  1.0000 0.6384414496
C   C24       1.0  0.62430  0.25790  0.41680  1.0000 0.6384414496
C   C25       1.0  0.89870  0.64490  0.03460  1.0000 0.0895786347
C   C26       1.0  0.61030  0.86410  0.96540  1.0000 0.0895786347
C   C27       1.0  0.11410  0.64870  0.75380  1.0000 0.0895786347
C   C28       1.0  0.89490  0.36030  0.24620  1.0000 0.0895786347
C   C29       1.0  0.35130  0.10510  0.46540  1.0000 0.0895786347
C   C30       1.0  0.63970  0.88590  0.53460  1.0000 0.0895786347
C   C31       1.0  0.13590  0.10130  0.74620  1.0000 0.0895786347
C   C32       1.0  0.35510  0.38970  0.25380  1.0000 0.0895786347
C   C33       1.0  0.78020  0.40380  0.70860  1.0000 -0.0278130718
C   C34       1.0  0.69520  0.07160  0.29140  1.0000 -0.0278130718
C   C35       1.0  0.32160  0.53020  0.87640  1.0000 -0.0278130718
C   C36       1.0  0.65380  0.44520  0.12360  1.0000 -0.0278130718
C   C37       1.0  0.46980  0.34620  0.79140  1.0000 -0.0278130718
C   C38       1.0  0.55480  0.67840  0.20860  1.0000 -0.0278130718
C   C39       1.0  0.92840  0.21980  0.62360  1.0000 -0.0278130718
C   C40       1.0  0.59620  0.30480  0.37640  1.0000 -0.0278130718
C   C41       1.0  0.23920  0.01420  0.06080  1.0000 -0.0897804107
C   C42       1.0  0.95340  0.17840  0.93920  1.0000 -0.0897804107
C   C43       1.0  0.42840  0.98920  0.72500  1.0000 -0.0897804107
C   C44       1.0  0.26420  0.70340  0.27500  1.0000 -0.0897804107
C   C45       1.0  0.01080  0.73580  0.43920  1.0000 -0.0897804107
C   C46       1.0  0.29660  0.57160  0.56080  1.0000 -0.0897804107
C   C47       1.0  0.82160  0.76080  0.77500  1.0000 -0.0897804107
C   C48       1.0  0.98580  0.04660  0.22500  1.0000 -0.0897804107
C   C49       1.0  0.11860  0.88700  0.12620  1.0000 0.1018010588
C   C50       1.0  0.76080  0.99240  0.87380  1.0000 0.1018010588
C   C51       1.0  0.24240  0.86860  0.73160  1.0000 0.1018010588
C   C52       1.0  0.13700  0.51080  0.26840  1.0000 0.1018010588
C   C53       1.0  0.13140  0.86300  0.37380  1.0000 0.1018010588
C   C54       1.0  0.48920  0.75760  0.62620  1.0000 0.1018010588
C   C55       1.0  0.00760  0.88140  0.76840  1.0000 0.1018010588
C   C56       1.0  0.11300  0.23920  0.23160  1.0000 0.1018010588
C   C57       1.0  0.70980  0.32020  0.73860  1.0000 -0.0818935795
C   C58       1.0  0.58160  0.97120  0.26140  1.0000 -0.0818935795
C   C59       1.0  0.22120  0.45980  0.88960  1.0000 -0.0818935795
C   C60       1.0  0.57020  0.33160  0.11040  1.0000 -0.0818935795
C   C61       1.0  0.54020  0.42980  0.76140  1.0000 -0.0818935795
C   C62       1.0  0.66840  0.77880  0.23860  1.0000 -0.0818935795
C   C63       1.0  0.02880  0.29020  0.61040  1.0000 -0.0818935795
C   C64       1.0  0.67980  0.41840  0.38960  1.0000 -0.0818935795
C   C65       1.0  0.14570  0.03600  0.12090  1.0000 -0.0897804107
C   C66       1.0  0.91510  0.02480  0.87910  1.0000 -0.0897804107
C   C67       1.0  0.27480  0.89570  0.60970  1.0000 -0.0897804107
C   C68       1.0  0.28600  0.66510  0.39030  1.0000 -0.0897804107
C   C69       1.0  0.10430  0.71400  0.37910  1.0000 -0.0897804107
C   C70       1.0  0.33490  0.72520  0.62090  1.0000 -0.0897804107
C   C71       1.0  0.97520  0.85430  0.89030  1.0000 -0.0897804107
C   C72       1.0  0.96400  0.08490  0.10970  1.0000 -0.0897804107
C   C73       1.0  0.06870  0.79080  0.15370  1.0000 -0.171799581
C   C74       1.0  0.63710  0.91500  0.84630  1.0000 -0.171799581
C   C75       1.0  0.16500  0.81870  0.77790  1.0000 -0.171799581
C   C76       1.0  0.04080  0.38710  0.22210  1.0000 -0.171799581
C   C77       1.0  0.18130  0.95920  0.34630  1.0000 -0.171799581
C   C78       1.0  0.61290  0.83500  0.65370  1.0000 -0.171799581
C   C79       1.0  0.08500  0.93130  0.72210  1.0000 -0.171799581
C   C80       1.0  0.20920  0.36290  0.27790  1.0000 -0.171799581
C   C81       1.0  0.09480  0.94180  0.14300  1.0000 -0.1359457163
C   C82       1.0  0.79880  0.95180  0.85700  1.0000 -0.1359457163
C   C83       1.0  0.20180  0.84480  0.65300  1.0000 -0.1359457163
C   C84       1.0  0.19180  0.54880  0.34700  1.0000 -0.1359457163
C   C85       1.0  0.15520  0.80820  0.35700  1.0000 -0.1359457163
C   C86       1.0  0.45120  0.79820  0.64300  1.0000 -0.1359457163
C   C87       1.0  0.04820  0.90520  0.84700  1.0000 -0.1359457163
C   C88       1.0  0.05820  0.20120  0.15300  1.0000 -0.1359457163
C   C89       1.0  0.74930  0.44900  0.84490  1.0000 0.1018010588
C   C90       1.0  0.60410  0.90440  0.15510  1.0000 0.1018010588
C   C91       1.0  0.15440  0.49930  0.80030  1.0000 0.1018010588
C   C92       1.0  0.69900  0.35410  0.19970  1.0000 0.1018010588
C   C93       1.0  0.50070  0.30100  0.65510  1.0000 0.1018010588
C   C94       1.0  0.64590  0.84560  0.34490  1.0000 0.1018010588
C   C95       1.0  0.09560  0.25070  0.69970  1.0000 0.1018010588
C   C96       1.0  0.55100  0.39590  0.30030  1.0000 0.1018010588
C   C97       1.0  0.69510  0.34370  0.80740  1.0000 -0.1491571144
C   C98       1.0  0.53630  0.88770  0.19260  1.0000 -0.1491571144
C   C99       1.0  0.13770  0.44510  0.85140  1.0000 -0.1491571144
C   C100      1.0  0.59370  0.28630  0.14860  1.0000 -0.1491571144
C   C101      1.0  0.55490  0.40630  0.69260  1.0000 -0.1491571144
C   C102      1.0  0.71370  0.86230  0.30740  1.0000 -0.1491571144
C   C103      1.0  0.11230  0.30490  0.64860  1.0000 -0.1491571144
C   C104      1.0  0.65630  0.46370  0.35140  1.0000 -0.1491571144
C   C105      1.0  0.73190  0.47280  0.91850  1.0000 -0.1625651414
C   C106      1.0  0.55430  0.81340  0.08150  1.0000 -0.1625651414
C   C107      1.0  0.06340  0.48190  0.75910  1.0000 -0.1625651414
C   C108      1.0  0.72280  0.30430  0.24090  1.0000 -0.1625651414
C   C109      1.0  0.51810  0.27720  0.58150  1.0000 -0.1625651414
C   C110      1.0  0.69570  0.93660  0.41850  1.0000 -0.1625651414
C   C111      1.0  0.18660  0.26810  0.74090  1.0000 -0.1625651414
C   C112      1.0  0.52720  0.44570  0.25910  1.0000 -0.1625651414
C   C113      1.0  0.83680  0.51220  0.74660  1.0000 -0.0897804107
C   C114      1.0  0.76560  0.09020  0.25340  1.0000 -0.0897804107
C   C115      1.0  0.34020  0.58680  0.82460  1.0000 -0.0897804107
C   C116      1.0  0.76220  0.51560  0.17540  1.0000 -0.0897804107
C   C117      1.0  0.41320  0.23780  0.75340  1.0000 -0.0897804107
C   C118      1.0  0.48440  0.65980  0.24660  1.0000 -0.0897804107
C   C119      1.0  0.90980  0.16320  0.67540  1.0000 -0.0897804107
C   C120      1.0  0.48780  0.23440  0.32460  1.0000 -0.0897804107
C   C121      1.0  0.81960  0.53300  0.81340  1.0000 -0.1491571144
C   C122      1.0  0.71960  0.00620  0.18660  1.0000 -0.1491571144
C   C123      1.0  0.25620  0.56960  0.78660  1.0000 -0.1491571144
C   C124      1.0  0.78300  0.46960  0.21340  1.0000 -0.1491571144
C   C125      1.0  0.43040  0.21700  0.68660  1.0000 -0.1491571144
C   C126      1.0  0.53040  0.74380  0.31340  1.0000 -0.1491571144
C   C127      1.0  0.99380  0.18040  0.71340  1.0000 -0.1491571144
C   C128      1.0  0.46700  0.28040  0.28660  1.0000 -0.1491571144
C   C129      1.0  0.19140  0.92430  0.08490  1.0000 -0.1491571144
C   C130      1.0  0.83940  0.10650  0.91510  1.0000 -0.1491571144
C   C131      1.0  0.35650  0.94140  0.76710  1.0000 -0.1491571144
C   C132      1.0  0.17430  0.58940  0.23290  1.0000 -0.1491571144
C   C133      1.0  0.05860  0.82570  0.41510  1.0000 -0.1491571144
C   C134      1.0  0.41060  0.64350  0.58490  1.0000 -0.1491571144
C   C135      1.0  0.89350  0.80860  0.73290  1.0000 -0.1491571144
C   C136      1.0  0.07570  0.16060  0.26710  1.0000 -0.1491571144
C   C137      1.0  0.87660  0.50950  0.01450  1.0000 -0.0962131028
C   C138      1.0  0.49500  0.86210  0.98550  1.0000 -0.0962131028
C   C139      1.0  0.11210  0.62660  0.86710  1.0000 -0.0962131028
C   C140      1.0  0.75950  0.24500  0.13290  1.0000 -0.0962131028
C   C141      1.0  0.37340  0.24050  0.48550  1.0000 -0.0962131028
C   C142      1.0  0.75500  0.88790  0.51450  1.0000 -0.0962131028
C   C143      1.0  0.13790  0.12340  0.63290  1.0000 -0.0962131028
C   C144      1.0  0.49050  0.50500  0.36710  1.0000 -0.0962131028
C   C145      1.0  0.96920  0.59710  0.07690  1.0000 -0.0897804107
C   C146      1.0  0.52020  0.89230  0.92310  1.0000 -0.0897804107
C   C147      1.0  0.14230  0.71920  0.87210  1.0000 -0.0897804107
C   C148      1.0  0.84710  0.27020  0.12790  1.0000 -0.0897804107
C   C149      1.0  0.28080  0.15290  0.42310  1.0000 -0.0897804107
C   C150      1.0  0.72980  0.85770  0.57690  1.0000 -0.0897804107
C   C151      1.0  0.10770  0.03080  0.62790  1.0000 -0.0897804107
C   C152      1.0  0.40290  0.47980  0.37210  1.0000 -0.0897804107
N   N1        1.0  0.98244  0.68150  0.08854  1.0000 0.0536965919
N   N2        1.0  0.59296  0.89390  0.91146  1.0000 0.0536965919
N   N3        1.0  0.14390  0.73244  0.80094  1.0000 0.0536965919
N   N4        1.0  0.93150  0.34296  0.19906  1.0000 0.0536965919
N   N5        1.0  0.26756  0.06850  0.41146  1.0000 0.0536965919
N   N6        1.0  0.65704  0.85610  0.58854  1.0000 0.0536965919
N   N7        1.0  0.10610  0.01756  0.69906  1.0000 0.0536965919
N   N8        1.0  0.31850  0.40704  0.30094  1.0000 0.0536965919
N   N9        1.0  0.83370  0.54151  0.98781  1.0000 0.0536965919
N   N10       1.0  0.55370  0.84589  0.01219  1.0000 0.0536965919
N   N11       1.0  0.09589  0.58370  0.79219  1.0000 0.0536965919
N   N12       1.0  0.79151  0.30370  0.20781  1.0000 0.0536965919
N   N13       1.0  0.41630  0.20849  0.51219  1.0000 0.0536965919
N   N14       1.0  0.69630  0.90411  0.48781  1.0000 0.0536965919
N   N15       1.0  0.15411  0.16630  0.70781  1.0000 0.0536965919
N   N16       1.0  0.45849  0.44630  0.29219  1.0000 0.0536965919
Cl  Cl1       1.0  0.90930  0.79870  0.25160  1.0000 -0.5932899876
Cl  Cl2       1.0  0.54710  0.65770  0.74840  1.0000 -0.5932899876
Cl  Cl3       1.0  0.04870  0.29710  0.38940  1.0000 -0.5932899876
Cl  Cl4       1.0  0.90770  0.65930  0.61060  1.0000 -0.5932899876
Cl  Cl5       1.0  0.34070  0.95130  0.24840  1.0000 -0.5932899876
Cl  Cl6       1.0  0.70290  0.09230  0.75160  1.0000 -0.5932899876
Cl  Cl7       1.0  0.20130  0.45290  0.11060  1.0000 -0.5932899876
Cl  Cl8       1.0  0.34230  0.09070  0.88940  1.0000 -0.5932899876
O   O1        1.0  0.30150  0.17979  0.99609  1.0000 -0.5593203394
O   O2        1.0  0.18370  0.30541  0.00391  1.0000 -0.5593203394
O   O3        1.0  0.55541  0.05150  0.62171  1.0000 -0.5593203394
O   O4        1.0  0.42979  0.93370  0.37829  1.0000 -0.5593203394
O   O5        1.0  0.94850  0.57021  0.50391  1.0000 -0.5593203394
O   O6        1.0  0.06630  0.44459  0.49609  1.0000 -0.5593203394
O   O7        1.0  0.69459  0.69850  0.87829  1.0000 -0.5593203394
O   O8        1.0  0.82021  0.81630  0.12171  1.0000 -0.5593203394
O   O9        1.0  0.71121  0.27393  0.58914  1.0000 -0.7100774585
O   O10       1.0  0.68479  0.12207  0.41086  1.0000 -0.7100774585
O   O11       1.0  0.37207  0.46121  0.93728  1.0000 -0.7100774585
O   O12       1.0  0.52393  0.43479  0.06272  1.0000 -0.7100774585
O   O13       1.0  0.53879  0.47607  0.91086  1.0000 -0.7100774585
O   O14       1.0  0.56521  0.62793  0.08914  1.0000 -0.7100774585
O   O15       1.0  0.87793  0.28879  0.56272  1.0000 -0.7100774585
O   O16       1.0  0.72607  0.31521  0.43728  1.0000 -0.7100774585
O   O17       1.0  0.87928  0.45140  0.61848  1.0000 -0.6131793199
O   O18       1.0  0.83292  0.26080  0.38152  1.0000 -0.6131793199
O   O19       1.0  0.51080  0.62928  0.92788  1.0000 -0.6131793199
O   O20       1.0  0.70140  0.58292  0.07212  1.0000 -0.6131793199
O   O21       1.0  0.37072  0.29860  0.88152  1.0000 -0.6131793199
O   O22       1.0  0.41708  0.48920  0.11848  1.0000 -0.6131793199
O   O23       1.0  0.73920  0.12072  0.57212  1.0000 -0.6131793199
O   O24       1.0  0.54860  0.16708  0.42788  1.0000 -0.6131793199
O   O25       1.0  0.27419  0.23799  0.08878  1.0000 -0.6385542465
O   O26       1.0  0.14921  0.18541  0.91122  1.0000 -0.6385542465
O   O27       1.0  0.43541  0.02419  0.53620  1.0000 -0.6385542465
O   O28       1.0  0.48799  0.89921  0.46380  1.0000 -0.6385542465
O   O29       1.0  0.97581  0.51201  0.41122  1.0000 -0.6385542465
O   O30       1.0  0.10079  0.56459  0.58878  1.0000 -0.6385542465
O   O31       1.0  0.81459  0.72581  0.96380  1.0000 -0.6385542465
O   O32       1.0  0.76201  0.85079  0.03620  1.0000 -0.6385542465
