# DDEC6 charges by PACMAN v1.1 (https://github.com/mtap-research/PACMAN-charge/)
data_2023[Ni][dia]3[ION]9
_chemical_formula_sum              "Ni4 H72 C76 N16 O24"
_cell_length_a       10.0037
_cell_length_b       16.2849
_cell_length_c       18.7428
_cell_angle_alpha    90
_cell_angle_beta     90
_cell_angle_gamma    90

_symmetry_space_group_name_H-M    "P 1"
_symmetry_Int_Tables_number       1

loop_
  _symmetry_equiv_pos_as_xyz
  'x, y, z'

loop_
  _atom_site_type_symbol
  _atom_site_label
  _atom_site_symmetry_multiplicity
  _atom_site_fract_x
  _atom_site_fract_y
  _atom_site_fract_z
  _atom_site_occupancy
  _atom_site_charge
Ni  Ni1       1.0  0.11706  0.24340  0.55698  1.0000 0.6991800832
Ni  Ni2       1.0  0.38294  0.75660  0.05698  1.0000 0.6991800832
Ni  Ni3       1.0  0.88294  0.74340  0.94302  1.0000 0.6991800832
Ni  Ni4       1.0  0.61706  0.25660  0.44302  1.0000 0.6991800832
H   H1        1.0  0.10602  0.35933  0.46362  1.0000 0.3235994361
H   H2        1.0  0.39398  0.64067  0.96362  1.0000 0.3235994361
H   H3        1.0  0.89398  0.85933  0.03638  1.0000 0.3255760538
H   H4        1.0  0.60602  0.14067  0.53638  1.0000 0.3235994361
H   H5        1.0  0.13888  0.39720  0.52696  1.0000 0.3235994361
H   H6        1.0  0.36112  0.60280  0.02696  1.0000 0.3235994361
H   H7        1.0  0.86112  0.89720  0.97304  1.0000 0.3235994361
H   H8        1.0  0.63888  0.10280  0.47304  1.0000 0.3235994361
H   H9        1.0  0.72238  0.28207  0.56658  1.0000 0.2640782761
H   H10       1.0  0.77762  0.71793  0.06658  1.0000 0.2640782761
H   H11       1.0  0.27762  0.78207  0.93342  1.0000 0.2640782761
H   H12       1.0  0.22238  0.21793  0.43342  1.0000 0.2640782761
H   H13       1.0  0.09512  0.61444  0.92365  1.0000 0.1106600692
H   H14       1.0  0.40488  0.38556  0.42365  1.0000 0.1106600692
H   H15       1.0  0.90488  0.11444  0.57635  1.0000 0.1106600692
H   H16       1.0  0.59512  0.88556  0.07635  1.0000 0.1106600692
H   H17       1.0  0.14847  0.50538  0.85079  1.0000 0.1305831174
H   H18       1.0  0.35153  0.49462  0.35079  1.0000 0.1305831174
H   H19       1.0  0.85153  0.00538  0.64921  1.0000 0.1305831174
H   H20       1.0  0.64847  0.99462  0.14921  1.0000 0.1305831174
H   H21       1.0  0.54970  0.27469  0.63238  1.0000 0.101709606
H   H22       1.0  0.95030  0.72531  0.13238  1.0000 0.101709606
H   H23       1.0  0.45030  0.77469  0.86762  1.0000 0.101709606
H   H24       1.0  0.04970  0.22531  0.36762  1.0000 0.101709606
H   H25       1.0  0.87167  0.30166  0.63974  1.0000 0.1106600692
H   H26       1.0  0.62833  0.69834  0.13974  1.0000 0.1106600692
H   H27       1.0  0.12833  0.80166  0.86026  1.0000 0.1106600692
H   H28       1.0  0.37167  0.19834  0.36026  1.0000 0.1106600692
H   H29       1.0  0.78036  0.52383  0.76492  1.0000 0.1387081639
H   H30       1.0  0.71964  0.47617  0.26492  1.0000 0.1387081639
H   H31       1.0  0.21964  0.02383  0.73508  1.0000 0.1387081639
H   H32       1.0  0.28036  0.97617  0.23508  1.0000 0.1387081639
H   H33       1.0  0.90856  0.53946  0.50739  1.0000 0.1106600692
H   H34       1.0  0.59144  0.46054  0.00739  1.0000 0.1106600692
H   H35       1.0  0.09144  0.03946  0.99261  1.0000 0.1106600692
H   H36       1.0  0.40856  0.96054  0.49261  1.0000 0.1106600692
H   H37       1.0  0.86213  0.40107  0.48930  1.0000 0.1305831174
H   H38       1.0  0.63787  0.59893  0.98930  1.0000 0.1305831174
H   H39       1.0  0.13787  0.90107  0.01070  1.0000 0.1305831174
H   H40       1.0  0.36213  0.09893  0.51070  1.0000 0.1305831174
H   H41       1.0  0.24684  0.34273  0.67947  1.0000 0.1164570021
H   H42       1.0  0.25316  0.65727  0.17947  1.0000 0.1164570021
H   H43       1.0  0.75316  0.84273  0.82053  1.0000 0.1164570021
H   H44       1.0  0.74684  0.15727  0.32053  1.0000 0.1164570021
H   H45       1.0  0.20246  0.43170  0.76249  1.0000 0.1387081639
H   H46       1.0  0.29754  0.56830  0.26249  1.0000 0.1387081639
H   H47       1.0  0.79754  0.93170  0.73751  1.0000 0.1387081639
H   H48       1.0  0.70246  0.06830  0.23751  1.0000 0.1387081639
H   H49       1.0  0.81049  0.39954  0.71854  1.0000 0.1387081639
H   H50       1.0  0.68951  0.60046  0.21854  1.0000 0.1387081639
H   H51       1.0  0.18951  0.89954  0.78146  1.0000 0.1387081639
H   H52       1.0  0.31049  0.10046  0.28146  1.0000 0.1387081639
H   H53       1.0  0.73485  0.62954  0.84226  1.0000 0.1164570021
H   H54       1.0  0.76515  0.37046  0.34226  1.0000 0.1164570021
H   H55       1.0  0.26515  0.12954  0.65774  1.0000 0.1164570021
H   H56       1.0  0.23485  0.87046  0.15774  1.0000 0.1164570021
H   H57       1.0  0.56299  0.56188  0.62078  1.0000 0.1305831174
H   H58       1.0  0.93701  0.43812  0.12078  1.0000 0.1305831174
H   H59       1.0  0.43701  0.06188  0.87922  1.0000 0.1305831174
H   H60       1.0  0.06299  0.93812  0.37922  1.0000 0.1305831174
H   H61       1.0  0.40132  0.41169  0.58261  1.0000 0.1305831174
H   H62       1.0  0.09868  0.58831  0.08261  1.0000 0.1305831174
H   H63       1.0  0.59868  0.91169  0.91739  1.0000 0.1305831174
H   H64       1.0  0.90132  0.08831  0.41739  1.0000 0.1305831174
H   H65       1.0  0.46994  0.40156  0.66009  1.0000 0.1305831174
H   H66       1.0  0.03006  0.59844  0.16009  1.0000 0.1305831174
H   H67       1.0  0.53006  0.90156  0.83991  1.0000 0.1305831174
H   H68       1.0  0.96994  0.09844  0.33991  1.0000 0.1305831174
H   H69       1.0  0.75616  0.62082  0.57228  1.0000 0.1106600692
H   H70       1.0  0.74384  0.37918  0.07228  1.0000 0.1106600692
H   H71       1.0  0.24384  0.12082  0.92772  1.0000 0.1106600692
H   H72       1.0  0.25616  0.87918  0.42772  1.0000 0.1106600692
C   C1        1.0  0.41520  0.26480  0.54820  1.0000 0.5730728971
C   C2        1.0  0.08480  0.73520  0.04820  1.0000 0.5730728971
C   C3        1.0  0.58480  0.76480  0.95180  1.0000 0.5730728971
C   C4        1.0  0.91520  0.23520  0.45180  1.0000 0.5730728971
C   C5        1.0  0.69090  0.40040  0.54710  1.0000 0.1387081639
C   C6        1.0  0.80910  0.59960  0.04710  1.0000 0.1387081639
C   C7        1.0  0.30910  0.90040  0.95290  1.0000 0.1387081639
C   C8        1.0  0.19090  0.09960  0.45290  1.0000 0.1387081639
C   C9        1.0  0.00000  0.43190  0.75110  1.0000 0.1106600692
C   C10       1.0  0.50000  0.56810  0.25110  1.0000 0.1106600692
C   C11       1.0  0.00000  0.93190  0.74890  1.0000 0.1106600692
C   C12       1.0  0.50000  0.06810  0.24890  1.0000 0.1106600692
C   C13       1.0  0.03040  0.59580  0.89030  1.0000 0.0936380288
C   C14       1.0  0.46960  0.40420  0.39030  1.0000 0.0936380288
C   C15       1.0  0.96960  0.09580  0.60970  1.0000 0.0936380288
C   C16       1.0  0.53040  0.90420  0.10970  1.0000 0.0936380288
C   C17       1.0  0.06210  0.52950  0.84790  1.0000 -0.1804340167
C   C18       1.0  0.43790  0.47050  0.34790  1.0000 -0.1804340167
C   C19       1.0  0.93790  0.02950  0.65210  1.0000 -0.1804340167
C   C20       1.0  0.56210  0.97050  0.15210  1.0000 -0.1804340167
C   C21       1.0  0.60160  0.44510  0.58330  1.0000 0.0493750575
C   C22       1.0  0.89840  0.55490  0.08330  1.0000 0.0493750575
C   C23       1.0  0.39840  0.94510  0.91670  1.0000 0.0493750575
C   C24       1.0  0.10160  0.05490  0.41670  1.0000 0.0493750575
C   C25       1.0  0.52800  0.30630  0.58810  1.0000 -0.0170143621
C   C26       1.0  0.97200  0.69370  0.08810  1.0000 -0.0170143621
C   C27       1.0  0.47200  0.80630  0.91190  1.0000 -0.0170143621
C   C28       1.0  0.02800  0.19370  0.41190  1.0000 -0.0170143621
C   C29       1.0  0.94020  0.33110  0.66370  1.0000 0.0693253705
C   C30       1.0  0.55980  0.66890  0.16370  1.0000 0.0693253705
C   C31       1.0  0.05980  0.83110  0.83630  1.0000 0.0693253705
C   C32       1.0  0.44020  0.16890  0.33630  1.0000 0.0693253705
C   C33       1.0  0.96690  0.49750  0.80060  1.0000 0.1106600692
C   C34       1.0  0.53310  0.50250  0.30060  1.0000 0.1106600692
C   C35       1.0  0.03310  0.99750  0.69940  1.0000 0.1106600692
C   C36       1.0  0.46690  0.00250  0.19940  1.0000 0.1106600692
C   C37       1.0  0.84670  0.54020  0.79830  1.0000 -0.1804340167
C   C38       1.0  0.65330  0.45980  0.29830  1.0000 -0.1804340167
C   C39       1.0  0.15330  0.04020  0.70170  1.0000 -0.1804340167
C   C40       1.0  0.34670  0.95980  0.20170  1.0000 -0.1804340167
C   C41       1.0  0.82970  0.51570  0.52670  1.0000 -0.0834233576
C   C42       1.0  0.67030  0.48430  0.02670  1.0000 -0.0834233576
C   C43       1.0  0.17030  0.01570  0.97330  1.0000 -0.0834233576
C   C44       1.0  0.32970  0.98430  0.47330  1.0000 -0.0834233576
C   C45       1.0  0.80330  0.43410  0.51680  1.0000 -0.1632045453
C   C46       1.0  0.69670  0.56590  0.01680  1.0000 -0.1632045453
C   C47       1.0  0.19670  0.93410  0.98320  1.0000 -0.1632045453
C   C48       1.0  0.30330  0.06590  0.48320  1.0000 -0.1632045453
C   C49       1.0  0.15510  0.35430  0.68780  1.0000 0.0493750575
C   C50       1.0  0.34490  0.64570  0.18780  1.0000 0.0493750575
C   C51       1.0  0.84490  0.85430  0.81220  1.0000 0.0493750575
C   C52       1.0  0.65510  0.14570  0.31220  1.0000 0.0493750575
C   C53       1.0  0.13070  0.40810  0.73640  1.0000 -0.1632045453
C   C54       1.0  0.36930  0.59190  0.23640  1.0000 -0.1632045453
C   C55       1.0  0.86930  0.90810  0.76360  1.0000 -0.1632045453
C   C56       1.0  0.63070  0.09190  0.26360  1.0000 -0.1632045453
C   C57       1.0  0.90270  0.38830  0.71140  1.0000 -0.1887631399
C   C58       1.0  0.59730  0.61170  0.21140  1.0000 -0.1887631399
C   C59       1.0  0.09730  0.88830  0.78860  1.0000 -0.1887631399
C   C60       1.0  0.40270  0.11170  0.28860  1.0000 -0.1887631399
C   C61       1.0  0.82110  0.60520  0.84280  1.0000 0.0936380288
C   C62       1.0  0.67890  0.39480  0.34280  1.0000 0.0936380288
C   C63       1.0  0.17890  0.10520  0.65720  1.0000 0.0936380288
C   C64       1.0  0.32110  0.89480  0.15720  1.0000 0.0936380288
C   C65       1.0  0.62450  0.52950  0.59430  1.0000 -0.1502418501
C   C66       1.0  0.87550  0.47050  0.09430  1.0000 -0.1502418501
C   C67       1.0  0.37550  0.02950  0.90570  1.0000 -0.1502418501
C   C68       1.0  0.12450  0.97050  0.40570  1.0000 -0.1502418501
C   C69       1.0  0.48400  0.39570  0.60810  1.0000 -0.2435041165
C   C70       1.0  0.01600  0.60430  0.10810  1.0000 -0.2435041165
C   C71       1.0  0.51600  0.89570  0.89190  1.0000 -0.2435041165
C   C72       1.0  0.98400  0.10430  0.39190  1.0000 -0.2435041165
C   C73       1.0  0.73880  0.56400  0.56560  1.0000 -0.1028108449
C   C74       1.0  0.76120  0.43600  0.06560  1.0000 -0.1028108449
C   C75       1.0  0.26120  0.06400  0.93440  1.0000 -0.1028108449
C   C76       1.0  0.23880  0.93600  0.43440  1.0000 -0.1028108449
N   N1        1.0  0.91430  0.63520  0.88700  1.0000 -0.2088823897
N   N2        1.0  0.58570  0.36480  0.38700  1.0000 -0.2088823897
N   N3        1.0  0.08570  0.13520  0.61300  1.0000 -0.2088823897
N   N4        1.0  0.41430  0.86480  0.11300  1.0000 -0.2088823897
N   N5        1.0  0.06800  0.31250  0.64740  1.0000 -0.2235089598
N   N6        1.0  0.43200  0.68750  0.14740  1.0000 -0.2235089598
N   N7        1.0  0.93200  0.81250  0.85260  1.0000 -0.2235089598
N   N8        1.0  0.56800  0.18750  0.35260  1.0000 -0.2235089598
N   N9        1.0  0.65060  0.31440  0.54230  1.0000 -0.3887236846
N   N10       1.0  0.84940  0.68560  0.04230  1.0000 -0.3887236846
N   N11       1.0  0.34940  0.81440  0.95770  1.0000 -0.3887236846
N   N12       1.0  0.15060  0.18560  0.45770  1.0000 -0.3887236846
N   N13       1.0  0.60780  0.11070  0.68040  1.0000 0.6991800832
N   N14       1.0  0.89220  0.88930  0.18040  1.0000 0.6991800832
N   N15       1.0  0.39220  0.61070  0.81960  1.0000 0.6991800832
N   N16       1.0  0.10780  0.38930  0.31960  1.0000 0.6991800832
O   O1        1.0  0.31400  0.24880  0.58590  1.0000 -0.5380449427
O   O2        1.0  0.18600  0.75120  0.08590  1.0000 -0.5380449427
O   O3        1.0  0.68600  0.74880  0.91410  1.0000 -0.5380449427
O   O4        1.0  0.81400  0.25120  0.41410  1.0000 -0.5380449427
O   O5        1.0  0.42620  0.25100  0.48220  1.0000 -0.5479891432
O   O6        1.0  0.07380  0.74900  0.98220  1.0000 -0.5479891432
O   O7        1.0  0.57380  0.75100  0.01780  1.0000 -0.5479891432
O   O8        1.0  0.92620  0.24900  0.51780  1.0000 -0.5479891432
O   O9        1.0  0.15930  0.35530  0.50030  1.0000 -0.6468671394
O   O10       1.0  0.34070  0.64470  0.00030  1.0000 -0.6468671394
O   O11       1.0  0.84070  0.85530  0.99970  1.0000 -0.6468671394
O   O12       1.0  0.65930  0.14470  0.49970  1.0000 -0.6468671394
O   O13       1.0  0.54080  0.09210  0.62450  1.0000 -0.493578179
O   O14       1.0  0.68870  0.16800  0.67980  1.0000 -0.4461705518
O   O15       1.0  0.59180  0.06610  0.73520  1.0000 -0.4780883921
O   O16       1.0  0.95920  0.90790  0.12450  1.0000 -0.493578179
O   O17       1.0  0.81130  0.83200  0.17980  1.0000 -0.4461705518
O   O18       1.0  0.90820  0.93390  0.23520  1.0000 -0.4780883921
O   O19       1.0  0.45920  0.59210  0.87550  1.0000 -0.493578179
O   O20       1.0  0.31130  0.66800  0.82020  1.0000 -0.4461705518
O   O21       1.0  0.40820  0.56610  0.76480  1.0000 -0.4780883921
O   O22       1.0  0.04080  0.40790  0.37550  1.0000 -0.493578179
O   O23       1.0  0.18870  0.33200  0.32020  1.0000 -0.4461705518
O   O24       1.0  0.09180  0.43390  0.26480  1.0000 -0.4780883921
