# DDEC6 charges by PACMAN v1.1 (https://github.com/mtap-research/PACMAN-charge/)
data_2023[Ni][dia]3[ION]6
_chemical_formula_sum              "Ni4 H72 C76 N16 O24"
_cell_length_a       10.1164
_cell_length_b       16.7688
_cell_length_c       17.2364
_cell_angle_alpha    90
_cell_angle_beta     90
_cell_angle_gamma    90

_symmetry_space_group_name_H-M    "P 1"
_symmetry_Int_Tables_number       1

loop_
  _symmetry_equiv_pos_as_xyz
  'x, y, z'

loop_
  _atom_site_type_symbol
  _atom_site_label
  _atom_site_symmetry_multiplicity
  _atom_site_fract_x
  _atom_site_fract_y
  _atom_site_fract_z
  _atom_site_occupancy
  _atom_site_charge
Ni  Ni1       1.0  0.64602  0.27211  0.55045  1.0000 0.7089582799
Ni  Ni2       1.0  0.85398  0.72789  0.05045  1.0000 0.7089582799
Ni  Ni3       1.0  0.35398  0.77211  0.94955  1.0000 0.7089582799
Ni  Ni4       1.0  0.14602  0.22789  0.44955  1.0000 0.7089582799
H   H1        1.0  0.76100  0.20288  0.43453  1.0000 0.273125839
H   H2        1.0  0.73900  0.79712  0.93453  1.0000 0.273125839
H   H3        1.0  0.23900  0.70288  0.06547  1.0000 0.273125839
H   H4        1.0  0.26100  0.29712  0.56547  1.0000 0.273125839
H   H5        1.0  0.29027  0.57638  0.72668  1.0000 0.1302604693
H   H6        1.0  0.20973  0.42362  0.22668  1.0000 0.1302604693
H   H7        1.0  0.70973  0.07638  0.77332  1.0000 0.1302604693
H   H8        1.0  0.79027  0.92362  0.27332  1.0000 0.1302604693
H   H9        1.0  0.40275  0.52077  0.62085  1.0000 0.1198009593
H   H10       1.0  0.09725  0.47923  0.12085  1.0000 0.1198009593
H   H11       1.0  0.59725  0.02077  0.87915  1.0000 0.1198009593
H   H12       1.0  0.90275  0.97923  0.37915  1.0000 0.1198009593
H   H13       1.0  0.59034  0.67999  0.89895  1.0000 0.1105558989
H   H14       1.0  0.90966  0.32001  0.39895  1.0000 0.1105558989
H   H15       1.0  0.40966  0.17999  0.60105  1.0000 0.1105558989
H   H16       1.0  0.09034  0.82001  0.10105  1.0000 0.1105558989
H   H17       1.0  0.47255  0.41389  0.54596  1.0000 0.1028172863
H   H18       1.0  0.02745  0.58611  0.04596  1.0000 0.1028172863
H   H19       1.0  0.52745  0.91389  0.95404  1.0000 0.1028172863
H   H20       1.0  0.97255  0.08611  0.45404  1.0000 0.1028172863
H   H21       1.0  0.65666  0.57683  0.82221  1.0000 0.1302604693
H   H22       1.0  0.84334  0.42317  0.32221  1.0000 0.1302604693
H   H23       1.0  0.34334  0.07683  0.67779  1.0000 0.1302604693
H   H24       1.0  0.15666  0.92317  0.17779  1.0000 0.1302604693
H   H25       1.0  0.65819  0.44914  0.78845  1.0000 0.1302604693
H   H26       1.0  0.84181  0.55086  0.28845  1.0000 0.1302604693
H   H27       1.0  0.34181  0.94914  0.71155  1.0000 0.1302604693
H   H28       1.0  0.15819  0.05086  0.21155  1.0000 0.1302604693
H   H29       1.0  0.45475  0.10645  0.35267  1.0000 0.1302604693
H   H30       1.0  0.04525  0.89355  0.85267  1.0000 0.1302604693
H   H31       1.0  0.54525  0.60645  0.14733  1.0000 0.1302604693
H   H32       1.0  0.95475  0.39355  0.64733  1.0000 0.1302604693
H   H33       1.0  0.59421  0.11719  0.30856  1.0000 0.1302604693
H   H34       1.0  0.90579  0.88281  0.80856  1.0000 0.1302604693
H   H35       1.0  0.40579  0.61719  0.19144  1.0000 0.1302604693
H   H36       1.0  0.09421  0.38281  0.69144  1.0000 0.1302604693
H   H37       1.0  0.71585  0.34158  0.70974  1.0000 0.1105558989
H   H38       1.0  0.78415  0.65842  0.20974  1.0000 0.1105558989
H   H39       1.0  0.28415  0.84158  0.79026  1.0000 0.1105558989
H   H40       1.0  0.21585  0.15842  0.29026  1.0000 0.1105558989
H   H41       1.0  0.23248  0.67746  0.80931  1.0000 0.1105558989
H   H42       1.0  0.26752  0.32254  0.30931  1.0000 0.1105558989
H   H43       1.0  0.76752  0.17746  0.69069  1.0000 0.1105558989
H   H44       1.0  0.73248  0.82254  0.19069  1.0000 0.1105558989
H   H45       1.0  0.80067  0.09087  0.56663  1.0000 0.1302604693
H   H46       1.0  0.69933  0.90913  0.06663  1.0000 0.1302604693
H   H47       1.0  0.19933  0.59087  0.93337  1.0000 0.1302604693
H   H48       1.0  0.30067  0.40913  0.43337  1.0000 0.1302604693
H   H49       1.0  0.60013  0.23911  0.36088  1.0000 0.1105558989
H   H50       1.0  0.89987  0.76089  0.86088  1.0000 0.1105558989
H   H51       1.0  0.39987  0.73911  0.13912  1.0000 0.1105558989
H   H52       1.0  0.10013  0.26089  0.63912  1.0000 0.1105558989
H   H53       1.0  0.79983  0.95075  0.56713  1.0000 0.1105558989
H   H54       1.0  0.70017  0.04925  0.06713  1.0000 0.1105558989
H   H55       1.0  0.20017  0.45075  0.93287  1.0000 0.1105558989
H   H56       1.0  0.29983  0.54925  0.43287  1.0000 0.1105558989
H   H57       1.0  0.56701  0.94848  0.37408  1.0000 0.1198009593
H   H58       1.0  0.93299  0.05152  0.87408  1.0000 0.1198009593
H   H59       1.0  0.43299  0.44848  0.12592  1.0000 0.1198009593
H   H60       1.0  0.06701  0.55152  0.62592  1.0000 0.1198009593
H   H61       1.0  0.67654  0.88174  0.47438  1.0000 0.1105558989
H   H62       1.0  0.82346  0.11826  0.97438  1.0000 0.1105558989
H   H63       1.0  0.32346  0.38174  0.02562  1.0000 0.1105558989
H   H64       1.0  0.17654  0.61826  0.52562  1.0000 0.1105558989
H   H65       1.0  0.61900  0.36200  0.43500  1.0000 0.3694257853
H   H66       1.0  0.88100  0.63800  0.93500  1.0000 0.3694257853
H   H67       1.0  0.38100  0.86200  0.06500  1.0000 0.3694257853
H   H68       1.0  0.11900  0.13800  0.56500  1.0000 0.3694257853
H   H69       1.0  0.74360  0.39910  0.47960  1.0000 0.3951234637
H   H70       1.0  0.75640  0.60090  0.97960  1.0000 0.3951234637
H   H71       1.0  0.25640  0.89910  0.02040  1.0000 0.3951234637
H   H72       1.0  0.24360  0.10090  0.52040  1.0000 0.3951234637
C   C1        1.0  0.68370  0.10120  0.47020  1.0000 0.1389884172
C   C2        1.0  0.81630  0.89880  0.97020  1.0000 0.1389884172
C   C3        1.0  0.31630  0.60120  0.02980  1.0000 0.1389884172
C   C4        1.0  0.18370  0.39880  0.52980  1.0000 0.1389884172
C   C5        1.0  0.35360  0.59650  0.76240  1.0000 -0.1793112423
C   C6        1.0  0.14640  0.40350  0.26240  1.0000 -0.1793112423
C   C7        1.0  0.64640  0.09650  0.73760  1.0000 -0.1793112423
C   C8        1.0  0.85360  0.90350  0.23760  1.0000 -0.1793112423
C   C9        1.0  0.44330  0.23060  0.44120  1.0000 0.5671554325
C   C10       1.0  0.05670  0.76940  0.94120  1.0000 0.5671554325
C   C11       1.0  0.55670  0.73060  0.05880  1.0000 0.5671554325
C   C12       1.0  0.94330  0.26940  0.55880  1.0000 0.5671554325
C   C13       1.0  0.48090  0.56420  0.76430  1.0000 0.1198009593
C   C14       1.0  0.01910  0.43580  0.26430  1.0000 0.1198009593
C   C15       1.0  0.51910  0.06420  0.73570  1.0000 0.1198009593
C   C16       1.0  0.98090  0.93580  0.23570  1.0000 0.1198009593
C   C17       1.0  0.46710  0.48480  0.64050  1.0000 -0.1872726264
C   C18       1.0  0.03290  0.51520  0.14050  1.0000 -0.1872726264
C   C19       1.0  0.53290  0.98480  0.85950  1.0000 -0.1872726264
C   C20       1.0  0.96710  0.01520  0.35950  1.0000 -0.1872726264
C   C21       1.0  0.52820  0.65770  0.86380  1.0000 0.0472392976
C   C22       1.0  0.97180  0.34230  0.36380  1.0000 0.0472392976
C   C23       1.0  0.47180  0.15770  0.63620  1.0000 0.0472392976
C   C24       1.0  0.02820  0.84230  0.13620  1.0000 0.0472392976
C   C25       1.0  0.61250  0.06080  0.41470  1.0000 0.0472392976
C   C26       1.0  0.88750  0.93920  0.91470  1.0000 0.0472392976
C   C27       1.0  0.38750  0.56080  0.08530  1.0000 0.0472392976
C   C28       1.0  0.11250  0.43920  0.58530  1.0000 0.0472392976
C   C29       1.0  0.50890  0.42060  0.59630  1.0000 0.0863165203
C   C30       1.0  0.99110  0.57940  0.09630  1.0000 0.0863165203
C   C31       1.0  0.49110  0.92060  0.90370  1.0000 0.0863165203
C   C32       1.0  0.00890  0.07940  0.40370  1.0000 0.0863165203
C   C33       1.0  0.56920  0.59690  0.81800  1.0000 -0.1793112423
C   C34       1.0  0.93080  0.40310  0.31800  1.0000 -0.1793112423
C   C35       1.0  0.43080  0.09690  0.68200  1.0000 -0.1793112423
C   C36       1.0  0.06920  0.90310  0.18200  1.0000 -0.1793112423
C   C37       1.0  0.52140  0.49600  0.71490  1.0000 0.1198009593
C   C38       1.0  0.97860  0.50400  0.21490  1.0000 0.1198009593
C   C39       1.0  0.47860  0.99600  0.78510  1.0000 0.1198009593
C   C40       1.0  0.02140  0.00400  0.28510  1.0000 0.1198009593
C   C41       1.0  0.61680  0.44240  0.73940  1.0000 -0.1793112423
C   C42       1.0  0.88320  0.55760  0.23940  1.0000 -0.1793112423
C   C43       1.0  0.38320  0.94240  0.76060  1.0000 -0.1793112423
C   C44       1.0  0.11680  0.05760  0.26060  1.0000 -0.1793112423
C   C45       1.0  0.54980  0.11840  0.35970  1.0000 -0.2541760835
C   C46       1.0  0.95020  0.88160  0.85970  1.0000 -0.2541760835
C   C47       1.0  0.45020  0.61840  0.14030  1.0000 -0.2541760835
C   C48       1.0  0.04980  0.38160  0.64030  1.0000 -0.2541760835
C   C49       1.0  0.65180  0.37860  0.69180  1.0000 0.0863165203
C   C50       1.0  0.84820  0.62140  0.19180  1.0000 0.0863165203
C   C51       1.0  0.34820  0.87860  0.80820  1.0000 0.0863165203
C   C52       1.0  0.15180  0.12140  0.30820  1.0000 0.0863165203
C   C53       1.0  0.32000  0.65700  0.81160  1.0000 0.0863165203
C   C54       1.0  0.18000  0.34300  0.31160  1.0000 0.0863165203
C   C55       1.0  0.68000  0.15700  0.68840  1.0000 0.0863165203
C   C56       1.0  0.82000  0.84300  0.18840  1.0000 0.0863165203
C   C57       1.0  0.75340  0.06190  0.52830  1.0000 -0.1793112423
C   C58       1.0  0.74660  0.93810  0.02830  1.0000 -0.1793112423
C   C59       1.0  0.24660  0.56190  0.97170  1.0000 -0.1793112423
C   C60       1.0  0.25340  0.43810  0.47170  1.0000 -0.1793112423
C   C61       1.0  0.56960  0.19900  0.39990  1.0000 -0.0051469997
C   C62       1.0  0.93040  0.80100  0.89990  1.0000 -0.0051469997
C   C63       1.0  0.43040  0.69900  0.10010  1.0000 -0.0051469997
C   C64       1.0  0.06960  0.30100  0.60010  1.0000 -0.0051469997
C   C65       1.0  0.75190  0.97930  0.52870  1.0000 -0.1007977532
C   C66       1.0  0.74810  0.02070  0.02870  1.0000 -0.1007977532
C   C67       1.0  0.24810  0.47930  0.97130  1.0000 -0.1007977532
C   C68       1.0  0.25190  0.52070  0.47130  1.0000 -0.1007977532
C   C69       1.0  0.61190  0.97730  0.41360  1.0000 -0.1559952976
C   C70       1.0  0.88810  0.02270  0.91360  1.0000 -0.1559952976
C   C71       1.0  0.38810  0.47730  0.08640  1.0000 -0.1559952976
C   C72       1.0  0.11190  0.52270  0.58640  1.0000 -0.1559952976
C   C73       1.0  0.67950  0.93830  0.47230  1.0000 -0.1057121264
C   C74       1.0  0.82050  0.06170  0.97230  1.0000 -0.1057121264
C   C75       1.0  0.32050  0.43830  0.02770  1.0000 -0.1057121264
C   C76       1.0  0.17950  0.56170  0.52770  1.0000 -0.1057121264
N   N1        1.0  0.67640  0.18710  0.46030  1.0000 -0.3783684703
N   N2        1.0  0.82360  0.81290  0.96030  1.0000 -0.3783684703
N   N3        1.0  0.32360  0.68710  0.03970  1.0000 -0.3783684703
N   N4        1.0  0.17640  0.31290  0.53970  1.0000 -0.3783684703
N   N5        1.0  0.59780  0.36780  0.62120  1.0000 -0.2300697039
N   N6        1.0  0.90220  0.63220  0.12120  1.0000 -0.2300697039
N   N7        1.0  0.40220  0.86780  0.87880  1.0000 -0.2300697039
N   N8        1.0  0.09780  0.13220  0.37880  1.0000 -0.2300697039
N   N9        1.0  0.40370  0.68900  0.86300  1.0000 -0.2300697039
N   N10       1.0  0.09630  0.31100  0.36300  1.0000 -0.2300697039
N   N11       1.0  0.59630  0.18900  0.63700  1.0000 -0.2300697039
N   N12       1.0  0.90370  0.81100  0.13700  1.0000 -0.2300697039
N   N13       1.0  0.03290  0.09610  0.71250  1.0000 0.6983679352
N   N14       1.0  0.46710  0.90390  0.21250  1.0000 0.6983679352
N   N15       1.0  0.96710  0.59610  0.78750  1.0000 0.6983679352
N   N16       1.0  0.53290  0.40390  0.28750  1.0000 0.6983679352
O   O1        1.0  0.33640  0.21980  0.40750  1.0000 -0.5252616288
O   O2        1.0  0.16360  0.78020  0.90750  1.0000 -0.5252616288
O   O3        1.0  0.66360  0.71980  0.09250  1.0000 -0.5252616288
O   O4        1.0  0.83640  0.28020  0.59250  1.0000 -0.5252616288
O   O5        1.0  0.45920  0.26930  0.50430  1.0000 -0.5613412144
O   O6        1.0  0.04080  0.73070  0.00430  1.0000 -0.5613412144
O   O7        1.0  0.54080  0.76930  0.99570  1.0000 -0.5613412144
O   O8        1.0  0.95920  0.23070  0.49570  1.0000 -0.5613412144
O   O9        1.0  0.69830  0.35290  0.46200  1.0000 -0.7253891709
O   O10       1.0  0.80170  0.64710  0.96200  1.0000 -0.7253891709
O   O11       1.0  0.30170  0.85290  0.03800  1.0000 -0.7253891709
O   O12       1.0  0.19830  0.14710  0.53800  1.0000 -0.7253891709
O   O13       1.0  0.00550  0.10350  0.64170  1.0000 -0.4737670379
O   O14       1.0  0.11740  0.04720  0.73470  1.0000 -0.4404399278
O   O15       1.0  0.97910  0.14110  0.76130  1.0000 -0.4404399278
O   O16       1.0  0.49450  0.89650  0.14170  1.0000 -0.4737670379
O   O17       1.0  0.38260  0.95280  0.23470  1.0000 -0.4404399278
O   O18       1.0  0.52090  0.85890  0.26130  1.0000 -0.4404399278
O   O19       1.0  0.99450  0.60350  0.85830  1.0000 -0.4737670379
O   O20       1.0  0.88260  0.54720  0.76530  1.0000 -0.4404399278
O   O21       1.0  0.02090  0.64110  0.73870  1.0000 -0.4404399278
O   O22       1.0  0.50550  0.39650  0.35830  1.0000 -0.4737670379
O   O23       1.0  0.61740  0.45280  0.26530  1.0000 -0.4404399278
O   O24       1.0  0.47910  0.35890  0.23870  1.0000 -0.4404399278
