# DDEC6 charges by PACMAN v1.1 (https://github.com/mtap-research/PACMAN-charge/)
data_2023[U][hcb]2[ION]2
_chemical_formula_sum              "U4 H80 C48 N8 O40"
_cell_length_a       11.6052
_cell_length_b       15.1797
_cell_length_c       12.8145
_cell_angle_alpha    90
_cell_angle_beta     117.181
_cell_angle_gamma    90

_symmetry_space_group_name_H-M    "P 1"
_symmetry_Int_Tables_number       1

loop_
  _symmetry_equiv_pos_as_xyz
  'x, y, z'

loop_
  _atom_site_type_symbol
  _atom_site_label
  _atom_site_symmetry_multiplicity
  _atom_site_fract_x
  _atom_site_fract_y
  _atom_site_fract_z
  _atom_site_occupancy
  _atom_site_charge
U   U1        1.0  0.30616  0.08016  0.65860  1.0000 2.2861589938
U   U2        1.0  0.69384  0.58016  0.84140  1.0000 2.2861589938
U   U3        1.0  0.69384  0.91984  0.34140  1.0000 2.2861589938
U   U4        1.0  0.30616  0.41984  0.15860  1.0000 2.2861589938
H   H1        1.0  0.82485  0.15491  0.46691  1.0000 0.1303799763
H   H2        1.0  0.17515  0.65491  0.03309  1.0000 0.1303799763
H   H3        1.0  0.86746  0.15920  0.60417  1.0000 0.1303799763
H   H4        1.0  0.13254  0.65920  0.89583  1.0000 0.1303799763
H   H5        1.0  0.94857  0.28072  0.47990  1.0000 0.1303799763
H   H6        1.0  0.05143  0.78072  0.02010  1.0000 0.1303799763
H   H7        1.0  0.98449  0.29250  0.61554  1.0000 0.1303799763
H   H8        1.0  0.01551  0.79250  0.88446  1.0000 0.1303799763
H   H9        1.0  0.80766  0.36284  0.60122  1.0000 0.1045153514
H   H10       1.0  0.19234  0.86284  0.89878  1.0000 0.1045153514
H   H11       1.0  0.79368  0.28721  0.68120  1.0000 0.1184615288
H   H12       1.0  0.20632  0.78721  0.81880  1.0000 0.1184615288
H   H13       1.0  0.57726  0.38722  0.51767  1.0000 0.1482258135
H   H14       1.0  0.42274  0.88722  0.98233  1.0000 0.1482258135
H   H15       1.0  0.57234  0.31756  0.60910  1.0000 0.1482258135
H   H16       1.0  0.42766  0.81756  0.89090  1.0000 0.1482258135
H   H17       1.0  0.53038  0.22687  0.45902  1.0000 0.1184615288
H   H18       1.0  0.46962  0.72687  0.04098  1.0000 0.1184615288
H   H19       1.0  0.59171  0.15407  0.40886  1.0000 0.1184615288
H   H20       1.0  0.40829  0.65407  0.09114  1.0000 0.1184615288
H   H21       1.0  0.66052  0.07154  0.56739  1.0000 0.1482258135
H   H22       1.0  0.33948  0.57154  0.93261  1.0000 0.1482258135
H   H23       1.0  0.69103  0.15409  0.65318  1.0000 0.1184615288
H   H24       1.0  0.30897  0.65409  0.84682  1.0000 0.1184615288
H   H25       1.0  0.17515  0.84509  0.53309  1.0000 0.1303799763
H   H26       1.0  0.82485  0.34509  0.96691  1.0000 0.1303799763
H   H27       1.0  0.13254  0.84080  0.39583  1.0000 0.1303799763
H   H28       1.0  0.86746  0.34080  0.10417  1.0000 0.1303799763
H   H29       1.0  0.05143  0.71928  0.52010  1.0000 0.1303799763
H   H30       1.0  0.94857  0.21928  0.97990  1.0000 0.1303799763
H   H31       1.0  0.01551  0.70750  0.38446  1.0000 0.1303799763
H   H32       1.0  0.98449  0.20750  0.11554  1.0000 0.1303799763
H   H33       1.0  0.19234  0.63716  0.39878  1.0000 0.1045153514
H   H34       1.0  0.80766  0.13716  0.10122  1.0000 0.1045153514
H   H35       1.0  0.20632  0.71279  0.31880  1.0000 0.1184615288
H   H36       1.0  0.79368  0.21279  0.18120  1.0000 0.1184615288
H   H37       1.0  0.42274  0.61278  0.48233  1.0000 0.1482258135
H   H38       1.0  0.57726  0.11278  0.01767  1.0000 0.1482258135
H   H39       1.0  0.42766  0.68244  0.39090  1.0000 0.1482258135
H   H40       1.0  0.57234  0.18244  0.10910  1.0000 0.1482258135
H   H41       1.0  0.46962  0.77313  0.54098  1.0000 0.1184615288
H   H42       1.0  0.53038  0.27313  0.95902  1.0000 0.1184615288
H   H43       1.0  0.40829  0.84593  0.59114  1.0000 0.1184615288
H   H44       1.0  0.59171  0.34593  0.90886  1.0000 0.1184615288
H   H45       1.0  0.33948  0.92846  0.43261  1.0000 0.1482258135
H   H46       1.0  0.66052  0.42846  0.06739  1.0000 0.1482258135
H   H47       1.0  0.30897  0.84591  0.34682  1.0000 0.1184615288
H   H48       1.0  0.69103  0.34591  0.15318  1.0000 0.1184615288
H   H49       1.0  0.62200  0.96700  0.80000  1.0000 0.2756854966
H   H50       1.0  0.76000  0.98300  0.84700  1.0000 0.2404542267
H   H51       1.0  0.79333  0.85274  0.78009  1.0000 0.1303799763
H   H52       1.0  0.67061  0.89640  0.67322  1.0000 0.1482258135
H   H53       1.0  0.65010  0.82154  0.75111  1.0000 0.1482258135
H   H54       1.0  0.67122  0.85599  0.94000  1.0000 0.1482258135
H   H55       1.0  0.71322  0.95292  0.99299  1.0000 0.1397593022
H   H56       1.0  0.81837  0.88726  0.98779  1.0000 0.1397593022
H   H57       1.0  0.37800  0.46700  0.70000  1.0000 0.2756854966
H   H58       1.0  0.24000  0.48300  0.65300  1.0000 0.2404542267
H   H59       1.0  0.20667  0.35274  0.71991  1.0000 0.1303799763
H   H60       1.0  0.32939  0.39640  0.82678  1.0000 0.1482258135
H   H61       1.0  0.34990  0.32154  0.74889  1.0000 0.1482258135
H   H62       1.0  0.32878  0.35599  0.56000  1.0000 0.1482258135
H   H63       1.0  0.28678  0.45292  0.50701  1.0000 0.1397593022
H   H64       1.0  0.18163  0.38726  0.51221  1.0000 0.1397593022
H   H65       1.0  0.37800  0.03300  0.20000  1.0000 0.2756854966
H   H66       1.0  0.24000  0.01700  0.15300  1.0000 0.2404542267
H   H67       1.0  0.20667  0.14726  0.21991  1.0000 0.1303799763
H   H68       1.0  0.32939  0.10360  0.32678  1.0000 0.1482258135
H   H69       1.0  0.34990  0.17846  0.24889  1.0000 0.1482258135
H   H70       1.0  0.32878  0.14401  0.06000  1.0000 0.1482258135
H   H71       1.0  0.28678  0.04708  0.00701  1.0000 0.1397593022
H   H72       1.0  0.18163  0.11274  0.01221  1.0000 0.1397593022
H   H73       1.0  0.62200  0.53300  0.30000  1.0000 0.2756854966
H   H74       1.0  0.76000  0.51700  0.34700  1.0000 0.2404542267
H   H75       1.0  0.79333  0.64726  0.28009  1.0000 0.1303799763
H   H76       1.0  0.67061  0.60360  0.17322  1.0000 0.1482258135
H   H77       1.0  0.65010  0.67846  0.25111  1.0000 0.1482258135
H   H78       1.0  0.67122  0.64401  0.44000  1.0000 0.1482258135
H   H79       1.0  0.71322  0.54708  0.49299  1.0000 0.1397593022
H   H80       1.0  0.81837  0.61274  0.48779  1.0000 0.1397593022
C   C1        1.0  0.72570  0.24960  0.50890  1.0000 0.1136305332
C   C2        1.0  0.27430  0.74960  0.99110  1.0000 0.1136305332
C   C3        1.0  0.84600  0.19560  0.53360  1.0000 -0.209572956
C   C4        1.0  0.15400  0.69560  0.96640  1.0000 -0.209572956
C   C5        1.0  0.96580  0.24850  0.55280  1.0000 -0.3222021609
C   C6        1.0  0.03420  0.74850  0.94720  1.0000 -0.3222021609
C   C7        1.0  0.08260  0.18960  0.58660  1.0000 0.6168780774
C   C8        1.0  0.91740  0.68960  0.91340  1.0000 0.6168780774
C   C9        1.0  0.74860  0.31690  0.60410  1.0000 -0.1883850758
C   C10       1.0  0.25140  0.81690  0.89590  1.0000 -0.1883850758
C   C11       1.0  0.62740  0.36230  0.59730  1.0000 -0.3260921687
C   C12       1.0  0.37260  0.86230  0.90270  1.0000 -0.3260921687
C   C13       1.0  0.65610  0.43470  0.68590  1.0000 0.6140155047
C   C14       1.0  0.34390  0.93470  0.81410  1.0000 0.6140155047
C   C15       1.0  0.60770  0.18970  0.47890  1.0000 -0.1883850758
C   C16       1.0  0.39230  0.68970  0.02110  1.0000 -0.1883850758
C   C17       1.0  0.62550  0.12820  0.57880  1.0000 -0.3222021609
C   C18       1.0  0.37450  0.62820  0.92120  1.0000 -0.3222021609
C   C19       1.0  0.50530  0.10950  0.59120  1.0000 0.6140155047
C   C20       1.0  0.49470  0.60950  0.90880  1.0000 0.6140155047
C   C21       1.0  0.27430  0.75040  0.49110  1.0000 0.1136305332
C   C22       1.0  0.72570  0.25040  0.00890  1.0000 0.1136305332
C   C23       1.0  0.15400  0.80440  0.46640  1.0000 -0.209572956
C   C24       1.0  0.84600  0.30440  0.03360  1.0000 -0.209572956
C   C25       1.0  0.03420  0.75150  0.44720  1.0000 -0.3222021609
C   C26       1.0  0.96580  0.25150  0.05280  1.0000 -0.3222021609
C   C27       1.0  0.91740  0.81040  0.41340  1.0000 0.6168780774
C   C28       1.0  0.08260  0.31040  0.08660  1.0000 0.6168780774
C   C29       1.0  0.25140  0.68310  0.39590  1.0000 -0.1883850758
C   C30       1.0  0.74860  0.18310  0.10410  1.0000 -0.1883850758
C   C31       1.0  0.37260  0.63770  0.40270  1.0000 -0.3260921687
C   C32       1.0  0.62740  0.13770  0.09730  1.0000 -0.3260921687
C   C33       1.0  0.34390  0.56530  0.31410  1.0000 0.6140155047
C   C34       1.0  0.65610  0.06530  0.18590  1.0000 0.6140155047
C   C35       1.0  0.39230  0.81030  0.52110  1.0000 -0.1883850758
C   C36       1.0  0.60770  0.31030  0.97890  1.0000 -0.1848086417
C   C37       1.0  0.37450  0.87180  0.42120  1.0000 -0.3222021609
C   C38       1.0  0.62550  0.37180  0.07880  1.0000 -0.3222021609
C   C39       1.0  0.49470  0.89050  0.40880  1.0000 0.6140155047
C   C40       1.0  0.50530  0.39050  0.09120  1.0000 0.6140155047
C   C41       1.0  0.70350  0.87200  0.75250  1.0000 -0.2990289554
C   C42       1.0  0.72760  0.90620  0.94750  1.0000 -0.2990289554
C   C43       1.0  0.29650  0.37200  0.74750  1.0000 -0.2990289554
C   C44       1.0  0.27240  0.40620  0.55250  1.0000 -0.2990289554
C   C45       1.0  0.29650  0.12800  0.24750  1.0000 -0.2990289554
C   C46       1.0  0.27240  0.09380  0.05250  1.0000 -0.2990289554
C   C47       1.0  0.70350  0.62800  0.25250  1.0000 -0.2990289554
C   C48       1.0  0.72760  0.59380  0.44750  1.0000 -0.2990289554
N   N1        1.0  0.69450  0.30010  0.39530  1.0000 0.5017641186
N   N2        1.0  0.30550  0.80010  0.10470  1.0000 0.5017641186
N   N3        1.0  0.30550  0.69990  0.60470  1.0000 0.5017641186
N   N4        1.0  0.69450  0.19990  0.89530  1.0000 0.5017641186
N   N5        1.0  0.69820  0.93930  0.83130  1.0000 -0.0947648659
N   N6        1.0  0.30180  0.43930  0.66870  1.0000 -0.0947648659
N   N7        1.0  0.30180  0.06070  0.16870  1.0000 -0.0947648659
N   N8        1.0  0.69820  0.56070  0.33130  1.0000 -0.0947648659
O   O1        1.0  0.39130  0.14878  0.78100  1.0000 -0.6858550757
O   O2        1.0  0.60870  0.64878  0.71900  1.0000 -0.6858550757
O   O3        1.0  0.21820  0.01320  0.53420  1.0000 -0.6600878387
O   O4        1.0  0.78180  0.51320  0.96580  1.0000 -0.6600878387
O   O5        1.0  0.16160  0.20218  0.54540  1.0000 -0.5876096263
O   O6        1.0  0.83840  0.70218  0.95460  1.0000 -0.5876096263
O   O7        1.0  0.10420  0.12893  0.66050  1.0000 -0.5443947166
O   O8        1.0  0.89580  0.62893  0.83950  1.0000 -0.5466439078
O   O9        1.0  0.76080  0.47795  0.72640  1.0000 -0.5466439078
O   O10       1.0  0.23920  0.97795  0.77360  1.0000 -0.5466439078
O   O11       1.0  0.57190  0.45538  0.71820  1.0000 -0.5876096263
O   O12       1.0  0.42810  0.95538  0.78180  1.0000 -0.5876096263
O   O13       1.0  0.50140  0.03924  0.64370  1.0000 -0.6092107743
O   O14       1.0  0.49860  0.53924  0.85630  1.0000 -0.6092107743
O   O15       1.0  0.41020  0.16225  0.55650  1.0000 -0.578593716
O   O16       1.0  0.58980  0.66225  0.94350  1.0000 -0.578593716
O   O17       1.0  0.66830  0.25710  0.30830  1.0000 -0.2857469767
O   O18       1.0  0.33170  0.75710  0.19170  1.0000 -0.2857469767
O   O19       1.0  0.69780  0.38048  0.39550  1.0000 -0.3260921687
O   O20       1.0  0.30220  0.88048  0.10450  1.0000 -0.3260921687
O   O21       1.0  0.60870  0.85122  0.21900  1.0000 -0.6858550757
O   O22       1.0  0.39130  0.35122  0.28100  1.0000 -0.6858550757
O   O23       1.0  0.78180  0.98680  0.46580  1.0000 -0.6600878387
O   O24       1.0  0.21820  0.48680  0.03420  1.0000 -0.6600878387
O   O25       1.0  0.83840  0.79782  0.45460  1.0000 -0.5876096263
O   O26       1.0  0.16160  0.29782  0.04540  1.0000 -0.5876096263
O   O27       1.0  0.89580  0.87107  0.33950  1.0000 -0.5466439078
O   O28       1.0  0.10420  0.37107  0.16050  1.0000 -0.5443947166
O   O29       1.0  0.23920  0.52205  0.27360  1.0000 -0.5466439078
O   O30       1.0  0.76080  0.02205  0.22640  1.0000 -0.5466439078
O   O31       1.0  0.42810  0.54462  0.28180  1.0000 -0.5876096263
O   O32       1.0  0.57190  0.04462  0.21820  1.0000 -0.5876096263
O   O33       1.0  0.49860  0.96076  0.35630  1.0000 -0.6092107743
O   O34       1.0  0.50140  0.46076  0.14370  1.0000 -0.6092107743
O   O35       1.0  0.58980  0.83775  0.44350  1.0000 -0.578593716
O   O36       1.0  0.41020  0.33775  0.05650  1.0000 -0.578593716
O   O37       1.0  0.33170  0.74290  0.69170  1.0000 -0.2857469767
O   O38       1.0  0.66830  0.24290  0.80830  1.0000 -0.2857469767
O   O39       1.0  0.30220  0.61952  0.60450  1.0000 -0.3260921687
O   O40       1.0  0.69780  0.11952  0.89550  1.0000 -0.3260921687
