# DDEC6 charges by PACMAN v1.1 (https://github.com/mtap-research/PACMAN-charge/)
data_2024[Cd][hcb]2[ION]2
_chemical_formula_sum              "Cd4 H72 C60 N16 O24"
_cell_length_a       7.364
_cell_length_b       23.3599
_cell_length_c       19.2032
_cell_angle_alpha    90
_cell_angle_beta     93.423
_cell_angle_gamma    90

_symmetry_space_group_name_H-M    "P 1"
_symmetry_Int_Tables_number       1

loop_
  _symmetry_equiv_pos_as_xyz
  'x, y, z'

loop_
  _atom_site_type_symbol
  _atom_site_label
  _atom_site_symmetry_multiplicity
  _atom_site_fract_x
  _atom_site_fract_y
  _atom_site_fract_z
  _atom_site_occupancy
  _atom_site_charge
Cd  Cd1       1.0  0.58564  0.49423  0.72960  1.0000 0.8136712312
Cd  Cd2       1.0  0.41436  0.99423  0.77040  1.0000 0.8136712312
Cd  Cd3       1.0  0.41436  0.50577  0.27040  1.0000 0.8136712312
Cd  Cd4       1.0  0.58564  0.00577  0.22960  1.0000 0.8136712312
H   H1        1.0  0.66995  0.60191  0.83398  1.0000 0.0924412419
H   H2        1.0  0.33005  0.10191  0.66602  1.0000 0.0924412419
H   H3        1.0  0.33005  0.39809  0.16602  1.0000 0.0924412419
H   H4        1.0  0.66995  0.89809  0.33398  1.0000 0.0924412419
H   H5        1.0  0.61988  0.69918  0.84677  1.0000 0.1310060285
H   H6        1.0  0.38012  0.19918  0.65323  1.0000 0.1310060285
H   H7        1.0  0.38012  0.30082  0.15323  1.0000 0.1310060285
H   H8        1.0  0.61988  0.80082  0.34677  1.0000 0.1310060285
H   H9        1.0  0.44678  0.70491  0.64237  1.0000 0.1310060285
H   H10       1.0  0.55322  0.20491  0.85763  1.0000 0.1310060285
H   H11       1.0  0.55322  0.29509  0.35763  1.0000 0.1310060285
H   H12       1.0  0.44678  0.79509  0.14237  1.0000 0.1310060285
H   H13       1.0  0.50250  0.60758  0.63535  1.0000 0.0666188504
H   H14       1.0  0.49750  0.10758  0.86465  1.0000 0.0666188504
H   H15       1.0  0.49750  0.39242  0.36465  1.0000 0.0666188504
H   H16       1.0  0.50250  0.89242  0.13535  1.0000 0.0666188504
H   H17       1.0  0.36435  0.87408  0.85934  1.0000 0.0784239322
H   H18       1.0  0.63565  0.37408  0.64066  1.0000 0.0784239322
H   H19       1.0  0.63565  0.12592  0.14066  1.0000 0.0784239322
H   H20       1.0  0.36435  0.62592  0.35934  1.0000 0.0784239322
H   H21       1.0  0.42199  0.77668  0.85385  1.0000 0.1310060285
H   H22       1.0  0.57801  0.27668  0.64615  1.0000 0.1310060285
H   H23       1.0  0.57801  0.22332  0.14615  1.0000 0.1310060285
H   H24       1.0  0.42199  0.72332  0.35385  1.0000 0.1310060285
H   H25       1.0  0.53712  0.79746  0.65137  1.0000 0.1310060285
H   H26       1.0  0.46288  0.29746  0.84863  1.0000 0.1310060285
H   H27       1.0  0.46288  0.20254  0.34863  1.0000 0.1310060285
H   H28       1.0  0.53712  0.70254  0.15137  1.0000 0.1310060285
H   H29       1.0  0.47891  0.89441  0.66326  1.0000 0.100381571
H   H30       1.0  0.52109  0.39441  0.83674  1.0000 0.100381571
H   H31       1.0  0.52109  0.10559  0.33674  1.0000 0.100381571
H   H32       1.0  0.47891  0.60559  0.16326  1.0000 0.100381571
H   H33       1.0  0.52922  0.48157  0.90083  1.0000 0.0924412419
H   H34       1.0  0.47078  0.98157  0.59917  1.0000 0.0924412419
H   H35       1.0  0.47078  0.51843  0.09917  1.0000 0.0924412419
H   H36       1.0  0.52922  0.01843  0.40083  1.0000 0.0924412419
H   H37       1.0  0.69818  0.48364  0.00678  1.0000 0.1224278398
H   H38       1.0  0.30182  0.98364  0.49322  1.0000 0.1224278398
H   H39       1.0  0.30182  0.51636  0.99322  1.0000 0.1224278398
H   H40       1.0  0.69818  0.01636  0.50678  1.0000 0.1224278398
H   H41       1.0  0.14930  0.51223  0.90121  1.0000 0.1224278398
H   H42       1.0  0.85070  0.01223  0.59879  1.0000 0.1224278398
H   H43       1.0  0.85070  0.48777  0.09879  1.0000 0.1224278398
H   H44       1.0  0.14930  0.98777  0.40121  1.0000 0.1224278398
H   H45       1.0  0.96815  0.50866  0.79846  1.0000 0.0784239322
H   H46       1.0  0.03185  0.00866  0.70154  1.0000 0.0784239322
H   H47       1.0  0.03185  0.49134  0.20154  1.0000 0.0784239322
H   H48       1.0  0.96815  0.99134  0.29846  1.0000 0.0784239322
H   H49       1.0  0.81463  0.52737  0.62950  1.0000 0.2975023239
H   H50       1.0  0.18537  0.02737  0.87050  1.0000 0.2975023239
H   H51       1.0  0.18537  0.47263  0.37050  1.0000 0.2975023239
H   H52       1.0  0.81463  0.97263  0.12950  1.0000 0.2975023239
H   H53       1.0  0.84844  0.46981  0.63866  1.0000 0.2975023239
H   H54       1.0  0.15156  0.96981  0.86134  1.0000 0.2975023239
H   H55       1.0  0.15156  0.53019  0.36134  1.0000 0.2975023239
H   H56       1.0  0.84844  0.03019  0.13866  1.0000 0.2975023239
H   H57       1.0  0.37118  0.51588  0.61159  1.0000 0.2803157605
H   H58       1.0  0.62882  0.01588  0.88841  1.0000 0.2803157605
H   H59       1.0  0.62882  0.48412  0.38841  1.0000 0.2803157605
H   H60       1.0  0.37118  0.98412  0.11159  1.0000 0.2803157605
H   H61       1.0  0.49270  0.47497  0.59175  1.0000 0.2803157605
H   H62       1.0  0.50730  0.97497  0.90825  1.0000 0.2803157605
H   H63       1.0  0.50730  0.52503  0.40825  1.0000 0.2803157605
H   H64       1.0  0.49270  0.02503  0.09175  1.0000 0.2803157605
H   H65       1.0  0.24019  0.47190  0.76216  1.0000 0.3095414973
H   H66       1.0  0.75981  0.97190  0.73784  1.0000 0.3095414973
H   H67       1.0  0.75981  0.52810  0.23784  1.0000 0.3095414973
H   H68       1.0  0.24019  0.02810  0.26216  1.0000 0.3095414973
H   H69       1.0  0.25761  0.53050  0.76852  1.0000 0.3095414973
H   H70       1.0  0.74239  0.03050  0.73148  1.0000 0.3095414973
H   H71       1.0  0.74239  0.46950  0.23148  1.0000 0.3095414973
H   H72       1.0  0.25761  0.96950  0.26852  1.0000 0.3095414973
C   C1        1.0  0.62330  0.62318  0.79472  1.0000 0.100381571
C   C2        1.0  0.37670  0.12318  0.70528  1.0000 0.0924412419
C   C3        1.0  0.37670  0.37682  0.20528  1.0000 0.0924412419
C   C4        1.0  0.62330  0.87682  0.29472  1.0000 0.0924412419
C   C5        1.0  0.59360  0.68134  0.80286  1.0000 -0.1709466552
C   C6        1.0  0.40640  0.18134  0.69714  1.0000 -0.1709466552
C   C7        1.0  0.40640  0.31866  0.19714  1.0000 -0.1709466552
C   C8        1.0  0.59360  0.81866  0.30286  1.0000 -0.1709466552
C   C9        1.0  0.52480  0.71348  0.74585  1.0000 0.100381571
C   C10       1.0  0.47520  0.21348  0.75415  1.0000 0.100381571
C   C11       1.0  0.47520  0.28652  0.25415  1.0000 0.100381571
C   C12       1.0  0.52480  0.78652  0.24585  1.0000 0.100381571
C   C13       1.0  0.49200  0.68464  0.68265  1.0000 -0.1909836233
C   C14       1.0  0.50800  0.18464  0.81735  1.0000 -0.1909836233
C   C15       1.0  0.50800  0.31536  0.31735  1.0000 -0.1909836233
C   C16       1.0  0.49200  0.81536  0.18265  1.0000 -0.1909836233
C   C17       1.0  0.52550  0.62642  0.67883  1.0000 0.0370326824
C   C18       1.0  0.47450  0.12642  0.82117  1.0000 0.0370326824
C   C19       1.0  0.47450  0.37358  0.32117  1.0000 0.0370326824
C   C20       1.0  0.52550  0.87358  0.17883  1.0000 0.0370326824
C   C21       1.0  0.40110  0.85827  0.81683  1.0000 0.0578336957
C   C22       1.0  0.59890  0.35827  0.68317  1.0000 0.0578336957
C   C23       1.0  0.59890  0.14173  0.18317  1.0000 0.0578336957
C   C24       1.0  0.40110  0.64173  0.31683  1.0000 0.0578336957
C   C25       1.0  0.43450  0.79994  0.81384  1.0000 -0.1909836233
C   C26       1.0  0.56550  0.29994  0.68616  1.0000 -0.1909836233
C   C27       1.0  0.56550  0.20006  0.18616  1.0000 -0.1909836233
C   C28       1.0  0.43450  0.70006  0.31384  1.0000 -0.1909836233
C   C29       1.0  0.48660  0.77554  0.75155  1.0000 0.1051439866
C   C30       1.0  0.51340  0.27554  0.74845  1.0000 0.1051439866
C   C31       1.0  0.51340  0.22446  0.24845  1.0000 0.1051439866
C   C32       1.0  0.48660  0.72446  0.25155  1.0000 0.100381571
C   C33       1.0  0.50260  0.81211  0.69480  1.0000 -0.1790647805
C   C34       1.0  0.49740  0.31211  0.80520  1.0000 -0.1790647805
C   C35       1.0  0.49740  0.18789  0.30520  1.0000 -0.1790647805
C   C36       1.0  0.50260  0.68789  0.19480  1.0000 -0.1790647805
C   C37       1.0  0.46760  0.87007  0.70239  1.0000 0.0924412419
C   C38       1.0  0.53240  0.37007  0.79761  1.0000 0.0924412419
C   C39       1.0  0.53240  0.12993  0.29761  1.0000 0.0924412419
C   C40       1.0  0.46760  0.62993  0.20239  1.0000 0.0924412419
C   C41       1.0  0.65680  0.48770  0.90112  1.0000 0.0784239322
C   C42       1.0  0.34320  0.98770  0.59888  1.0000 0.0784239322
C   C43       1.0  0.34320  0.51230  0.09888  1.0000 0.0784239322
C   C44       1.0  0.65680  0.01230  0.40112  1.0000 0.0784239322
C   C45       1.0  0.75710  0.48913  0.96461  1.0000 -0.1709466552
C   C46       1.0  0.24290  0.98913  0.53539  1.0000 -0.1709466552
C   C47       1.0  0.24290  0.51087  0.03539  1.0000 -0.1709466552
C   C48       1.0  0.75710  0.01087  0.46461  1.0000 -0.1709466552
C   C49       1.0  0.94370  0.49859  0.96652  1.0000 0.1224278398
C   C50       1.0  0.05630  0.99859  0.53348  1.0000 0.1224278398
C   C51       1.0  0.05630  0.50141  0.03348  1.0000 0.1224278398
C   C52       1.0  0.94370  0.00141  0.46652  1.0000 0.1224278398
C   C53       1.0  0.02220  0.50583  0.90266  1.0000 -0.1709466552
C   C54       1.0  0.97780  0.00583  0.59734  1.0000 -0.1709466552
C   C55       1.0  0.97780  0.49417  0.09734  1.0000 -0.1709466552
C   C56       1.0  0.02220  0.99417  0.40266  1.0000 -0.1709466552
C   C57       1.0  0.91290  0.50360  0.84150  1.0000 0.0542033985
C   C58       1.0  0.08710  0.00360  0.65850  1.0000 0.0542033985
C   C59       1.0  0.08710  0.49640  0.15850  1.0000 0.0542033985
C   C60       1.0  0.91290  0.99640  0.34150  1.0000 0.0542033985
N   N1        1.0  0.58930  0.59537  0.73400  1.0000 -0.2898717225
N   N2        1.0  0.41070  0.09537  0.76600  1.0000 -0.2898717225
N   N3        1.0  0.41070  0.40463  0.26600  1.0000 -0.2898717225
N   N4        1.0  0.58930  0.90463  0.23400  1.0000 -0.2898717225
N   N5        1.0  0.41860  0.89345  0.76227  1.0000 -0.2787407488
N   N6        1.0  0.58140  0.39345  0.73773  1.0000 -0.2787407488
N   N7        1.0  0.58140  0.10655  0.23773  1.0000 -0.2787407488
N   N8        1.0  0.41860  0.60655  0.26227  1.0000 -0.2787407488
N   N9        1.0  0.73390  0.49470  0.84010  1.0000 -0.2550401688
N   N10       1.0  0.26610  0.99470  0.65990  1.0000 -0.2547290475
N   N11       1.0  0.26610  0.50530  0.15990  1.0000 -0.2547290475
N   N12       1.0  0.73390  0.00530  0.34010  1.0000 -0.2547290475
N   N13       1.0  0.64960  0.88113  0.49208  1.0000 0.6816155463
N   N14       1.0  0.35040  0.38113  0.00792  1.0000 0.6816155463
N   N15       1.0  0.35040  0.11887  0.50792  1.0000 0.6816155463
N   N16       1.0  0.64960  0.61887  0.99208  1.0000 0.6816155463
O   O1        1.0  0.83570  0.50152  0.66169  1.0000 -0.6792932898
O   O2        1.0  0.16430  0.00152  0.83831  1.0000 -0.6792932898
O   O3        1.0  0.16430  0.49848  0.33831  1.0000 -0.6792932898
O   O4        1.0  0.83570  0.99848  0.16169  1.0000 -0.6792932898
O   O5        1.0  0.41940  0.48318  0.62440  1.0000 -0.6723833084
O   O6        1.0  0.58060  0.98318  0.87560  1.0000 -0.6723833084
O   O7        1.0  0.58060  0.51682  0.37560  1.0000 -0.6723833084
O   O8        1.0  0.41940  0.01682  0.12440  1.0000 -0.6723833084
O   O9        1.0  0.31260  0.49840  0.77994  1.0000 -0.6792932898
O   O10       1.0  0.68740  0.99840  0.72006  1.0000 -0.6792932898
O   O11       1.0  0.68740  0.50160  0.22006  1.0000 -0.6792932898
O   O12       1.0  0.31260  0.00160  0.27994  1.0000 -0.6792932898
O   O13       1.0  0.66740  0.88761  0.55572  1.0000 -0.439011857
O   O14       1.0  0.78180  0.86515  0.45884  1.0000 -0.4493067339
O   O15       1.0  0.49980  0.89195  0.45994  1.0000 -0.4721608013
O   O16       1.0  0.33260  0.38761  0.94428  1.0000 -0.439011857
O   O17       1.0  0.21820  0.36515  0.04116  1.0000 -0.4493067339
O   O18       1.0  0.50020  0.39195  0.04006  1.0000 -0.4721608013
O   O19       1.0  0.33260  0.11239  0.44428  1.0000 -0.439011857
O   O20       1.0  0.21820  0.13485  0.54116  1.0000 -0.4493067339
O   O21       1.0  0.50020  0.10805  0.54006  1.0000 -0.4721608013
O   O22       1.0  0.66740  0.61239  0.05572  1.0000 -0.439011857
O   O23       1.0  0.78180  0.63485  0.95884  1.0000 -0.4493067339
O   O24       1.0  0.49980  0.60805  0.95994  1.0000 -0.4721608013
