# DDEC6 charges by PACMAN v1.1 (https://github.com/mtap-research/PACMAN-charge/)
data_ABESUX_ASR_pacman
_symmetry_space_group_name_H-M   'P 1'
_cell_length_a   10.37950000
_cell_length_b   10.37950000
_cell_length_c   13.01990000
_cell_angle_alpha   90.00000000
_cell_angle_beta   90.00000000
_cell_angle_gamma   96.70460000
_symmetry_Int_Tables_number   1
_chemical_formula_structural   U5(PO4)4
_chemical_formula_sum   'U10 P8 O32'
_cell_volume   1393.09359146
_cell_formula_units_Z   2
loop_
 _symmetry_equiv_pos_site_id
 _symmetry_equiv_pos_as_xyz
  1  'x, y, z'
loop_
 _atom_site_type_symbol
 _atom_site_label
 _atom_site_symmetry_multiplicity
 _atom_site_fract_x
 _atom_site_fract_y
 _atom_site_fract_z
 _atom_site_occupancy
 _atom_site_charge
U  U1  1  0.24561000  0.73465000  0.43733000  1.0 2.0234888399
U  U2  1  0.73465000  0.24561000  0.43733000  1.0 2.0234888399
U  U3  1  0.26535000  0.75439000  0.93733000  1.0 2.0234888399
U  U4  1  0.75439000  0.26535000  0.93733000  1.0 2.0234888399
U  U5  1  0.01548000  0.46166000  0.58577000  1.0 2.027377129
U  U6  1  0.46166000  0.01548000  0.58577000  1.0 2.027377129
U  U7  1  0.53834000  0.98452000  0.08577000  1.0 2.0234888399
U  U8  1  0.98452000  0.53834000  0.08577000  1.0 2.027377129
U  U9  1  0.11612000  0.11612000  0.24394000  1.0 2.1860204542
U  U10  1  0.88388000  0.88388000  0.74394000  1.0 2.1993881071
P  P1  1  0.79550000  0.24090000  0.17570000  1.0 1.3686440279
P  P2  1  0.24090000  0.79550000  0.17570000  1.0 1.3686440279
P  P3  1  0.75910000  0.20450000  0.67570000  1.0 1.3686440279
P  P4  1  0.20450000  0.75910000  0.67570000  1.0 1.3686440279
P  P5  1  0.05540000  0.42880000  0.34450000  1.0 1.3686440279
P  P6  1  0.42880000  0.05540000  0.34450000  1.0 1.3686440279
P  P7  1  0.57120000  0.94460000  0.84450000  1.0 1.3686440279
P  P8  1  0.94460000  0.57120000  0.84450000  1.0 1.3641262853
O  O1  1  0.13030000  0.52530000  0.42050000  1.0 -1.0461739695
O  O2  1  0.52530000  0.13030000  0.42050000  1.0 -1.0461739695
O  O3  1  0.47470000  0.86970000  0.92050000  1.0 -1.0461739695
O  O4  1  0.86970000  0.47470000  0.92050000  1.0 -1.0461739695
O  O5  1  0.82570000  0.36030000  0.10270000  1.0 -1.0395324624
O  O6  1  0.36030000  0.82570000  0.10270000  1.0 -1.0395324624
O  O7  1  0.63970000  0.17430000  0.60270000  1.0 -1.0395324624
O  O8  1  0.17430000  0.63970000  0.60270000  1.0 -1.0395324624
O  O9  1  0.72090000  0.14270000  0.10110000  1.0 -1.0248777068
O  O10  1  0.14270000  0.72090000  0.10110000  1.0 -1.0259002841
O  O11  1  0.85730000  0.27910000  0.60110000  1.0 -1.0248777068
O  O12  1  0.27910000  0.85730000  0.60110000  1.0 -1.0259002841
O  O13  1  0.94460000  0.36260000  0.41410000  1.0 -1.0925666189
O  O14  1  0.36260000  0.94460000  0.41410000  1.0 -1.0925666189
O  O15  1  0.63740000  0.05540000  0.91410000  1.0 -1.0925666189
O  O16  1  0.05540000  0.63740000  0.91410000  1.0 -1.0925666189
O  O17  1  0.71070000  0.27370000  0.26410000  1.0 -0.8684049493
O  O18  1  0.27370000  0.71070000  0.26410000  1.0 -0.8684049493
O  O19  1  0.72630000  0.28930000  0.76410000  1.0 -0.8684049493
O  O20  1  0.28930000  0.72630000  0.76410000  1.0 -0.8684049493
O  O21  1  0.99770000  0.50590000  0.25680000  1.0 -0.901677469
O  O22  1  0.50590000  0.99770000  0.25680000  1.0 -0.901677469
O  O23  1  0.49410000  0.00230000  0.75680000  1.0 -0.901677469
O  O24  1  0.00230000  0.49410000  0.75680000  1.0 -0.901677469
O  O25  1  0.14350000  0.33390000  0.30600000  1.0 -0.9084558284
O  O26  1  0.33390000  0.14350000  0.30600000  1.0 -0.9084558284
O  O27  1  0.66610000  0.85650000  0.80600000  1.0 -0.9084558284
O  O28  1  0.85650000  0.66610000  0.80600000  1.0 -0.9084558284
O  O29  1  0.91600000  0.19080000  0.21350000  1.0 -1.0002043641
O  O30  1  0.19080000  0.91600000  0.21350000  1.0 -1.0002043641
O  O31  1  0.80920000  0.08400000  0.71350000  1.0 -1.0002043641
O  O32  1  0.08400000  0.80920000  0.71350000  1.0 -1.0002043641
