# DDEC6 charges by PACMAN v1.1 (https://github.com/mtap-research/PACMAN-charge/)
data_ABUJIU_FSR_pacman
_symmetry_space_group_name_H-M   'P 1'
_cell_length_a   21.62160000
_cell_length_b   21.62160000
_cell_length_c   24.82700000
_cell_angle_alpha   55.00040000
_cell_angle_beta   125.00000000
_cell_angle_gamma   152.15600000
_symmetry_Int_Tables_number   1
_chemical_formula_structural   Ca2H17C33N3O16
_chemical_formula_sum   'Ca8 H68 C132 N12 O64'
_cell_volume   4373.21934617
_cell_formula_units_Z   4
loop_
 _symmetry_equiv_pos_site_id
 _symmetry_equiv_pos_as_xyz
  1  'x, y, z'
loop_
 _atom_site_type_symbol
 _atom_site_label
 _atom_site_symmetry_multiplicity
 _atom_site_fract_x
 _atom_site_fract_y
 _atom_site_fract_z
 _atom_site_occupancy
 _atom_site_charge
Ca  Ca1  1  0.25399000  0.82395000  0.28030000  1.0 1.1199608118
Ca  Ca2  1  0.07508000  0.48858000  0.34434000  1.0 1.2140699297
Ca  Ca3  1  0.82395000  0.25399000  0.21970000  1.0 1.1199608118
Ca  Ca4  1  0.48858000  0.07508000  0.15566000  1.0 1.2140699297
Ca  Ca5  1  0.74601000  0.17605000  0.71970000  1.0 1.1199608118
Ca  Ca6  1  0.92492000  0.51142000  0.65566000  1.0 1.2155424029
Ca  Ca7  1  0.17605000  0.74601000  0.78030000  1.0 1.1199608118
Ca  Ca8  1  0.51142000  0.92492000  0.84434000  1.0 1.2155424029
H  H1  1  0.62599000  0.46873000  0.41472000  1.0 0.1292994505
H  H2  1  0.88012000  0.71774000  0.74587000  1.0 0.1233567827
H  H3  1  0.56606000  0.98450000  0.34094000  1.0 0.1292994505
H  H4  1  0.74668000  0.31604000  0.27367000  1.0 0.1292994505
H  H5  1  0.82254000  0.77730000  0.63770000  1.0 0.1387312773
H  H6  1  0.85770000  0.59604000  0.27030000  1.0 0.1387312773
H  H7  1  0.47337000  0.21109000  0.27491000  1.0 0.1233567827
H  H8  1  0.55664000  0.51828000  0.40478000  1.0 0.1387312773
H  H9  1  0.85247000  0.10335000  0.50558000  1.0 0.1292994505
H  H10  1  0.46337000  0.72335000  0.51737000  1.0 0.1292994505
H  H11  1  0.28791000  0.89451000  0.39764000  1.0 0.1233567827
H  H12  1  0.27780000  0.68928000  0.53327000  1.0 0.1493029714
H  H13  1  0.38799000  0.79713000  0.57988000  1.0 0.1387312773
H  H14  1  0.43070000  0.83144000  0.52194000  1.0 0.1292994505
H  H15  1  0.36084000  0.96428000  0.48599000  1.0 0.1233567827
H  H16  1  0.43926000  0.95894000  0.55349000  1.0 0.1124613032
H  H17  1  0.28023000  0.83527000  0.54388000  1.0 0.1387312773
H  H18  1  0.46873000  0.62599000  0.08528000  1.0 0.1292994505
H  H19  1  0.71774000  0.88012000  0.75413000  1.0 0.1233567827
H  H20  1  0.98450000  0.56606000  0.15906000  1.0 0.1292994505
H  H21  1  0.31604000  0.74668000  0.22633000  1.0 0.1292994505
H  H22  1  0.77730000  0.82254000  0.86230000  1.0 0.1387312773
H  H23  1  0.59604000  0.85770000  0.22970000  1.0 0.1387312773
H  H24  1  0.21109000  0.47337000  0.22509000  1.0 0.1233567827
H  H25  1  0.51828000  0.55664000  0.09522000  1.0 0.1387312773
H  H26  1  0.10335000  0.85247000  0.99442000  1.0 0.1387312773
H  H27  1  0.72335000  0.46337000  0.98263000  1.0 0.1292994505
H  H28  1  0.89451000  0.28791000  0.10236000  1.0 0.1233567827
H  H29  1  0.68928000  0.27780000  0.96673000  1.0 0.1493029714
H  H30  1  0.79713000  0.38799000  0.92012000  1.0 0.1387312773
H  H31  1  0.83144000  0.43070000  0.97806000  1.0 0.1292994505
H  H32  1  0.96428000  0.36084000  0.01401000  1.0 0.1233567827
H  H33  1  0.95894000  0.43926000  0.94651000  1.0 0.1124613032
H  H34  1  0.83527000  0.28023000  0.95612000  1.0 0.1387312773
H  H35  1  0.37401000  0.53127000  0.58528000  1.0 0.1292994505
H  H36  1  0.11988000  0.28226000  0.25413000  1.0 0.1233567827
H  H37  1  0.43394000  0.01550000  0.65906000  1.0 0.1292994505
H  H38  1  0.25332000  0.68396000  0.72633000  1.0 0.1292994505
H  H39  1  0.17746000  0.22270000  0.36230000  1.0 0.1387312773
H  H40  1  0.14230000  0.40396000  0.72970000  1.0 0.1387312773
H  H41  1  0.52663000  0.78891000  0.72509000  1.0 0.1233567827
H  H42  1  0.44336000  0.48172000  0.59522000  1.0 0.1387312773
H  H43  1  0.14753000  0.89665000  0.49442000  1.0 0.1292994505
H  H44  1  0.53663000  0.27665000  0.48263000  1.0 0.1292994505
H  H45  1  0.71209000  0.10549000  0.60236000  1.0 0.1233567827
H  H46  1  0.72220000  0.31072000  0.46673000  1.0 0.1493029714
H  H47  1  0.61201000  0.20287000  0.42012000  1.0 0.1387312773
H  H48  1  0.56930000  0.16856000  0.47806000  1.0 0.1292994505
H  H49  1  0.63916000  0.03572000  0.51401000  1.0 0.1233567827
H  H50  1  0.56074000  0.04106000  0.44651000  1.0 0.1124613032
H  H51  1  0.71977000  0.16473000  0.45612000  1.0 0.1387312773
H  H52  1  0.53127000  0.37401000  0.91472000  1.0 0.1292994505
H  H53  1  0.28226000  0.11988000  0.24587000  1.0 0.1233567827
H  H54  1  0.01550000  0.43394000  0.84094000  1.0 0.1292994505
H  H55  1  0.68396000  0.25332000  0.77367000  1.0 0.1292994505
H  H56  1  0.22270000  0.17746000  0.13770000  1.0 0.1387312773
H  H57  1  0.40396000  0.14230000  0.77030000  1.0 0.1387312773
H  H58  1  0.78891000  0.52663000  0.77491000  1.0 0.1233567827
H  H59  1  0.48172000  0.44336000  0.90478000  1.0 0.1387312773
H  H60  1  0.89665000  0.14753000  0.00558000  1.0 0.1292994505
H  H61  1  0.27665000  0.53663000  0.01737000  1.0 0.1292994505
H  H62  1  0.10549000  0.71209000  0.89764000  1.0 0.1233567827
H  H63  1  0.31072000  0.72220000  0.03327000  1.0 0.1493029714
H  H64  1  0.20287000  0.61201000  0.07988000  1.0 0.1387312773
H  H65  1  0.16856000  0.56930000  0.02194000  1.0 0.1292994505
H  H66  1  0.03572000  0.63916000  0.98599000  1.0 0.1233567827
H  H67  1  0.04106000  0.56074000  0.05349000  1.0 0.1124613032
H  H68  1  0.16473000  0.71977000  0.04388000  1.0 0.1387312773
C  C1  1  0.55730000  0.52030000  0.25390000  1.0 0.0297677953
C  C2  1  0.55780000  0.52320000  0.19610000  1.0 -0.0695457227
C  C3  1  0.77845000  0.81295000  0.71710000  1.0 0.0237822983
C  C4  1  0.59280000  0.48520000  0.31720000  1.0 -0.0558840588
C  C5  1  0.85256000  0.74284000  0.79330000  1.0 -0.0695457227
C  C6  1  0.77909000  0.80751000  0.66490000  1.0 -0.0558840588
C  C7  1  0.63240000  0.44840000  0.32520000  1.0 0.4392237037
C  C8  1  0.49160000  0.83520000  0.42270000  1.0 -0.0255849545
C  C9  1  0.70490000  0.88810000  0.63750000  1.0 0.4326083556
C  C10  1  0.66130000  0.90750000  0.51800000  1.0 0.1927335978
C  C11  1  0.59680000  0.48860000  0.37170000  1.0 -0.0902138829
C  C12  1  0.85460000  0.74180000  0.73910000  1.0 -0.0902138829
C  C13  1  0.59071000  0.96449000  0.38640000  1.0 -0.128398264
C  C14  1  0.34760000  0.72280000  0.39350000  1.0 0.5596919477
C  C15  1  0.82440000  0.47120000  0.27480000  1.0 0.0059579302
C  C16  1  0.66237000  0.41103000  0.27180000  1.0 0.1927335978
C  C17  1  0.59440000  0.24240000  0.27420000  1.0 -0.0205917383
C  C18  1  0.96970000  0.58270000  0.27490000  1.0 0.5784534484
C  C19  1  0.72500000  0.33920000  0.27410000  1.0 -0.128398264
C  C20  1  0.81910000  0.77590000  0.67500000  1.0 -0.0786406269
C  C21  1  0.78980000  0.50480000  0.27200000  1.0 -0.177872657
C  C22  1  0.59260000  0.48440000  0.20220000  1.0 0.4245664746
C  C23  1  0.56290000  0.27810000  0.27380000  1.0 -0.177872657
C  C24  1  0.55820000  0.52140000  0.36580000  1.0 -0.0786406269
C  C25  1  0.76130000  0.03570000  0.48390000  1.0 -0.177872657
C  C26  1  0.72580000  0.06440000  0.41660000  1.0 -0.0205917383
C  C27  1  0.73690000  0.83890000  0.59560000  1.0 0.4326083556
C  C28  1  0.52950000  0.80890000  0.49090000  1.0 -0.1731645867
C  C29  1  0.83490000  0.20670000  0.38100000  1.0 0.4620643675
C  C30  1  0.47720000  0.09740000  0.27180000  1.0 0.519644466
C  C31  1  0.30710000  0.85790000  0.42370000  1.0 0.2598111898
C  C32  1  0.35890000  0.78510000  0.53460000  1.0 -0.3520590395
C  C33  1  0.35470000  0.90530000  0.52120000  1.0 -0.3890438333
C  C34  1  0.52030000  0.55730000  0.24610000  1.0 0.0297677953
C  C35  1  0.52320000  0.55780000  0.30390000  1.0 -0.0695457227
C  C36  1  0.81295000  0.77845000  0.78290000  1.0 0.0237822983
C  C37  1  0.48520000  0.59280000  0.18280000  1.0 -0.0558840588
C  C38  1  0.74284000  0.85256000  0.70670000  1.0 -0.0695457227
C  C39  1  0.80751000  0.77909000  0.83510000  1.0 -0.0558840588
C  C40  1  0.44840000  0.63240000  0.17480000  1.0 0.4392237037
C  C41  1  0.83520000  0.49160000  0.07730000  1.0 -0.0255849545
C  C42  1  0.88810000  0.70490000  0.86250000  1.0 0.4326083556
C  C43  1  0.90750000  0.66130000  0.98200000  1.0 0.1927335978
C  C44  1  0.48860000  0.59680000  0.12830000  1.0 -0.0902138829
C  C45  1  0.74180000  0.85460000  0.76090000  1.0 -0.0902138829
C  C46  1  0.96449000  0.59071000  0.11360000  1.0 -0.128398264
C  C47  1  0.72280000  0.34760000  0.10650000  1.0 0.5596919477
C  C48  1  0.47120000  0.82440000  0.22520000  1.0 0.0059579302
C  C49  1  0.41103000  0.66237000  0.22820000  1.0 0.1927335978
C  C50  1  0.24240000  0.59440000  0.22580000  1.0 -0.0205917383
C  C51  1  0.58270000  0.96970000  0.22510000  1.0 0.5784534484
C  C52  1  0.33920000  0.72500000  0.22590000  1.0 -0.128398264
C  C53  1  0.77590000  0.81910000  0.82500000  1.0 -0.0786406269
C  C54  1  0.50480000  0.78980000  0.22800000  1.0 -0.177872657
C  C55  1  0.48440000  0.59260000  0.29780000  1.0 0.4245664746
C  C56  1  0.27810000  0.56290000  0.22620000  1.0 -0.177872657
C  C57  1  0.52140000  0.55820000  0.13420000  1.0 -0.0786406269
C  C58  1  0.03570000  0.76130000  0.01610000  1.0 -0.177872657
C  C59  1  0.06440000  0.72580000  0.08340000  1.0 -0.0205917383
C  C60  1  0.83890000  0.73690000  0.90440000  1.0 0.4326083556
C  C61  1  0.80890000  0.52950000  0.00910000  1.0 -0.1731645867
C  C62  1  0.20670000  0.83490000  0.11900000  1.0 0.4620643675
C  C63  1  0.09740000  0.47720000  0.22820000  1.0 0.519644466
C  C64  1  0.85790000  0.30710000  0.07630000  1.0 0.2598111898
C  C65  1  0.78510000  0.35890000  0.96540000  1.0 -0.3520590395
C  C66  1  0.90530000  0.35470000  0.97880000  1.0 -0.3890438333
C  C67  1  0.44270000  0.47970000  0.74610000  1.0 0.0297677953
C  C68  1  0.44220000  0.47680000  0.80390000  1.0 -0.0695457227
C  C69  1  0.22155000  0.18705000  0.28290000  1.0 0.0237822983
C  C70  1  0.40720000  0.51480000  0.68280000  1.0 -0.0558840588
C  C71  1  0.14744000  0.25716000  0.20670000  1.0 -0.0695457227
C  C72  1  0.22091000  0.19249000  0.33510000  1.0 -0.0558840588
C  C73  1  0.36760000  0.55160000  0.67480000  1.0 0.4392237037
C  C74  1  0.50840000  0.16480000  0.57730000  1.0 -0.0255849545
C  C75  1  0.29510000  0.11190000  0.36250000  1.0 0.4326083556
C  C76  1  0.33870000  0.09250000  0.48200000  1.0 0.1927335978
C  C77  1  0.40320000  0.51140000  0.62830000  1.0 -0.0902138829
C  C78  1  0.14540000  0.25820000  0.26090000  1.0 -0.0902138829
C  C79  1  0.40929000  0.03551000  0.61360000  1.0 -0.128398264
C  C80  1  0.65240000  0.27720000  0.60650000  1.0 0.5596919477
C  C81  1  0.17560000  0.52880000  0.72520000  1.0 0.0059579302
C  C82  1  0.33763000  0.58897000  0.72820000  1.0 0.1927335978
C  C83  1  0.40560000  0.75760000  0.72580000  1.0 -0.0205917383
C  C84  1  0.03030000  0.41730000  0.72510000  1.0 0.5784534484
C  C85  1  0.27500000  0.66080000  0.72590000  1.0 -0.128398264
C  C86  1  0.18090000  0.22410000  0.32500000  1.0 -0.0786406269
C  C87  1  0.21020000  0.49520000  0.72800000  1.0 -0.177872657
C  C88  1  0.40740000  0.51560000  0.79780000  1.0 0.4245664746
C  C89  1  0.43710000  0.72190000  0.72620000  1.0 -0.177872657
C  C90  1  0.44180000  0.47860000  0.63420000  1.0 -0.0786406269
C  C91  1  0.23870000  0.96430000  0.51610000  1.0 -0.177872657
C  C92  1  0.27420000  0.93560000  0.58340000  1.0 -0.0205917383
C  C93  1  0.26310000  0.16110000  0.40440000  1.0 0.4326083556
C  C94  1  0.47050000  0.19110000  0.50910000  1.0 -0.1731645867
C  C95  1  0.16510000  0.79330000  0.61900000  1.0 0.4620643675
C  C96  1  0.52280000  0.90260000  0.72820000  1.0 0.519644466
C  C97  1  0.69290000  0.14210000  0.57630000  1.0 0.2598111898
C  C98  1  0.64110000  0.21490000  0.46540000  1.0 -0.3520590395
C  C99  1  0.64530000  0.09470000  0.47880000  1.0 -0.3890438333
C  C100  1  0.47970000  0.44270000  0.75390000  1.0 0.0297677953
C  C101  1  0.47680000  0.44220000  0.69610000  1.0 -0.0695457227
C  C102  1  0.18705000  0.22155000  0.21710000  1.0 0.0237822983
C  C103  1  0.51480000  0.40720000  0.81720000  1.0 -0.0558840588
C  C104  1  0.25716000  0.14744000  0.29330000  1.0 -0.0695457227
C  C105  1  0.19249000  0.22091000  0.16490000  1.0 -0.0558840588
C  C106  1  0.55160000  0.36760000  0.82520000  1.0 0.4392237037
C  C107  1  0.16480000  0.50840000  0.92270000  1.0 -0.0255849545
C  C108  1  0.11190000  0.29510000  0.13750000  1.0 0.4326083556
C  C109  1  0.09250000  0.33870000  0.01800000  1.0 0.1927335978
C  C110  1  0.51140000  0.40320000  0.87170000  1.0 -0.0902138829
C  C111  1  0.25820000  0.14540000  0.23910000  1.0 -0.0902138829
C  C112  1  0.03551000  0.40929000  0.88640000  1.0 -0.128398264
C  C113  1  0.27720000  0.65240000  0.89350000  1.0 0.5596919477
C  C114  1  0.52880000  0.17560000  0.77480000  1.0 0.0059579302
C  C115  1  0.58897000  0.33763000  0.77180000  1.0 0.1927335978
C  C116  1  0.75760000  0.40560000  0.77420000  1.0 -0.0205917383
C  C117  1  0.41730000  0.03030000  0.77490000  1.0 0.5784534484
C  C118  1  0.66080000  0.27500000  0.77410000  1.0 -0.128398264
C  C119  1  0.22410000  0.18090000  0.17500000  1.0 -0.0786406269
C  C120  1  0.49520000  0.21020000  0.77200000  1.0 -0.177872657
C  C121  1  0.51560000  0.40740000  0.70220000  1.0 0.4245664746
C  C122  1  0.72190000  0.43710000  0.77380000  1.0 -0.177872657
C  C123  1  0.47860000  0.44180000  0.86580000  1.0 -0.0786406269
C  C124  1  0.96430000  0.23870000  0.98390000  1.0 -0.177872657
C  C125  1  0.93560000  0.27420000  0.91660000  1.0 -0.0205917383
C  C126  1  0.16110000  0.26310000  0.09560000  1.0 0.4326083556
C  C127  1  0.19110000  0.47050000  0.99090000  1.0 -0.1731645867
C  C128  1  0.79330000  0.16510000  0.88100000  1.0 0.4620643675
C  C129  1  0.90260000  0.52280000  0.77180000  1.0 0.519644466
C  C130  1  0.14210000  0.69290000  0.92370000  1.0 0.2598111898
C  C131  1  0.21490000  0.64110000  0.03460000  1.0 -0.3520590395
C  C132  1  0.09470000  0.64530000  0.02120000  1.0 -0.3890438333
N  N1  1  0.70305000  0.87675000  0.58710000  1.0 -0.2372229315
N  N2  1  0.62730000  0.44810000  0.26680000  1.0 -0.2325129986
N  N3  1  0.33130000  0.84010000  0.48970000  1.0 -0.0054704408
N  N4  1  0.87675000  0.70305000  0.91290000  1.0 -0.2372229315
N  N5  1  0.44810000  0.62730000  0.23320000  1.0 -0.2325129986
N  N6  1  0.84010000  0.33130000  0.01030000  1.0 -0.0054704408
N  N7  1  0.29695000  0.12325000  0.41290000  1.0 -0.2372229315
N  N8  1  0.37270000  0.55190000  0.73320000  1.0 -0.2325129986
N  N9  1  0.66870000  0.15990000  0.51030000  1.0 -0.0054704408
N  N10  1  0.12325000  0.29695000  0.08710000  1.0 -0.2372229315
N  N11  1  0.55190000  0.37270000  0.76680000  1.0 -0.2325129986
N  N12  1  0.15990000  0.66870000  0.98970000  1.0 -0.0049692208
O  O1  1  0.01087000  0.55813000  0.28640000  1.0 -0.613571617
O  O2  1  0.66522000  0.41858000  0.37880000  1.0 -0.4091942638
O  O3  1  0.67720000  0.92580000  0.62600000  1.0 -0.4585951
O  O4  1  0.26720000  0.60880000  0.42760000  1.0 -0.5610125318
O  O5  1  0.73070000  0.82970000  0.54730000  1.0 -0.4347553581
O  O6  1  0.58467000  0.47333000  0.15540000  1.0 -0.4091942638
O  O7  1  0.04580000  0.69940000  0.26460000  1.0 -0.5610125318
O  O8  1  0.49018000  0.06402000  0.25530000  1.0 -0.5888955324
O  O9  1  0.30728000  0.74312000  0.33378000  1.0 -0.6442281633
O  O10  1  0.82257000  0.23783000  0.32020000  1.0 -0.5504858226
O  O11  1  0.43320000  0.01720000  0.33340000  1.0 -0.3321665853
O  O12  1  0.92250000  0.29830000  0.41720000  1.0 -0.2372229315
O  O13  1  0.30910000  0.82670000  0.39490000  1.0 0.000366526
O  O14  1  0.36120000  0.01760000  0.27230000  1.0 -0.3569509566
O  O15  1  0.95840000  0.28260000  0.41140000  1.0 -0.1531655818
O  O16  1  0.19690000  0.74310000  0.38160000  1.0 0.0297677953
O  O17  1  0.55813000  0.01087000  0.21360000  1.0 -0.613571617
O  O18  1  0.41858000  0.66522000  0.12120000  1.0 -0.4091942638
O  O19  1  0.92580000  0.67720000  0.87400000  1.0 -0.4585951
O  O20  1  0.60880000  0.26720000  0.07240000  1.0 -0.5610125318
O  O21  1  0.82970000  0.73070000  0.95270000  1.0 -0.4347553581
O  O22  1  0.47333000  0.58467000  0.34460000  1.0 -0.4091942638
O  O23  1  0.69940000  0.04580000  0.23540000  1.0 -0.5610125318
O  O24  1  0.06402000  0.49018000  0.24470000  1.0 -0.5888955324
O  O25  1  0.74312000  0.30728000  0.16622000  1.0 -0.6442281633
O  O26  1  0.23783000  0.82257000  0.17980000  1.0 -0.5504858226
O  O27  1  0.01720000  0.43320000  0.16660000  1.0 -0.3321665853
O  O28  1  0.29830000  0.92250000  0.08280000  1.0 -0.2372229315
O  O29  1  0.82670000  0.30910000  0.10510000  1.0 0.000366526
O  O30  1  0.01760000  0.36120000  0.22770000  1.0 -0.3569509566
O  O31  1  0.28260000  0.95840000  0.08860000  1.0 -0.1531655818
O  O32  1  0.74310000  0.19690000  0.11840000  1.0 0.0297677953
O  O33  1  0.98913000  0.44187000  0.71360000  1.0 -0.613571617
O  O34  1  0.33478000  0.58142000  0.62120000  1.0 -0.4091942638
O  O35  1  0.32280000  0.07420000  0.37400000  1.0 -0.4585951
O  O36  1  0.73280000  0.39120000  0.57240000  1.0 -0.5610125318
O  O37  1  0.26930000  0.17030000  0.45270000  1.0 -0.4347553581
O  O38  1  0.41533000  0.52667000  0.84460000  1.0 -0.4091942638
O  O39  1  0.95420000  0.30060000  0.73540000  1.0 -0.5610125318
O  O40  1  0.50982000  0.93598000  0.74470000  1.0 -0.5888955324
O  O41  1  0.69272000  0.25688000  0.66622000  1.0 -0.6442281633
O  O42  1  0.17743000  0.76217000  0.67980000  1.0 -0.5504858226
O  O43  1  0.56680000  0.98280000  0.66666667  1.0 -0.3321665853
O  O44  1  0.07750000  0.70170000  0.58280000  1.0 -0.2372229315
O  O45  1  0.69090000  0.17330000  0.60510000  1.0 0.000366526
O  O46  1  0.63880000  0.98240000  0.72770000  1.0 -0.3569509566
O  O47  1  0.04160000  0.71740000  0.58860000  1.0 -0.1531655818
O  O48  1  0.80310000  0.25690000  0.61840000  1.0 0.0297677953
O  O49  1  0.44187000  0.98913000  0.78640000  1.0 -0.613571617
O  O50  1  0.58142000  0.33478000  0.87880000  1.0 -0.4091942638
O  O51  1  0.07420000  0.32280000  0.12600000  1.0 -0.4585951
O  O52  1  0.39120000  0.73280000  0.92760000  1.0 -0.5610125318
O  O53  1  0.17030000  0.26930000  0.04730000  1.0 -0.4347553581
O  O54  1  0.52667000  0.41533000  0.65540000  1.0 -0.4091942638
O  O55  1  0.30060000  0.95420000  0.76460000  1.0 -0.5610125318
O  O56  1  0.93598000  0.50982000  0.75530000  1.0 -0.5888955324
O  O57  1  0.25688000  0.69272000  0.83378000  1.0 -0.6442281633
O  O58  1  0.76217000  0.17743000  0.82020000  1.0 -0.5504858226
O  O59  1  0.98280000  0.56680000  0.83340000  1.0 -0.3321665853
O  O60  1  0.70170000  0.07750000  0.91720000  1.0 -0.2372229315
O  O61  1  0.17330000  0.69090000  0.89490000  1.0 0.000366526
O  O62  1  0.98240000  0.63880000  0.77230000  1.0 -0.3569509566
O  O63  1  0.71740000  0.04160000  0.91140000  1.0 -0.1531655818
O  O64  1  0.25690000  0.80310000  0.88160000  1.0 0.0297677953
