# DDEC6 charges by PACMAN v1.1 (https://github.com/mtap-research/PACMAN-charge/)
data_ACECIV_ASR_pacman
_symmetry_space_group_name_H-M   'P 1'
_cell_length_a   10.60100000
_cell_length_b   26.84100000
_cell_length_c   11.46400000
_cell_angle_alpha   90.00000000
_cell_angle_beta   97.32000000
_cell_angle_gamma   90.00000000
_symmetry_Int_Tables_number   1
_chemical_formula_structural   K6H36Pb6C30S5(NO4)6
_chemical_formula_sum   'K12 H72 Pb12 C60 S10 N12 O48'
_cell_volume   3235.39800966
_cell_formula_units_Z   2
loop_
 _symmetry_equiv_pos_site_id
 _symmetry_equiv_pos_as_xyz
  1  'x, y, z'
loop_
 _atom_site_type_symbol
 _atom_site_label
 _atom_site_symmetry_multiplicity
 _atom_site_fract_x
 _atom_site_fract_y
 _atom_site_fract_z
 _atom_site_occupancy
 _atom_site_charge
K  K1  1  0.51704000  0.37349000  0.68545000  1.0 0.8434327046
K  K2  1  0.48296000  0.62651000  0.31455000  1.0 0.8434327046
K  K3  1  0.98296000  0.87349000  0.81455000  1.0 0.8434327046
K  K4  1  0.01704000  0.12651000  0.18545000  1.0 0.8434327046
K  K5  1  0.90142000  0.49074000  0.63864000  1.0 0.8484650652
K  K6  1  0.09858000  0.50926000  0.36136000  1.0 0.8484650652
K  K7  1  0.59858000  0.99074000  0.86136000  1.0 0.8484650652
K  K8  1  0.40142000  0.00926000  0.13864000  1.0 0.8484650652
K  K9  1  0.81444000  0.24228000  0.61609000  1.0 0.8484650652
K  K10  1  0.18556000  0.75772000  0.38391000  1.0 0.8484650652
K  K11  1  0.68556000  0.74228000  0.88391000  1.0 0.8484650652
K  K12  1  0.31444000  0.25772000  0.11609000  1.0 0.8484650652
H  H1  1  0.81529000  0.32829000  0.83113000  1.0 0.1408402136
H  H2  1  0.18471000  0.67171000  0.16887000  1.0 0.1408402136
H  H3  1  0.68471000  0.82829000  0.66887000  1.0 0.1408402136
H  H4  1  0.31529000  0.17171000  0.33113000  1.0 0.1408402136
H  H5  1  0.81304000  0.39553000  0.82618000  1.0 0.1408402136
H  H6  1  0.18696000  0.60447000  0.17382000  1.0 0.1408402136
H  H7  1  0.68696000  0.89553000  0.67382000  1.0 0.1408402136
H  H8  1  0.31304000  0.10447000  0.32618000  1.0 0.1408402136
H  H9  1  0.93102000  0.36403000  0.92573000  1.0 0.1408402136
H  H10  1  0.06898000  0.63597000  0.07427000  1.0 0.1408402136
H  H11  1  0.56898000  0.86403000  0.57427000  1.0 0.1408402136
H  H12  1  0.43102000  0.13597000  0.42573000  1.0 0.1408402136
H  H13  1  0.23143000  0.54948000  0.69328000  1.0 0.1408402136
H  H14  1  0.76857000  0.45052000  0.30672000  1.0 0.1408402136
H  H15  1  0.26857000  0.04948000  0.80672000  1.0 0.1408402136
H  H16  1  0.73143000  0.95052000  0.19328000  1.0 0.1408402136
H  H17  1  0.38878000  0.52463000  0.73114000  1.0 0.1172348673
H  H18  1  0.61122000  0.47537000  0.26886000  1.0 0.1172348673
H  H19  1  0.11122000  0.02463000  0.76886000  1.0 0.1172348673
H  H20  1  0.88878000  0.97537000  0.23114000  1.0 0.1172348673
H  H21  1  0.27154000  0.51429000  0.82647000  1.0 0.1282677343
H  H22  1  0.72846000  0.48571000  0.17353000  1.0 0.1282677343
H  H23  1  0.22846000  0.01429000  0.67353000  1.0 0.1282677343
H  H24  1  0.77154000  0.98571000  0.32647000  1.0 0.1282677343
H  H25  1  0.66849000  0.35275000  0.15397000  1.0 0.1502820775
H  H26  1  0.33151000  0.64725000  0.84603000  1.0 0.1502820775
H  H27  1  0.83151000  0.85275000  0.34603000  1.0 0.1502820775
H  H28  1  0.16849000  0.14725000  0.65397000  1.0 0.1502820775
H  H29  1  0.69929000  0.40494000  0.06176000  1.0 0.1502820775
H  H30  1  0.30071000  0.59506000  0.93824000  1.0 0.1502820775
H  H31  1  0.80071000  0.90494000  0.43824000  1.0 0.1502820775
H  H32  1  0.19929000  0.09506000  0.56176000  1.0 0.1502820775
H  H33  1  0.70760000  0.34257000  0.00687000  1.0 0.1587081501
H  H34  1  0.29240000  0.65743000  0.99313000  1.0 0.1587081501
H  H35  1  0.79240000  0.84257000  0.49313000  1.0 0.1587081501
H  H36  1  0.20760000  0.15743000  0.50687000  1.0 0.1587081501
H  H37  1  0.28871000  0.22301000  0.76361000  1.0 0.1408402136
H  H38  1  0.71129000  0.77699000  0.23639000  1.0 0.1408402136
H  H39  1  0.21129000  0.72301000  0.73639000  1.0 0.1408402136
H  H40  1  0.78871000  0.27699000  0.26361000  1.0 0.1408402136
H  H41  1  0.16596000  0.24991000  0.65929000  1.0 0.1282677343
H  H42  1  0.83404000  0.75009000  0.34071000  1.0 0.1282677343
H  H43  1  0.33404000  0.74991000  0.84071000  1.0 0.1282677343
H  H44  1  0.66596000  0.25009000  0.15929000  1.0 0.1282677343
H  H45  1  0.12792000  0.22499000  0.79760000  1.0 0.1502820775
H  H46  1  0.87208000  0.77501000  0.20240000  1.0 0.1502820775
H  H47  1  0.37208000  0.72499000  0.70240000  1.0 0.1502820775
H  H48  1  0.62792000  0.27501000  0.29760000  1.0 0.1502820775
H  H49  1  0.35717000  0.26679000  0.57235000  1.0 0.1502820775
H  H50  1  0.64283000  0.73321000  0.42765000  1.0 0.1502820775
H  H51  1  0.14283000  0.76679000  0.92765000  1.0 0.1502820775
H  H52  1  0.85717000  0.23321000  0.07235000  1.0 0.1502820775
H  H53  1  0.50011000  0.25201000  0.50799000  1.0 0.1587081501
H  H54  1  0.49989000  0.74799000  0.49201000  1.0 0.1587081501
H  H55  1  0.99989000  0.75201000  0.99201000  1.0 0.1587081501
H  H56  1  0.00011000  0.24799000  0.00799000  1.0 0.1587081501
H  H57  1  0.34742000  0.23314000  0.43320000  1.0 0.1408402136
H  H58  1  0.65258000  0.76686000  0.56680000  1.0 0.1408402136
H  H59  1  0.15258000  0.73314000  0.06680000  1.0 0.1408402136
H  H60  1  0.84742000  0.26686000  0.93320000  1.0 0.1408402136
H  H61  1  0.93532000  0.37164000  0.26721000  1.0 0.1502820775
H  H62  1  0.06468000  0.62836000  0.73279000  1.0 0.1502820775
H  H63  1  0.56468000  0.87164000  0.23279000  1.0 0.1502820775
H  H64  1  0.43532000  0.12836000  0.76721000  1.0 0.1502820775
H  H65  1  0.97203000  0.34022000  0.13590000  1.0 0.1502820775
H  H66  1  0.02797000  0.65978000  0.86410000  1.0 0.1502820775
H  H67  1  0.52797000  0.84022000  0.36410000  1.0 0.1502820775
H  H68  1  0.47203000  0.15978000  0.63590000  1.0 0.1502820775
H  H69  1  0.94704000  0.40624000  0.13508000  1.0 0.1408402136
H  H70  1  0.05296000  0.59376000  0.86492000  1.0 0.1408402136
H  H71  1  0.55296000  0.90624000  0.36492000  1.0 0.1408402136
H  H72  1  0.44704000  0.09376000  0.63508000  1.0 0.1408402136
Pb  Pb1  1  0.13293000  0.37411000  0.56167000  1.0 1.1135981033
Pb  Pb2  1  0.86707000  0.62589000  0.43833000  1.0 1.1135981033
Pb  Pb3  1  0.36707000  0.87411000  0.93833000  1.0 1.1135981033
Pb  Pb4  1  0.63293000  0.12589000  0.06167000  1.0 1.1135981033
Pb  Pb5  1  0.25978000  0.39063000  0.91158000  1.0 1.0646530936
Pb  Pb6  1  0.74022000  0.60937000  0.08842000  1.0 1.0646530936
Pb  Pb7  1  0.24022000  0.89063000  0.58842000  1.0 1.0646530936
Pb  Pb8  1  0.75978000  0.10937000  0.41158000  1.0 1.0646530936
Pb  Pb9  1  0.39512000  0.39507000  0.27880000  1.0 0.9615522573
Pb  Pb10  1  0.60488000  0.60493000  0.72120000  1.0 0.9615522573
Pb  Pb11  1  0.10488000  0.89507000  0.22120000  1.0 0.9615522573
Pb  Pb12  1  0.89512000  0.10493000  0.77880000  1.0 0.9615522573
C  C1  1  0.96411000  0.36058000  0.74456000  1.0 0.6805480311
C  C2  1  0.03589000  0.63942000  0.25544000  1.0 0.6805480311
C  C3  1  0.53589000  0.86058000  0.75544000  1.0 0.6805480311
C  C4  1  0.46411000  0.13942000  0.24456000  1.0 0.6805480311
C  C5  1  0.87506000  0.36205000  0.83716000  1.0 -0.5299246957
C  C6  1  0.12494000  0.63795000  0.16284000  1.0 -0.5299246957
C  C7  1  0.62494000  0.86205000  0.66284000  1.0 -0.5299246957
C  C8  1  0.37506000  0.13795000  0.33716000  1.0 -0.5299246957
C  C9  1  0.24634000  0.46923000  0.66820000  1.0 0.6882772396
C  C10  1  0.75366000  0.53077000  0.33180000  1.0 0.6882772396
C  C11  1  0.25366000  0.96923000  0.83180000  1.0 0.6882772396
C  C12  1  0.74634000  0.03077000  0.16820000  1.0 0.6882772396
C  C13  1  0.28571000  0.51730000  0.73234000  1.0 -0.51969784
C  C14  1  0.71429000  0.48270000  0.26766000  1.0 -0.51969784
C  C15  1  0.21429000  0.01730000  0.76766000  1.0 -0.51969784
C  C16  1  0.78571000  0.98270000  0.23234000  1.0 -0.51969784
C  C17  1  0.51873000  0.36957000  0.01509000  1.0 0.6805480311
C  C18  1  0.48127000  0.63043000  0.98491000  1.0 0.6805480311
C  C19  1  0.98127000  0.86957000  0.48491000  1.0 0.6805480311
C  C20  1  0.01873000  0.13043000  0.51509000  1.0 0.6805480311
C  C21  1  0.65708000  0.36717000  0.06315000  1.0 -0.5141432335
C  C22  1  0.34292000  0.63283000  0.93685000  1.0 -0.5141432335
C  C23  1  0.84292000  0.86717000  0.43685000  1.0 -0.5141432335
C  C24  1  0.15708000  0.13283000  0.56315000  1.0 -0.5141432335
C  C25  1  0.22629000  0.29504000  0.81064000  1.0 0.6805480311
C  C26  1  0.77371000  0.70496000  0.18936000  1.0 0.6805480311
C  C27  1  0.27371000  0.79504000  0.68936000  1.0 0.6805480311
C  C28  1  0.72629000  0.20496000  0.31064000  1.0 0.6805480311
C  C29  1  0.19943000  0.24521000  0.75412000  1.0 -0.5299246957
C  C30  1  0.80057000  0.75479000  0.24588000  1.0 -0.5299246957
C  C31  1  0.30057000  0.74521000  0.74588000  1.0 -0.5299246957
C  C32  1  0.69943000  0.25479000  0.25412000  1.0 -0.5299246957
C  C33  1  0.38887000  0.31079000  0.42397000  1.0 0.6805480311
C  C34  1  0.61113000  0.68921000  0.57603000  1.0 0.6805480311
C  C35  1  0.11113000  0.81079000  0.07603000  1.0 0.6805480311
C  C36  1  0.88887000  0.18921000  0.92397000  1.0 0.6805480311
C  C37  1  0.39784000  0.26235000  0.48907000  1.0 -0.51969784
C  C38  1  0.60216000  0.73765000  0.51093000  1.0 -0.51969784
C  C39  1  0.10216000  0.76235000  0.01093000  1.0 -0.51969784
C  C40  1  0.89784000  0.23765000  0.98907000  1.0 -0.51969784
C  C41  1  0.12648000  0.38343000  0.22480000  1.0 0.6805480311
C  C42  1  0.87352000  0.61657000  0.77520000  1.0 0.6805480311
C  C43  1  0.37352000  0.88343000  0.27520000  1.0 0.6805480311
C  C44  1  0.62648000  0.11657000  0.72480000  1.0 0.6805480311
C  C45  1  0.98694000  0.37439000  0.18985000  1.0 -0.51969784
C  C46  1  0.01306000  0.62561000  0.81015000  1.0 -0.51969784
C  C47  1  0.51306000  0.87439000  0.31015000  1.0 -0.51969784
C  C48  1  0.48694000  0.12561000  0.68985000  1.0 -0.51969784
C  C49  1  0.58385000  0.25576000  0.82723000  1.0 0.2756458695
C  C50  1  0.41615000  0.74424000  0.17277000  1.0 0.2756458695
C  C51  1  0.91615000  0.75576000  0.67277000  1.0 0.2756458695
C  C52  1  0.08385000  0.24424000  0.32723000  1.0 0.2756458695
C  C53  1  0.81775000  0.38966000  0.47418000  1.0 0.2673347841
C  C54  1  0.18225000  0.61034000  0.52582000  1.0 0.2673347841
C  C55  1  0.68225000  0.88966000  0.02582000  1.0 0.2673347841
C  C56  1  0.31775000  0.11034000  0.97418000  1.0 0.2673347841
C  C57  1  0.60601000  0.48675000  0.61574000  1.0 0.1282677343
C  C58  1  0.39399000  0.51325000  0.38426000  1.0 0.1282677343
C  C59  1  0.89399000  0.98675000  0.88426000  1.0 0.1282677343
C  C60  1  0.10601000  0.01325000  0.11574000  1.0 0.1172348673
S  S1  1  0.53013000  0.22983000  0.94112000  1.0 -0.383083803
S  S2  1  0.46987000  0.77017000  0.05888000  1.0 -0.383083803
S  S3  1  0.96987000  0.72983000  0.55888000  1.0 -0.383083803
S  S4  1  0.03013000  0.27017000  0.44112000  1.0 -0.383083803
S  S5  1  0.68278000  0.36018000  0.45952000  1.0 -0.4135060137
S  S6  1  0.31722000  0.63982000  0.54048000  1.0 -0.4135060137
S  S7  1  0.81722000  0.86018000  0.04048000  1.0 -0.4135060137
S  S8  1  0.18278000  0.13982000  0.95952000  1.0 -0.4135060137
S  S9  1  0.50000000  0.50000000  0.50000000  1.0 0.0546372707
S  S10  1  0.00000000  0.00000000  0.00000000  1.0 0.0553944285
N  N1  1  0.62235000  0.27581000  0.74434000  1.0 -0.6002181818
N  N2  1  0.37765000  0.72419000  0.25566000  1.0 -0.6002181818
N  N3  1  0.87765000  0.77581000  0.75566000  1.0 -0.6002181818
N  N4  1  0.12235000  0.22419000  0.24434000  1.0 -0.6002181818
N  N5  1  0.91865000  0.41153000  0.48167000  1.0 -0.5593628039
N  N6  1  0.08135000  0.58847000  0.51833000  1.0 -0.5593628039
N  N7  1  0.58135000  0.91153000  0.01833000  1.0 -0.5593628039
N  N8  1  0.41865000  0.08847000  0.98167000  1.0 -0.5593628039
N  N9  1  0.66601000  0.47329000  0.70497000  1.0 -0.4790317019
N  N10  1  0.33399000  0.52671000  0.29503000  1.0 -0.4790317019
N  N11  1  0.83399000  0.97329000  0.79503000  1.0 -0.4790317019
N  N12  1  0.16601000  0.02671000  0.20497000  1.0 -0.4790317019
O  O1  1  0.96382000  0.32344000  0.67570000  1.0 -0.6130134463
O  O2  1  0.03618000  0.67656000  0.32430000  1.0 -0.6130134463
O  O3  1  0.53618000  0.82344000  0.82430000  1.0 -0.6130134463
O  O4  1  0.46382000  0.17656000  0.17570000  1.0 -0.6130134463
O  O5  1  0.04020000  0.39884000  0.74041000  1.0 -0.6509368023
O  O6  1  0.95980000  0.60116000  0.25959000  1.0 -0.6509368023
O  O7  1  0.45980000  0.89884000  0.75959000  1.0 -0.6509368023
O  O8  1  0.54020000  0.10116000  0.24041000  1.0 -0.6509368023
O  O9  1  0.15665000  0.46990000  0.58128000  1.0 -0.6509368023
O  O10  1  0.84335000  0.53010000  0.41872000  1.0 -0.6509368023
O  O11  1  0.34335000  0.96990000  0.91872000  1.0 -0.6509368023
O  O12  1  0.65665000  0.03010000  0.08128000  1.0 -0.6509368023
O  O13  1  0.30339000  0.42862000  0.70496000  1.0 -0.6435220738
O  O14  1  0.69661000  0.57138000  0.29504000  1.0 -0.6435220738
O  O15  1  0.19661000  0.92862000  0.79504000  1.0 -0.6435220738
O  O16  1  0.80339000  0.07138000  0.20496000  1.0 -0.6435220738
O  O17  1  0.43368000  0.35807000  0.08188000  1.0 -0.6130134463
O  O18  1  0.56632000  0.64193000  0.91812000  1.0 -0.6130134463
O  O19  1  0.06632000  0.85807000  0.41812000  1.0 -0.6130134463
O  O20  1  0.93368000  0.14193000  0.58188000  1.0 -0.6130134463
O  O21  1  0.48711000  0.38372000  0.90821000  1.0 -0.6002181818
O  O22  1  0.51289000  0.61628000  0.09179000  1.0 -0.6002181818
O  O23  1  0.01289000  0.88372000  0.59179000  1.0 -0.6002181818
O  O24  1  0.98711000  0.11628000  0.40821000  1.0 -0.6002181818
O  O25  1  0.20199000  0.30282000  0.91665000  1.0 -0.6130134463
O  O26  1  0.79801000  0.69718000  0.08335000  1.0 -0.6130134463
O  O27  1  0.29801000  0.80282000  0.58335000  1.0 -0.6130134463
O  O28  1  0.70199000  0.19718000  0.41665000  1.0 -0.6130134463
O  O29  1  0.27411000  0.33022000  0.75248000  1.0 -0.6208286931
O  O30  1  0.72589000  0.66978000  0.24752000  1.0 -0.6208286931
O  O31  1  0.22589000  0.83022000  0.74752000  1.0 -0.6208286931
O  O32  1  0.77411000  0.16978000  0.25248000  1.0 -0.6208286931
O  O33  1  0.39431000  0.30973000  0.31159000  1.0 -0.5691408863
O  O34  1  0.60569000  0.69027000  0.68841000  1.0 -0.5691408863
O  O35  1  0.10569000  0.80973000  0.18841000  1.0 -0.5691408863
O  O36  1  0.89431000  0.19027000  0.81159000  1.0 -0.5691408863
O  O37  1  0.37944000  0.35211000  0.47927000  1.0 -0.6674673607
O  O38  1  0.62056000  0.64789000  0.52073000  1.0 -0.6674673607
O  O39  1  0.12056000  0.85211000  0.02073000  1.0 -0.6674673607
O  O40  1  0.87944000  0.14789000  0.97927000  1.0 -0.6674673607
O  O41  1  0.16666000  0.40631000  0.32179000  1.0 -0.6509368023
O  O42  1  0.83334000  0.59369000  0.67821000  1.0 -0.6509368023
O  O43  1  0.33333333  0.90631000  0.17821000  1.0 -0.6509368023
O  O44  1  0.66666667  0.09369000  0.82179000  1.0 -0.6509368023
O  O45  1  0.20485000  0.36893000  0.15414000  1.0 -0.5846257856
O  O46  1  0.79515000  0.63107000  0.84586000  1.0 -0.5846257856
O  O47  1  0.29515000  0.86893000  0.34586000  1.0 -0.5846257856
O  O48  1  0.70485000  0.13107000  0.65414000  1.0 -0.5846257856
