# DDEC6 charges by PACMAN v1.1 (https://github.com/mtap-research/PACMAN-charge/)
data_ACIBOE_ASR_pacman
_symmetry_space_group_name_H-M   'P 1'
_cell_length_a   17.07130000
_cell_length_b   17.07130000
_cell_length_c   17.07130000
_cell_angle_alpha   105.83000000
_cell_angle_beta   105.83000000
_cell_angle_gamma   117.02900000
_symmetry_Int_Tables_number   1
_chemical_formula_structural   Zn3H6(C9O8)2
_chemical_formula_sum   'Zn12 H24 C72 O64'
_cell_volume   3779.19138672
_cell_formula_units_Z   4
loop_
 _symmetry_equiv_pos_site_id
 _symmetry_equiv_pos_as_xyz
  1  'x, y, z'
loop_
 _atom_site_type_symbol
 _atom_site_label
 _atom_site_symmetry_multiplicity
 _atom_site_fract_x
 _atom_site_fract_y
 _atom_site_fract_z
 _atom_site_occupancy
 _atom_site_charge
Zn  Zn1  1  0.57034000  0.07034000  0.18616000  1.0 0.9863465721
Zn  Zn2  1  0.88418000  0.38418000  0.81384000  1.0 0.9863465721
Zn  Zn3  1  0.38418000  0.57034000  0.50000000  1.0 0.9863465721
Zn  Zn4  1  0.07034000  0.88418000  0.50000000  1.0 0.9863465721
Zn  Zn5  1  0.46155000  0.83860000  0.13731000  1.0 0.9055611635
Zn  Zn6  1  0.70129000  0.32424000  0.86269000  1.0 0.9055611635
Zn  Zn7  1  0.32424000  0.46155000  0.62295000  1.0 0.9055611635
Zn  Zn8  1  0.83860000  0.70129000  0.37705000  1.0 0.9055611635
Zn  Zn9  1  0.96155000  0.82424000  0.62295000  1.0 0.9055611635
Zn  Zn10  1  0.20129000  0.33860000  0.37705000  1.0 0.9055611635
Zn  Zn11  1  0.82424000  0.20129000  0.86269000  1.0 0.9055611635
Zn  Zn12  1  0.33860000  0.96155000  0.13731000  1.0 0.9055611635
H  H1  1  0.02450000  0.05940000  0.39230000  1.0 0.1227861097
H  H2  1  0.66710000  0.63220000  0.60770000  1.0 0.1227861097
H  H3  1  0.63220000  0.02450000  0.96510000  1.0 0.1227861097
H  H4  1  0.05940000  0.66710000  0.03490000  1.0 0.1227861097
H  H5  1  0.52450000  0.13220000  0.96510000  1.0 0.1227861097
H  H6  1  0.16710000  0.55940000  0.03490000  1.0 0.1227861097
H  H7  1  0.13220000  0.16710000  0.60770000  1.0 0.1227861097
H  H8  1  0.55940000  0.52450000  0.39230000  1.0 0.1227861097
H  H9  1  0.84250000  0.14270000  0.31420000  1.0 0.1227861097
H  H10  1  0.82850000  0.52830000  0.68580000  1.0 0.1227861097
H  H11  1  0.52830000  0.84250000  0.69980000  1.0 0.1227861097
H  H12  1  0.14270000  0.82850000  0.30020000  1.0 0.1227861097
H  H13  1  0.34250000  0.02830000  0.69980000  1.0 0.1227861097
H  H14  1  0.32850000  0.64270000  0.30020000  1.0 0.1227861097
H  H15  1  0.02830000  0.32850000  0.68580000  1.0 0.1227861097
H  H16  1  0.64270000  0.34250000  0.31420000  1.0 0.1227861097
H  H17  1  0.73420000  0.87710000  0.31290000  1.0 0.1227861097
H  H18  1  0.56420000  0.42130000  0.68710000  1.0 0.1227861097
H  H19  1  0.42130000  0.73420000  0.85710000  1.0 0.1227861097
H  H20  1  0.87710000  0.56420000  0.14290000  1.0 0.1227861097
H  H21  1  0.23420000  0.92130000  0.85710000  1.0 0.1227861097
H  H22  1  0.06420000  0.37710000  0.14290000  1.0 0.1227861097
H  H23  1  0.92130000  0.06420000  0.68710000  1.0 0.1227861097
H  H24  1  0.37710000  0.23420000  0.31290000  1.0 0.1227861097
C  C1  1  0.88210000  0.95790000  0.35780000  1.0 -0.0383012202
C  C2  1  0.60010000  0.52430000  0.64220000  1.0 -0.0383012202
C  C3  1  0.52430000  0.88210000  0.92420000  1.0 -0.0383012202
C  C4  1  0.95790000  0.60010000  0.07580000  1.0 -0.0383012202
C  C5  1  0.38210000  0.02430000  0.92420000  1.0 -0.0383012202
C  C6  1  0.10010000  0.45790000  0.07580000  1.0 -0.0383012202
C  C7  1  0.02430000  0.10010000  0.64220000  1.0 -0.0383012202
C  C8  1  0.45790000  0.38210000  0.35780000  1.0 -0.0383012202
C  C9  1  0.96130000  0.04610000  0.37160000  1.0 -0.1087714539
C  C10  1  0.67450000  0.58970000  0.62840000  1.0 -0.1087714539
C  C11  1  0.58970000  0.96130000  0.91520000  1.0 -0.1087714539
C  C12  1  0.04610000  0.67450000  0.08480000  1.0 -0.1087714539
C  C13  1  0.46130000  0.08970000  0.91520000  1.0 -0.1087714539
C  C14  1  0.17450000  0.54610000  0.08480000  1.0 -0.1087714539
C  C15  1  0.08970000  0.17450000  0.62840000  1.0 -0.1087714539
C  C16  1  0.54610000  0.46130000  0.37160000  1.0 -0.1087714539
C  C17  1  0.94600000  0.11530000  0.35430000  1.0 -0.0383012202
C  C18  1  0.76100000  0.59170000  0.64570000  1.0 -0.0383012202
C  C19  1  0.59170000  0.94600000  0.83070000  1.0 -0.0383012202
C  C20  1  0.11530000  0.76100000  0.16930000  1.0 -0.0383012202
C  C21  1  0.44600000  0.09170000  0.83070000  1.0 -0.0383012202
C  C22  1  0.26100000  0.61530000  0.16930000  1.0 -0.0383012202
C  C23  1  0.09170000  0.26100000  0.64570000  1.0 -0.0383012202
C  C24  1  0.61530000  0.44600000  0.35430000  1.0 -0.0383012202
C  C25  1  0.85220000  0.09610000  0.32410000  1.0 -0.1087714539
C  C26  1  0.77200000  0.52810000  0.67590000  1.0 -0.1087714539
C  C27  1  0.52810000  0.85220000  0.75610000  1.0 -0.1087714539
C  C28  1  0.09610000  0.77200000  0.24390000  1.0 -0.1087714539
C  C29  1  0.35220000  0.02810000  0.75610000  1.0 -0.1087714539
C  C30  1  0.27200000  0.59610000  0.24390000  1.0 -0.1087714539
C  C31  1  0.02810000  0.27200000  0.67590000  1.0 -0.1087714539
C  C32  1  0.59610000  0.35220000  0.32410000  1.0 -0.1087714539
C  C33  1  0.77210000  0.00650000  0.30860000  1.0 -0.0255221872
C  C34  1  0.69790000  0.46350000  0.69140000  1.0 -0.0255221872
C  C35  1  0.46350000  0.77210000  0.76560000  1.0 -0.0255221872
C  C36  1  0.00650000  0.69790000  0.23440000  1.0 -0.0255221872
C  C37  1  0.27210000  0.96350000  0.76560000  1.0 -0.0255221872
C  C38  1  0.19790000  0.50650000  0.23440000  1.0 -0.0255221872
C  C39  1  0.96350000  0.19790000  0.69140000  1.0 -0.0255221872
C  C40  1  0.50650000  0.27210000  0.30860000  1.0 -0.0255221872
C  C41  1  0.78750000  0.93720000  0.32450000  1.0 -0.1087714539
C  C42  1  0.61270000  0.46300000  0.67550000  1.0 -0.1087714539
C  C43  1  0.46300000  0.78750000  0.85030000  1.0 -0.1087714539
C  C44  1  0.93720000  0.61270000  0.14970000  1.0 -0.1087714539
C  C45  1  0.28750000  0.96300000  0.85030000  1.0 -0.1087714539
C  C46  1  0.11270000  0.43720000  0.14970000  1.0 -0.1087714539
C  C47  1  0.96300000  0.11270000  0.67550000  1.0 -0.1087714539
C  C48  1  0.43720000  0.28750000  0.32450000  1.0 -0.1087714539
C  C49  1  0.39930000  0.02120000  0.01430000  1.0 0.5885114843
C  C50  1  0.00690000  0.38500000  0.98570000  1.0 0.5885114843
C  C51  1  0.38500000  0.39930000  0.37810000  1.0 0.5885114843
C  C52  1  0.02120000  0.00690000  0.62190000  1.0 0.5885114843
C  C53  1  0.89930000  0.88500000  0.37810000  1.0 0.5885114843
C  C54  1  0.50690000  0.52120000  0.62190000  1.0 0.5885114843
C  C55  1  0.88500000  0.50690000  0.98570000  1.0 0.5885114843
C  C56  1  0.52120000  0.89930000  0.01430000  1.0 0.5885114843
C  C57  1  0.02930000  0.20920000  0.36430000  1.0 0.5322912926
C  C58  1  0.84490000  0.66500000  0.63570000  1.0 0.5322912926
C  C59  1  0.66500000  0.02930000  0.82010000  1.0 0.5322912926
C  C60  1  0.20920000  0.84490000  0.17990000  1.0 0.5322912926
C  C61  1  0.52930000  0.16500000  0.82010000  1.0 0.5322912926
C  C62  1  0.34490000  0.70920000  0.17990000  1.0 0.5322912926
C  C63  1  0.16500000  0.34490000  0.63570000  1.0 0.5322912926
C  C64  1  0.70920000  0.52930000  0.36430000  1.0 0.5322912926
C  C65  1  0.66850000  0.98250000  0.26700000  1.0 0.5849878782
C  C66  1  0.71550000  0.40150000  0.73300000  1.0 0.5849878782
C  C67  1  0.40150000  0.66850000  0.68600000  1.0 0.5849878782
C  C68  1  0.98250000  0.71550000  0.31400000  1.0 0.5885114843
C  C69  1  0.16850000  0.90150000  0.68600000  1.0 0.5885114843
C  C70  1  0.21550000  0.48250000  0.31400000  1.0 0.5849878782
C  C71  1  0.90150000  0.21550000  0.73300000  1.0 0.5849878782
C  C72  1  0.48250000  0.16850000  0.26700000  1.0 0.5849878782
O  O1  1  0.32530000  0.95960000  0.01790000  1.0 -0.5325494116
O  O2  1  0.94170000  0.30740000  0.98210000  1.0 -0.5325494116
O  O3  1  0.30740000  0.32530000  0.36570000  1.0 -0.5325494116
O  O4  1  0.95960000  0.94170000  0.63430000  1.0 -0.5325494116
O  O5  1  0.82530000  0.80740000  0.36570000  1.0 -0.5325494116
O  O6  1  0.44170000  0.45960000  0.63430000  1.0 -0.5325494116
O  O7  1  0.80740000  0.44170000  0.98210000  1.0 -0.5325494116
O  O8  1  0.45960000  0.82530000  0.01790000  1.0 -0.5325494116
O  O9  1  0.48480000  0.08110000  0.07970000  1.0 -0.567897529
O  O10  1  0.00140000  0.40510000  0.92030000  1.0 -0.567897529
O  O11  1  0.40510000  0.48480000  0.40370000  1.0 -0.567897529
O  O12  1  0.08110000  0.00140000  0.59630000  1.0 -0.567897529
O  O13  1  0.98480000  0.90510000  0.40370000  1.0 -0.567897529
O  O14  1  0.50140000  0.58110000  0.59630000  1.0 -0.567897529
O  O15  1  0.90510000  0.50140000  0.92030000  1.0 -0.567897529
O  O16  1  0.58110000  0.98480000  0.07970000  1.0 -0.567897529
O  O17  1  0.10580000  0.21190000  0.36530000  1.0 -0.5198949879
O  O18  1  0.84660000  0.74050000  0.63470000  1.0 -0.5198949879
O  O19  1  0.74050000  0.10580000  0.89390000  1.0 -0.5198949879
O  O20  1  0.21190000  0.84660000  0.10610000  1.0 -0.5198949879
O  O21  1  0.60580000  0.24050000  0.89390000  1.0 -0.5198949879
O  O22  1  0.34660000  0.71190000  0.10610000  1.0 -0.5198949879
O  O23  1  0.24050000  0.34660000  0.63470000  1.0 -0.5198949879
O  O24  1  0.71190000  0.60580000  0.36530000  1.0 -0.5198949879
O  O25  1  0.01990000  0.27610000  0.36940000  1.0 -0.3724342665
O  O26  1  0.90670000  0.65050000  0.63060000  1.0 -0.3724342665
O  O27  1  0.65050000  0.01990000  0.74380000  1.0 -0.3724342665
O  O28  1  0.27610000  0.90670000  0.25620000  1.0 -0.3724342665
O  O29  1  0.51990000  0.15050000  0.74380000  1.0 -0.3724342665
O  O30  1  0.40670000  0.77610000  0.25620000  1.0 -0.3724342665
O  O31  1  0.15050000  0.40670000  0.63060000  1.0 -0.3724342665
O  O32  1  0.77610000  0.51990000  0.36940000  1.0 -0.3724342665
O  O33  1  0.66360000  0.05570000  0.28090000  1.0 -0.5497129118
O  O34  1  0.77480000  0.38270000  0.71910000  1.0 -0.5497129118
O  O35  1  0.38270000  0.66360000  0.60790000  1.0 -0.5497129118
O  O36  1  0.05570000  0.77480000  0.39210000  1.0 -0.5497129118
O  O37  1  0.16360000  0.88270000  0.60790000  1.0 -0.5497129118
O  O38  1  0.27480000  0.55570000  0.39210000  1.0 -0.5497129118
O  O39  1  0.88270000  0.27480000  0.71910000  1.0 -0.5497129118
O  O40  1  0.55570000  0.16360000  0.28090000  1.0 -0.5497129118
O  O41  1  0.59660000  0.89050000  0.22090000  1.0 -0.5606895989
O  O42  1  0.66960000  0.37570000  0.77910000  1.0 -0.5606895989
O  O43  1  0.37570000  0.59660000  0.70610000  1.0 -0.5606895989
O  O44  1  0.89050000  0.66960000  0.29390000  1.0 -0.5606895989
O  O45  1  0.09660000  0.87570000  0.70610000  1.0 -0.5606895989
O  O46  1  0.16960000  0.39050000  0.29390000  1.0 -0.5606895989
O  O47  1  0.87570000  0.16960000  0.77910000  1.0 -0.5606895989
O  O48  1  0.39050000  0.09660000  0.22090000  1.0 -0.5606895989
O  O49  1  0.44891000  0.94891000  0.18002000  1.0 -0.5841026312
O  O50  1  0.76889000  0.26889000  0.81998000  1.0 -0.5841026312
O  O51  1  0.26889000  0.44891000  0.50000000  1.0 -0.5841026312
O  O52  1  0.94891000  0.76889000  0.50000000  1.0 -0.5841026312
O  O53  1  0.40170000  0.97550000  0.26260000  1.0 0.3334723519
O  O54  1  0.71290000  0.13910000  0.73740000  1.0 0.3334723519
O  O55  1  0.13910000  0.40170000  0.42620000  1.0 0.3334723519
O  O56  1  0.97550000  0.71290000  0.57380000  1.0 0.3334723519
O  O57  1  0.90170000  0.63910000  0.42620000  1.0 0.3334723519
O  O58  1  0.21290000  0.47550000  0.57380000  1.0 0.3334723519
O  O59  1  0.63910000  0.21290000  0.73740000  1.0 0.3334723519
O  O60  1  0.47550000  0.90170000  0.26260000  1.0 0.3334723519
O  O61  1  0.11120000  0.47160000  0.50000000  1.0 0.0300871166
O  O62  1  0.97160000  0.61120000  0.50000000  1.0 0.0356421763
O  O63  1  0.61120000  0.11120000  0.63960000  1.0 0.0356421763
O  O64  1  0.47160000  0.97160000  0.36040000  1.0 0.0300871166
