# DDEC6 charges by PACMAN v1.1 (https://github.com/mtap-research/PACMAN-charge/)
data_ACMPCD_ASR_pacman
_symmetry_space_group_name_H-M   'P 1'
_cell_length_a   15.96560000
_cell_length_b   15.96560000
_cell_length_c   25.20000000
_cell_angle_alpha   52.12160000
_cell_angle_beta   127.87800000
_cell_angle_gamma   160.71300000
_symmetry_Int_Tables_number   1
_chemical_formula_structural   CdPC9N3O8
_chemical_formula_sum   'Cd4 P4 C36 N12 O32'
_cell_volume   1659.98707613
_cell_formula_units_Z   4
loop_
 _symmetry_equiv_pos_site_id
 _symmetry_equiv_pos_as_xyz
  1  'x, y, z'
loop_
 _atom_site_type_symbol
 _atom_site_label
 _atom_site_symmetry_multiplicity
 _atom_site_fract_x
 _atom_site_fract_y
 _atom_site_fract_z
 _atom_site_occupancy
 _atom_site_charge
Cd  Cd1  1  0.31432000  0.68568000  0.04510000  1.0 1.1487270376
Cd  Cd2  1  0.68568000  0.31432000  0.95490000  1.0 1.1487270376
Cd  Cd3  1  0.37805000  0.84541000  0.57847000  1.0 1.1426306745
Cd  Cd4  1  0.84541000  0.37805000  0.42153000  1.0 1.1426306745
P  P1  1  0.75740000  0.16540000  0.95850000  1.0 1.5183965048
P  P2  1  0.16540000  0.75740000  0.04150000  1.0 1.5183965048
P  P3  1  0.23670000  0.89750000  0.40940000  1.0 1.5183965048
P  P4  1  0.89750000  0.23670000  0.59060000  1.0 1.5183965048
C  C1  1  0.07900000  0.57100000  0.66800000  1.0 0.5730068466
C  C2  1  0.57100000  0.07900000  0.33200000  1.0 0.5730068466
C  C3  1  0.18100000  0.35900000  0.16100000  1.0 0.595484533
C  C4  1  0.35900000  0.18100000  0.83900000  1.0 0.595484533
C  C5  1  0.37100000  0.70900000  0.74400000  1.0 0.4990442178
C  C6  1  0.70900000  0.37100000  0.25600000  1.0 0.4990442178
C  C7  1  0.50300000  0.59300000  0.14000000  1.0 0.5242843112
C  C8  1  0.59300000  0.50300000  0.86000000  1.0 0.5242843112
C  C9  1  0.22900000  0.54500000  0.80000000  1.0 -0.1711876759
C  C10  1  0.54500000  0.22900000  0.20000000  1.0 -0.1711876759
C  C11  1  0.42700000  0.41700000  0.19100000  1.0 -0.1794274965
C  C12  1  0.41700000  0.42700000  0.80900000  1.0 -0.1794274965
C  C13  1  0.03100000  0.42100000  0.78400000  1.0 0.1032080749
C  C14  1  0.42100000  0.03100000  0.21600000  1.0 0.1032080749
C  C15  1  0.25600000  0.24000000  0.22900000  1.0 0.0813103697
C  C16  1  0.24000000  0.25600000  0.77100000  1.0 0.0813103697
C  C17  1  0.70600000  0.26400000  0.69900000  1.0 0.3994941494
C  C18  1  0.26400000  0.70600000  0.30100000  1.0 0.3994941494
C  C19  1  0.90300000  0.99500000  0.25200000  1.0 0.4393066844
C  C20  1  0.99500000  0.90300000  0.74800000  1.0 0.4393066844
C  C21  1  0.75100000  0.41500000  0.68100000  1.0 0.1316912161
C  C22  1  0.41500000  0.75100000  0.31900000  1.0 0.1316912161
C  C23  1  0.06900000  0.13700000  0.31900000  1.0 0.1032080749
C  C24  1  0.13700000  0.06900000  0.68100000  1.0 0.1032080749
C  C25  1  0.73900000  0.37700000  0.74500000  1.0 0.1316912161
C  C26  1  0.37700000  0.73900000  0.25500000  1.0 0.1316912161
C  C27  1  0.06100000  0.03700000  0.36600000  1.0 0.1090398101
C  C28  1  0.03700000  0.06100000  0.63400000  1.0 0.1090398101
C  C29  1  0.47400000  0.05400000  0.77100000  1.0 0.2272960698
C  C30  1  0.05400000  0.47400000  0.22900000  1.0 0.2272960698
C  C31  1  0.84400000  0.78400000  0.35400000  1.0 0.1936368725
C  C32  1  0.78400000  0.84400000  0.64600000  1.0 0.1936368725
C  C33  1  0.46200000  0.97200000  0.84600000  1.0 0.2029515958
C  C34  1  0.97200000  0.46200000  0.15400000  1.0 0.2029515958
C  C35  1  0.89400000  0.70400000  0.39300000  1.0 0.2389096847
C  C36  1  0.70400000  0.89400000  0.60700000  1.0 0.2389096847
N  N1  1  0.94500000  0.42100000  0.71700000  1.0 -0.1711876759
N  N2  1  0.42100000  0.94500000  0.28300000  1.0 -0.1711876759
N  N3  1  0.11900000  0.20300000  0.21200000  1.0 -0.1711876759
N  N4  1  0.20300000  0.11900000  0.78800000  1.0 -0.1711876759
N  N5  1  0.28700000  0.71100000  0.68200000  1.0 -0.4516307631
N  N6  1  0.71100000  0.28700000  0.31800000  1.0 -0.4516307631
N  N7  1  0.36100000  0.54300000  0.12300000  1.0 -0.4875285843
N  N8  1  0.54300000  0.36100000  0.87700000  1.0 -0.4849730352
N  N9  1  0.59800000  0.86400000  0.75900000  1.0 -0.3730697849
N  N10  1  0.86400000  0.59800000  0.24100000  1.0 -0.3730697849
N  N11  1  0.68900000  0.78700000  0.10400000  1.0 -0.4348458567
N  N12  1  0.78700000  0.68900000  0.89600000  1.0 -0.4348458567
O  O1  1  0.99600000  0.57000000  0.61000000  1.0 -0.4229769478
O  O2  1  0.57000000  0.99600000  0.39000000  1.0 -0.4229769478
O  O3  1  0.06100000  0.32700000  0.14600000  1.0 -0.4609393695
O  O4  1  0.32700000  0.06100000  0.85400000  1.0 -0.4609393695
O  O5  1  0.55100000  0.06500000  0.75100000  1.0 -0.1925694043
O  O6  1  0.06500000  0.55100000  0.24900000  1.0 -0.1925694043
O  O7  1  0.82100000  0.81500000  0.28500000  1.0 -0.1794274965
O  O8  1  0.81500000  0.82100000  0.71500000  1.0 -0.1794274965
O  O9  1  0.54700000  0.30100000  0.63600000  1.0 -0.2456742147
O  O10  1  0.30100000  0.54700000  0.36400000  1.0 -0.2456742147
O  O11  1  0.88300000  0.02100000  0.32500000  1.0 -0.2037502
O  O12  1  0.02100000  0.88300000  0.67500000  1.0 -0.2037502
O  O13  1  0.69300000  0.41900000  0.75000000  1.0 -0.3041354338
O  O14  1  0.41900000  0.69300000  0.25000000  1.0 -0.3041354338
O  O15  1  0.08900000  0.04900000  0.42800000  1.0 -0.1486346567
O  O16  1  0.04900000  0.08900000  0.57200000  1.0 -0.1486346567
O  O17  1  0.70700000  0.16700000  0.88200000  1.0 -0.4093873718
O  O18  1  0.16700000  0.70700000  0.11800000  1.0 -0.4093873718
O  O19  1  0.13600000  0.91800000  0.38000000  1.0 -0.4361741612
O  O20  1  0.91800000  0.13600000  0.62000000  1.0 -0.4361741612
O  O21  1  0.59100000  0.07300000  0.96900000  1.0 -0.7851422051
O  O22  1  0.07300000  0.59100000  0.03100000  1.0 -0.7851422051
O  O23  1  0.14600000  0.73400000  0.47800000  1.0 -0.7771736601
O  O24  1  0.73400000  0.14600000  0.52200000  1.0 -0.7771736601
O  O25  1  0.66200000  0.96800000  0.99800000  1.0 -0.6966866771
O  O26  1  0.96800000  0.66200000  0.00200000  1.0 -0.6966866771
O  O27  1  0.12300000  0.76700000  0.36400000  1.0 -0.7203263411
O  O28  1  0.76700000  0.12300000  0.63600000  1.0 -0.7203263411
O  O29  1  0.03600000  0.43600000  0.96900000  1.0 -0.7203263411
O  O30  1  0.43600000  0.03600000  0.03100000  1.0 -0.7203263411
O  O31  1  0.52800000  0.17800000  0.41400000  1.0 -0.7396022299
O  O32  1  0.17800000  0.52800000  0.58600000  1.0 -0.7396022299
