# DDEC6 charges by PACMAN v1.1 (https://github.com/mtap-research/PACMAN-charge/)
data_ADATUW_FSR_pacman
_symmetry_space_group_name_H-M   'P 1'
_cell_length_a   22.14770000
_cell_length_b   22.14770000
_cell_length_c   22.14770000
_cell_angle_alpha   109.47100000
_cell_angle_beta   109.47100000
_cell_angle_gamma   109.47100000
_symmetry_Int_Tables_number   1
_chemical_formula_structural   Ag3H72(C39N10)2
_chemical_formula_sum   'Ag6 H144 C156 N40'
_cell_volume   8363.10507573
_cell_formula_units_Z   2
loop_
 _symmetry_equiv_pos_site_id
 _symmetry_equiv_pos_as_xyz
  1  'x, y, z'
loop_
 _atom_site_type_symbol
 _atom_site_label
 _atom_site_symmetry_multiplicity
 _atom_site_fract_x
 _atom_site_fract_y
 _atom_site_fract_z
 _atom_site_occupancy
 _atom_site_charge
Ag  Ag1  1  0.89133000  0.25000000  0.14133000  1.0 0.2514435343
Ag  Ag2  1  0.60867000  0.75000000  0.35867000  1.0 0.2514435343
Ag  Ag3  1  0.14133000  0.89133000  0.25000000  1.0 0.2514435343
Ag  Ag4  1  0.35867000  0.60867000  0.75000000  1.0 0.2514435343
Ag  Ag5  1  0.25000000  0.14133000  0.89133000  1.0 0.2514435343
Ag  Ag6  1  0.75000000  0.35867000  0.60867000  1.0 0.2514435343
H  H1  1  0.09700000  0.34880000  0.17740000  1.0 0.2514435343
H  H2  1  0.67140000  0.91960000  0.32260000  1.0 0.2514435343
H  H3  1  0.82860000  0.15120000  0.24820000  1.0 0.2514435343
H  H4  1  0.40300000  0.58040000  0.25180000  1.0 0.2514435343
H  H5  1  0.17740000  0.09700000  0.34880000  1.0 0.2514435343
H  H6  1  0.32260000  0.67140000  0.91960000  1.0 0.2514435343
H  H7  1  0.24820000  0.82860000  0.15120000  1.0 0.2514435343
H  H8  1  0.25180000  0.40300000  0.58040000  1.0 0.2514435343
H  H9  1  0.34880000  0.17740000  0.09700000  1.0 0.2514435343
H  H10  1  0.91960000  0.32260000  0.67140000  1.0 0.2514435343
H  H11  1  0.15120000  0.24820000  0.82860000  1.0 0.2514435343
H  H12  1  0.58040000  0.25180000  0.40300000  1.0 0.2514435343
H  H13  1  0.82390000  0.21950000  0.97920000  1.0 0.1001244496
H  H14  1  0.74030000  0.84470000  0.52080000  1.0 0.1001244496
H  H15  1  0.75970000  0.28050000  0.10440000  1.0 0.1001244496
H  H16  1  0.67610000  0.65530000  0.39560000  1.0 0.1001244496
H  H17  1  0.97920000  0.82390000  0.21950000  1.0 0.1001244496
H  H18  1  0.52080000  0.74030000  0.84470000  1.0 0.1001244496
H  H19  1  0.10440000  0.75970000  0.28050000  1.0 0.1001244496
H  H20  1  0.39560000  0.67610000  0.65530000  1.0 0.1001244496
H  H21  1  0.21950000  0.97920000  0.82390000  1.0 0.1001244496
H  H22  1  0.84470000  0.52080000  0.74030000  1.0 0.1001244496
H  H23  1  0.28050000  0.10440000  0.75970000  1.0 0.1001244496
H  H24  1  0.65530000  0.39560000  0.67610000  1.0 0.1001244496
H  H25  1  0.86380000  0.22580000  0.89200000  1.0 0.1188546767
H  H26  1  0.83380000  0.97180000  0.60800000  1.0 0.1188546767
H  H27  1  0.66620000  0.27420000  0.13800000  1.0 0.1188546767
H  H28  1  0.63620000  0.52820000  0.36200000  1.0 0.1188546767
H  H29  1  0.89200000  0.86380000  0.22580000  1.0 0.1188546767
H  H30  1  0.60800000  0.83380000  0.97180000  1.0 0.1188546767
H  H31  1  0.13800000  0.66620000  0.27420000  1.0 0.1188546767
H  H32  1  0.36200000  0.63620000  0.52820000  1.0 0.1188546767
H  H33  1  0.22580000  0.89200000  0.86380000  1.0 0.1188546767
H  H34  1  0.97180000  0.60800000  0.83380000  1.0 0.1188546767
H  H35  1  0.27420000  0.13800000  0.66620000  1.0 0.1188546767
H  H36  1  0.52820000  0.36200000  0.63620000  1.0 0.1188546767
H  H37  1  0.99460000  0.30610000  0.94190000  1.0 0.1090541239
H  H38  1  0.86420000  0.05270000  0.55810000  1.0 0.1090541239
H  H39  1  0.63580000  0.19390000  0.18850000  1.0 0.1090541239
H  H40  1  0.50540000  0.44730000  0.31150000  1.0 0.1090541239
H  H41  1  0.94190000  0.99460000  0.30610000  1.0 0.1090541239
H  H42  1  0.55810000  0.86420000  0.05270000  1.0 0.1090541239
H  H43  1  0.18850000  0.63580000  0.19390000  1.0 0.1090541239
H  H44  1  0.31150000  0.50540000  0.44730000  1.0 0.1090541239
H  H45  1  0.30610000  0.94190000  0.99460000  1.0 0.1090541239
H  H46  1  0.05270000  0.55810000  0.86420000  1.0 0.1090541239
H  H47  1  0.19390000  0.18850000  0.63580000  1.0 0.1090541239
H  H48  1  0.44730000  0.31150000  0.50540000  1.0 0.1090541239
H  H49  1  0.07800000  0.33930000  0.05410000  1.0 0.1420650839
H  H50  1  0.78520000  0.02390000  0.44590000  1.0 0.1420650839
H  H51  1  0.71480000  0.16070000  0.23870000  1.0 0.1420650839
H  H52  1  0.42200000  0.47610000  0.26130000  1.0 0.1420650839
H  H53  1  0.05410000  0.07800000  0.33930000  1.0 0.1420650839
H  H54  1  0.44590000  0.78520000  0.02390000  1.0 0.1420650839
H  H55  1  0.23870000  0.71480000  0.16070000  1.0 0.1420650839
H  H56  1  0.26130000  0.42200000  0.47610000  1.0 0.1420650839
H  H57  1  0.33930000  0.05410000  0.07800000  1.0 0.1420650839
H  H58  1  0.02390000  0.44590000  0.78520000  1.0 0.1420650839
H  H59  1  0.16070000  0.23870000  0.71480000  1.0 0.1420650839
H  H60  1  0.47610000  0.26130000  0.42200000  1.0 0.1420650839
H  H61  1  0.15560000  0.35710000  0.24710000  1.0 0.1188546767
H  H62  1  0.61000000  0.90850000  0.25290000  1.0 0.1188546767
H  H63  1  0.89000000  0.14290000  0.29850000  1.0 0.1188546767
H  H64  1  0.34440000  0.59150000  0.20150000  1.0 0.1188546767
H  H65  1  0.24710000  0.15560000  0.35710000  1.0 0.1188546767
H  H66  1  0.25290000  0.61000000  0.90850000  1.0 0.1188546767
H  H67  1  0.29850000  0.89000000  0.14290000  1.0 0.1188546767
H  H68  1  0.20150000  0.34440000  0.59150000  1.0 0.1188546767
H  H69  1  0.35710000  0.24710000  0.15560000  1.0 0.1188546767
H  H70  1  0.90850000  0.25290000  0.61000000  1.0 0.1188546767
H  H71  1  0.14290000  0.29850000  0.89000000  1.0 0.1188546767
H  H72  1  0.59150000  0.20150000  0.34440000  1.0 0.1188546767
H  H73  1  0.16640000  0.33270000  0.30690000  1.0 0.1420650839
H  H74  1  0.52580000  0.85950000  0.19310000  1.0 0.1420650839
H  H75  1  0.97420000  0.16730000  0.33370000  1.0 0.1420650839
H  H76  1  0.33360000  0.64050000  0.16630000  1.0 0.1420650839
H  H77  1  0.30690000  0.16640000  0.33270000  1.0 0.1420650839
H  H78  1  0.19310000  0.52580000  0.85950000  1.0 0.1420650839
H  H79  1  0.33370000  0.97420000  0.16730000  1.0 0.1420650839
H  H80  1  0.16630000  0.33360000  0.64050000  1.0 0.1420650839
H  H81  1  0.33270000  0.30690000  0.16640000  1.0 0.1420650839
H  H82  1  0.85950000  0.19310000  0.52580000  1.0 0.1420650839
H  H83  1  0.16730000  0.33370000  0.97420000  1.0 0.1420650839
H  H84  1  0.64050000  0.16630000  0.33360000  1.0 0.1420650839
H  H85  1  0.18740000  0.41500000  0.32960000  1.0 0.1420650839
H  H86  1  0.58540000  0.85780000  0.17040000  1.0 0.1420650839
H  H87  1  0.91460000  0.08500000  0.27240000  1.0 0.1420650839
H  H88  1  0.31260000  0.64220000  0.22760000  1.0 0.1420650839
H  H89  1  0.32960000  0.18740000  0.41500000  1.0 0.1420650839
H  H90  1  0.17040000  0.58540000  0.85780000  1.0 0.1420650839
H  H91  1  0.27240000  0.91460000  0.08500000  1.0 0.1420650839
H  H92  1  0.22760000  0.31260000  0.64220000  1.0 0.1420650839
H  H93  1  0.41500000  0.32960000  0.18740000  1.0 0.1420650839
H  H94  1  0.85780000  0.17040000  0.58540000  1.0 0.1420650839
H  H95  1  0.08500000  0.27240000  0.91460000  1.0 0.1420650839
H  H96  1  0.64220000  0.22760000  0.31260000  1.0 0.1420650839
H  H97  1  0.13210000  0.33960000  0.39350000  1.0 0.1001244496
H  H98  1  0.44610000  0.73860000  0.10650000  1.0 0.1001244496
H  H99  1  0.05390000  0.16040000  0.29250000  1.0 0.1001244496
H  H100  1  0.36790000  0.76140000  0.20750000  1.0 0.1001244496
H  H101  1  0.39350000  0.13210000  0.33960000  1.0 0.1001244496
H  H102  1  0.10650000  0.44610000  0.73860000  1.0 0.1001244496
H  H103  1  0.29250000  0.05390000  0.16040000  1.0 0.1001244496
H  H104  1  0.20750000  0.36790000  0.76140000  1.0 0.1001244496
H  H105  1  0.33960000  0.39350000  0.13210000  1.0 0.1001244496
H  H106  1  0.73860000  0.10650000  0.44610000  1.0 0.1001244496
H  H107  1  0.16040000  0.29250000  0.05390000  1.0 0.1001244496
H  H108  1  0.76140000  0.20750000  0.36790000  1.0 0.1001244496
H  H109  1  0.09540000  0.34590000  0.48290000  1.0 0.1188546767
H  H110  1  0.36300000  0.61250000  0.01710000  1.0 0.1188546767
H  H111  1  0.13700000  0.15410000  0.24950000  1.0 0.1188546767
H  H112  1  0.40460000  0.88750000  0.25050000  1.0 0.1188546767
H  H113  1  0.48290000  0.09540000  0.34590000  1.0 0.1188546767
H  H114  1  0.01710000  0.36300000  0.61250000  1.0 0.1188546767
H  H115  1  0.24950000  0.13700000  0.15410000  1.0 0.1188546767
H  H116  1  0.25050000  0.40460000  0.88750000  1.0 0.1188546767
H  H117  1  0.34590000  0.48290000  0.09540000  1.0 0.1188546767
H  H118  1  0.61250000  0.01710000  0.36300000  1.0 0.1188546767
H  H119  1  0.15410000  0.24950000  0.13700000  1.0 0.1188546767
H  H120  1  0.88750000  0.25050000  0.40460000  1.0 0.1188546767
H  H121  1  0.93550000  0.38130000  0.37480000  1.0 0.1188546767
H  H122  1  0.50650000  0.56070000  0.12520000  1.0 0.1188546767
H  H123  1  0.99350000  0.11870000  0.05420000  1.0 0.1188546767
H  H124  1  0.56450000  0.93930000  0.44580000  1.0 0.1188546767
H  H125  1  0.37480000  0.93550000  0.38130000  1.0 0.1188546767
H  H126  1  0.12520000  0.50650000  0.56070000  1.0 0.1188546767
H  H127  1  0.05420000  0.99350000  0.11870000  1.0 0.1188546767
H  H128  1  0.44580000  0.56450000  0.93930000  1.0 0.1188546767
H  H129  1  0.38130000  0.37480000  0.93550000  1.0 0.1188546767
H  H130  1  0.56070000  0.12520000  0.50650000  1.0 0.1188546767
H  H131  1  0.11870000  0.05420000  0.99350000  1.0 0.1188546767
H  H132  1  0.93930000  0.44580000  0.56450000  1.0 0.1188546767
H  H133  1  0.96180000  0.36700000  0.28260000  1.0 0.1090541239
H  H134  1  0.58440000  0.67920000  0.21740000  1.0 0.1090541239
H  H135  1  0.91560000  0.13300000  0.09480000  1.0 0.1090541239
H  H136  1  0.53820000  0.82080000  0.40520000  1.0 0.1090541239
H  H137  1  0.28260000  0.96180000  0.36700000  1.0 0.1090541239
H  H138  1  0.21740000  0.58440000  0.67920000  1.0 0.1090541239
H  H139  1  0.09480000  0.91560000  0.13300000  1.0 0.1090541239
H  H140  1  0.40520000  0.53820000  0.82080000  1.0 0.1090541239
H  H141  1  0.36700000  0.28260000  0.96180000  1.0 0.1090541239
H  H142  1  0.67920000  0.21740000  0.58440000  1.0 0.1090541239
H  H143  1  0.13300000  0.09480000  0.91560000  1.0 0.1090541239
H  H144  1  0.82080000  0.40520000  0.53820000  1.0 0.1090541239
C  C1  1  0.87360000  0.23920000  0.99280000  1.0 0.0691239479
C  C2  1  0.74640000  0.88080000  0.50720000  1.0 0.0691239479
C  C3  1  0.75360000  0.26080000  0.13440000  1.0 0.0691239479
C  C4  1  0.62640000  0.61920000  0.36560000  1.0 0.0691239479
C  C5  1  0.99280000  0.87360000  0.23920000  1.0 0.0691239479
C  C6  1  0.50720000  0.74640000  0.88080000  1.0 0.0691239479
C  C7  1  0.13440000  0.75360000  0.26080000  1.0 0.0691239479
C  C8  1  0.36560000  0.62640000  0.61920000  1.0 0.0691239479
C  C9  1  0.23920000  0.99280000  0.87360000  1.0 0.0691239479
C  C10  1  0.88080000  0.50720000  0.74640000  1.0 0.0691239479
C  C11  1  0.26080000  0.13440000  0.75360000  1.0 0.0691239479
C  C12  1  0.61920000  0.36560000  0.62640000  1.0 0.0691239479
C  C13  1  0.89760000  0.24770000  0.94190000  1.0 -0.1880065483
C  C14  1  0.80580000  0.95570000  0.55810000  1.0 -0.1880065483
C  C15  1  0.69420000  0.25230000  0.14990000  1.0 -0.1880065483
C  C16  1  0.60240000  0.54430000  0.35010000  1.0 -0.1880065483
C  C17  1  0.94190000  0.89760000  0.24770000  1.0 -0.1880065483
C  C18  1  0.55810000  0.80580000  0.95570000  1.0 -0.1880065483
C  C19  1  0.14990000  0.69420000  0.25230000  1.0 -0.1880065483
C  C20  1  0.35010000  0.60240000  0.54430000  1.0 -0.1880065483
C  C21  1  0.24770000  0.94190000  0.89760000  1.0 -0.1880065483
C  C22  1  0.95570000  0.55810000  0.80580000  1.0 -0.1880065483
C  C23  1  0.25230000  0.14990000  0.69420000  1.0 -0.1880065483
C  C24  1  0.54430000  0.35010000  0.60240000  1.0 -0.1880065483
C  C25  1  0.97870000  0.29290000  0.97180000  1.0 -0.0331502663
C  C26  1  0.82110000  0.00690000  0.52820000  1.0 -0.0331502663
C  C27  1  0.67890000  0.20710000  0.18580000  1.0 -0.0331502663
C  C28  1  0.52130000  0.49310000  0.31420000  1.0 -0.0331502663
C  C29  1  0.97180000  0.97870000  0.29290000  1.0 -0.0331502663
C  C30  1  0.52820000  0.82110000  0.00690000  1.0 -0.0331502663
C  C31  1  0.18580000  0.67890000  0.20710000  1.0 -0.0331502663
C  C32  1  0.31420000  0.52130000  0.49310000  1.0 -0.0331502663
C  C33  1  0.29290000  0.97180000  0.97870000  1.0 -0.0331502663
C  C34  1  0.00690000  0.52820000  0.82110000  1.0 -0.0331502663
C  C35  1  0.20710000  0.18580000  0.67890000  1.0 -0.0331502663
C  C36  1  0.49310000  0.31420000  0.52130000  1.0 -0.0331502663
C  C37  1  0.02790000  0.31470000  0.03840000  1.0 -0.2274139326
C  C38  1  0.77630000  0.98950000  0.46160000  1.0 -0.2274139326
C  C39  1  0.72370000  0.18530000  0.21320000  1.0 -0.2274139326
C  C40  1  0.47210000  0.51050000  0.28680000  1.0 -0.2274139326
C  C41  1  0.03840000  0.02790000  0.31470000  1.0 -0.2274139326
C  C42  1  0.46160000  0.77630000  0.98950000  1.0 -0.2274139326
C  C43  1  0.21320000  0.72370000  0.18530000  1.0 -0.2274139326
C  C44  1  0.28680000  0.47210000  0.51050000  1.0 -0.2274139326
C  C45  1  0.31470000  0.03840000  0.02790000  1.0 -0.2274139326
C  C46  1  0.98950000  0.46160000  0.77630000  1.0 -0.2274139326
C  C47  1  0.18530000  0.21320000  0.72370000  1.0 -0.2274139326
C  C48  1  0.51050000  0.28680000  0.47210000  1.0 -0.2274139326
C  C49  1  0.00370000  0.29990000  0.08720000  1.0 0.3041251444
C  C50  1  0.71270000  0.91650000  0.41280000  1.0 0.3050751082
C  C51  1  0.78730000  0.20010000  0.20380000  1.0 0.3041251444
C  C52  1  0.49630000  0.58350000  0.29620000  1.0 0.3041251444
C  C53  1  0.08720000  0.00370000  0.29990000  1.0 0.3041251444
C  C54  1  0.41280000  0.71270000  0.91650000  1.0 0.3050751082
C  C55  1  0.20380000  0.78730000  0.20010000  1.0 0.3050751082
C  C56  1  0.29620000  0.49630000  0.58350000  1.0 0.3050751082
C  C57  1  0.29990000  0.08720000  0.00370000  1.0 0.3041251444
C  C58  1  0.91650000  0.41280000  0.71270000  1.0 0.3050751082
C  C59  1  0.20010000  0.20380000  0.78730000  1.0 0.3041251444
C  C60  1  0.58350000  0.29620000  0.49630000  1.0 0.3050751082
C  C61  1  0.07210000  0.34480000  0.27550000  1.0 0.1791243248
C  C62  1  0.56930000  0.79660000  0.22450000  1.0 0.1791243248
C  C63  1  0.93070000  0.15520000  0.22730000  1.0 0.1791243248
C  C64  1  0.42790000  0.70340000  0.27270000  1.0 0.1791243248
C  C65  1  0.27550000  0.07210000  0.34480000  1.0 0.1791243248
C  C66  1  0.22450000  0.56930000  0.79660000  1.0 0.1791243248
C  C67  1  0.22730000  0.93070000  0.15520000  1.0 0.1791243248
C  C68  1  0.27270000  0.42790000  0.70340000  1.0 0.1791243248
C  C69  1  0.34480000  0.27550000  0.07210000  1.0 0.1791243248
C  C70  1  0.79660000  0.22450000  0.56930000  1.0 0.1791243248
C  C71  1  0.15520000  0.22730000  0.93070000  1.0 0.1791243248
C  C72  1  0.70340000  0.27270000  0.42790000  1.0 0.1791243248
C  C73  1  0.15340000  0.36440000  0.29140000  1.0 -0.4796195336
C  C74  1  0.57300000  0.86200000  0.20860000  1.0 -0.4796195336
C  C75  1  0.92700000  0.13560000  0.28900000  1.0 -0.4796195336
C  C76  1  0.34660000  0.63800000  0.21100000  1.0 -0.4796195336
C  C77  1  0.29140000  0.15340000  0.36440000  1.0 -0.4796195336
C  C78  1  0.20860000  0.57300000  0.86200000  1.0 -0.4796195336
C  C79  1  0.28900000  0.92700000  0.13560000  1.0 -0.4796195336
C  C80  1  0.21100000  0.34660000  0.63800000  1.0 -0.4796195336
C  C81  1  0.36440000  0.29140000  0.15340000  1.0 -0.4796195336
C  C82  1  0.86200000  0.20860000  0.57300000  1.0 -0.4796195336
C  C83  1  0.13560000  0.28900000  0.92700000  1.0 -0.4796195336
C  C84  1  0.63800000  0.21100000  0.34660000  1.0 -0.4796195336
C  C85  1  0.04910000  0.35170000  0.32840000  1.0 0.0057707646
C  C86  1  0.52330000  0.72070000  0.17160000  1.0 0.0057707646
C  C87  1  0.97670000  0.14830000  0.19740000  1.0 0.0057707646
C  C88  1  0.45090000  0.77930000  0.30260000  1.0 0.0057707646
C  C89  1  0.32840000  0.04910000  0.35170000  1.0 0.0057707646
C  C90  1  0.17160000  0.52330000  0.72070000  1.0 0.0057707646
C  C91  1  0.19740000  0.97670000  0.14830000  1.0 0.0057707646
C  C92  1  0.30260000  0.45090000  0.77930000  1.0 0.0057707646
C  C93  1  0.35170000  0.32840000  0.04910000  1.0 0.0057707646
C  C94  1  0.72070000  0.17160000  0.52330000  1.0 0.0057707646
C  C95  1  0.14830000  0.19740000  0.97670000  1.0 0.0057707646
C  C96  1  0.77930000  0.30260000  0.45090000  1.0 0.0057707646
C  C97  1  0.09240000  0.34680000  0.39020000  1.0 -0.1880065483
C  C98  1  0.45660000  0.70220000  0.10980000  1.0 -0.1880065483
C  C99  1  0.04340000  0.15320000  0.24560000  1.0 -0.1880065483
C  C100  1  0.40760000  0.79780000  0.25440000  1.0 -0.1880065483
C  C101  1  0.39020000  0.09240000  0.34680000  1.0 -0.1880065483
C  C102  1  0.10980000  0.45660000  0.70220000  1.0 -0.1880065483
C  C103  1  0.24560000  0.04340000  0.15320000  1.0 -0.1880065483
C  C104  1  0.25440000  0.40760000  0.79780000  1.0 -0.1880065483
C  C105  1  0.34680000  0.39020000  0.09240000  1.0 -0.1880065483
C  C106  1  0.70220000  0.10980000  0.45660000  1.0 -0.1880065483
C  C107  1  0.15320000  0.24560000  0.04340000  1.0 -0.1880065483
C  C108  1  0.79780000  0.25440000  0.40760000  1.0 -0.1880065483
C  C109  1  0.07240000  0.35320000  0.44460000  1.0 -0.2094321333
C  C110  1  0.40860000  0.62780000  0.05540000  1.0 -0.2094321333
C  C111  1  0.09140000  0.14680000  0.21920000  1.0 -0.2094321333
C  C112  1  0.42760000  0.87220000  0.28080000  1.0 -0.2094321333
C  C113  1  0.44460000  0.07240000  0.35320000  1.0 -0.2094321333
C  C114  1  0.05540000  0.40860000  0.62780000  1.0 -0.2094321333
C  C115  1  0.21920000  0.09140000  0.14680000  1.0 -0.2094321333
C  C116  1  0.28080000  0.42760000  0.87220000  1.0 -0.2094321333
C  C117  1  0.35320000  0.44460000  0.07240000  1.0 -0.2094321333
C  C118  1  0.62780000  0.05540000  0.40860000  1.0 -0.2094321333
C  C119  1  0.14680000  0.21920000  0.09140000  1.0 -0.2094321333
C  C120  1  0.87220000  0.28080000  0.42760000  1.0 -0.2094321333
C  C121  1  0.02010000  0.36990000  0.43980000  1.0 0.1596012008
C  C122  1  0.43010000  0.58030000  0.06020000  1.0 0.1596012008
C  C123  1  0.06990000  0.13010000  0.15020000  1.0 0.1596012008
C  C124  1  0.47990000  0.91970000  0.34980000  1.0 0.1596012008
C  C125  1  0.43980000  0.02010000  0.36990000  1.0 0.1596012008
C  C126  1  0.06020000  0.43010000  0.58030000  1.0 0.1596012008
C  C127  1  0.15020000  0.06990000  0.13010000  1.0 0.1596012008
C  C128  1  0.34980000  0.47990000  0.91970000  1.0 0.1596012008
C  C129  1  0.36990000  0.43980000  0.02010000  1.0 0.1596012008
C  C130  1  0.58030000  0.06020000  0.43010000  1.0 0.1596012008
C  C131  1  0.13010000  0.15020000  0.06990000  1.0 0.1596012008
C  C132  1  0.91970000  0.34980000  0.47990000  1.0 0.1596012008
C  C133  1  0.97460000  0.37320000  0.37660000  1.0 -0.1535813704
C  C134  1  0.49660000  0.59800000  0.12340000  1.0 -0.1535813704
C  C135  1  0.00340000  0.12680000  0.10140000  1.0 -0.1535813704
C  C136  1  0.52540000  0.90200000  0.39860000  1.0 -0.1535813704
C  C137  1  0.37660000  0.97460000  0.37320000  1.0 -0.1535813704
C  C138  1  0.12340000  0.49660000  0.59800000  1.0 -0.1535813704
C  C139  1  0.10140000  0.00340000  0.12680000  1.0 -0.1535813704
C  C140  1  0.39860000  0.52540000  0.90200000  1.0 -0.1535813704
C  C141  1  0.37320000  0.37660000  0.97460000  1.0 -0.1535813704
C  C142  1  0.59800000  0.12340000  0.49660000  1.0 -0.1535813704
C  C143  1  0.12680000  0.10140000  0.00340000  1.0 -0.1535813704
C  C144  1  0.90200000  0.39860000  0.52540000  1.0 -0.1535813704
C  C145  1  0.98930000  0.36460000  0.32290000  1.0 -0.1163238891
C  C146  1  0.54170000  0.66640000  0.17710000  1.0 -0.1163238891
C  C147  1  0.95830000  0.13540000  0.12470000  1.0 -0.1163238891
C  C148  1  0.51070000  0.83360000  0.37530000  1.0 -0.1163238891
C  C149  1  0.32290000  0.98930000  0.36460000  1.0 -0.1163238891
C  C150  1  0.17710000  0.54170000  0.66640000  1.0 -0.1163238891
C  C151  1  0.12470000  0.95830000  0.13540000  1.0 -0.1163238891
C  C152  1  0.37530000  0.51070000  0.83360000  1.0 -0.1163238891
C  C153  1  0.36460000  0.32290000  0.98930000  1.0 -0.1163238891
C  C154  1  0.66640000  0.17710000  0.54170000  1.0 -0.1163238891
C  C155  1  0.13540000  0.12470000  0.95830000  1.0 -0.1163238891
C  C156  1  0.83360000  0.37530000  0.51070000  1.0 -0.1163238891
N  N1  1  0.92560000  0.26060000  0.06120000  1.0 -0.3119741487
N  N2  1  0.69940000  0.86440000  0.43880000  1.0 -0.3119741487
N  N3  1  0.80060000  0.23940000  0.16500000  1.0 -0.3119741487
N  N4  1  0.57440000  0.63560000  0.33500000  1.0 -0.3119741487
N  N5  1  0.06120000  0.92560000  0.26060000  1.0 -0.3119741487
N  N6  1  0.43880000  0.69940000  0.86440000  1.0 -0.3119741487
N  N7  1  0.16500000  0.80060000  0.23940000  1.0 -0.3119741487
N  N8  1  0.33500000  0.57440000  0.63560000  1.0 -0.3119741487
N  N9  1  0.26060000  0.06120000  0.92560000  1.0 -0.3119741487
N  N10  1  0.86440000  0.43880000  0.69940000  1.0 -0.3119741487
N  N11  1  0.23940000  0.16500000  0.80060000  1.0 -0.3119741487
N  N12  1  0.63560000  0.33500000  0.57440000  1.0 -0.3119741487
N  N13  1  0.05000000  0.32830000  0.16010000  1.0 -0.1880065483
N  N14  1  0.66820000  0.88990000  0.33990000  1.0 -0.1880065483
N  N15  1  0.83180000  0.17170000  0.22170000  1.0 -0.1880065483
N  N16  1  0.45000000  0.61010000  0.27830000  1.0 -0.1825632461
N  N17  1  0.16010000  0.05000000  0.32830000  1.0 -0.1880065483
N  N18  1  0.33990000  0.66820000  0.88990000  1.0 -0.1880065483
N  N19  1  0.22170000  0.83180000  0.17170000  1.0 -0.1880065483
N  N20  1  0.27830000  0.45000000  0.61010000  1.0 -0.1880065483
N  N21  1  0.32830000  0.16010000  0.05000000  1.0 -0.1880065483
N  N22  1  0.88990000  0.33990000  0.66820000  1.0 -0.1880065483
N  N23  1  0.17170000  0.22170000  0.83180000  1.0 -0.1880065483
N  N24  1  0.61010000  0.27830000  0.45000000  1.0 -0.1880065483
N  N25  1  0.02250000  0.32460000  0.20590000  1.0 -0.2274139326
N  N26  1  0.61870000  0.81660000  0.29410000  1.0 -0.2274139326
N  N27  1  0.88130000  0.17540000  0.19790000  1.0 -0.2274139326
N  N28  1  0.47750000  0.68340000  0.30210000  1.0 -0.2274139326
N  N29  1  0.20590000  0.02250000  0.32460000  1.0 -0.2274139326
N  N30  1  0.29410000  0.61870000  0.81660000  1.0 -0.2274139326
N  N31  1  0.19790000  0.88130000  0.17540000  1.0 -0.2274139326
N  N32  1  0.30210000  0.47750000  0.68340000  1.0 -0.2274139326
N  N33  1  0.32460000  0.20590000  0.02250000  1.0 -0.2274139326
N  N34  1  0.81660000  0.29410000  0.61870000  1.0 -0.2274139326
N  N35  1  0.17540000  0.19790000  0.88130000  1.0 -0.2274139326
N  N36  1  0.68340000  0.30210000  0.47750000  1.0 -0.2274139326
N  N37  1  0.00000000  0.38080000  0.50000000  1.0 -0.2786445849
N  N38  1  0.38080000  0.50000000  0.00000000  1.0 -0.2786445849
N  N39  1  0.11920000  0.11920000  0.11920000  1.0 -0.2786445849
N  N40  1  0.50000000  0.00000000  0.38080000  1.0 -0.2786445849
