# DDEC6 charges by PACMAN v1.1 (https://github.com/mtap-research/PACMAN-charge/)
data_ADAVIM_ASR_pacman
_symmetry_space_group_name_H-M   'P 1'
_cell_length_a   22.15500000
_cell_length_b   22.15500000
_cell_length_c   22.15500000
_cell_angle_alpha   109.47100000
_cell_angle_beta   109.47100000
_cell_angle_gamma   109.47100000
_symmetry_Int_Tables_number   1
_chemical_formula_structural   Ag3H66(C39N10)2
_chemical_formula_sum   'Ag6 H132 C156 N40'
_cell_volume   8371.37737379
_cell_formula_units_Z   2
loop_
 _symmetry_equiv_pos_site_id
 _symmetry_equiv_pos_as_xyz
  1  'x, y, z'
loop_
 _atom_site_type_symbol
 _atom_site_label
 _atom_site_symmetry_multiplicity
 _atom_site_fract_x
 _atom_site_fract_y
 _atom_site_fract_z
 _atom_site_occupancy
 _atom_site_charge
Ag  Ag1  1  0.39321000  0.25000000  0.64321000  1.0 0.2804949614
Ag  Ag2  1  0.10679000  0.75000000  0.85679000  1.0 0.2804949614
Ag  Ag3  1  0.64321000  0.39321000  0.25000000  1.0 0.2804949614
Ag  Ag4  1  0.85679000  0.10679000  0.75000000  1.0 0.2804949614
Ag  Ag5  1  0.25000000  0.64321000  0.39321000  1.0 0.2804949614
Ag  Ag6  1  0.75000000  0.85679000  0.10679000  1.0 0.2804949614
H  H1  1  0.32780000  0.35400000  0.60960000  1.0 0.1214059833
H  H2  1  0.24440000  0.71820000  0.89040000  1.0 0.1214059833
H  H3  1  0.25560000  0.14600000  0.47380000  1.0 0.1214059833
H  H4  1  0.17220000  0.78180000  0.02620000  1.0 0.1214059833
H  H5  1  0.60960000  0.32780000  0.35400000  1.0 0.1214059833
H  H6  1  0.89040000  0.24440000  0.71820000  1.0 0.1214059833
H  H7  1  0.47380000  0.25560000  0.14600000  1.0 0.1214059833
H  H8  1  0.02620000  0.17220000  0.78180000  1.0 0.1214059833
H  H9  1  0.35400000  0.60960000  0.32780000  1.0 0.1214059833
H  H10  1  0.71820000  0.89040000  0.24440000  1.0 0.1214059833
H  H11  1  0.14600000  0.47380000  0.25560000  1.0 0.1214059833
H  H12  1  0.78180000  0.02620000  0.17220000  1.0 0.1214059833
H  H13  1  0.36290000  0.46800000  0.63430000  1.0 0.1414380283
H  H14  1  0.33370000  0.72860000  0.86570000  1.0 0.1414380283
H  H15  1  0.16630000  0.03200000  0.39490000  1.0 0.1291021039
H  H16  1  0.13710000  0.77140000  0.10510000  1.0 0.1291021039
H  H17  1  0.63430000  0.36290000  0.46800000  1.0 0.1291021039
H  H18  1  0.86570000  0.33370000  0.72860000  1.0 0.1414380283
H  H19  1  0.39490000  0.16630000  0.03200000  1.0 0.1291021039
H  H20  1  0.10510000  0.13710000  0.77140000  1.0 0.1414380283
H  H21  1  0.46800000  0.63430000  0.36290000  1.0 0.1291021039
H  H22  1  0.72860000  0.86570000  0.33370000  1.0 0.1291021039
H  H23  1  0.03200000  0.39490000  0.16630000  1.0 0.1291021039
H  H24  1  0.77140000  0.10510000  0.13710000  1.0 0.1291021039
H  H25  1  0.48460000  0.54380000  0.68140000  1.0 0.1214059833
H  H26  1  0.36240000  0.80320000  0.81860000  1.0 0.1214059833
H  H27  1  0.13760000  0.95620000  0.44080000  1.0 0.1214059833
H  H28  1  0.01540000  0.69680000  0.05920000  1.0 0.1214059833
H  H29  1  0.68140000  0.48460000  0.54380000  1.0 0.1214059833
H  H30  1  0.81860000  0.36240000  0.80320000  1.0 0.1214059833
H  H31  1  0.44080000  0.13760000  0.95620000  1.0 0.1214059833
H  H32  1  0.05920000  0.01540000  0.69680000  1.0 0.1214059833
H  H33  1  0.54380000  0.68140000  0.48460000  1.0 0.1214059833
H  H34  1  0.80320000  0.81860000  0.36240000  1.0 0.1214059833
H  H35  1  0.95620000  0.44080000  0.13760000  1.0 0.1214059833
H  H36  1  0.69680000  0.05920000  0.01540000  1.0 0.1214059833
H  H37  1  0.57230000  0.51590000  0.73040000  1.0 0.145451693
H  H38  1  0.28550000  0.84190000  0.76960000  1.0 0.1414380283
H  H39  1  0.21450000  0.98410000  0.55640000  1.0 0.1414380283
H  H40  1  0.92770000  0.65810000  0.94360000  1.0 0.1414380283
H  H41  1  0.73040000  0.57230000  0.51590000  1.0 0.1414380283
H  H42  1  0.76960000  0.28550000  0.84190000  1.0 0.1414380283
H  H43  1  0.55640000  0.21450000  0.98410000  1.0 0.1414380283
H  H44  1  0.94360000  0.92770000  0.65810000  1.0 0.1414380283
H  H45  1  0.51590000  0.73040000  0.57230000  1.0 0.1414380283
H  H46  1  0.84190000  0.76960000  0.28550000  1.0 0.1414380283
H  H47  1  0.98410000  0.55640000  0.21450000  1.0 0.1414380283
H  H48  1  0.65810000  0.94360000  0.92770000  1.0 0.145451693
H  H49  1  0.65460000  0.40770000  0.80430000  1.0 0.1414380283
H  H50  1  0.10340000  0.85030000  0.69570000  1.0 0.1414380283
H  H51  1  0.39660000  0.09230000  0.74690000  1.0 0.1414380283
H  H52  1  0.84540000  0.64970000  0.75310000  1.0 0.1414380283
H  H53  1  0.80430000  0.65460000  0.40770000  1.0 0.1414380283
H  H54  1  0.69570000  0.10340000  0.85030000  1.0 0.1414380283
H  H55  1  0.74690000  0.39660000  0.09230000  1.0 0.1414380283
H  H56  1  0.75310000  0.84540000  0.64970000  1.0 0.1414380283
H  H57  1  0.40770000  0.80430000  0.65460000  1.0 0.1414380283
H  H58  1  0.85030000  0.69570000  0.10340000  1.0 0.1414380283
H  H59  1  0.09230000  0.74690000  0.39660000  1.0 0.1414380283
H  H60  1  0.64970000  0.75310000  0.84540000  1.0 0.1414380283
H  H61  1  0.68560000  0.35680000  0.77660000  1.0 0.1414380283
H  H62  1  0.08020000  0.90900000  0.72340000  1.0 0.1414380283
H  H63  1  0.41980000  0.14320000  0.82880000  1.0 0.1414380283
H  H64  1  0.81440000  0.59100000  0.67120000  1.0 0.1414380283
H  H65  1  0.77660000  0.68560000  0.35680000  1.0 0.1414380283
H  H66  1  0.72340000  0.08020000  0.90900000  1.0 0.1414380283
H  H67  1  0.82880000  0.41980000  0.14320000  1.0 0.1414380283
H  H68  1  0.67120000  0.81440000  0.59100000  1.0 0.1414380283
H  H69  1  0.35680000  0.77660000  0.68560000  1.0 0.1414380283
H  H70  1  0.90900000  0.72340000  0.08020000  1.0 0.1414380283
H  H71  1  0.14320000  0.82880000  0.41980000  1.0 0.1414380283
H  H72  1  0.59100000  0.67120000  0.81440000  1.0 0.1414380283
H  H73  1  0.66020000  0.35370000  0.83410000  1.0 0.1414380283
H  H74  1  0.01960000  0.82610000  0.66590000  1.0 0.1414380283
H  H75  1  0.48040000  0.14630000  0.80650000  1.0 0.1414380283
H  H76  1  0.83980000  0.67390000  0.69350000  1.0 0.1414380283
H  H77  1  0.83410000  0.66020000  0.35370000  1.0 0.1414380283
H  H78  1  0.66590000  0.01960000  0.82610000  1.0 0.1414380283
H  H79  1  0.80650000  0.48040000  0.14630000  1.0 0.1414380283
H  H80  1  0.69350000  0.83980000  0.67390000  1.0 0.1414380283
H  H81  1  0.35370000  0.83410000  0.66020000  1.0 0.1414380283
H  H82  1  0.82610000  0.66590000  0.01960000  1.0 0.1414380283
H  H83  1  0.14630000  0.80650000  0.48040000  1.0 0.1414380283
H  H84  1  0.67390000  0.69350000  0.83980000  1.0 0.1414380283
H  H85  1  0.62820000  0.23160000  0.79740000  1.0 0.1047509444
H  H86  1  0.93420000  0.83080000  0.70260000  1.0 0.1047509444
H  H87  1  0.56580000  0.26840000  0.89660000  1.0 0.1047509444
H  H88  1  0.87180000  0.66920000  0.60340000  1.0 0.1047509444
H  H89  1  0.79740000  0.62820000  0.23160000  1.0 0.1047509444
H  H90  1  0.70260000  0.93420000  0.83080000  1.0 0.1047509444
H  H91  1  0.89660000  0.56580000  0.26840000  1.0 0.1047509444
H  H92  1  0.60340000  0.87180000  0.66920000  1.0 0.1047509444
H  H93  1  0.23160000  0.79740000  0.62820000  1.0 0.1047509444
H  H94  1  0.83080000  0.70260000  0.93420000  1.0 0.1047509444
H  H95  1  0.26840000  0.89660000  0.56580000  1.0 0.1047509444
H  H96  1  0.66920000  0.60340000  0.87180000  1.0 0.1047509444
H  H97  1  0.59770000  0.10940000  0.74730000  1.0 0.1291021039
H  H98  1  0.86210000  0.85040000  0.75270000  1.0 0.1291021039
H  H99  1  0.63790000  0.39060000  0.98830000  1.0 0.1291021039
H  H100  1  0.90230000  0.64960000  0.51170000  1.0 0.1291021039
H  H101  1  0.74730000  0.59770000  0.10940000  1.0 0.1291021039
H  H102  1  0.75270000  0.86210000  0.85040000  1.0 0.1291021039
H  H103  1  0.98830000  0.63790000  0.39060000  1.0 0.1291021039
H  H104  1  0.51170000  0.90230000  0.64960000  1.0 0.1291021039
H  H105  1  0.10940000  0.74730000  0.59770000  1.0 0.1291021039
H  H106  1  0.85040000  0.75270000  0.86210000  1.0 0.1291021039
H  H107  1  0.39060000  0.98830000  0.63790000  1.0 0.1291021039
H  H108  1  0.64960000  0.51170000  0.90230000  1.0 0.1291021039
H  H109  1  0.43600000  0.05400000  0.54980000  1.0 0.1214059833
H  H110  1  0.00420000  0.88620000  0.95020000  1.0 0.1214059833
H  H111  1  0.49580000  0.44600000  0.88200000  1.0 0.1214059833
H  H112  1  0.06400000  0.61380000  0.61800000  1.0 0.1214059833
H  H113  1  0.54980000  0.43600000  0.05400000  1.0 0.1214059833
H  H114  1  0.95020000  0.00420000  0.88620000  1.0 0.1214059833
H  H115  1  0.88200000  0.49580000  0.44600000  1.0 0.1214059833
H  H116  1  0.61800000  0.06400000  0.61380000  1.0 0.1214059833
H  H117  1  0.05400000  0.54980000  0.43600000  1.0 0.1214059833
H  H118  1  0.88620000  0.95020000  0.00420000  1.0 0.1214059833
H  H119  1  0.44600000  0.88200000  0.49580000  1.0 0.1214059833
H  H120  1  0.61380000  0.61800000  0.06400000  1.0 0.1214059833
H  H121  1  0.46840000  0.17940000  0.59820000  1.0 0.1057240648
H  H122  1  0.08120000  0.87020000  0.90180000  1.0 0.1057240648
H  H123  1  0.41880000  0.32060000  0.78900000  1.0 0.1057240648
H  H124  1  0.03160000  0.62980000  0.71100000  1.0 0.1057240648
H  H125  1  0.59820000  0.46840000  0.17940000  1.0 0.1057240648
H  H126  1  0.90180000  0.08120000  0.87020000  1.0 0.1057240648
H  H127  1  0.78900000  0.41880000  0.32060000  1.0 0.1057240648
H  H128  1  0.71100000  0.03160000  0.62980000  1.0 0.1057240648
H  H129  1  0.17940000  0.59820000  0.46840000  1.0 0.1057240648
H  H130  1  0.87020000  0.90180000  0.08120000  1.0 0.1057240648
H  H131  1  0.32060000  0.78900000  0.41880000  1.0 0.1057240648
H  H132  1  0.62980000  0.71100000  0.03160000  1.0 0.1057240648
C  C1  1  0.37830000  0.38810000  0.63860000  1.0 -0.0039636103
C  C2  1  0.24950000  0.73970000  0.86140000  1.0 -0.0039636103
C  C3  1  0.25050000  0.11190000  0.49020000  1.0 -0.0039636103
C  C4  1  0.12170000  0.76030000  0.00980000  1.0 -0.0039636103
C  C5  1  0.63860000  0.37830000  0.38810000  1.0 -0.0039636103
C  C6  1  0.86140000  0.24950000  0.73970000  1.0 -0.0039636103
C  C7  1  0.49020000  0.25050000  0.11190000  1.0 -0.0039636103
C  C8  1  0.00980000  0.12170000  0.76030000  1.0 -0.0039636103
C  C9  1  0.38810000  0.63860000  0.37830000  1.0 -0.0039636103
C  C10  1  0.73970000  0.86140000  0.24950000  1.0 -0.0039636103
C  C11  1  0.11190000  0.49020000  0.25050000  1.0 -0.0039636103
C  C12  1  0.76030000  0.00980000  0.12170000  1.0 -0.0039636103
C  C13  1  0.39730000  0.45300000  0.64810000  1.0 -0.154567765
C  C14  1  0.30490000  0.74920000  0.85190000  1.0 -0.154567765
C  C15  1  0.19510000  0.04700000  0.44430000  1.0 -0.154567765
C  C16  1  0.10270000  0.75080000  0.05570000  1.0 -0.154567765
C  C17  1  0.64810000  0.39730000  0.45300000  1.0 -0.154567765
C  C18  1  0.85190000  0.30490000  0.74920000  1.0 -0.154567765
C  C19  1  0.44430000  0.19510000  0.04700000  1.0 -0.154567765
C  C20  1  0.05570000  0.10270000  0.75080000  1.0 -0.154567765
C  C21  1  0.45300000  0.64810000  0.39730000  1.0 -0.154567765
C  C22  1  0.74920000  0.85190000  0.30490000  1.0 -0.154567765
C  C23  1  0.04700000  0.44430000  0.19510000  1.0 -0.154567765
C  C24  1  0.75080000  0.05570000  0.10270000  1.0 -0.1553508061
C  C25  1  0.46950000  0.49820000  0.67910000  1.0 -0.0664757718
C  C26  1  0.31910000  0.79040000  0.82090000  1.0 -0.0664757718
C  C27  1  0.18090000  0.00180000  0.47130000  1.0 -0.0664757718
C  C28  1  0.03050000  0.70960000  0.02870000  1.0 -0.0664757718
C  C29  1  0.67910000  0.46950000  0.49820000  1.0 -0.0664757718
C  C30  1  0.82090000  0.31910000  0.79040000  1.0 -0.0664757718
C  C31  1  0.47130000  0.18090000  0.00180000  1.0 -0.0664757718
C  C32  1  0.02870000  0.03050000  0.70960000  1.0 -0.0664757718
C  C33  1  0.49820000  0.67910000  0.46950000  1.0 -0.0664757718
C  C34  1  0.79040000  0.82090000  0.31910000  1.0 -0.0664757718
C  C35  1  0.00180000  0.47130000  0.18090000  1.0 -0.0664757718
C  C36  1  0.70960000  0.02870000  0.03050000  1.0 -0.0646878945
C  C37  1  0.52200000  0.48240000  0.70700000  1.0 -0.1888927624
C  C38  1  0.27540000  0.81500000  0.79300000  1.0 -0.1888927624
C  C39  1  0.22460000  0.01760000  0.53960000  1.0 -0.1888927624
C  C40  1  0.97800000  0.68500000  0.96040000  1.0 -0.1888927624
C  C41  1  0.70700000  0.52200000  0.48240000  1.0 -0.1888927624
C  C42  1  0.79300000  0.27540000  0.81500000  1.0 -0.1888927624
C  C43  1  0.53960000  0.22460000  0.01760000  1.0 -0.1888927624
C  C44  1  0.96040000  0.97800000  0.68500000  1.0 -0.1888927624
C  C45  1  0.48240000  0.70700000  0.52200000  1.0 -0.1888927624
C  C46  1  0.81500000  0.79300000  0.27540000  1.0 -0.1888927624
C  C47  1  0.01760000  0.53960000  0.22460000  1.0 -0.1888927624
C  C48  1  0.68500000  0.96040000  0.97800000  1.0 -0.1888927624
C  C49  1  0.49410000  0.40890000  0.69780000  1.0 0.3466349922
C  C50  1  0.21110000  0.79630000  0.80220000  1.0 0.3466349922
C  C51  1  0.28890000  0.09110000  0.58520000  1.0 0.3466349922
C  C52  1  0.00590000  0.70370000  0.91480000  1.0 0.3466349922
C  C53  1  0.69780000  0.49410000  0.40890000  1.0 0.3466349922
C  C54  1  0.80220000  0.21110000  0.79630000  1.0 0.3466349922
C  C55  1  0.58520000  0.28890000  0.09110000  1.0 0.3466349922
C  C56  1  0.91480000  0.00590000  0.70370000  1.0 0.3466349922
C  C57  1  0.40890000  0.69780000  0.49410000  1.0 0.3466349922
C  C58  1  0.79630000  0.80220000  0.21110000  1.0 0.3466349922
C  C59  1  0.09110000  0.58520000  0.28890000  1.0 0.3466349922
C  C60  1  0.70370000  0.91480000  0.00590000  1.0 0.3466349922
C  C61  1  0.57350000  0.30060000  0.72950000  1.0 0.2208006216
C  C62  1  0.07110000  0.84400000  0.77050000  1.0 0.2208006216
C  C63  1  0.42890000  0.19940000  0.77290000  1.0 0.2208006216
C  C64  1  0.92650000  0.65600000  0.72710000  1.0 0.2208006216
C  C65  1  0.72950000  0.57350000  0.30060000  1.0 0.2208006216
C  C66  1  0.77050000  0.07110000  0.84400000  1.0 0.2208006216
C  C67  1  0.77290000  0.42890000  0.19940000  1.0 0.2208006216
C  C68  1  0.72710000  0.92650000  0.65600000  1.0 0.2208006216
C  C69  1  0.30060000  0.72950000  0.57350000  1.0 0.2208006216
C  C70  1  0.84400000  0.77050000  0.07110000  1.0 0.2208006216
C  C71  1  0.19940000  0.77290000  0.42890000  1.0 0.2208006216
C  C72  1  0.65600000  0.72710000  0.92650000  1.0 0.2208006216
C  C73  1  0.65050000  0.36010000  0.79180000  1.0 -0.484410238
C  C74  1  0.06830000  0.85870000  0.70820000  1.0 -0.4851952809
C  C75  1  0.43170000  0.13990000  0.79040000  1.0 -0.484410238
C  C76  1  0.84950000  0.64130000  0.70960000  1.0 -0.484410238
C  C77  1  0.79180000  0.65050000  0.36010000  1.0 -0.4851952809
C  C78  1  0.70820000  0.06830000  0.85870000  1.0 -0.484410238
C  C79  1  0.79040000  0.43170000  0.13990000  1.0 -0.484410238
C  C80  1  0.70960000  0.84950000  0.64130000  1.0 -0.484410238
C  C81  1  0.36010000  0.79180000  0.65050000  1.0 -0.484410238
C  C82  1  0.85870000  0.70820000  0.06830000  1.0 -0.484410238
C  C83  1  0.13990000  0.79040000  0.43170000  1.0 -0.4851952809
C  C84  1  0.64130000  0.70960000  0.84950000  1.0 -0.484410238
C  C85  1  0.55770000  0.22720000  0.70410000  1.0 0.0176864512
C  C86  1  0.02310000  0.85360000  0.79590000  1.0 0.0176864512
C  C87  1  0.47690000  0.27280000  0.83050000  1.0 0.0176864512
C  C88  1  0.94230000  0.64640000  0.66950000  1.0 0.0176864512
C  C89  1  0.70410000  0.55770000  0.22720000  1.0 0.0176864512
C  C90  1  0.79590000  0.02310000  0.85360000  1.0 0.0176864512
C  C91  1  0.83050000  0.47690000  0.27280000  1.0 0.0176864512
C  C92  1  0.66950000  0.94230000  0.64640000  1.0 0.0176864512
C  C93  1  0.22720000  0.70410000  0.55770000  1.0 0.0176864512
C  C94  1  0.85360000  0.79590000  0.02310000  1.0 0.0176864512
C  C95  1  0.27280000  0.83050000  0.47690000  1.0 0.0176864512
C  C96  1  0.64640000  0.66950000  0.94230000  1.0 0.0176864512
C  C97  1  0.59190000  0.19870000  0.74800000  1.0 -0.126776697
C  C98  1  0.95070000  0.84390000  0.75200000  1.0 -0.126776697
C  C99  1  0.54930000  0.30130000  0.89320000  1.0 -0.126776697
C  C100  1  0.90810000  0.65610000  0.60680000  1.0 -0.126776697
C  C101  1  0.74800000  0.59190000  0.19870000  1.0 -0.126776697
C  C102  1  0.75200000  0.95070000  0.84390000  1.0 -0.126776697
C  C103  1  0.89320000  0.54930000  0.30130000  1.0 -0.126776697
C  C104  1  0.60680000  0.90810000  0.65610000  1.0 -0.126776697
C  C105  1  0.19870000  0.74800000  0.59190000  1.0 -0.126776697
C  C106  1  0.84390000  0.75200000  0.95070000  1.0 -0.126776697
C  C107  1  0.30130000  0.89320000  0.54930000  1.0 -0.126776697
C  C108  1  0.65610000  0.60680000  0.90810000  1.0 -0.126776697
C  C109  1  0.57250000  0.12520000  0.71930000  1.0 -0.1802342788
C  C110  1  0.90590000  0.85320000  0.78070000  1.0 -0.1802342788
C  C111  1  0.59410000  0.37480000  0.94730000  1.0 -0.1802342788
C  C112  1  0.92750000  0.64680000  0.55270000  1.0 -0.1802342788
C  C113  1  0.71930000  0.57250000  0.12520000  1.0 -0.1802342788
C  C114  1  0.78070000  0.90590000  0.85320000  1.0 -0.1802342788
C  C115  1  0.94730000  0.59410000  0.37480000  1.0 -0.1802342788
C  C116  1  0.55270000  0.92750000  0.64680000  1.0 -0.1802342788
C  C117  1  0.12520000  0.71930000  0.57250000  1.0 -0.1802342788
C  C118  1  0.85320000  0.78070000  0.90590000  1.0 -0.1802342788
C  C119  1  0.37480000  0.94730000  0.59410000  1.0 -0.1802342788
C  C120  1  0.64680000  0.55270000  0.92750000  1.0 -0.1802342788
C  C121  1  0.51940000  0.07950000  0.65350000  1.0 0.155982582
C  C122  1  0.92600000  0.86590000  0.84650000  1.0 0.155982582
C  C123  1  0.57400000  0.42050000  0.93990000  1.0 0.155982582
C  C124  1  0.98060000  0.63410000  0.56010000  1.0 0.155982582
C  C125  1  0.65350000  0.51940000  0.07950000  1.0 0.155982582
C  C126  1  0.84650000  0.92600000  0.86590000  1.0 0.155982582
C  C127  1  0.93990000  0.57400000  0.42050000  1.0 0.155982582
C  C128  1  0.56010000  0.98060000  0.63410000  1.0 0.155982582
C  C129  1  0.07950000  0.65350000  0.51940000  1.0 0.155982582
C  C130  1  0.86590000  0.84650000  0.92600000  1.0 0.155982582
C  C131  1  0.42050000  0.93990000  0.57400000  1.0 0.155982582
C  C132  1  0.63410000  0.56010000  0.98060000  1.0 0.155982582
C  C133  1  0.47350000  0.09090000  0.59760000  1.0 -0.1802342788
C  C134  1  0.99330000  0.87590000  0.90240000  1.0 -0.1746156084
C  C135  1  0.50670000  0.40910000  0.88260000  1.0 -0.1802342788
C  C136  1  0.02650000  0.62410000  0.61740000  1.0 -0.1802342788
C  C137  1  0.59760000  0.47350000  0.09090000  1.0 -0.1802342788
C  C138  1  0.90240000  0.99330000  0.87590000  1.0 -0.1746156084
C  C139  1  0.88260000  0.50670000  0.40910000  1.0 -0.1746156084
C  C140  1  0.61740000  0.02650000  0.62410000  1.0 -0.1746156084
C  C141  1  0.09090000  0.59760000  0.47350000  1.0 -0.1746156084
C  C142  1  0.87590000  0.90240000  0.99330000  1.0 -0.1746156084
C  C143  1  0.40910000  0.88260000  0.50670000  1.0 -0.1746156084
C  C144  1  0.62410000  0.61740000  0.02650000  1.0 -0.1802342788
C  C145  1  0.49520000  0.16600000  0.62800000  1.0 -0.11829058
C  C146  1  0.03800000  0.86720000  0.87200000  1.0 -0.11829058
C  C147  1  0.46200000  0.33400000  0.82920000  1.0 -0.11829058
C  C148  1  0.00480000  0.63280000  0.67080000  1.0 -0.11829058
C  C149  1  0.62800000  0.49520000  0.16600000  1.0 -0.11829058
C  C150  1  0.87200000  0.03800000  0.86720000  1.0 -0.11829058
C  C151  1  0.82920000  0.46200000  0.33400000  1.0 -0.11829058
C  C152  1  0.67080000  0.00480000  0.63280000  1.0 -0.11829058
C  C153  1  0.16600000  0.62800000  0.49520000  1.0 -0.11829058
C  C154  1  0.86720000  0.87200000  0.03800000  1.0 -0.11829058
C  C155  1  0.33400000  0.82920000  0.46200000  1.0 -0.11829058
C  C156  1  0.63280000  0.67080000  0.00480000  1.0 -0.11829058
N  N1  1  0.42250000  0.36230000  0.66560000  1.0 -0.2652771192
N  N2  1  0.19670000  0.75690000  0.83440000  1.0 -0.2652771192
N  N3  1  0.30330000  0.13770000  0.56020000  1.0 -0.2652771192
N  N4  1  0.07750000  0.74310000  0.93980000  1.0 -0.2652771192
N  N5  1  0.66560000  0.42250000  0.36230000  1.0 -0.2604926577
N  N6  1  0.83440000  0.19670000  0.75690000  1.0 -0.2604926577
N  N7  1  0.56020000  0.30330000  0.13770000  1.0 -0.2604926577
N  N8  1  0.93980000  0.07750000  0.74310000  1.0 -0.2604926577
N  N9  1  0.36230000  0.66560000  0.42250000  1.0 -0.2652771192
N  N10  1  0.75690000  0.83440000  0.19670000  1.0 -0.2652771192
N  N11  1  0.13770000  0.56020000  0.30330000  1.0 -0.2604926577
N  N12  1  0.74310000  0.93980000  0.07750000  1.0 -0.2604926577
N  N13  1  0.54720000  0.39020000  0.71900000  1.0 -0.2604926577
N  N14  1  0.17120000  0.82820000  0.78100000  1.0 -0.2604926577
N  N15  1  0.32880000  0.10980000  0.65700000  1.0 -0.2604926577
N  N16  1  0.95280000  0.67180000  0.84300000  1.0 -0.2604926577
N  N17  1  0.71900000  0.54720000  0.39020000  1.0 -0.2604926577
N  N18  1  0.78100000  0.17120000  0.82820000  1.0 -0.2604926577
N  N19  1  0.65700000  0.32880000  0.10980000  1.0 -0.2604926577
N  N20  1  0.84300000  0.95280000  0.67180000  1.0 -0.2604926577
N  N21  1  0.39020000  0.71900000  0.54720000  1.0 -0.2604926577
N  N22  1  0.82820000  0.78100000  0.17120000  1.0 -0.2604926577
N  N23  1  0.10980000  0.65700000  0.32880000  1.0 -0.2604926577
N  N24  1  0.67180000  0.84300000  0.95280000  1.0 -0.2604926577
N  N25  1  0.52350000  0.31640000  0.69770000  1.0 -0.1888927624
N  N26  1  0.11870000  0.82580000  0.80230000  1.0 -0.1888927624
N  N27  1  0.38130000  0.18360000  0.70710000  1.0 -0.1888927624
N  N28  1  0.97650000  0.67420000  0.79290000  1.0 -0.1888927624
N  N29  1  0.69770000  0.52350000  0.31640000  1.0 -0.1888927624
N  N30  1  0.80230000  0.11870000  0.82580000  1.0 -0.1888927624
N  N31  1  0.70710000  0.38130000  0.18360000  1.0 -0.1888927624
N  N32  1  0.79290000  0.97650000  0.67420000  1.0 -0.1888927624
N  N33  1  0.31640000  0.69770000  0.52350000  1.0 -0.1888927624
N  N34  1  0.82580000  0.80230000  0.11870000  1.0 -0.1888927624
N  N35  1  0.18360000  0.70710000  0.38130000  1.0 -0.1888927624
N  N36  1  0.67420000  0.79290000  0.97650000  1.0 -0.1888927624
N  N37  1  0.50000000  0.00000000  0.62100000  1.0 -0.2161410021
N  N38  1  0.87900000  0.87900000  0.87900000  1.0 -0.2161410021
N  N39  1  0.62100000  0.50000000  0.00000000  1.0 -0.2135498243
N  N40  1  0.00000000  0.62100000  0.50000000  1.0 -0.2161410021
