# DDEC6 charges by PACMAN v1.1 (https://github.com/mtap-research/PACMAN-charge/)
data_ADOBIF_ion_pacman
_symmetry_space_group_name_H-M   'P 1'
_cell_length_a   17.06600000
_cell_length_b   17.06600000
_cell_length_c   14.62500000
_cell_angle_alpha   90.00000000
_cell_angle_beta   90.00000000
_cell_angle_gamma   90.00000000
_symmetry_Int_Tables_number   1
_chemical_formula_structural   V16Co2H32C40N8ClO42
_chemical_formula_sum   'V32 Co4 H64 C80 N16 Cl2 O84'
_cell_volume   4259.50720650
_cell_formula_units_Z   2
loop_
 _symmetry_equiv_pos_site_id
 _symmetry_equiv_pos_as_xyz
  1  'x, y, z'
loop_
 _atom_site_type_symbol
 _atom_site_label
 _atom_site_symmetry_multiplicity
 _atom_site_fract_x
 _atom_site_fract_y
 _atom_site_fract_z
 _atom_site_occupancy
 _atom_site_charge
V  V1  1  0.37923000  0.38949000  0.62762000  1.0 1.9010111327
V  V2  1  0.62077000  0.61051000  0.62762000  1.0 1.9010111327
V  V3  1  0.61051000  0.37923000  0.37238000  1.0 1.9010111327
V  V4  1  0.38949000  0.62077000  0.37238000  1.0 1.9010111327
V  V5  1  0.12077000  0.88949000  0.12762000  1.0 1.9010111327
V  V6  1  0.87923000  0.11051000  0.12762000  1.0 1.9010111327
V  V7  1  0.88949000  0.87923000  0.87238000  1.0 1.9010111327
V  V8  1  0.11051000  0.12077000  0.87238000  1.0 1.9010111327
V  V9  1  0.31311000  0.46786000  0.41377000  1.0 1.921013781
V  V10  1  0.68689000  0.53214000  0.41377000  1.0 1.921013781
V  V11  1  0.53214000  0.31311000  0.58623000  1.0 1.921013781
V  V12  1  0.46786000  0.68689000  0.58623000  1.0 1.921013781
V  V13  1  0.18689000  0.96786000  0.91377000  1.0 1.921013781
V  V14  1  0.81311000  0.03214000  0.91377000  1.0 1.9251602376
V  V15  1  0.96786000  0.81311000  0.08623000  1.0 1.921013781
V  V16  1  0.03214000  0.18689000  0.08623000  1.0 1.921013781
V  V17  1  0.43535000  0.57029000  0.73354000  1.0 1.5592640808
V  V18  1  0.56465000  0.42971000  0.73354000  1.0 1.5468998636
V  V19  1  0.42971000  0.43535000  0.26646000  1.0 1.5592640808
V  V20  1  0.57029000  0.56465000  0.26646000  1.0 1.5592640808
V  V21  1  0.06465000  0.07029000  0.23354000  1.0 1.5592640808
V  V22  1  0.93535000  0.92971000  0.23354000  1.0 1.5592640808
V  V23  1  0.07029000  0.93535000  0.76646000  1.0 1.5592640808
V  V24  1  0.92971000  0.06465000  0.76646000  1.0 1.5592640808
V  V25  1  0.31810000  0.55121000  0.58822000  1.0 1.9116729157
V  V26  1  0.68190000  0.44879000  0.58822000  1.0 1.9116729157
V  V27  1  0.44879000  0.31810000  0.41178000  1.0 1.9116729157
V  V28  1  0.55121000  0.68190000  0.41178000  1.0 1.9116729157
V  V29  1  0.18190000  0.05121000  0.08822000  1.0 1.9116729157
V  V30  1  0.81810000  0.94879000  0.08822000  1.0 1.9116729157
V  V31  1  0.05121000  0.81810000  0.91178000  1.0 1.9116729157
V  V32  1  0.94879000  0.18190000  0.91178000  1.0 1.921013781
Co  Co1  1  0.24520000  0.25480000  0.75000000  1.0 0.7740201439
Co  Co2  1  0.75480000  0.74520000  0.75000000  1.0 0.7740201439
Co  Co3  1  0.74520000  0.24520000  0.25000000  1.0 0.7740201439
Co  Co4  1  0.25480000  0.75480000  0.25000000  1.0 0.7740201439
H  H1  1  0.21340000  0.31770000  0.55130000  1.0 0.1195025677
H  H2  1  0.78660000  0.68230000  0.55130000  1.0 0.1195025677
H  H3  1  0.68230000  0.21340000  0.44870000  1.0 0.1195025677
H  H4  1  0.31770000  0.78660000  0.44870000  1.0 0.1195025677
H  H5  1  0.28660000  0.81770000  0.05130000  1.0 0.1195025677
H  H6  1  0.71340000  0.18230000  0.05130000  1.0 0.1195025677
H  H7  1  0.81770000  0.71340000  0.94870000  1.0 0.1195025677
H  H8  1  0.18230000  0.28660000  0.94870000  1.0 0.1195025677
H  H9  1  0.11770000  0.31570000  0.44750000  1.0 0.1374755586
H  H10  1  0.88230000  0.68430000  0.44750000  1.0 0.1374755586
H  H11  1  0.68430000  0.11770000  0.55250000  1.0 0.1374755586
H  H12  1  0.31570000  0.88230000  0.55250000  1.0 0.1374755586
H  H13  1  0.38230000  0.81570000  0.94750000  1.0 0.1374755586
H  H14  1  0.61770000  0.18430000  0.94750000  1.0 0.1374755586
H  H15  1  0.81570000  0.61770000  0.05250000  1.0 0.1374755586
H  H16  1  0.18430000  0.38230000  0.05250000  1.0 0.1374755586
H  H17  1  0.96240000  0.26960000  0.64750000  1.0 0.1336120153
H  H18  1  0.03760000  0.73040000  0.64750000  1.0 0.1336120153
H  H19  1  0.73040000  0.96240000  0.35250000  1.0 0.1336120153
H  H20  1  0.26960000  0.03760000  0.35250000  1.0 0.1336120153
H  H21  1  0.53760000  0.76960000  0.14750000  1.0 0.1336120153
H  H22  1  0.46240000  0.23040000  0.14750000  1.0 0.1374755586
H  H23  1  0.76960000  0.46240000  0.85250000  1.0 0.1374755586
H  H24  1  0.23040000  0.53760000  0.85250000  1.0 0.1336120153
H  H25  1  0.06860000  0.25880000  0.74690000  1.0 0.1005484178
H  H26  1  0.93140000  0.74120000  0.74690000  1.0 0.1005484178
H  H27  1  0.74120000  0.06860000  0.25310000  1.0 0.1005484178
H  H28  1  0.25880000  0.93140000  0.25310000  1.0 0.1005484178
H  H29  1  0.43140000  0.75880000  0.24690000  1.0 0.1005484178
H  H30  1  0.56860000  0.24120000  0.24690000  1.0 0.1005484178
H  H31  1  0.75880000  0.56860000  0.75310000  1.0 0.1005484178
H  H32  1  0.24120000  0.43140000  0.75310000  1.0 0.1005484178
H  H33  1  0.77810000  0.31960000  0.44320000  1.0 0.1098226176
H  H34  1  0.22190000  0.68040000  0.44320000  1.0 0.1098226176
H  H35  1  0.68040000  0.77810000  0.55680000  1.0 0.1098226176
H  H36  1  0.31960000  0.22190000  0.55680000  1.0 0.1098226176
H  H37  1  0.72190000  0.81960000  0.94320000  1.0 0.1098226176
H  H38  1  0.27810000  0.18040000  0.94320000  1.0 0.1098226176
H  H39  1  0.81960000  0.27810000  0.05680000  1.0 0.1098226176
H  H40  1  0.18040000  0.72190000  0.05680000  1.0 0.1098226176
H  H41  1  0.87680000  0.32810000  0.54900000  1.0 0.1336120153
H  H42  1  0.12320000  0.67190000  0.54900000  1.0 0.1336120153
H  H43  1  0.67190000  0.87680000  0.45100000  1.0 0.1336120153
H  H44  1  0.32810000  0.12320000  0.45100000  1.0 0.1336120153
H  H45  1  0.62320000  0.82810000  0.04900000  1.0 0.1336120153
H  H46  1  0.37680000  0.17190000  0.04900000  1.0 0.1336120153
H  H47  1  0.82810000  0.37680000  0.95100000  1.0 0.1336120153
H  H48  1  0.17190000  0.62320000  0.95100000  1.0 0.1336120153
H  H49  1  0.02410000  0.24770000  0.35860000  1.0 0.1374755586
H  H50  1  0.97590000  0.75230000  0.35860000  1.0 0.1374755586
H  H51  1  0.75230000  0.02410000  0.64140000  1.0 0.1374755586
H  H52  1  0.24770000  0.97590000  0.64140000  1.0 0.1336120153
H  H53  1  0.47590000  0.74770000  0.85860000  1.0 0.1336120153
H  H54  1  0.52410000  0.25230000  0.85860000  1.0 0.1374755586
H  H55  1  0.74770000  0.52410000  0.14140000  1.0 0.1374755586
H  H56  1  0.25230000  0.47590000  0.14140000  1.0 0.1374755586
H  H57  1  0.92170000  0.24440000  0.26080000  1.0 0.1005484178
H  H58  1  0.07830000  0.75560000  0.26080000  1.0 0.1005484178
H  H59  1  0.75560000  0.92170000  0.73920000  1.0 0.1098226176
H  H60  1  0.24440000  0.07830000  0.73920000  1.0 0.1005484178
H  H61  1  0.57830000  0.74440000  0.76080000  1.0 0.1098226176
H  H62  1  0.42170000  0.25560000  0.76080000  1.0 0.1005484178
H  H63  1  0.74440000  0.42170000  0.23920000  1.0 0.1005484178
H  H64  1  0.25560000  0.57830000  0.23920000  1.0 0.1098226176
C  C1  1  0.16290000  0.30520000  0.57050000  1.0 0.0898992392
C  C2  1  0.83710000  0.69480000  0.57050000  1.0 0.0898992392
C  C3  1  0.69480000  0.16290000  0.42950000  1.0 0.0898992392
C  C4  1  0.30520000  0.83710000  0.42950000  1.0 0.0898992392
C  C5  1  0.33710000  0.80520000  0.07050000  1.0 0.0898992392
C  C6  1  0.66290000  0.19480000  0.07050000  1.0 0.0898992392
C  C7  1  0.80520000  0.66290000  0.92950000  1.0 0.0898992392
C  C8  1  0.19480000  0.33710000  0.92950000  1.0 0.0898992392
C  C9  1  0.10530000  0.30580000  0.50830000  1.0 -0.1820142921
C  C10  1  0.89470000  0.69420000  0.50830000  1.0 -0.1820142921
C  C11  1  0.69420000  0.10530000  0.49170000  1.0 -0.1820142921
C  C12  1  0.30580000  0.89470000  0.49170000  1.0 -0.1820142921
C  C13  1  0.39470000  0.80580000  0.00830000  1.0 -0.1820142921
C  C14  1  0.60530000  0.19420000  0.00830000  1.0 -0.1820142921
C  C15  1  0.80580000  0.60530000  0.99170000  1.0 -0.1820142921
C  C16  1  0.19420000  0.39470000  0.99170000  1.0 -0.1820142921
C  C17  1  0.02920000  0.29240000  0.53110000  1.0 0.1098226176
C  C18  1  0.97080000  0.70760000  0.53110000  1.0 0.1098226176
C  C19  1  0.70760000  0.02920000  0.46890000  1.0 0.1098226176
C  C20  1  0.29240000  0.97080000  0.46890000  1.0 0.1098226176
C  C21  1  0.47080000  0.79240000  0.03110000  1.0 0.1098226176
C  C22  1  0.52920000  0.20760000  0.03110000  1.0 0.1098226176
C  C23  1  0.79240000  0.52920000  0.96890000  1.0 0.1098226176
C  C24  1  0.20760000  0.47080000  0.96890000  1.0 0.1098226176
C  C25  1  0.01340000  0.27670000  0.62650000  1.0 -0.1882653512
C  C26  1  0.98660000  0.72330000  0.62650000  1.0 -0.1882653512
C  C27  1  0.72330000  0.01340000  0.37350000  1.0 -0.1882653512
C  C28  1  0.27670000  0.98660000  0.37350000  1.0 -0.1882653512
C  C29  1  0.48660000  0.77670000  0.12650000  1.0 -0.1882653512
C  C30  1  0.51340000  0.22330000  0.12650000  1.0 -0.1882653512
C  C31  1  0.77670000  0.51340000  0.87350000  1.0 -0.1882653512
C  C32  1  0.22330000  0.48660000  0.87350000  1.0 -0.1882653512
C  C33  1  0.07740000  0.27250000  0.68620000  1.0 0.1005484178
C  C34  1  0.92260000  0.72750000  0.68620000  1.0 0.1005484178
C  C35  1  0.72750000  0.07740000  0.31380000  1.0 0.1005484178
C  C36  1  0.27250000  0.92260000  0.31380000  1.0 0.1005484178
C  C37  1  0.42260000  0.77250000  0.18620000  1.0 0.1005484178
C  C38  1  0.57740000  0.22750000  0.18620000  1.0 0.1005484178
C  C39  1  0.77250000  0.57740000  0.81380000  1.0 0.1005484178
C  C40  1  0.22750000  0.42260000  0.81380000  1.0 0.1005484178
C  C41  1  0.82840000  0.30490000  0.42580000  1.0 0.0898992392
C  C42  1  0.17160000  0.69510000  0.42580000  1.0 0.0898992392
C  C43  1  0.69510000  0.82840000  0.57420000  1.0 0.0898992392
C  C44  1  0.30490000  0.17160000  0.57420000  1.0 0.0898992392
C  C45  1  0.67160000  0.80490000  0.92580000  1.0 0.0898992392
C  C46  1  0.32840000  0.19510000  0.92580000  1.0 0.0898992392
C  C47  1  0.80490000  0.32840000  0.07420000  1.0 0.0898992392
C  C48  1  0.19510000  0.67160000  0.07420000  1.0 0.0898992392
C  C49  1  0.88750000  0.31080000  0.49000000  1.0 -0.1820142921
C  C50  1  0.11250000  0.68920000  0.49000000  1.0 -0.1882653512
C  C51  1  0.68920000  0.88750000  0.51000000  1.0 -0.1820142921
C  C52  1  0.31080000  0.11250000  0.51000000  1.0 -0.1882653512
C  C53  1  0.61250000  0.81080000  0.99000000  1.0 -0.1882653512
C  C54  1  0.38750000  0.18920000  0.99000000  1.0 -0.1882653512
C  C55  1  0.81080000  0.38750000  0.01000000  1.0 -0.1820142921
C  C56  1  0.18920000  0.61250000  0.01000000  1.0 -0.1820142921
C  C57  1  0.96320000  0.29050000  0.46460000  1.0 0.1005484178
C  C58  1  0.03680000  0.70950000  0.46460000  1.0 0.1005484178
C  C59  1  0.70950000  0.96320000  0.53540000  1.0 0.1005484178
C  C60  1  0.29050000  0.03680000  0.53540000  1.0 0.1005484178
C  C61  1  0.53680000  0.79050000  0.96460000  1.0 0.1005484178
C  C62  1  0.46320000  0.20950000  0.96460000  1.0 0.1005484178
C  C63  1  0.79050000  0.46320000  0.03540000  1.0 0.1005484178
C  C64  1  0.20950000  0.53680000  0.03540000  1.0 0.1005484178
C  C65  1  0.97470000  0.26370000  0.37800000  1.0 -0.1748894816
C  C66  1  0.02530000  0.73630000  0.37800000  1.0 -0.1820142921
C  C67  1  0.73630000  0.97470000  0.62200000  1.0 -0.1748894816
C  C68  1  0.26370000  0.02530000  0.62200000  1.0 -0.1820142921
C  C69  1  0.52530000  0.76370000  0.87800000  1.0 -0.1820142921
C  C70  1  0.47470000  0.23630000  0.87800000  1.0 -0.1748894816
C  C71  1  0.76370000  0.47470000  0.12200000  1.0 -0.1748894816
C  C72  1  0.23630000  0.52530000  0.12200000  1.0 -0.1820142921
C  C73  1  0.91200000  0.26100000  0.32030000  1.0 0.1005484178
C  C74  1  0.08800000  0.73900000  0.32030000  1.0 0.1005484178
C  C75  1  0.73900000  0.91200000  0.67970000  1.0 0.1005484178
C  C76  1  0.26100000  0.08800000  0.67970000  1.0 0.1005484178
C  C77  1  0.58800000  0.76100000  0.82030000  1.0 0.1005484178
C  C78  1  0.41200000  0.23900000  0.82030000  1.0 0.1005484178
C  C79  1  0.76100000  0.41200000  0.17970000  1.0 0.1005484178
C  C80  1  0.23900000  0.58800000  0.17970000  1.0 0.1005484178
N  N1  1  0.15210000  0.28780000  0.65870000  1.0 -0.238925104
N  N2  1  0.84790000  0.71220000  0.65870000  1.0 -0.238925104
N  N3  1  0.71220000  0.15210000  0.34130000  1.0 -0.238925104
N  N4  1  0.28780000  0.84790000  0.34130000  1.0 -0.238925104
N  N5  1  0.34790000  0.78780000  0.15870000  1.0 -0.238925104
N  N6  1  0.65210000  0.21220000  0.15870000  1.0 -0.238925104
N  N7  1  0.78780000  0.65210000  0.84130000  1.0 -0.238925104
N  N8  1  0.21220000  0.34790000  0.84130000  1.0 -0.238925104
N  N9  1  0.27950000  0.16100000  0.65960000  1.0 -0.238925104
N  N10  1  0.72050000  0.83900000  0.65960000  1.0 -0.238925104
N  N11  1  0.83900000  0.27950000  0.34040000  1.0 -0.238925104
N  N12  1  0.16100000  0.72050000  0.34040000  1.0 -0.238925104
N  N13  1  0.22050000  0.66100000  0.15960000  1.0 -0.238925104
N  N14  1  0.77950000  0.33900000  0.15960000  1.0 -0.238925104
N  N15  1  0.66100000  0.77950000  0.84040000  1.0 -0.238925104
N  N16  1  0.33900000  0.22050000  0.84040000  1.0 -0.238925104
Cl  Cl1  1  0.50000000  0.50000000  0.50000000  1.0 -0.7491184389
Cl  Cl2  1  0.00000000  0.00000000  0.00000000  1.0 -0.7491184389
O  O1  1  0.31940000  0.33230000  0.68240000  1.0 -0.756364054
O  O2  1  0.68060000  0.66770000  0.68240000  1.0 -0.756364054
O  O3  1  0.66770000  0.31940000  0.31760000  1.0 -0.756364054
O  O4  1  0.33230000  0.68060000  0.31760000  1.0 -0.756364054
O  O5  1  0.18060000  0.83230000  0.18240000  1.0 -0.756364054
O  O6  1  0.81940000  0.16770000  0.18240000  1.0 -0.756364054
O  O7  1  0.83230000  0.81940000  0.81760000  1.0 -0.756364054
O  O8  1  0.16770000  0.18060000  0.81760000  1.0 -0.756364054
O  O9  1  0.31450000  0.44290000  0.53820000  1.0 -1.0478598689
O  O10  1  0.68550000  0.55710000  0.53820000  1.0 -1.0478598689
O  O11  1  0.55710000  0.31450000  0.46180000  1.0 -1.0478598689
O  O12  1  0.44290000  0.68550000  0.46180000  1.0 -1.0478598689
O  O13  1  0.18550000  0.94290000  0.03820000  1.0 -1.0478598689
O  O14  1  0.81450000  0.05710000  0.03820000  1.0 -1.0478598689
O  O15  1  0.94290000  0.81450000  0.96180000  1.0 -1.0478598689
O  O16  1  0.05710000  0.18550000  0.96180000  1.0 -1.0478598689
O  O17  1  0.37530000  0.49430000  0.67760000  1.0 -0.9788067852
O  O18  1  0.62470000  0.50570000  0.67760000  1.0 -0.9788067852
O  O19  1  0.50570000  0.37530000  0.32240000  1.0 -0.9788067852
O  O20  1  0.49430000  0.62470000  0.32240000  1.0 -0.9788067852
O  O21  1  0.12470000  0.99430000  0.17760000  1.0 -0.9788067852
O  O22  1  0.87530000  0.00570000  0.17760000  1.0 -0.9788067852
O  O23  1  0.99430000  0.87530000  0.82240000  1.0 -0.9788067852
O  O24  1  0.00570000  0.12470000  0.82240000  1.0 -0.9788067852
O  O25  1  0.42460000  0.32220000  0.53760000  1.0 -1.0449580466
O  O26  1  0.57540000  0.67780000  0.53760000  1.0 -1.0449580466
O  O27  1  0.67780000  0.42460000  0.46240000  1.0 -1.0449580466
O  O28  1  0.32220000  0.57540000  0.46240000  1.0 -1.0478598689
O  O29  1  0.07540000  0.82220000  0.03760000  1.0 -1.0478598689
O  O30  1  0.92460000  0.17780000  0.03760000  1.0 -1.0478598689
O  O31  1  0.82220000  0.92460000  0.96240000  1.0 -1.0478598689
O  O32  1  0.17780000  0.07540000  0.96240000  1.0 -1.0449580466
O  O33  1  0.48130000  0.37490000  0.67910000  1.0 -1.0003850673
O  O34  1  0.51870000  0.62510000  0.67910000  1.0 -1.0003850673
O  O35  1  0.62510000  0.48130000  0.32090000  1.0 -1.0003850673
O  O36  1  0.37490000  0.51870000  0.32090000  1.0 -1.0003850673
O  O37  1  0.01870000  0.87490000  0.17910000  1.0 -1.0003850673
O  O38  1  0.98130000  0.12510000  0.17910000  1.0 -1.0003850673
O  O39  1  0.87490000  0.98130000  0.82090000  1.0 -1.0003850673
O  O40  1  0.12510000  0.01870000  0.82090000  1.0 -1.0003850673
O  O41  1  0.23230000  0.56970000  0.62810000  1.0 -0.6591445049
O  O42  1  0.76770000  0.43030000  0.62810000  1.0 -0.6591445049
O  O43  1  0.43030000  0.23230000  0.37190000  1.0 -0.6591445049
O  O44  1  0.56970000  0.76770000  0.37190000  1.0 -0.6591445049
O  O45  1  0.26770000  0.06970000  0.12810000  1.0 -0.6591445049
O  O46  1  0.73230000  0.93030000  0.12810000  1.0 -0.6591445049
O  O47  1  0.06970000  0.73230000  0.87190000  1.0 -0.6591445049
O  O48  1  0.93030000  0.26770000  0.87190000  1.0 -0.6591445049
O  O49  1  0.39930000  0.61420000  0.82220000  1.0 -0.6406993702
O  O50  1  0.60070000  0.38580000  0.82220000  1.0 -0.6406993702
O  O51  1  0.38580000  0.39930000  0.17780000  1.0 -0.6406993702
O  O52  1  0.61420000  0.60070000  0.17780000  1.0 -0.6406993702
O  O53  1  0.10070000  0.11420000  0.32220000  1.0 -0.6406993702
O  O54  1  0.89930000  0.88580000  0.32220000  1.0 -0.6406993702
O  O55  1  0.11420000  0.89930000  0.67780000  1.0 -0.6406993702
O  O56  1  0.88580000  0.10070000  0.67780000  1.0 -0.6457488452
O  O57  1  0.22620000  0.46050000  0.37750000  1.0 -0.6406993702
O  O58  1  0.77380000  0.53950000  0.37750000  1.0 -0.6406993702
O  O59  1  0.53950000  0.22620000  0.62250000  1.0 -0.6406993702
O  O60  1  0.46050000  0.77380000  0.62250000  1.0 -0.6406993702
O  O61  1  0.27380000  0.96050000  0.87750000  1.0 -0.6406993702
O  O62  1  0.72620000  0.03950000  0.87750000  1.0 -0.6406993702
O  O63  1  0.96050000  0.72620000  0.12250000  1.0 -0.6406993702
O  O64  1  0.03950000  0.27380000  0.12250000  1.0 -0.6406993702
O  O65  1  0.50000000  0.50000000  0.79800000  1.0 -0.3045836826
O  O66  1  0.50000000  0.50000000  0.20200000  1.0 -0.3045836826
O  O67  1  0.00000000  0.00000000  0.29800000  1.0 -0.3045836826
O  O68  1  0.00000000  0.00000000  0.70200000  1.0 -0.3045836826
O  O69  1  0.36450000  0.37920000  0.37710000  1.0 -0.9637331282
O  O70  1  0.63550000  0.62080000  0.37710000  1.0 -0.9637331282
O  O71  1  0.62080000  0.36450000  0.62290000  1.0 -0.9660082077
O  O72  1  0.37920000  0.63550000  0.62290000  1.0 -0.9660082077
O  O73  1  0.13550000  0.87920000  0.87710000  1.0 -0.9637331282
O  O74  1  0.86450000  0.12080000  0.87710000  1.0 -0.9637331282
O  O75  1  0.87920000  0.86450000  0.12290000  1.0 -0.9637331282
O  O76  1  0.12080000  0.13550000  0.12290000  1.0 -0.9637331282
O  O77  1  0.50000000  0.50000000  0.70460000  1.0 0.1098226176
O  O78  1  0.50000000  0.50000000  0.29540000  1.0 0.1098226176
O  O79  1  0.00000000  0.00000000  0.20460000  1.0 0.1098226176
O  O80  1  0.00000000  0.00000000  0.79540000  1.0 0.1098226176
O  O81  1  0.50000000  0.50000000  0.77200000  1.0 -0.0315419007
O  O82  1  0.50000000  0.50000000  0.22800000  1.0 -0.0315419007
O  O83  1  0.00000000  0.00000000  0.27200000  1.0 -0.0315419007
O  O84  1  0.00000000  0.00000000  0.72800000  1.0 -0.0315419007
