# DDEC6 charges by PACMAN v1.1 (https://github.com/mtap-research/PACMAN-charge/)
data_ADOGEH_ASR_pacman
_symmetry_space_group_name_H-M   'P 1'
_cell_length_a   18.62070000
_cell_length_b   18.62070000
_cell_length_c   18.62070000
_cell_angle_alpha   60.00000000
_cell_angle_beta   60.00000000
_cell_angle_gamma   60.00000000
_symmetry_Int_Tables_number   1
_chemical_formula_structural   CuH6C6(NO2)2
_chemical_formula_sum   'Cu12 H72 C72 N24 O48'
_cell_volume   4565.33879068
_cell_formula_units_Z   12
loop_
 _symmetry_equiv_pos_site_id
 _symmetry_equiv_pos_as_xyz
  1  'x, y, z'
loop_
 _atom_site_type_symbol
 _atom_site_label
 _atom_site_symmetry_multiplicity
 _atom_site_fract_x
 _atom_site_fract_y
 _atom_site_fract_z
 _atom_site_occupancy
 _atom_site_charge
Cu  Cu1  1  0.00000000  0.57060000  0.00000000  1.0 0.8079502179
Cu  Cu2  1  0.57060000  0.00000000  0.42940000  1.0 0.8079502179
Cu  Cu3  1  0.00000000  0.42940000  0.00000000  1.0 0.8079502179
Cu  Cu4  1  0.42940000  0.00000000  0.57060000  1.0 0.8079502179
Cu  Cu5  1  0.00000000  0.00000000  0.57060000  1.0 0.8079502179
Cu  Cu6  1  0.42940000  0.57060000  0.00000000  1.0 0.8079502179
Cu  Cu7  1  0.00000000  0.00000000  0.42940000  1.0 0.8079502179
Cu  Cu8  1  0.57060000  0.42940000  0.00000000  1.0 0.8079502179
Cu  Cu9  1  0.57060000  0.00000000  0.00000000  1.0 0.8079502179
Cu  Cu10  1  0.00000000  0.42940000  0.57060000  1.0 0.8079502179
Cu  Cu11  1  0.42940000  0.00000000  0.00000000  1.0 0.8079502179
Cu  Cu12  1  0.00000000  0.57060000  0.42940000  1.0 0.8079502179
H  H1  1  0.71660000  0.45120000  0.03560000  1.0 0.2537002433
H  H2  1  0.45120000  0.71660000  0.79660000  1.0 0.2537002433
H  H3  1  0.03560000  0.79660000  0.71660000  1.0 0.2537002433
H  H4  1  0.79660000  0.03560000  0.45120000  1.0 0.2537002433
H  H5  1  0.03560000  0.71660000  0.45120000  1.0 0.2537002433
H  H6  1  0.79660000  0.45120000  0.71660000  1.0 0.2537002433
H  H7  1  0.71660000  0.03560000  0.79660000  1.0 0.2537002433
H  H8  1  0.45120000  0.79660000  0.03560000  1.0 0.2537002433
H  H9  1  0.45120000  0.03560000  0.71660000  1.0 0.2537002433
H  H10  1  0.71660000  0.79660000  0.45120000  1.0 0.2537002433
H  H11  1  0.79660000  0.71660000  0.03560000  1.0 0.2537002433
H  H12  1  0.03560000  0.45120000  0.79660000  1.0 0.2537002433
H  H13  1  0.28340000  0.54880000  0.20340000  1.0 0.2537002433
H  H14  1  0.54880000  0.28340000  0.96440000  1.0 0.2537002433
H  H15  1  0.96440000  0.20340000  0.54880000  1.0 0.2537002433
H  H16  1  0.20340000  0.96440000  0.28340000  1.0 0.2537002433
H  H17  1  0.96440000  0.28340000  0.20340000  1.0 0.2537002433
H  H18  1  0.20340000  0.54880000  0.96440000  1.0 0.2537002433
H  H19  1  0.28340000  0.96440000  0.54880000  1.0 0.2537002433
H  H20  1  0.54880000  0.20340000  0.28340000  1.0 0.2537002433
H  H21  1  0.54880000  0.96440000  0.20340000  1.0 0.2537002433
H  H22  1  0.28340000  0.20340000  0.96440000  1.0 0.2537002433
H  H23  1  0.20340000  0.28340000  0.54880000  1.0 0.2537002433
H  H24  1  0.96440000  0.54880000  0.28340000  1.0 0.2537002433
H  H25  1  0.28340000  0.54880000  0.96440000  1.0 0.2537002433
H  H26  1  0.54880000  0.28340000  0.20340000  1.0 0.2537002433
H  H27  1  0.96440000  0.20340000  0.28340000  1.0 0.2537002433
H  H28  1  0.20340000  0.96440000  0.54880000  1.0 0.2537002433
H  H29  1  0.96440000  0.28340000  0.54880000  1.0 0.2537002433
H  H30  1  0.20340000  0.54880000  0.28340000  1.0 0.2537002433
H  H31  1  0.28340000  0.96440000  0.20340000  1.0 0.2537002433
H  H32  1  0.54880000  0.20340000  0.96440000  1.0 0.2537002433
H  H33  1  0.54880000  0.96440000  0.28340000  1.0 0.2537002433
H  H34  1  0.28340000  0.20340000  0.54880000  1.0 0.2537002433
H  H35  1  0.20340000  0.28340000  0.96440000  1.0 0.2537002433
H  H36  1  0.96440000  0.54880000  0.20340000  1.0 0.2537002433
H  H37  1  0.71660000  0.45120000  0.79660000  1.0 0.2537002433
H  H38  1  0.45120000  0.71660000  0.03560000  1.0 0.2537002433
H  H39  1  0.03560000  0.79660000  0.45120000  1.0 0.2537002433
H  H40  1  0.79660000  0.03560000  0.71660000  1.0 0.2537002433
H  H41  1  0.03560000  0.71660000  0.79660000  1.0 0.2537002433
H  H42  1  0.79660000  0.45120000  0.03560000  1.0 0.2537002433
H  H43  1  0.71660000  0.03560000  0.45120000  1.0 0.2537002433
H  H44  1  0.45120000  0.79660000  0.71660000  1.0 0.2537002433
H  H45  1  0.45120000  0.03560000  0.79660000  1.0 0.2537002433
H  H46  1  0.71660000  0.79660000  0.03560000  1.0 0.2537002433
H  H47  1  0.79660000  0.71660000  0.45120000  1.0 0.2537002433
H  H48  1  0.03560000  0.45120000  0.71660000  1.0 0.2537002433
H  H49  1  0.72690000  0.51010000  0.03610000  1.0 0.0881058488
H  H50  1  0.51010000  0.72690000  0.72690000  1.0 0.0881058488
H  H51  1  0.03610000  0.72690000  0.72690000  1.0 0.0881058488
H  H52  1  0.72690000  0.03610000  0.51010000  1.0 0.0881058488
H  H53  1  0.03610000  0.72690000  0.51010000  1.0 0.0881058488
H  H54  1  0.72690000  0.51010000  0.72690000  1.0 0.0881058488
H  H55  1  0.72690000  0.03610000  0.72690000  1.0 0.0881058488
H  H56  1  0.51010000  0.72690000  0.03610000  1.0 0.0881058488
H  H57  1  0.51010000  0.03610000  0.72690000  1.0 0.0881058488
H  H58  1  0.72690000  0.72690000  0.51010000  1.0 0.0881058488
H  H59  1  0.72690000  0.72690000  0.03610000  1.0 0.0881058488
H  H60  1  0.03610000  0.51010000  0.72690000  1.0 0.0881058488
H  H61  1  0.27310000  0.48990000  0.27310000  1.0 0.0881058488
H  H62  1  0.48990000  0.27310000  0.96390000  1.0 0.0881058488
H  H63  1  0.96390000  0.27310000  0.48990000  1.0 0.0881058488
H  H64  1  0.27310000  0.96390000  0.27310000  1.0 0.0881058488
H  H65  1  0.96390000  0.27310000  0.27310000  1.0 0.0881058488
H  H66  1  0.27310000  0.48990000  0.96390000  1.0 0.0881058488
H  H67  1  0.27310000  0.96390000  0.48990000  1.0 0.0881058488
H  H68  1  0.48990000  0.27310000  0.27310000  1.0 0.0881058488
H  H69  1  0.48990000  0.96390000  0.27310000  1.0 0.0881058488
H  H70  1  0.27310000  0.27310000  0.96390000  1.0 0.0881058488
H  H71  1  0.27310000  0.27310000  0.48990000  1.0 0.0881058488
H  H72  1  0.96390000  0.48990000  0.27310000  1.0 0.0881058488
C  C1  1  0.83720000  0.56920000  0.02440000  1.0 0.51620986
C  C2  1  0.56920000  0.83720000  0.56920000  1.0 0.51620986
C  C3  1  0.02440000  0.56920000  0.83720000  1.0 0.51620986
C  C4  1  0.56920000  0.02440000  0.56920000  1.0 0.51620986
C  C5  1  0.02440000  0.83720000  0.56920000  1.0 0.51620986
C  C6  1  0.56920000  0.56920000  0.83720000  1.0 0.51620986
C  C7  1  0.83720000  0.02440000  0.56920000  1.0 0.51620986
C  C8  1  0.56920000  0.56920000  0.02440000  1.0 0.51620986
C  C9  1  0.56920000  0.02440000  0.83720000  1.0 0.51620986
C  C10  1  0.83720000  0.56920000  0.56920000  1.0 0.51620986
C  C11  1  0.56920000  0.83720000  0.02440000  1.0 0.51620986
C  C12  1  0.02440000  0.56920000  0.56920000  1.0 0.51620986
C  C13  1  0.16280000  0.43080000  0.43080000  1.0 0.51620986
C  C14  1  0.43080000  0.16280000  0.97560000  1.0 0.51620986
C  C15  1  0.97560000  0.43080000  0.43080000  1.0 0.51620986
C  C16  1  0.43080000  0.97560000  0.16280000  1.0 0.51620986
C  C17  1  0.97560000  0.16280000  0.43080000  1.0 0.51620986
C  C18  1  0.43080000  0.43080000  0.97560000  1.0 0.51620986
C  C19  1  0.16280000  0.97560000  0.43080000  1.0 0.51620986
C  C20  1  0.43080000  0.43080000  0.16280000  1.0 0.51620986
C  C21  1  0.43080000  0.97560000  0.43080000  1.0 0.51620986
C  C22  1  0.16280000  0.43080000  0.97560000  1.0 0.51620986
C  C23  1  0.43080000  0.16280000  0.43080000  1.0 0.5149363472
C  C24  1  0.97560000  0.43080000  0.16280000  1.0 0.51620986
C  C25  1  0.74260000  0.61220000  0.03300000  1.0 -0.1856806015
C  C26  1  0.61220000  0.74260000  0.61220000  1.0 -0.1856806015
C  C27  1  0.03300000  0.61220000  0.74260000  1.0 -0.1856806015
C  C28  1  0.61220000  0.03300000  0.61220000  1.0 -0.1844570295
C  C29  1  0.03300000  0.74260000  0.61220000  1.0 -0.1856806015
C  C30  1  0.61220000  0.61220000  0.74260000  1.0 -0.1856806015
C  C31  1  0.74260000  0.03300000  0.61220000  1.0 -0.1844570295
C  C32  1  0.61220000  0.61220000  0.03300000  1.0 -0.1856806015
C  C33  1  0.61220000  0.03300000  0.74260000  1.0 -0.1844570295
C  C34  1  0.74260000  0.61220000  0.61220000  1.0 -0.1856806015
C  C35  1  0.61220000  0.74260000  0.03300000  1.0 -0.1856806015
C  C36  1  0.03300000  0.61220000  0.61220000  1.0 -0.1856806015
C  C37  1  0.25740000  0.38780000  0.38780000  1.0 -0.1856806015
C  C38  1  0.38780000  0.25740000  0.96700000  1.0 -0.1844570295
C  C39  1  0.96700000  0.38780000  0.38780000  1.0 -0.1856806015
C  C40  1  0.38780000  0.96700000  0.25740000  1.0 -0.1856806015
C  C41  1  0.96700000  0.25740000  0.38780000  1.0 -0.1856806015
C  C42  1  0.38780000  0.38780000  0.96700000  1.0 -0.1856806015
C  C43  1  0.25740000  0.96700000  0.38780000  1.0 -0.1856806015
C  C44  1  0.38780000  0.38780000  0.25740000  1.0 -0.1856806015
C  C45  1  0.38780000  0.96700000  0.38780000  1.0 -0.1856806015
C  C46  1  0.25740000  0.38780000  0.96700000  1.0 -0.1844570295
C  C47  1  0.38780000  0.25740000  0.38780000  1.0 -0.1856806015
C  C48  1  0.96700000  0.38780000  0.25740000  1.0 -0.1856806015
C  C49  1  0.69870000  0.56830000  0.03430000  1.0 0.0744933339
C  C50  1  0.56830000  0.69870000  0.69870000  1.0 0.0744933339
C  C51  1  0.03430000  0.69870000  0.69870000  1.0 0.0744933339
C  C52  1  0.69870000  0.03430000  0.56830000  1.0 0.0744933339
C  C53  1  0.03430000  0.69870000  0.56830000  1.0 0.0744933339
C  C54  1  0.69870000  0.56830000  0.69870000  1.0 0.0744933339
C  C55  1  0.69870000  0.03430000  0.69870000  1.0 0.0744933339
C  C56  1  0.56830000  0.69870000  0.03430000  1.0 0.0744933339
C  C57  1  0.56830000  0.03430000  0.69870000  1.0 0.0744933339
C  C58  1  0.69870000  0.69870000  0.56830000  1.0 0.0744933339
C  C59  1  0.69870000  0.69870000  0.03430000  1.0 0.0744933339
C  C60  1  0.03430000  0.56830000  0.69870000  1.0 0.0744933339
C  C61  1  0.30130000  0.43170000  0.30130000  1.0 0.0744933339
C  C62  1  0.43170000  0.30130000  0.96570000  1.0 0.0744933339
C  C63  1  0.96570000  0.30130000  0.43170000  1.0 0.0744933339
C  C64  1  0.30130000  0.96570000  0.30130000  1.0 0.0744933339
C  C65  1  0.96570000  0.30130000  0.30130000  1.0 0.0744933339
C  C66  1  0.30130000  0.43170000  0.96570000  1.0 0.0744933339
C  C67  1  0.30130000  0.96570000  0.43170000  1.0 0.0753502815
C  C68  1  0.43170000  0.30130000  0.30130000  1.0 0.0744933339
C  C69  1  0.43170000  0.96570000  0.30130000  1.0 0.0744933339
C  C70  1  0.30130000  0.30130000  0.96570000  1.0 0.0744933339
C  C71  1  0.30130000  0.30130000  0.43170000  1.0 0.0744933339
C  C72  1  0.96570000  0.43170000  0.30130000  1.0 0.0744933339
N  N1  1  0.74230000  0.47590000  0.03950000  1.0 -0.4388778836
N  N2  1  0.47590000  0.74230000  0.74230000  1.0 -0.4388778836
N  N3  1  0.03950000  0.74230000  0.74230000  1.0 -0.4388778836
N  N4  1  0.74230000  0.03950000  0.47590000  1.0 -0.4388778836
N  N5  1  0.03950000  0.74230000  0.47590000  1.0 -0.4388778836
N  N6  1  0.74230000  0.47590000  0.74230000  1.0 -0.4388778836
N  N7  1  0.74230000  0.03950000  0.74230000  1.0 -0.4388778836
N  N8  1  0.47590000  0.74230000  0.03950000  1.0 -0.4388778836
N  N9  1  0.47590000  0.03950000  0.74230000  1.0 -0.4388778836
N  N10  1  0.74230000  0.74230000  0.47590000  1.0 -0.4388778836
N  N11  1  0.74230000  0.74230000  0.03950000  1.0 -0.4388778836
N  N12  1  0.03950000  0.47590000  0.74230000  1.0 -0.4388778836
N  N13  1  0.25770000  0.52410000  0.25770000  1.0 -0.4388778836
N  N14  1  0.52410000  0.25770000  0.96050000  1.0 -0.4388778836
N  N15  1  0.96050000  0.25770000  0.52410000  1.0 -0.4388778836
N  N16  1  0.25770000  0.96050000  0.25770000  1.0 -0.4388778836
N  N17  1  0.96050000  0.25770000  0.25770000  1.0 -0.4388778836
N  N18  1  0.25770000  0.52410000  0.96050000  1.0 -0.4388778836
N  N19  1  0.25770000  0.96050000  0.52410000  1.0 -0.4388778836
N  N20  1  0.52410000  0.25770000  0.25770000  1.0 -0.4388778836
N  N21  1  0.52410000  0.96050000  0.25770000  1.0 -0.4388778836
N  N22  1  0.25770000  0.25770000  0.96050000  1.0 -0.4388778836
N  N23  1  0.25770000  0.25770000  0.52410000  1.0 -0.4388778836
N  N24  1  0.96050000  0.52410000  0.25770000  1.0 -0.4388778836
O  O1  1  0.87420000  0.61200000  0.02120000  1.0 -0.4829318536
O  O2  1  0.61200000  0.87420000  0.49260000  1.0 -0.4829318536
O  O3  1  0.02120000  0.49260000  0.87420000  1.0 -0.4829318536
O  O4  1  0.49260000  0.02120000  0.61200000  1.0 -0.4829318536
O  O5  1  0.02120000  0.87420000  0.61200000  1.0 -0.4829318536
O  O6  1  0.49260000  0.61200000  0.87420000  1.0 -0.4829318536
O  O7  1  0.87420000  0.02120000  0.49260000  1.0 -0.4829318536
O  O8  1  0.61200000  0.49260000  0.02120000  1.0 -0.4829318536
O  O9  1  0.61200000  0.02120000  0.87420000  1.0 -0.4829318536
O  O10  1  0.87420000  0.49260000  0.61200000  1.0 -0.4829318536
O  O11  1  0.49260000  0.87420000  0.02120000  1.0 -0.4829318536
O  O12  1  0.02120000  0.61200000  0.49260000  1.0 -0.4829318536
O  O13  1  0.12580000  0.38800000  0.50740000  1.0 -0.4829318536
O  O14  1  0.38800000  0.12580000  0.97880000  1.0 -0.4829318536
O  O15  1  0.97880000  0.50740000  0.38800000  1.0 -0.4829318536
O  O16  1  0.50740000  0.97880000  0.12580000  1.0 -0.4829318536
O  O17  1  0.97880000  0.12580000  0.50740000  1.0 -0.4829318536
O  O18  1  0.50740000  0.38800000  0.97880000  1.0 -0.4829318536
O  O19  1  0.12580000  0.97880000  0.38800000  1.0 -0.4829318536
O  O20  1  0.38800000  0.50740000  0.12580000  1.0 -0.4829318536
O  O21  1  0.38800000  0.97880000  0.50740000  1.0 -0.4829318536
O  O22  1  0.12580000  0.50740000  0.97880000  1.0 -0.4829318536
O  O23  1  0.50740000  0.12580000  0.38800000  1.0 -0.4829318536
O  O24  1  0.97880000  0.38800000  0.12580000  1.0 -0.4829318536
O  O25  1  0.12580000  0.38800000  0.97880000  1.0 -0.4829318536
O  O26  1  0.38800000  0.12580000  0.50740000  1.0 -0.4829318536
O  O27  1  0.97880000  0.50740000  0.12580000  1.0 -0.4829318536
O  O28  1  0.50740000  0.97880000  0.38800000  1.0 -0.4829318536
O  O29  1  0.97880000  0.12580000  0.38800000  1.0 -0.4829318536
O  O30  1  0.50740000  0.38800000  0.12580000  1.0 -0.4829318536
O  O31  1  0.12580000  0.97880000  0.50740000  1.0 -0.4829318536
O  O32  1  0.38800000  0.50740000  0.97880000  1.0 -0.4829318536
O  O33  1  0.38800000  0.97880000  0.12580000  1.0 -0.4829318536
O  O34  1  0.12580000  0.50740000  0.38800000  1.0 -0.4829318536
O  O35  1  0.50740000  0.12580000  0.97880000  1.0 -0.4829318536
O  O36  1  0.97880000  0.38800000  0.50740000  1.0 -0.4829318536
O  O37  1  0.87420000  0.61200000  0.49260000  1.0 -0.4829318536
O  O38  1  0.61200000  0.87420000  0.02120000  1.0 -0.4829318536
O  O39  1  0.02120000  0.49260000  0.61200000  1.0 -0.4829318536
O  O40  1  0.49260000  0.02120000  0.87420000  1.0 -0.4829318536
O  O41  1  0.02120000  0.87420000  0.49260000  1.0 -0.4829318536
O  O42  1  0.49260000  0.61200000  0.02120000  1.0 -0.4829318536
O  O43  1  0.87420000  0.02120000  0.61200000  1.0 -0.4829318536
O  O44  1  0.61200000  0.49260000  0.87420000  1.0 -0.4829318536
O  O45  1  0.61200000  0.02120000  0.49260000  1.0 -0.4829318536
O  O46  1  0.87420000  0.49260000  0.02120000  1.0 -0.4829318536
O  O47  1  0.49260000  0.87420000  0.61200000  1.0 -0.4829318536
O  O48  1  0.02120000  0.61200000  0.87420000  1.0 -0.4829318536
