# DDEC6 charges by PACMAN v1.1 (https://github.com/mtap-research/PACMAN-charge/)
data_ADOVUN_FSR_pacman
_symmetry_space_group_name_H-M   'P 1'
_cell_length_a   12.54980000
_cell_length_b   15.26830000
_cell_length_c   17.86740000
_cell_angle_alpha   90.91700000
_cell_angle_beta   106.62400000
_cell_angle_gamma   95.55100000
_symmetry_Int_Tables_number   1
_chemical_formula_structural   Cd4H47C66N3O43
_chemical_formula_sum   'Cd8 H94 C132 N6 O86'
_cell_volume   3261.73701095
_cell_formula_units_Z   2
loop_
 _symmetry_equiv_pos_site_id
 _symmetry_equiv_pos_as_xyz
  1  'x, y, z'
loop_
 _atom_site_type_symbol
 _atom_site_label
 _atom_site_symmetry_multiplicity
 _atom_site_fract_x
 _atom_site_fract_y
 _atom_site_fract_z
 _atom_site_occupancy
 _atom_site_charge
Cd  Cd1  1  0.08843000  0.57124000  0.09229000  1.0 1.0285459117
Cd  Cd2  1  0.03269000  0.84301000  0.18163000  1.0 0.9744580345
Cd  Cd3  1  0.96509000  0.97869000  0.59089000  1.0 0.6415441588
Cd  Cd4  1  0.05169000  0.98222000  0.60400000  1.0 0.663951333
Cd  Cd5  1  0.91157000  0.42876000  0.90771000  1.0 1.0285459117
Cd  Cd6  1  0.96731000  0.15699000  0.81837000  1.0 0.9744580345
Cd  Cd7  1  0.03491000  0.02131000  0.40911000  1.0 0.6415441588
Cd  Cd8  1  0.94831000  0.01778000  0.39600000  1.0 0.663951333
H  H1  1  0.33000000  0.84680000  0.16000000  1.0 0.119460953
H  H2  1  0.29740000  0.83140000  0.23980000  1.0 0.1304239624
H  H3  1  0.75230000  0.87520000  0.18610000  1.0 0.1104086093
H  H4  1  0.80610000  0.79070000  0.22590000  1.0 0.1104086093
H  H5  1  0.84870000  0.60160000  0.26070000  1.0 0.1104086093
H  H6  1  0.87040000  0.50370000  0.28810000  1.0 0.119460953
H  H7  1  0.98650000  0.76700000  0.56370000  1.0 0.0910697958
H  H8  1  0.88710000  0.77030000  0.48400000  1.0 0.119460953
H  H9  1  0.13500000  0.24860000  0.03690000  1.0 0.119460953
H  H10  1  0.25200000  0.30610000  0.04590000  1.0 0.1104086093
H  H11  1  0.32980000  0.04240000  0.32690000  1.0 0.1104086093
H  H12  1  0.39210000  0.01290000  0.26550000  1.0 0.0790462012
H  H13  1  0.20710000  0.64190000  0.98470000  1.0 0.3990407095
H  H14  1  0.14140000  0.55940000  0.93990000  1.0 0.3990407095
H  H15  1  0.07920000  0.69310000  0.27070000  1.0 0.3492836015
H  H16  1  0.09440000  0.76140000  0.33630000  1.0 0.3492836015
H  H17  1  0.91230000  0.68990000  0.09670000  1.0 0.3196436123
H  H18  1  0.83790000  0.74870000  0.09130000  1.0 0.2697700069
H  H19  1  0.91340000  0.93100000  0.07770000  1.0 0.3409746022
H  H20  1  0.02020000  0.98970000  0.08350000  1.0 0.3409746022
H  H21  1  0.99920000  0.91200000  0.77350000  1.0 0.0390642447
H  H22  1  0.05980000  0.72540000  0.67430000  1.0 0.0790462012
H  H23  1  0.00750000  0.65220000  0.73510000  1.0 0.070767367
H  H24  1  0.15140000  0.69330000  0.76300000  1.0 0.070767367
H  H25  1  0.12990000  0.76580000  0.89140000  1.0 0.070767367
H  H26  1  0.02620000  0.83980000  0.87830000  1.0 0.0790462012
H  H27  1  0.98630000  0.72480000  0.86350000  1.0 0.070767367
H  H28  1  0.72490000  0.83700000  0.15550000  1.0 0.0910697958
H  H29  1  0.78860000  0.76330000  0.20770000  1.0 0.0790462012
H  H30  1  0.00980000  0.77450000  0.56180000  1.0 0.119460953
H  H31  1  0.88700000  0.75990000  0.50180000  1.0 0.1019147715
H  H32  1  0.34730000  0.04350000  0.30650000  1.0 0.1019147715
H  H33  1  0.38030000  0.02320000  0.22850000  1.0 0.0910697958
H  H34  1  0.06140000  0.93120000  0.77660000  1.0 0.0214177168
H  H35  1  0.02900000  0.71030000  0.69570000  1.0 0.0910697958
H  H36  1  0.93880000  0.67500000  0.75270000  1.0 0.0790462012
H  H37  1  0.08530000  0.67010000  0.79030000  1.0 0.070767367
H  H38  1  0.09100000  0.77760000  0.90790000  1.0 0.070767367
H  H39  1  0.03810000  0.87990000  0.88270000  1.0 0.0589743846
H  H40  1  0.94480000  0.78240000  0.87040000  1.0 0.0494253117
H  H41  1  0.28650000  0.06760000  0.57800000  1.0 0.119460953
H  H42  1  0.28010000  0.84910000  0.49880000  1.0 0.1104086093
H  H43  1  0.42570000  0.86600000  0.50810000  1.0 0.1019147715
H  H44  1  0.32690000  0.89170000  0.42020000  1.0 0.119460953
H  H45  1  0.41510000  0.05660000  0.44030000  1.0 0.0910697958
H  H46  1  0.42060000  0.11040000  0.53020000  1.0 0.1104086093
H  H47  1  0.51370000  0.03080000  0.52810000  1.0 0.0910697958
H  H48  1  0.67000000  0.15320000  0.84000000  1.0 0.119460953
H  H49  1  0.70260000  0.16860000  0.76020000  1.0 0.1304239624
H  H50  1  0.24770000  0.12480000  0.81390000  1.0 0.1104086093
H  H51  1  0.19390000  0.20930000  0.77410000  1.0 0.1104086093
H  H52  1  0.15130000  0.39840000  0.73930000  1.0 0.1104086093
H  H53  1  0.12960000  0.49630000  0.71190000  1.0 0.119460953
H  H54  1  0.01350000  0.23300000  0.43630000  1.0 0.0910697958
H  H55  1  0.11290000  0.22970000  0.51600000  1.0 0.119460953
H  H56  1  0.86500000  0.75140000  0.96310000  1.0 0.119460953
H  H57  1  0.74800000  0.69390000  0.95410000  1.0 0.1104086093
H  H58  1  0.67020000  0.95760000  0.67310000  1.0 0.1104086093
H  H59  1  0.60790000  0.98710000  0.73450000  1.0 0.0790462012
H  H60  1  0.79290000  0.35810000  0.01530000  1.0 0.3990407095
H  H61  1  0.85860000  0.44060000  0.06010000  1.0 0.3990407095
H  H62  1  0.92080000  0.30690000  0.72930000  1.0 0.3492836015
H  H63  1  0.90560000  0.23860000  0.66370000  1.0 0.3492836015
H  H64  1  0.08770000  0.31010000  0.90330000  1.0 0.3196436123
H  H65  1  0.16210000  0.25130000  0.90870000  1.0 0.2697700069
H  H66  1  0.08660000  0.06900000  0.92230000  1.0 0.3409746022
H  H67  1  0.97980000  0.01030000  0.91650000  1.0 0.3409746022
H  H68  1  0.00080000  0.08800000  0.22650000  1.0 0.0390642447
H  H69  1  0.94020000  0.27460000  0.32570000  1.0 0.0790462012
H  H70  1  0.99250000  0.34780000  0.26490000  1.0 0.070767367
H  H71  1  0.84860000  0.30670000  0.23700000  1.0 0.070767367
H  H72  1  0.87010000  0.23420000  0.10860000  1.0 0.070767367
H  H73  1  0.97380000  0.16020000  0.12170000  1.0 0.070767367
H  H74  1  0.01370000  0.27520000  0.13650000  1.0 0.070767367
H  H75  1  0.27510000  0.16300000  0.84450000  1.0 0.0910697958
H  H76  1  0.21140000  0.23670000  0.79230000  1.0 0.0790462012
H  H77  1  0.99020000  0.22550000  0.43820000  1.0 0.119460953
H  H78  1  0.11300000  0.24010000  0.49820000  1.0 0.1019147715
H  H79  1  0.65270000  0.95650000  0.69350000  1.0 0.1019147715
H  H80  1  0.61970000  0.97680000  0.77150000  1.0 0.0910697958
H  H81  1  0.93860000  0.06880000  0.22340000  1.0 0.0214177168
H  H82  1  0.97100000  0.28970000  0.30430000  1.0 0.0910697958
H  H83  1  0.06120000  0.32500000  0.24730000  1.0 0.0790462012
H  H84  1  0.91470000  0.32990000  0.20970000  1.0 0.070767367
H  H85  1  0.90900000  0.22240000  0.09210000  1.0 0.070767367
H  H86  1  0.96190000  0.12010000  0.11730000  1.0 0.0589743846
H  H87  1  0.05520000  0.21760000  0.12960000  1.0 0.0494253117
H  H88  1  0.71350000  0.93240000  0.42200000  1.0 0.119460953
H  H89  1  0.71990000  0.15090000  0.50120000  1.0 0.1104086093
H  H90  1  0.57430000  0.13400000  0.49190000  1.0 0.1019147715
H  H91  1  0.67310000  0.10830000  0.57980000  1.0 0.119460953
H  H92  1  0.58490000  0.94340000  0.55970000  1.0 0.0910697958
H  H93  1  0.57940000  0.88960000  0.46980000  1.0 0.1104086093
H  H94  1  0.48630000  0.96920000  0.47190000  1.0 0.0910697958
C  C1  1  0.53270000  0.63710000  0.33641000  1.0 0.0214177168
C  C2  1  0.41170000  0.60250000  0.31986000  1.0 0.0104756561
C  C3  1  0.39740000  0.51150000  0.29543000  1.0 0.0214177168
C  C4  1  0.50910000  0.48400000  0.30494000  1.0 0.002806915
C  C5  1  0.59140000  0.55810000  0.33449000  1.0 -0.0106818941
C  C6  1  0.69130000  0.54610000  0.39060000  1.0 0.0104756561
C  C7  1  0.73660000  0.60720000  0.45880000  1.0 0.0104756561
C  C8  1  0.68350000  0.67980000  0.46960000  1.0 -0.0645287453
C  C9  1  0.58290000  0.70400000  0.41028000  1.0 0.0390642447
C  C10  1  0.50460000  0.72470000  0.45490000  1.0 0.002806915
C  C11  1  0.39070000  0.69480000  0.42953000  1.0 0.0104756561
C  C12  1  0.34410000  0.63310000  0.36125000  1.0 0.0104756561
C  C13  1  0.25580000  0.57530000  0.37520000  1.0 -0.0164346231
C  C14  1  0.24200000  0.48690000  0.35124000  1.0 -0.0034466434
C  C15  1  0.31110000  0.45500000  0.30845000  1.0 -0.0316671973
C  C16  1  0.32220000  0.36080000  0.32556000  1.0 0.070767367
C  C17  1  0.44400000  0.33150000  0.33516000  1.0 0.0494253117
C  C18  1  0.53200000  0.40020000  0.32747000  1.0 -0.0164346231
C  C19  1  0.63460000  0.38890000  0.38486000  1.0 0.002806915
C  C20  1  0.71530000  0.46020000  0.41374000  1.0 0.0104756561
C  C21  1  0.78980000  0.46770000  0.49574000  1.0 0.0589743846
C  C22  1  0.78920000  0.55970000  0.52350000  1.0 0.002806915
C  C23  1  0.78050000  0.58100000  0.59680000  1.0 -0.0530562323
C  C24  1  0.72560000  0.65490000  0.60850000  1.0 -0.0783046677
C  C25  1  0.67450000  0.70110000  0.54500000  1.0 0.0104756561
C  C26  1  0.56330000  0.72930000  0.53600000  1.0 0.0104756561
C  C27  1  0.50550000  0.70990000  0.59030000  1.0 -0.0106818941
C  C28  1  0.38880000  0.67960000  0.56392000  1.0 0.0104756561
C  C29  1  0.33020000  0.67510000  0.48470000  1.0 -0.0034466434
C  C30  1  0.23540000  0.60590000  0.44834000  1.0 0.0390642447
C  C31  1  0.57510000  0.73290000  0.32860000  1.0 -0.1533443524
C  C32  1  0.12270000  0.59080000  0.46530000  1.0 -0.1698106894
C  C33  1  0.34150000  0.29160000  0.27150000  1.0 -0.1698106894
C  C34  1  0.48750000  0.79440000  0.29550000  1.0 0.2947878198
C  C35  1  0.31810000  0.80190000  0.19700000  1.0 -0.1757210686
C  C36  1  0.22550000  0.73170000  0.15510000  1.0 0.6080462293
C  C37  1  0.68530000  0.75770000  0.31100000  1.0 0.1304239624
C  C38  1  0.77690000  0.84610000  0.23640000  1.0 0.0390642447
C  C39  1  0.87050000  0.90480000  0.29070000  1.0 0.2697700069
C  C40  1  0.02310000  0.54640000  0.40110000  1.0 0.5252255158
C  C41  1  0.90570000  0.55930000  0.27390000  1.0 -0.190170208
C  C42  1  0.94710000  0.54220000  0.20380000  1.0 0.6080462293
C  C43  1  0.09600000  0.66340000  0.51200000  1.0 0.4982858554
C  C44  1  0.96760000  0.76350000  0.50590000  1.0 -0.2818258449
C  C45  1  0.03920000  0.83690000  0.47760000  1.0 0.3313160495
C  C46  1  0.32500000  0.31490000  0.18800000  1.0 0.5213285343
C  C47  1  0.18570000  0.29970000  0.06560000  1.0 -0.190170208
C  C48  1  0.12590000  0.38230000  0.04960000  1.0 0.6080462293
C  C49  1  0.30060000  0.19660000  0.27950000  1.0 0.5213285343
C  C50  1  0.33320000  0.04820000  0.27250000  1.0 -0.0783046677
C  C51  1  0.22170000  0.01170000  0.21660000  1.0 0.4982858554
C  C52  1  0.01580000  0.86020000  0.73560000  1.0 0.2462541715
C  C53  1  0.06700000  0.70970000  0.73450000  1.0 -0.1108636043
C  C54  1  0.04640000  0.77850000  0.85600000  1.0 -0.0164346231
C  C55  1  0.67640000  0.74400000  0.29940000  1.0 0.1367440403
C  C56  1  0.75180000  0.81750000  0.20970000  1.0 -0.0783046677
C  C57  1  0.83680000  0.88810000  0.25840000  1.0 0.2208770619
C  C58  1  0.99560000  0.83810000  0.46210000  1.0 0.3313160495
C  C59  1  0.32960000  0.05490000  0.25010000  1.0 -0.0530562323
C  C60  1  0.21140000  0.01720000  0.21060000  1.0 0.5118038611
C  C61  1  0.05320000  0.86740000  0.74420000  1.0 0.2341546969
C  C62  1  0.02100000  0.70810000  0.75470000  1.0 0.002806915
C  C63  1  0.02660000  0.80990000  0.86600000  1.0 -0.0860833843
C  C64  1  0.27490000  0.99780000  0.55720000  1.0 0.1990177737
C  C65  1  0.34500000  0.89170000  0.48390000  1.0 -0.3478157266
C  C66  1  0.42830000  0.04780000  0.50290000  1.0 -0.2619938596
C  C67  1  0.46730000  0.36290000  0.66359000  1.0 0.0214177168
C  C68  1  0.58830000  0.39750000  0.68014000  1.0 0.0104756561
C  C69  1  0.60260000  0.48850000  0.70457000  1.0 0.0214177168
C  C70  1  0.49090000  0.51600000  0.69506000  1.0 0.002806915
C  C71  1  0.40860000  0.44190000  0.66551000  1.0 -0.0106818941
C  C72  1  0.30870000  0.45390000  0.60940000  1.0 0.0104756561
C  C73  1  0.26340000  0.39280000  0.54120000  1.0 0.0104756561
C  C74  1  0.31650000  0.32020000  0.53040000  1.0 -0.0679840377
C  C75  1  0.41710000  0.29600000  0.58972000  1.0 0.0390642447
C  C76  1  0.49540000  0.27530000  0.54510000  1.0 0.002806915
C  C77  1  0.60930000  0.30520000  0.57047000  1.0 0.0104756561
C  C78  1  0.65590000  0.36690000  0.63875000  1.0 0.0104756561
C  C79  1  0.74420000  0.42470000  0.62480000  1.0 -0.0164346231
C  C80  1  0.75800000  0.51310000  0.64876000  1.0 -0.0034466434
C  C81  1  0.68890000  0.54500000  0.69155000  1.0 -0.0316671973
C  C82  1  0.67780000  0.63920000  0.67444000  1.0 0.070767367
C  C83  1  0.55600000  0.66850000  0.66484000  1.0 0.0494253117
C  C84  1  0.46800000  0.59980000  0.67253000  1.0 -0.0164346231
C  C85  1  0.36540000  0.61110000  0.61514000  1.0 0.002806915
C  C86  1  0.28470000  0.53980000  0.58626000  1.0 0.0104756561
C  C87  1  0.21020000  0.53230000  0.50426000  1.0 0.0589743846
C  C88  1  0.21080000  0.44030000  0.47650000  1.0 0.002806915
C  C89  1  0.21950000  0.41900000  0.40320000  1.0 -0.0530562323
C  C90  1  0.27440000  0.34510000  0.39150000  1.0 -0.0783046677
C  C91  1  0.32550000  0.29890000  0.45500000  1.0 0.0104756561
C  C92  1  0.43670000  0.27070000  0.46400000  1.0 0.0104756561
C  C93  1  0.49450000  0.29010000  0.40970000  1.0 -0.0106818941
C  C94  1  0.61120000  0.32040000  0.43608000  1.0 0.0104756561
C  C95  1  0.66980000  0.32490000  0.51530000  1.0 -0.0034466434
C  C96  1  0.76460000  0.39410000  0.55166000  1.0 0.0390642447
C  C97  1  0.42490000  0.26710000  0.67140000  1.0 -0.1533443524
C  C98  1  0.87730000  0.40920000  0.53470000  1.0 -0.1698106894
C  C99  1  0.65850000  0.70840000  0.72850000  1.0 -0.1698106894
C  C100  1  0.51250000  0.20560000  0.70450000  1.0 0.2974931256
C  C101  1  0.68190000  0.19810000  0.80300000  1.0 -0.1757210686
C  C102  1  0.77450000  0.26830000  0.84490000  1.0 0.6080462293
C  C103  1  0.31470000  0.24230000  0.68900000  1.0 0.1304239624
C  C104  1  0.22310000  0.15390000  0.76360000  1.0 0.0390642447
C  C105  1  0.12950000  0.09520000  0.70930000  1.0 0.2697700069
C  C106  1  0.97690000  0.45360000  0.59890000  1.0 0.5252255158
C  C107  1  0.09430000  0.44070000  0.72610000  1.0 -0.190170208
C  C108  1  0.05290000  0.45780000  0.79620000  1.0 0.6080462293
C  C109  1  0.90400000  0.33660000  0.48800000  1.0 0.4982858554
C  C110  1  0.03240000  0.23650000  0.49410000  1.0 -0.2818258449
C  C111  1  0.96080000  0.16310000  0.52240000  1.0 0.3313160495
C  C112  1  0.67500000  0.68510000  0.81200000  1.0 0.5213285343
C  C113  1  0.81430000  0.70030000  0.93440000  1.0 -0.190170208
C  C114  1  0.87410000  0.61770000  0.95040000  1.0 0.6080462293
C  C115  1  0.69940000  0.80340000  0.72050000  1.0 0.5213285343
C  C116  1  0.66680000  0.95180000  0.72750000  1.0 -0.0783046677
C  C117  1  0.77830000  0.98830000  0.78340000  1.0 0.4982858554
C  C118  1  0.98420000  0.13980000  0.26440000  1.0 0.2462541715
C  C119  1  0.93300000  0.29030000  0.26550000  1.0 -0.1108636043
C  C120  1  0.95360000  0.22150000  0.14400000  1.0 -0.0106818941
C  C121  1  0.32360000  0.25600000  0.70060000  1.0 0.1367440403
C  C122  1  0.24820000  0.18250000  0.79030000  1.0 -0.0783046677
C  C123  1  0.16320000  0.11190000  0.74160000  1.0 0.2208770619
C  C124  1  0.00440000  0.16190000  0.53790000  1.0 0.3313160495
C  C125  1  0.67040000  0.94510000  0.74990000  1.0 -0.0530562323
C  C126  1  0.78860000  0.98280000  0.78940000  1.0 0.5118038611
C  C127  1  0.94680000  0.13260000  0.25580000  1.0 0.2341546969
C  C128  1  0.97900000  0.29190000  0.24530000  1.0 0.002806915
C  C129  1  0.97340000  0.19010000  0.13400000  1.0 -0.0783046677
C  C130  1  0.72510000  0.00220000  0.44280000  1.0 0.1990177737
C  C131  1  0.65500000  0.10830000  0.51610000  1.0 -0.3478157266
C  C132  1  0.57170000  0.95220000  0.49710000  1.0 -0.2619938596
N  N1  1  0.04200000  0.78550000  0.77440000  1.0 0.002806915
N  N2  1  0.03430000  0.79770000  0.78710000  1.0 -0.0679840377
N  N3  1  0.34710000  0.98010000  0.51610000  1.0 -0.1048594906
N  N4  1  0.95800000  0.21450000  0.22560000  1.0 -0.0034466434
N  N5  1  0.96570000  0.20230000  0.21290000  1.0 -0.0783046677
N  N6  1  0.65290000  0.01990000  0.48390000  1.0 -0.1048594906
O  O1  1  0.48310000  0.86345000  0.32729000  1.0 -0.4238348051
O  O2  1  0.41900000  0.76051000  0.22840000  1.0 -0.190170208
O  O3  1  0.24820000  0.65435000  0.15216000  1.0 -0.5135564848
O  O4  1  0.13050000  0.75590000  0.12556000  1.0 -0.5607605471
O  O5  1  0.76380000  0.71643000  0.32999000  1.0 -0.2184412693
O  O6  1  0.67980000  0.82410000  0.26410000  1.0 0.0214177168
O  O7  1  0.85990000  0.93760000  0.35220000  1.0 -0.2064488127
O  O8  1  0.95740000  0.91940000  0.26930000  1.0 -0.2064488127
O  O9  1  0.97470000  0.47574000  0.40613000  1.0 -0.4611177836
O  O10  1  0.99870000  0.59506000  0.33970000  1.0 -0.3061040088
O  O11  1  0.03720000  0.58568000  0.20127000  1.0 -0.5607605471
O  O12  1  0.88540000  0.48790000  0.15281000  1.0 -0.5706076368
O  O13  1  0.16160000  0.70223000  0.56854000  1.0 -0.4463614269
O  O14  1  0.99140000  0.68097000  0.47983000  1.0 -0.3576629802
O  O15  1  0.09390000  0.81960000  0.43150000  1.0 -0.0164346231
O  O16  1  0.03990000  0.91700000  0.50200000  1.0 -0.2184412693
O  O17  1  0.39040000  0.35640000  0.16249000  1.0 -0.2908313616
O  O18  1  0.22030000  0.28340000  0.14693000  1.0 -0.3478157266
O  O19  1  0.12860000  0.43300000  0.10496000  1.0 -0.5295700176
O  O20  1  0.07840000  0.38970000  0.97812000  1.0 -0.5879203721
O  O21  1  0.22000000  0.17500000  0.30100000  1.0 -0.4611177836
O  O22  1  0.36310000  0.14020000  0.26030000  1.0 -0.1698106894
O  O23  1  0.18800000  0.04710000  0.15440000  1.0 -0.1533443524
O  O24  1  0.17600000  0.94170000  0.23480000  1.0 -0.5295700176
O  O25  1  0.15360000  0.59380000  0.98750000  1.0 -0.7597595795
O  O26  1  0.09630000  0.75504000  0.28322000  1.0 -0.7339636131
O  O27  1  0.88920000  0.73850000  0.12050000  1.0 -0.6271859749
O  O28  1  0.99040000  0.92910000  0.08010000  1.0 -0.7188074633
O  O29  1  0.80330000  0.03090000  0.60520000  1.0 -0.0106818941
O  O30  1  0.01020000  0.87160000  0.66750000  1.0 -0.1353023543
O  O31  1  0.79670000  0.90320000  0.48660000  1.0 -0.5439281507
O  O32  1  0.65590000  0.79660000  0.23950000  1.0 0.0214177168
O  O33  1  0.81690000  0.92360000  0.31520000  1.0 -0.0860833843
O  O34  1  0.92190000  0.90770000  0.23600000  1.0 -0.1323500369
O  O35  1  0.04550000  0.82500000  0.41330000  1.0 -0.0316671973
O  O36  1  0.96870000  0.90900000  0.48330000  1.0 -0.2253162607
O  O37  1  0.23900000  0.16900000  0.31500000  1.0 -0.4611177836
O  O38  1  0.35300000  0.14850000  0.24190000  1.0 -0.2184412693
O  O39  1  0.15400000  0.05020000  0.15330000  1.0 -0.3280014439
O  O40  1  0.17880000  0.95000000  0.24170000  1.0 -0.4983241304
O  O41  1  0.88500000  0.01000000  0.62060000  1.0 -0.2021986811
O  O42  1  0.06080000  0.86300000  0.67790000  1.0 -0.1323500369
O  O43  1  0.20450000  0.94510000  0.57090000  1.0 -0.4463614269
O  O44  1  0.51690000  0.13655000  0.67271000  1.0 -0.4238348051
O  O45  1  0.58100000  0.23949000  0.77160000  1.0 -0.190170208
O  O46  1  0.75180000  0.34565000  0.84784000  1.0 -0.5135564848
O  O47  1  0.86950000  0.24410000  0.87444000  1.0 -0.5607605471
O  O48  1  0.23620000  0.28357000  0.67001000  1.0 -0.2184412693
O  O49  1  0.32020000  0.17590000  0.73590000  1.0 0.0214177168
O  O50  1  0.14010000  0.06240000  0.64780000  1.0 -0.2064488127
O  O51  1  0.04260000  0.08060000  0.73070000  1.0 -0.2064488127
O  O52  1  0.02530000  0.52426000  0.59387000  1.0 -0.4611177836
O  O53  1  0.00130000  0.40494000  0.66030000  1.0 -0.3061040088
O  O54  1  0.96280000  0.41432000  0.79873000  1.0 -0.5607605471
O  O55  1  0.11460000  0.51210000  0.84719000  1.0 -0.5706076368
O  O56  1  0.83840000  0.29777000  0.43146000  1.0 -0.4463614269
O  O57  1  0.00860000  0.31903000  0.52017000  1.0 -0.3576629802
O  O58  1  0.90610000  0.18040000  0.56850000  1.0 -0.0164346231
O  O59  1  0.96010000  0.08300000  0.49800000  1.0 -0.2184412693
O  O60  1  0.60960000  0.64360000  0.83751000  1.0 -0.2818258449
O  O61  1  0.77970000  0.71660000  0.85307000  1.0 -0.3478157266
O  O62  1  0.87140000  0.56700000  0.89504000  1.0 -0.5295700176
O  O63  1  0.92160000  0.61030000  0.02188000  1.0 -0.5879203721
O  O64  1  0.78000000  0.82500000  0.69900000  1.0 -0.4611177836
O  O65  1  0.63690000  0.85980000  0.73970000  1.0 -0.1698106894
O  O66  1  0.81200000  0.95290000  0.84560000  1.0 -0.156010051
O  O67  1  0.82400000  0.05830000  0.76520000  1.0 -0.5295700176
O  O68  1  0.84640000  0.40620000  0.01250000  1.0 -0.7597595795
O  O69  1  0.90370000  0.24496000  0.71678000  1.0 -0.7339636131
O  O70  1  0.11080000  0.26150000  0.87950000  1.0 -0.6271859749
O  O71  1  0.00960000  0.07090000  0.91990000  1.0 -0.7188074633
O  O72  1  0.19670000  0.96910000  0.39480000  1.0 -0.0106818941
O  O73  1  0.98980000  0.12840000  0.33250000  1.0 -0.1353023543
O  O74  1  0.20330000  0.09680000  0.51340000  1.0 -0.5439281507
O  O75  1  0.34410000  0.20340000  0.76050000  1.0 0.0214177168
O  O76  1  0.18310000  0.07640000  0.68480000  1.0 -0.0860833843
O  O77  1  0.07810000  0.09230000  0.76400000  1.0 -0.1323500369
O  O78  1  0.95450000  0.17500000  0.58670000  1.0 -0.0316671973
O  O79  1  0.03130000  0.09100000  0.51670000  1.0 -0.2184412693
O  O80  1  0.76100000  0.83100000  0.68500000  1.0 -0.4611177836
O  O81  1  0.64700000  0.85150000  0.75810000  1.0 -0.2184412693
O  O82  1  0.84600000  0.94980000  0.84670000  1.0 -0.3280014439
O  O83  1  0.82120000  0.05000000  0.75830000  1.0 -0.4983241304
O  O84  1  0.11500000  0.99000000  0.37940000  1.0 -0.2021986811
O  O85  1  0.93920000  0.13700000  0.32210000  1.0 -0.1353023543
O  O86  1  0.79550000  0.05490000  0.42910000  1.0 -0.4463614269
