# DDEC6 charges by PACMAN v1.1 (https://github.com/mtap-research/PACMAN-charge/)
data_AFAREH_ASR_pacman
_symmetry_space_group_name_H-M   'P 1'
_cell_length_a   12.48120000
_cell_length_b   12.64720000
_cell_length_c   13.42670000
_cell_angle_alpha   107.45200000
_cell_angle_beta   110.79300000
_cell_angle_gamma   95.66800000
_symmetry_Int_Tables_number   1
_chemical_formula_structural   La2HC18S6N6O13
_chemical_formula_sum   'La4 H2 C36 S12 N12 O26'
_cell_volume   1839.45924154
_cell_formula_units_Z   2
loop_
 _symmetry_equiv_pos_site_id
 _symmetry_equiv_pos_as_xyz
  1  'x, y, z'
loop_
 _atom_site_type_symbol
 _atom_site_label
 _atom_site_symmetry_multiplicity
 _atom_site_fract_x
 _atom_site_fract_y
 _atom_site_fract_z
 _atom_site_occupancy
 _atom_site_charge
La  La1  1  0.57639000  0.41300000  0.31050000  1.0 1.8379858965
La  La2  1  0.11495000  0.93540000  0.21241000  1.0 1.6536520952
La  La3  1  0.42361000  0.58700000  0.68950000  1.0 1.8379858965
La  La4  1  0.88505000  0.06460000  0.78759000  1.0 1.6561019653
H  H1  1  0.43300000  0.38100000  0.43200000  1.0 0.3724816674
H  H2  1  0.56700000  0.61900000  0.56800000  1.0 0.3724816674
C  C1  1  0.59210000  0.37290000  0.04670000  1.0 0.0601402804
C  C2  1  0.18330000  0.46270000  0.17930000  1.0 0.0601402804
C  C3  1  0.81270000  0.59380000  0.58860000  1.0 0.549576872
C  C4  1  0.02020000  0.51610000  0.13570000  1.0 0.0601402804
C  C5  1  0.26550000  0.91630000  0.47320000  1.0 0.5619220818
C  C6  1  0.91540000  0.53850000  0.61290000  1.0 0.0421387949
C  C7  1  0.10630000  0.49920000  0.65290000  1.0 0.0421387949
C  C8  1  0.84850000  0.75770000  0.12750000  1.0 0.5619220818
C  C9  1  0.92930000  0.67690000  0.13870000  1.0 0.0421387949
C  C10  1  0.27120000  0.38710000  0.18910000  1.0 0.5752229923
C  C11  1  0.65890000  0.29270000  0.09100000  1.0 0.549576872
C  C12  1  0.15940000  0.95160000  0.48920000  1.0 0.0694499314
C  C13  1  0.09590000  0.62340000  0.18350000  1.0 0.0694499314
C  C14  1  0.98980000  0.99520000  0.44410000  1.0 0.0694499314
C  C15  1  0.49770000  0.50940000  0.05240000  1.0 0.0894946838
C  C16  1  0.20520000  0.36560000  0.64190000  1.0 0.0694499314
C  C17  1  0.30900000  0.31220000  0.64620000  1.0 0.5418852801
C  C18  1  0.01440000  0.40660000  0.61210000  1.0 0.0421387949
C  C19  1  0.40790000  0.62710000  0.95330000  1.0 0.0601402804
C  C20  1  0.81670000  0.53730000  0.82070000  1.0 0.0601402804
C  C21  1  0.18730000  0.40620000  0.41140000  1.0 0.549576872
C  C22  1  0.97980000  0.48390000  0.86430000  1.0 0.0601402804
C  C23  1  0.73450000  0.08370000  0.52680000  1.0 0.5619220818
C  C24  1  0.08460000  0.46150000  0.38710000  1.0 0.0421387949
C  C25  1  0.89370000  0.50080000  0.34710000  1.0 0.0421387949
C  C26  1  0.15150000  0.24230000  0.87250000  1.0 0.5619220818
C  C27  1  0.07070000  0.32310000  0.86130000  1.0 0.0421387949
C  C28  1  0.72880000  0.61290000  0.81090000  1.0 0.5752229923
C  C29  1  0.34110000  0.70730000  0.90900000  1.0 0.549576872
C  C30  1  0.84060000  0.04840000  0.51080000  1.0 0.0694499314
C  C31  1  0.90410000  0.37660000  0.81650000  1.0 0.0694499314
C  C32  1  0.01020000  0.00480000  0.55590000  1.0 0.0694499314
C  C33  1  0.50230000  0.49060000  0.94760000  1.0 0.0894946838
C  C34  1  0.79480000  0.63440000  0.35810000  1.0 0.0694499314
C  C35  1  0.69100000  0.68780000  0.35380000  1.0 0.5418852801
C  C36  1  0.98560000  0.59340000  0.38790000  1.0 0.0421387949
S  S1  1  0.14406000  0.97323000  0.61703000  1.0 0.2084802659
S  S2  1  0.57234000  0.38362000  0.91614000  1.0 0.192081199
S  S3  1  0.05656000  0.62201000  0.66839000  1.0 0.2084802659
S  S4  1  0.87560000  0.53156000  0.09211000  1.0 0.1595219905
S  S5  1  0.23806000  0.60928000  0.23032000  1.0 0.1848244006
S  S6  1  0.06547000  0.28345000  0.59581000  1.0 0.1479397053
S  S7  1  0.85594000  0.02677000  0.38297000  1.0 0.2084802659
S  S8  1  0.42766000  0.61638000  0.08386000  1.0 0.192081199
S  S9  1  0.94344000  0.37799000  0.33161000  1.0 0.2084802659
S  S10  1  0.12440000  0.46844000  0.90789000  1.0 0.1595219905
S  S11  1  0.76194000  0.39072000  0.76968000  1.0 0.1848244006
S  S12  1  0.93453000  0.71655000  0.40419000  1.0 0.1479397053
N  N1  1  0.54840000  0.44140000  0.10920000  1.0 -0.3136783755
N  N2  1  0.07370000  0.96580000  0.40600000  1.0 -0.3389388388
N  N3  1  0.04510000  0.71330000  0.18320000  1.0 -0.3321277862
N  N4  1  0.06840000  0.42510000  0.13280000  1.0 -0.2564421063
N  N5  1  0.90480000  0.42760000  0.58720000  1.0 -0.2868364519
N  N6  1  0.21540000  0.47550000  0.66830000  1.0 -0.3389388388
N  N7  1  0.45160000  0.55860000  0.89080000  1.0 -0.3136783755
N  N8  1  0.92630000  0.03420000  0.59400000  1.0 -0.3389388388
N  N9  1  0.95490000  0.28670000  0.81680000  1.0 -0.3321277862
N  N10  1  0.93160000  0.57490000  0.86720000  1.0 -0.2564421063
N  N11  1  0.09520000  0.57240000  0.41280000  1.0 -0.2868364519
N  N12  1  0.78460000  0.52450000  0.33170000  1.0 -0.3389388388
O  O1  1  0.71200000  0.53150000  0.52850000  1.0 -0.5697746342
O  O2  1  0.40090000  0.38090000  0.66530000  1.0 -0.5697746342
O  O3  1  0.37650000  0.44160000  0.23210000  1.0 -0.6080882913
O  O4  1  0.26380000  0.89780000  0.37580000  1.0 -0.5697746342
O  O5  1  0.90010000  0.86030000  0.15490000  1.0 -0.5905370777
O  O6  1  0.47120000  0.36810000  0.42870000  1.0 -0.7364846235
O  O7  1  0.66290000  0.29160000  0.18460000  1.0 -0.5905370777
O  O8  1  0.34490000  0.90930000  0.55710000  1.0 -0.4629647648
O  O9  1  0.83900000  0.70020000  0.63080000  1.0 -0.5256697899
O  O10  1  0.70590000  0.23600000  0.03230000  1.0 -0.5365475183
O  O11  1  0.23220000  0.28360000  0.15340000  1.0 -0.4261970287
O  O12  1  0.29620000  0.21150000  0.63590000  1.0 -0.4929044908
O  O13  1  0.74260000  0.71730000  0.09250000  1.0 -0.4768320685
O  O14  1  0.28800000  0.46850000  0.47150000  1.0 -0.5697746342
O  O15  1  0.59910000  0.61910000  0.33470000  1.0 -0.5697746342
O  O16  1  0.62350000  0.55840000  0.76790000  1.0 -0.6080882913
O  O17  1  0.73620000  0.10220000  0.62420000  1.0 -0.5697746342
O  O18  1  0.09990000  0.13970000  0.84510000  1.0 -0.5905370777
O  O19  1  0.52880000  0.63190000  0.57130000  1.0 -0.7364846235
O  O20  1  0.33710000  0.70840000  0.81540000  1.0 -0.5905370777
O  O21  1  0.65510000  0.09070000  0.44290000  1.0 -0.4629647648
O  O22  1  0.16100000  0.29980000  0.36920000  1.0 -0.5256697899
O  O23  1  0.29410000  0.76400000  0.96770000  1.0 -0.5365475183
O  O24  1  0.76780000  0.71640000  0.84660000  1.0 -0.4261970287
O  O25  1  0.70380000  0.78850000  0.36410000  1.0 -0.4929044908
O  O26  1  0.25740000  0.28270000  0.90750000  1.0 -0.4768320685
