# DDEC6 charges by PACMAN v1.1 (https://github.com/mtap-research/PACMAN-charge/)
data_AFEKAX_FSR_pacman
_symmetry_space_group_name_H-M   'P 1'
_cell_length_a   11.04490000
_cell_length_b   11.04490000
_cell_length_c   8.05500000
_cell_angle_alpha   90.00000000
_cell_angle_beta   90.00000000
_cell_angle_gamma   90.00000000
_symmetry_Int_Tables_number   1
_chemical_formula_structural   CuSiH32C36(N2F3)2
_chemical_formula_sum   'Cu1 Si1 H32 C36 N4 F6'
_cell_volume   982.62796796
_cell_formula_units_Z   1
loop_
 _symmetry_equiv_pos_site_id
 _symmetry_equiv_pos_as_xyz
  1  'x, y, z'
loop_
 _atom_site_type_symbol
 _atom_site_label
 _atom_site_symmetry_multiplicity
 _atom_site_fract_x
 _atom_site_fract_y
 _atom_site_fract_z
 _atom_site_occupancy
 _atom_site_charge
Cu  Cu1  1  0.50000000  0.50000000  0.00000000  1.0 0.3179727267
Si  Si1  1  0.50000000  0.50000000  0.50000000  1.0 1.6305888962
H  H1  1  0.30220000  0.41870000  0.21290000  1.0 0.0924473326
H  H2  1  0.30220000  0.58130000  0.21290000  1.0 0.0924473326
H  H3  1  0.69780000  0.41870000  0.21290000  1.0 0.0924473326
H  H4  1  0.41870000  0.69780000  0.21290000  1.0 0.0924473326
H  H5  1  0.58130000  0.30220000  0.21290000  1.0 0.0924473326
H  H6  1  0.41870000  0.30220000  0.21290000  1.0 0.0924473326
H  H7  1  0.30220000  0.41870000  0.78710000  1.0 0.0924473326
H  H8  1  0.41870000  0.30220000  0.78710000  1.0 0.0924473326
H  H9  1  0.69780000  0.58130000  0.78710000  1.0 0.0924473326
H  H10  1  0.69780000  0.41870000  0.78710000  1.0 0.0924473326
H  H11  1  0.30220000  0.58130000  0.78710000  1.0 0.0924473326
H  H12  1  0.58130000  0.30220000  0.78710000  1.0 0.0924473326
H  H13  1  0.41870000  0.69780000  0.78710000  1.0 0.0924473326
H  H14  1  0.58130000  0.69780000  0.78710000  1.0 0.0924473326
H  H15  1  0.69780000  0.58130000  0.21290000  1.0 0.0924473326
H  H16  1  0.58130000  0.69780000  0.21290000  1.0 0.0924473326
H  H17  1  0.09770000  0.41350000  0.22600000  1.0 0.1014283221
H  H18  1  0.09770000  0.58650000  0.22600000  1.0 0.1014283221
H  H19  1  0.90230000  0.41350000  0.22600000  1.0 0.1014283221
H  H20  1  0.41350000  0.90230000  0.22600000  1.0 0.1014283221
H  H21  1  0.58650000  0.09770000  0.22600000  1.0 0.1014283221
H  H22  1  0.41350000  0.09770000  0.22600000  1.0 0.1014283221
H  H23  1  0.09770000  0.41350000  0.77400000  1.0 0.1014283221
H  H24  1  0.41350000  0.09770000  0.77400000  1.0 0.1014283221
H  H25  1  0.90230000  0.58650000  0.77400000  1.0 0.1014283221
H  H26  1  0.90230000  0.41350000  0.77400000  1.0 0.1014283221
H  H27  1  0.09770000  0.58650000  0.77400000  1.0 0.1014283221
H  H28  1  0.58650000  0.09770000  0.77400000  1.0 0.1014283221
H  H29  1  0.41350000  0.90230000  0.77400000  1.0 0.1014283221
H  H30  1  0.58650000  0.90230000  0.77400000  1.0 0.1014283221
H  H31  1  0.90230000  0.58650000  0.22600000  1.0 0.1014283221
H  H32  1  0.58650000  0.90230000  0.22600000  1.0 0.1014283221
C  C1  1  0.25800000  0.45300000  0.12300000  1.0 0.0296316115
C  C2  1  0.25800000  0.54700000  0.12300000  1.0 0.0296316115
C  C3  1  0.74200000  0.45300000  0.12300000  1.0 0.0296316115
C  C4  1  0.45300000  0.74200000  0.12300000  1.0 0.0296316115
C  C5  1  0.54700000  0.25800000  0.12300000  1.0 0.0296316115
C  C6  1  0.45300000  0.25800000  0.12300000  1.0 0.0296316115
C  C7  1  0.25800000  0.45300000  0.87700000  1.0 0.0296316115
C  C8  1  0.45300000  0.25800000  0.87700000  1.0 0.0296316115
C  C9  1  0.74200000  0.54700000  0.87700000  1.0 0.0296316115
C  C10  1  0.74200000  0.45300000  0.87700000  1.0 0.0296316115
C  C11  1  0.25800000  0.54700000  0.87700000  1.0 0.0296316115
C  C12  1  0.54700000  0.25800000  0.87700000  1.0 0.0296316115
C  C13  1  0.45300000  0.74200000  0.87700000  1.0 0.0296316115
C  C14  1  0.54700000  0.74200000  0.87700000  1.0 0.0296316115
C  C15  1  0.74200000  0.54700000  0.12300000  1.0 0.0296316115
C  C16  1  0.54700000  0.74200000  0.12300000  1.0 0.0296316115
C  C17  1  0.13600000  0.45000000  0.13400000  1.0 -0.086284582
C  C18  1  0.13600000  0.55000000  0.13400000  1.0 -0.086284582
C  C19  1  0.86400000  0.45000000  0.13400000  1.0 -0.086284582
C  C20  1  0.45000000  0.86400000  0.13400000  1.0 -0.086284582
C  C21  1  0.55000000  0.13600000  0.13400000  1.0 -0.086284582
C  C22  1  0.45000000  0.13600000  0.13400000  1.0 -0.086284582
C  C23  1  0.13600000  0.45000000  0.86600000  1.0 -0.086284582
C  C24  1  0.45000000  0.13600000  0.86600000  1.0 -0.086284582
C  C25  1  0.86400000  0.55000000  0.86600000  1.0 -0.086284582
C  C26  1  0.86400000  0.45000000  0.86600000  1.0 -0.086284582
C  C27  1  0.13600000  0.55000000  0.86600000  1.0 -0.086284582
C  C28  1  0.55000000  0.13600000  0.86600000  1.0 -0.086284582
C  C29  1  0.45000000  0.86400000  0.86600000  1.0 -0.086284582
C  C30  1  0.55000000  0.86400000  0.86600000  1.0 -0.086284582
C  C31  1  0.86400000  0.55000000  0.13400000  1.0 -0.086284582
C  C32  1  0.55000000  0.86400000  0.13400000  1.0 -0.086284582
C  C33  1  0.07200000  0.50000000  0.00000000  1.0 -0.0203663292
C  C34  1  0.92800000  0.50000000  0.00000000  1.0 -0.0203663292
C  C35  1  0.50000000  0.92800000  0.00000000  1.0 -0.0203663292
C  C36  1  0.50000000  0.07200000  0.00000000  1.0 -0.0203663292
N  N1  1  0.32200000  0.50000000  0.00000000  1.0 -0.163613819
N  N2  1  0.67800000  0.50000000  0.00000000  1.0 -0.163613819
N  N3  1  0.50000000  0.67800000  0.00000000  1.0 -0.163613819
N  N4  1  0.50000000  0.32200000  0.00000000  1.0 -0.163613819
F  F1  1  0.50000000  0.50000000  0.29000000  1.0 -0.5622708429
F  F2  1  0.50000000  0.50000000  0.71000000  1.0 -0.5622708429
F  F3  1  0.39210000  0.39210000  0.50000000  1.0 -0.5709155728
F  F4  1  0.39210000  0.60790000  0.50000000  1.0 -0.5709155728
F  F5  1  0.60790000  0.39210000  0.50000000  1.0 -0.5709155728
F  F6  1  0.60790000  0.60790000  0.50000000  1.0 -0.5709155728
