# DDEC6 charges by PACMAN v1.1 (https://github.com/mtap-research/PACMAN-charge/)
data_AFIPAH_FSR_pacman
_symmetry_space_group_name_H-M   'P 1'
_cell_length_a   16.13330000
_cell_length_b   14.96900000
_cell_length_c   9.16638000
_cell_angle_alpha   79.96640000
_cell_angle_beta   66.01400000
_cell_angle_gamma   34.01960000
_symmetry_Int_Tables_number   1
_chemical_formula_structural   LaH2C5O8
_chemical_formula_sum   'La4 H8 C20 O32'
_cell_volume   1072.69027601
_cell_formula_units_Z   4
loop_
 _symmetry_equiv_pos_site_id
 _symmetry_equiv_pos_as_xyz
  1  'x, y, z'
loop_
 _atom_site_type_symbol
 _atom_site_label
 _atom_site_symmetry_multiplicity
 _atom_site_fract_x
 _atom_site_fract_y
 _atom_site_fract_z
 _atom_site_occupancy
 _atom_site_charge
La  La1  1  0.36584000  0.36584000  0.13416000  1.0 1.8023954659
La  La2  1  0.13416000  0.13416000  0.36584000  1.0 1.8023954659
La  La3  1  0.88416000  0.88416000  0.11584000  1.0 1.8023954659
La  La4  1  0.11584000  0.11584000  0.88416000  1.0 1.8023954659
H  H1  1  0.31700000  0.50300000  0.49300000  1.0 0.1498670085
H  H2  1  0.68700000  0.49300000  0.50300000  1.0 0.1498670085
H  H3  1  0.49300000  0.68700000  0.31700000  1.0 0.1498670085
H  H4  1  0.50300000  0.31700000  0.68700000  1.0 0.1498670085
H  H5  1  0.93300000  0.74700000  0.75700000  1.0 0.1498670085
H  H6  1  0.56300000  0.75700000  0.74700000  1.0 0.1498670085
H  H7  1  0.75700000  0.56300000  0.93300000  1.0 0.1498670085
H  H8  1  0.74700000  0.93300000  0.56300000  1.0 0.1498670085
C  C1  1  0.30040000  0.19960000  0.30040000  1.0 0.5005394249
C  C2  1  0.19960000  0.30040000  0.19960000  1.0 0.5005394249
C  C3  1  0.94960000  0.05040000  0.94960000  1.0 0.5005394249
C  C4  1  0.05040000  0.94960000  0.05040000  1.0 0.5005394249
C  C5  1  0.56583000  0.24243000  0.37637000  1.0 0.6379373401
C  C6  1  0.81537000  0.37637000  0.24243000  1.0 0.6379373401
C  C7  1  0.37637000  0.81537000  0.56583000  1.0 0.6379373401
C  C8  1  0.24243000  0.56583000  0.81537000  1.0 0.6379373401
C  C9  1  0.68417000  0.00757000  0.87363000  1.0 0.6379373401
C  C10  1  0.43463000  0.87363000  0.00757000  1.0 0.6379373401
C  C11  1  0.87363000  0.43463000  0.68417000  1.0 0.6379373401
C  C12  1  0.00757000  0.68417000  0.43463000  1.0 0.6379373401
C  C13  1  0.41216000  0.40216000  0.51944000  1.0 -0.1588728846
C  C14  1  0.66624000  0.51944000  0.40216000  1.0 -0.1588728846
C  C15  1  0.51944000  0.66624000  0.41216000  1.0 -0.1588728846
C  C16  1  0.40216000  0.41216000  0.66624000  1.0 -0.1588728846
C  C17  1  0.83784000  0.84784000  0.73056000  1.0 -0.1588728846
C  C18  1  0.58376000  0.73056000  0.84784000  1.0 -0.1588728846
C  C19  1  0.73056000  0.58376000  0.83784000  1.0 -0.1588728846
C  C20  1  0.84784000  0.83784000  0.58376000  1.0 -0.1588728846
O  O1  1  0.38659000  0.19181000  0.28619000  1.0 -0.4869256363
O  O2  1  0.13541000  0.28619000  0.19181000  1.0 -0.4869256363
O  O3  1  0.28619000  0.13541000  0.38659000  1.0 -0.4869256363
O  O4  1  0.19181000  0.38659000  0.13541000  1.0 -0.4869256363
O  O5  1  0.86341000  0.05819000  0.96381000  1.0 -0.4869256363
O  O6  1  0.11459000  0.96381000  0.05819000  1.0 -0.4869256363
O  O7  1  0.96381000  0.11459000  0.86341000  1.0 -0.4869256363
O  O8  1  0.05819000  0.86341000  0.11459000  1.0 -0.4869256363
O  O9  1  0.54871000  0.23389000  0.25951000  1.0 -0.5989793063
O  O10  1  0.95789000  0.25951000  0.23389000  1.0 -0.5989793063
O  O11  1  0.25951000  0.95789000  0.54871000  1.0 -0.5989793063
O  O12  1  0.23389000  0.54871000  0.95789000  1.0 -0.5989793063
O  O13  1  0.70129000  0.01611000  0.99049000  1.0 -0.5989793063
O  O14  1  0.29211000  0.99049000  0.01611000  1.0 -0.5989793063
O  O15  1  0.99049000  0.29211000  0.70129000  1.0 -0.5989793063
O  O16  1  0.01611000  0.70129000  0.29211000  1.0 -0.5989793063
O  O17  1  0.29165000  0.58995000  0.21545000  1.0 -0.1219293272
O  O18  1  0.90295000  0.21545000  0.58995000  1.0 -0.1271962971
O  O19  1  0.21545000  0.90295000  0.29165000  1.0 -0.1271962971
O  O20  1  0.58995000  0.29165000  0.90295000  1.0 -0.1271962971
O  O21  1  0.95835000  0.66005000  0.03455000  1.0 -0.1271962971
O  O22  1  0.34705000  0.03455000  0.66005000  1.0 -0.1219293272
O  O23  1  0.03455000  0.34705000  0.95835000  1.0 -0.1271962971
O  O24  1  0.66005000  0.95835000  0.34705000  1.0 -0.1219293272
O  O25  1  0.70720000  0.11838000  0.37302000  1.0 -0.5692727834
O  O26  1  0.80140000  0.37302000  0.11838000  1.0 -0.5692727834
O  O27  1  0.37302000  0.80140000  0.70720000  1.0 -0.5692727834
O  O28  1  0.11838000  0.70720000  0.80140000  1.0 -0.5692727834
O  O29  1  0.54280000  0.13162000  0.87698000  1.0 -0.5692727834
O  O30  1  0.44860000  0.87698000  0.13162000  1.0 -0.5692727834
O  O31  1  0.87698000  0.44860000  0.54280000  1.0 -0.5692727834
O  O32  1  0.13162000  0.54280000  0.44860000  1.0 -0.5692727834
