# DDEC6 charges by PACMAN v1.1 (https://github.com/mtap-research/PACMAN-charge/)
data_AFIXEW_FSR_pacman
_symmetry_space_group_name_H-M   'P 1'
_cell_length_a   13.52530000
_cell_length_b   13.52530000
_cell_length_c   13.68530000
_cell_angle_alpha   78.10450000
_cell_angle_beta   101.89500000
_cell_angle_gamma   104.65500000
_symmetry_Int_Tables_number   1
_chemical_formula_structural   Cd3H34C36N4O27
_chemical_formula_sum   'Cd6 H68 C72 N8 O54'
_cell_volume   2338.48715141
_cell_formula_units_Z   2
loop_
 _symmetry_equiv_pos_site_id
 _symmetry_equiv_pos_as_xyz
  1  'x, y, z'
loop_
 _atom_site_type_symbol
 _atom_site_label
 _atom_site_symmetry_multiplicity
 _atom_site_fract_x
 _atom_site_fract_y
 _atom_site_fract_z
 _atom_site_occupancy
 _atom_site_charge
Cd  Cd1  1  0.31633000  0.31633000  0.25000000  1.0 0.9335367331
Cd  Cd2  1  0.68367000  0.68367000  0.75000000  1.0 0.9335367331
Cd  Cd3  1  0.85874000  0.94504000  0.47086000  1.0 0.9889908084
Cd  Cd4  1  0.94504000  0.85874000  0.02914000  1.0 0.9889908084
Cd  Cd5  1  0.14126000  0.05496000  0.52914000  1.0 0.9889908084
Cd  Cd6  1  0.05496000  0.14126000  0.97086000  1.0 0.9889908084
H  H1  1  0.58340000  0.25628000  0.33333333  1.0 0.359457607
H  H2  1  0.25628000  0.58340000  0.16667000  1.0 0.359457607
H  H3  1  0.41660000  0.74372000  0.66666667  1.0 0.359457607
H  H4  1  0.74372000  0.41660000  0.83333000  1.0 0.359457607
H  H5  1  0.24345000  0.32123000  0.42235000  1.0 0.3786516884
H  H6  1  0.32123000  0.24345000  0.07765000  1.0 0.3786516884
H  H7  1  0.75655000  0.67877000  0.57765000  1.0 0.3786516884
H  H8  1  0.67877000  0.75655000  0.92235000  1.0 0.3786516884
H  H9  1  0.33327000  0.28365000  0.45719000  1.0 0.3786516884
H  H10  1  0.28365000  0.33327000  0.04281000  1.0 0.3786516884
H  H11  1  0.66666667  0.71635000  0.54281000  1.0 0.3786516884
H  H12  1  0.71635000  0.66666667  0.95719000  1.0 0.3786516884
H  H13  1  0.49960000  0.45880000  0.20357000  1.0 0.2517200062
H  H14  1  0.45880000  0.49960000  0.29643000  1.0 0.2517200062
H  H15  1  0.50040000  0.54120000  0.79643000  1.0 0.2517200062
H  H16  1  0.54120000  0.50040000  0.70357000  1.0 0.2517200062
H  H17  1  0.91183000  0.03047000  0.64193000  1.0 0.3528253683
H  H18  1  0.03047000  0.91183000  0.85807000  1.0 0.3528253683
H  H19  1  0.08817000  0.96953000  0.35807000  1.0 0.3528253683
H  H20  1  0.96953000  0.08817000  0.14193000  1.0 0.3528253683
H  H21  1  0.82486000  0.95428000  0.65660000  1.0 0.359457607
H  H22  1  0.95428000  0.82486000  0.84340000  1.0 0.359457607
H  H23  1  0.17514000  0.04572000  0.34340000  1.0 0.359457607
H  H24  1  0.04572000  0.17514000  0.15660000  1.0 0.359457607
H  H25  1  0.86900000  0.03700000  0.27600000  1.0 0.3714319665
H  H26  1  0.03700000  0.86900000  0.22400000  1.0 0.3714319665
H  H27  1  0.13100000  0.96300000  0.72400000  1.0 0.3714319665
H  H28  1  0.96300000  0.13100000  0.77600000  1.0 0.3714319665
H  H29  1  0.83200000  0.93400000  0.26700000  1.0 0.3368760594
H  H30  1  0.93400000  0.83200000  0.23300000  1.0 0.3368760594
H  H31  1  0.16800000  0.06600000  0.73300000  1.0 0.3368760594
H  H32  1  0.06600000  0.16800000  0.76700000  1.0 0.3368760594
H  H33  1  0.31763000  0.69225000  0.39788000  1.0 0.2914521941
H  H34  1  0.69225000  0.31763000  0.10212000  1.0 0.2914521941
H  H35  1  0.68237000  0.30775000  0.60212000  1.0 0.2914521941
H  H36  1  0.30775000  0.68237000  0.89788000  1.0 0.2914521941
H  H37  1  0.00811000  0.62385000  0.34660000  1.0 0.2914521941
H  H38  1  0.62385000  0.00811000  0.15340000  1.0 0.2914521941
H  H39  1  0.99189000  0.37615000  0.65340000  1.0 0.2914521941
H  H40  1  0.37615000  0.99189000  0.84660000  1.0 0.2914521941
H  H41  1  0.56000000  0.08650000  0.36960000  1.0 0.1215196909
H  H42  1  0.08650000  0.56000000  0.13040000  1.0 0.1215196909
H  H43  1  0.44000000  0.91350000  0.63040000  1.0 0.1215196909
H  H44  1  0.91350000  0.44000000  0.86960000  1.0 0.1215196909
H  H45  1  0.48499000  0.77663000  0.42594000  1.0 0.1355044195
H  H46  1  0.77663000  0.48499000  0.07406000  1.0 0.1355044195
H  H47  1  0.51501000  0.22337000  0.57406000  1.0 0.1355044195
H  H48  1  0.22337000  0.51501000  0.92594000  1.0 0.1355044195
H  H49  1  0.26096000  0.93634000  0.32737000  1.0 0.1215196909
H  H50  1  0.93634000  0.26096000  0.17263000  1.0 0.1215196909
H  H51  1  0.73904000  0.06366000  0.67263000  1.0 0.1215196909
H  H52  1  0.06366000  0.73904000  0.82737000  1.0 0.1215196909
H  H53  1  0.09603000  0.39519000  0.43148000  1.0 0.1325406567
H  H54  1  0.39519000  0.09603000  0.06852000  1.0 0.1325406567
H  H55  1  0.90397000  0.60481000  0.56852000  1.0 0.1325406567
H  H56  1  0.60481000  0.90397000  0.93148000  1.0 0.1325406567
H  H57  1  0.81233000  0.20775000  0.40861000  1.0 0.1325406567
H  H58  1  0.20775000  0.81233000  0.09139000  1.0 0.1325406567
H  H59  1  0.18767000  0.79225000  0.59139000  1.0 0.1325406567
H  H60  1  0.79225000  0.18767000  0.90861000  1.0 0.1325406567
H  H61  1  0.84591000  0.51655000  0.33106000  1.0 0.1325406567
H  H62  1  0.51655000  0.84591000  0.16894000  1.0 0.1325406567
H  H63  1  0.15409000  0.48345000  0.66894000  1.0 0.1325406567
H  H64  1  0.48345000  0.15409000  0.83106000  1.0 0.1325406567
H  H65  1  0.50402000  0.45438000  0.31048000  1.0 0.2603266784
H  H66  1  0.45438000  0.50402000  0.18952000  1.0 0.2603266784
H  H67  1  0.49598000  0.54562000  0.68952000  1.0 0.2603266784
H  H68  1  0.54562000  0.49598000  0.81048000  1.0 0.2603266784
C  C1  1  0.40640000  0.02820000  0.34220000  1.0 -0.0307607711
C  C2  1  0.02820000  0.40640000  0.15780000  1.0 -0.0307607711
C  C3  1  0.59360000  0.97180000  0.65780000  1.0 -0.0307607711
C  C4  1  0.97180000  0.59360000  0.84220000  1.0 -0.0307607711
C  C5  1  0.51000000  0.02500000  0.37100000  1.0 -0.1226540408
C  C6  1  0.02500000  0.51000000  0.12900000  1.0 -0.1226540408
C  C7  1  0.49000000  0.97500000  0.62900000  1.0 -0.1226540408
C  C8  1  0.97500000  0.49000000  0.87100000  1.0 -0.1226540408
C  C9  1  0.54020000  0.93120000  0.40190000  1.0 -0.0159206178
C  C10  1  0.93120000  0.54020000  0.09810000  1.0 -0.0159206178
C  C11  1  0.45980000  0.06880000  0.59810000  1.0 -0.0159206178
C  C12  1  0.06880000  0.45980000  0.90190000  1.0 -0.0159206178
C  C13  1  0.46530000  0.83970000  0.40500000  1.0 -0.1966503164
C  C14  1  0.83970000  0.46530000  0.09500000  1.0 -0.1966503164
C  C15  1  0.53470000  0.16030000  0.59500000  1.0 -0.1966503164
C  C16  1  0.16030000  0.53470000  0.90500000  1.0 -0.1966503164
C  C17  1  0.36120000  0.84180000  0.37720000  1.0 0.2256599987
C  C18  1  0.84180000  0.36120000  0.12280000  1.0 0.2256599987
C  C19  1  0.63880000  0.15820000  0.62280000  1.0 0.2256599987
C  C20  1  0.15820000  0.63880000  0.87720000  1.0 0.2256599987
C  C21  1  0.33080000  0.93520000  0.34590000  1.0 -0.1828208766
C  C22  1  0.93520000  0.33080000  0.15410000  1.0 -0.1828208766
C  C23  1  0.66920000  0.06480000  0.65410000  1.0 -0.1828208766
C  C24  1  0.06480000  0.66920000  0.84590000  1.0 -0.1828208766
C  C25  1  0.37490000  0.12910000  0.30990000  1.0 0.5569602945
C  C26  1  0.12910000  0.37490000  0.19010000  1.0 0.5569602945
C  C27  1  0.62510000  0.87090000  0.69010000  1.0 0.5569602945
C  C28  1  0.87090000  0.62510000  0.80990000  1.0 0.5569602945
C  C29  1  0.65200000  0.93060000  0.42770000  1.0 0.5392988571
C  C30  1  0.93060000  0.65200000  0.07230000  1.0 0.5392988571
C  C31  1  0.34800000  0.06940000  0.57230000  1.0 0.5392988571
C  C32  1  0.06940000  0.34800000  0.92770000  1.0 0.5392988571
C  C33  1  0.18780000  0.72140000  0.35860000  1.0 0.3714319665
C  C34  1  0.72140000  0.18780000  0.14140000  1.0 0.3714319665
C  C35  1  0.81220000  0.27860000  0.64140000  1.0 0.3714319665
C  C36  1  0.27860000  0.81220000  0.85860000  1.0 0.3714319665
C  C37  1  0.14520000  0.60360000  0.37700000  1.0 0.3714319665
C  C38  1  0.60360000  0.14520000  0.12300000  1.0 0.3714319665
C  C39  1  0.85480000  0.39640000  0.62300000  1.0 0.3714319665
C  C40  1  0.39640000  0.85480000  0.87700000  1.0 0.3714319665
C  C41  1  0.98090000  0.47270000  0.37880000  1.0 0.2142663175
C  C42  1  0.47270000  0.98090000  0.12120000  1.0 0.2142663175
C  C43  1  0.01910000  0.52730000  0.62120000  1.0 0.2142663175
C  C44  1  0.52730000  0.01910000  0.87880000  1.0 0.2142663175
C  C45  1  0.02450000  0.38650000  0.41490000  1.0 -0.1919686286
C  C46  1  0.38650000  0.02450000  0.08510000  1.0 -0.1919686286
C  C47  1  0.97550000  0.61350000  0.58510000  1.0 -0.1919686286
C  C48  1  0.61350000  0.97550000  0.91490000  1.0 -0.1919686286
C  C49  1  0.96140000  0.28740000  0.42630000  1.0 -0.0114079669
C  C50  1  0.28740000  0.96140000  0.07370000  1.0 -0.0114079669
C  C51  1  0.03860000  0.71260000  0.57370000  1.0 -0.0114079669
C  C52  1  0.71260000  0.03860000  0.92630000  1.0 -0.0114079669
C  C53  1  0.85440000  0.27400000  0.40170000  1.0 -0.1358681372
C  C54  1  0.27400000  0.85440000  0.09830000  1.0 -0.1358681372
C  C55  1  0.14560000  0.72600000  0.59830000  1.0 -0.1358681372
C  C56  1  0.72600000  0.14560000  0.90170000  1.0 -0.1358681372
C  C57  1  0.81070000  0.35990000  0.36670000  1.0 -0.0307607711
C  C58  1  0.35990000  0.81070000  0.13330000  1.0 -0.0307607711
C  C59  1  0.18930000  0.64010000  0.63330000  1.0 -0.0307607711
C  C60  1  0.64010000  0.18930000  0.86670000  1.0 -0.0307607711
C  C61  1  0.87510000  0.45910000  0.35510000  1.0 -0.2090563378
C  C62  1  0.45910000  0.87510000  0.14490000  1.0 -0.2090563378
C  C63  1  0.12490000  0.54090000  0.64490000  1.0 -0.2090563378
C  C64  1  0.54090000  0.12490000  0.85510000  1.0 -0.2090563378
C  C65  1  0.01220000  0.19780000  0.46370000  1.0 0.582773591
C  C66  1  0.19780000  0.01220000  0.03630000  1.0 0.582773591
C  C67  1  0.98780000  0.80220000  0.53630000  1.0 0.582773591
C  C68  1  0.80220000  0.98780000  0.96370000  1.0 0.582773591
C  C69  1  0.69740000  0.35040000  0.34000000  1.0 0.5241853246
C  C70  1  0.35040000  0.69740000  0.16000000  1.0 0.5241853246
C  C71  1  0.30260000  0.64960000  0.66000000  1.0 0.5241853246
C  C72  1  0.64960000  0.30260000  0.84000000  1.0 0.5241853246
N  N1  1  0.28960000  0.74500000  0.37950000  1.0 -0.3305970779
N  N2  1  0.74500000  0.28960000  0.12050000  1.0 -0.3305970779
N  N3  1  0.71040000  0.25500000  0.62050000  1.0 -0.3305970779
N  N4  1  0.25500000  0.71040000  0.87950000  1.0 -0.3305970779
N  N5  1  0.04134000  0.57486000  0.36480000  1.0 -0.3305970779
N  N6  1  0.57486000  0.04134000  0.13520000  1.0 -0.3305970779
N  N7  1  0.95866000  0.42514000  0.63520000  1.0 -0.3305970779
N  N8  1  0.42514000  0.95866000  0.86480000  1.0 -0.3305970779
O  O1  1  0.28131000  0.13189000  0.27840000  1.0 -0.5384768001
O  O2  1  0.13189000  0.28131000  0.22160000  1.0 -0.5384768001
O  O3  1  0.71869000  0.86811000  0.72160000  1.0 -0.5384768001
O  O4  1  0.86811000  0.71869000  0.77840000  1.0 -0.5384768001
O  O5  1  0.44266000  0.21374000  0.31320000  1.0 -0.5639880649
O  O6  1  0.21374000  0.44266000  0.18680000  1.0 -0.5639880649
O  O7  1  0.55734000  0.78626000  0.68680000  1.0 -0.5639880649
O  O8  1  0.78626000  0.55734000  0.81320000  1.0 -0.5639880649
O  O9  1  0.71625000  0.01455000  0.42640000  1.0 -0.5202154866
O  O10  1  0.01455000  0.71625000  0.07360000  1.0 -0.5202154866
O  O11  1  0.28375000  0.98545000  0.57360000  1.0 -0.5202154866
O  O12  1  0.98545000  0.28375000  0.92640000  1.0 -0.5202154866
O  O13  1  0.68044000  0.84576000  0.45260000  1.0 -0.5689910925
O  O14  1  0.84576000  0.68044000  0.04740000  1.0 -0.5689910925
O  O15  1  0.31956000  0.15424000  0.54740000  1.0 -0.5689910925
O  O16  1  0.15424000  0.31956000  0.95260000  1.0 -0.5689910925
O  O17  1  0.10609000  0.21451000  0.50090000  1.0 -0.5462105623
O  O18  1  0.21451000  0.10609000  0.99910000  1.0 -0.5462105623
O  O19  1  0.89391000  0.78549000  0.49910000  1.0 -0.5462105623
O  O20  1  0.78549000  0.89391000  0.00090000  1.0 -0.5462105623
O  O21  1  0.96107000  0.10833000  0.45630000  1.0 -0.5689910925
O  O22  1  0.10833000  0.96107000  0.04370000  1.0 -0.5689910925
O  O23  1  0.03893000  0.89167000  0.54370000  1.0 -0.5689910925
O  O24  1  0.89167000  0.03893000  0.95630000  1.0 -0.5689910925
O  O25  1  0.65750000  0.42230000  0.30090000  1.0 -0.5118244639
O  O26  1  0.42230000  0.65750000  0.19910000  1.0 -0.5118244639
O  O27  1  0.34250000  0.57770000  0.69910000  1.0 -0.5118244639
O  O28  1  0.57770000  0.34250000  0.80090000  1.0 -0.5118244639
O  O29  1  0.64457000  0.25763000  0.35660000  1.0 -0.4516392774
O  O30  1  0.25763000  0.64457000  0.14340000  1.0 -0.4516392774
O  O31  1  0.35543000  0.74237000  0.64340000  1.0 -0.4516392774
O  O32  1  0.74237000  0.35543000  0.85660000  1.0 -0.4516392774
O  O33  1  0.13093000  0.78227000  0.33060000  1.0 -0.4733981541
O  O34  1  0.78227000  0.13093000  0.16940000  1.0 -0.4733981541
O  O35  1  0.86907000  0.21773000  0.66940000  1.0 -0.4733981541
O  O36  1  0.21773000  0.86907000  0.83060000  1.0 -0.4733981541
O  O37  1  0.20446000  0.54534000  0.40060000  1.0 -0.4345926842
O  O38  1  0.54534000  0.20446000  0.09940000  1.0 -0.4345926842
O  O39  1  0.79554000  0.45466000  0.59940000  1.0 -0.4345926842
O  O40  1  0.45466000  0.79554000  0.90060000  1.0 -0.4345926842
O  O41  1  0.30870000  0.33290000  0.41180000  1.0 -0.6733057848
O  O42  1  0.33290000  0.30870000  0.08820000  1.0 -0.6733057848
O  O43  1  0.69130000  0.66710000  0.58820000  1.0 -0.6733057848
O  O44  1  0.66710000  0.69130000  0.91180000  1.0 -0.6733057848
O  O45  1  0.45570000  0.45570000  0.25000000  1.0 -0.5202154866
O  O46  1  0.54430000  0.54430000  0.75000000  1.0 -0.5202154866
O  O47  1  0.88420000  0.96580000  0.63540000  1.0 -0.6733057848
O  O48  1  0.96580000  0.88420000  0.86460000  1.0 -0.6733057848
O  O49  1  0.11580000  0.03420000  0.36460000  1.0 -0.6733057848
O  O50  1  0.03420000  0.11580000  0.13540000  1.0 -0.6733057848
O  O51  1  0.87350000  0.97610000  0.30210000  1.0 -0.6761267087
O  O52  1  0.97610000  0.87350000  0.19790000  1.0 -0.6761267087
O  O53  1  0.12650000  0.02390000  0.69790000  1.0 -0.6761267087
O  O54  1  0.02390000  0.12650000  0.80210000  1.0 -0.6761267087
