# DDEC6 charges by PACMAN v1.1 (https://github.com/mtap-research/PACMAN-charge/)
data_AFIXAO_ASR_pacman
_symmetry_space_group_name_H-M   'P 1'
_cell_length_a   24.34060000
_cell_length_b   9.45260000
_cell_length_c   34.20850000
_cell_angle_alpha   90.00000000
_cell_angle_beta   133.45200000
_cell_angle_gamma   90.00000000
_symmetry_Int_Tables_number   1
_chemical_formula_structural   Co5H32(C8N5)4
_chemical_formula_sum   'Co20 H128 C128 N80'
_cell_volume   5713.78341440
_cell_formula_units_Z   4
loop_
 _symmetry_equiv_pos_site_id
 _symmetry_equiv_pos_as_xyz
  1  'x, y, z'
loop_
 _atom_site_type_symbol
 _atom_site_label
 _atom_site_symmetry_multiplicity
 _atom_site_fract_x
 _atom_site_fract_y
 _atom_site_fract_z
 _atom_site_occupancy
 _atom_site_charge
Co  Co1  1  0.41656000  0.95443000  0.67944000  1.0 0.6051641156
Co  Co2  1  0.58344000  0.45443000  0.82056000  1.0 0.6051641156
Co  Co3  1  0.58344000  0.04557000  0.32056000  1.0 0.6051641156
Co  Co4  1  0.41656000  0.54557000  0.17944000  1.0 0.6051641156
Co  Co5  1  0.23057000  0.74030000  0.71488000  1.0 0.5722506841
Co  Co6  1  0.76943000  0.24030000  0.78512000  1.0 0.5722506841
Co  Co7  1  0.76943000  0.25970000  0.28512000  1.0 0.5722506841
Co  Co8  1  0.23057000  0.75970000  0.21488000  1.0 0.5722506841
Co  Co9  1  0.38889000  0.23538000  0.85810000  1.0 0.6202004825
Co  Co10  1  0.61111000  0.73538000  0.64190000  1.0 0.6202004825
Co  Co11  1  0.61111000  0.76462000  0.14190000  1.0 0.6202004825
Co  Co12  1  0.38889000  0.26462000  0.35810000  1.0 0.6202004825
Co  Co13  1  0.35675000  0.33253000  0.51687000  1.0 0.6202004825
Co  Co14  1  0.64325000  0.83253000  0.98313000  1.0 0.6202004825
Co  Co15  1  0.64325000  0.66747000  0.48313000  1.0 0.6202004825
Co  Co16  1  0.35675000  0.16747000  0.01687000  1.0 0.6202004825
Co  Co17  1  0.96617000  0.53585000  0.68106000  1.0 0.5935769876
Co  Co18  1  0.03383000  0.03585000  0.81894000  1.0 0.596375664
Co  Co19  1  0.03383000  0.46415000  0.31894000  1.0 0.5935769876
Co  Co20  1  0.96617000  0.96415000  0.18106000  1.0 0.596375664
H  H1  1  0.32720000  0.21860000  0.68020000  1.0 0.1083990048
H  H2  1  0.67280000  0.71860000  0.81980000  1.0 0.1083990048
H  H3  1  0.67280000  0.78140000  0.31980000  1.0 0.1083990048
H  H4  1  0.32720000  0.28140000  0.18020000  1.0 0.1083990048
H  H5  1  0.39600000  0.42730000  0.73850000  1.0 0.1083990048
H  H6  1  0.60400000  0.92730000  0.76150000  1.0 0.1083990048
H  H7  1  0.60400000  0.57270000  0.26150000  1.0 0.1083990048
H  H8  1  0.39600000  0.07270000  0.23850000  1.0 0.1083990048
H  H9  1  0.54590000  0.16630000  0.76480000  1.0 0.089542364
H  H10  1  0.45410000  0.66630000  0.73520000  1.0 0.089542364
H  H11  1  0.45410000  0.83370000  0.23520000  1.0 0.089542364
H  H12  1  0.54590000  0.33370000  0.26480000  1.0 0.089542364
H  H13  1  0.29440000  0.70020000  0.60370000  1.0 0.1002507666
H  H14  1  0.70560000  0.20020000  0.89630000  1.0 0.1002507666
H  H15  1  0.70560000  0.29980000  0.39630000  1.0 0.1002507666
H  H16  1  0.29440000  0.79980000  0.10370000  1.0 0.1002507666
H  H17  1  0.20840000  0.61330000  0.61390000  1.0 0.1002507666
H  H18  1  0.79160000  0.11330000  0.88610000  1.0 0.1002507666
H  H19  1  0.79160000  0.38670000  0.38610000  1.0 0.1002507666
H  H20  1  0.20840000  0.88670000  0.11390000  1.0 0.1002507666
H  H21  1  0.31990000  0.94250000  0.70870000  1.0 0.089542364
H  H22  1  0.68010000  0.44250000  0.79130000  1.0 0.089542364
H  H23  1  0.68010000  0.05750000  0.29130000  1.0 0.089542364
H  H24  1  0.31990000  0.55750000  0.20870000  1.0 0.089542364
H  H25  1  0.13490000  0.00860000  0.70500000  1.0 0.1083990048
H  H26  1  0.86510000  0.50860000  0.79500000  1.0 0.1083990048
H  H27  1  0.86510000  0.99140000  0.29500000  1.0 0.1083990048
H  H28  1  0.13490000  0.49140000  0.20500000  1.0 0.1083990048
H  H29  1  0.20030000  0.21350000  0.76740000  1.0 0.089542364
H  H30  1  0.79970000  0.71350000  0.73260000  1.0 0.089542364
H  H31  1  0.79970000  0.78650000  0.23260000  1.0 0.089542364
H  H32  1  0.20030000  0.28650000  0.26740000  1.0 0.089542364
H  H33  1  0.35510000  0.94320000  0.80710000  1.0 0.089542364
H  H34  1  0.64490000  0.44320000  0.69290000  1.0 0.089542364
H  H35  1  0.64490000  0.05680000  0.19290000  1.0 0.089542364
H  H36  1  0.35510000  0.55680000  0.30710000  1.0 0.089542364
H  H37  1  0.05950000  0.74740000  0.59970000  1.0 0.1083990048
H  H38  1  0.94050000  0.24740000  0.90030000  1.0 0.1083990048
H  H39  1  0.94050000  0.25260000  0.40030000  1.0 0.1083990048
H  H40  1  0.05950000  0.75260000  0.09970000  1.0 0.1083990048
H  H41  1  0.95410000  0.62270000  0.58610000  1.0 0.1083990048
H  H42  1  0.04590000  0.12270000  0.91390000  1.0 0.1083990048
H  H43  1  0.04590000  0.37730000  0.41390000  1.0 0.1083990048
H  H44  1  0.95410000  0.87730000  0.08610000  1.0 0.1083990048
H  H45  1  0.13510000  0.63050000  0.73950000  1.0 0.1083990048
H  H46  1  0.86490000  0.13050000  0.76050000  1.0 0.1083990048
H  H47  1  0.86490000  0.36950000  0.26050000  1.0 0.1083990048
H  H48  1  0.13510000  0.86950000  0.23950000  1.0 0.1083990048
H  H49  1  0.52310000  0.65330000  0.68070000  1.0 0.1083990048
H  H50  1  0.47690000  0.15330000  0.81930000  1.0 0.1083990048
H  H51  1  0.47690000  0.34670000  0.31930000  1.0 0.1083990048
H  H52  1  0.52310000  0.84670000  0.18070000  1.0 0.1083990048
H  H53  1  0.41950000  0.48230000  0.63170000  1.0 0.1083990048
H  H54  1  0.58050000  0.98230000  0.86830000  1.0 0.1083990048
H  H55  1  0.58050000  0.51770000  0.36830000  1.0 0.1083990048
H  H56  1  0.41950000  0.01770000  0.13170000  1.0 0.1083990048
H  H57  1  0.48040000  0.54190000  0.55120000  1.0 0.089542364
H  H58  1  0.51960000  0.04190000  0.94880000  1.0 0.089542364
H  H59  1  0.51960000  0.45810000  0.44880000  1.0 0.089542364
H  H60  1  0.48040000  0.95810000  0.05120000  1.0 0.089542364
H  H61  1  0.50380000  0.13420000  0.47690000  1.0 0.1002507666
H  H62  1  0.49620000  0.63420000  0.02310000  1.0 0.1002507666
H  H63  1  0.49620000  0.86580000  0.52310000  1.0 0.1002507666
H  H64  1  0.50380000  0.36580000  0.97690000  1.0 0.1002507666
H  H65  1  0.48930000  0.16300000  0.54140000  1.0 0.1083990048
H  H66  1  0.51070000  0.66300000  0.95860000  1.0 0.1083990048
H  H67  1  0.51070000  0.83700000  0.45860000  1.0 0.1083990048
H  H68  1  0.48930000  0.33700000  0.04140000  1.0 0.1083990048
H  H69  1  0.32210000  0.36430000  0.40760000  1.0 0.089542364
H  H70  1  0.67790000  0.86430000  0.09240000  1.0 0.089542364
H  H71  1  0.67790000  0.63570000  0.59240000  1.0 0.089542364
H  H72  1  0.32210000  0.13570000  0.90760000  1.0 0.089542364
H  H73  1  0.48020000  0.51110000  0.87110000  1.0 0.1002507666
H  H74  1  0.51980000  0.01110000  0.62890000  1.0 0.1002507666
H  H75  1  0.51980000  0.48890000  0.12890000  1.0 0.1002507666
H  H76  1  0.48020000  0.98890000  0.37110000  1.0 0.1002507666
H  H77  1  0.41370000  0.72230000  0.81140000  1.0 0.1002507666
H  H78  1  0.58630000  0.22230000  0.68860000  1.0 0.1002507666
H  H79  1  0.58630000  0.27770000  0.18860000  1.0 0.1002507666
H  H80  1  0.41370000  0.77770000  0.31140000  1.0 0.1002507666
H  H81  1  0.26100000  0.43690000  0.76700000  1.0 0.082608064
H  H82  1  0.73900000  0.93690000  0.73300000  1.0 0.082608064
H  H83  1  0.73900000  0.56310000  0.23300000  1.0 0.082608064
H  H84  1  0.26100000  0.06310000  0.26700000  1.0 0.082608064
H  H85  1  0.27360000  0.60580000  0.50600000  1.0 0.1002507666
H  H86  1  0.72640000  0.10580000  0.99400000  1.0 0.1002507666
H  H87  1  0.72640000  0.39420000  0.49400000  1.0 0.1002507666
H  H88  1  0.27360000  0.89420000  0.00600000  1.0 0.1002507666
H  H89  1  0.13760000  0.66350000  0.42530000  1.0 0.1083990048
H  H90  1  0.86240000  0.16350000  0.07470000  1.0 0.1083990048
H  H91  1  0.86240000  0.33650000  0.57470000  1.0 0.1083990048
H  H92  1  0.13760000  0.83650000  0.92530000  1.0 0.1083990048
H  H93  1  0.19130000  0.30670000  0.39890000  1.0 0.1002507666
H  H94  1  0.80870000  0.80670000  0.10110000  1.0 0.1002507666
H  H95  1  0.80870000  0.69330000  0.60110000  1.0 0.1002507666
H  H96  1  0.19130000  0.19330000  0.89890000  1.0 0.1002507666
H  H97  1  0.34500000  0.98840000  0.50150000  1.0 0.1083990048
H  H98  1  0.65500000  0.48840000  0.99850000  1.0 0.1083990048
H  H99  1  0.65500000  0.01160000  0.49850000  1.0 0.1083990048
H  H100  1  0.34500000  0.51160000  0.00150000  1.0 0.1083990048
H  H101  1  0.37050000  0.82350000  0.56870000  1.0 0.1083990048
H  H102  1  0.62950000  0.32350000  0.93130000  1.0 0.1083990048
H  H103  1  0.62950000  0.17650000  0.43130000  1.0 0.1083990048
H  H104  1  0.37050000  0.67650000  0.06870000  1.0 0.1083990048
H  H105  1  0.39650000  0.21680000  0.61930000  1.0 0.089542364
H  H106  1  0.60350000  0.71680000  0.88070000  1.0 0.089542364
H  H107  1  0.60350000  0.78320000  0.38070000  1.0 0.089542364
H  H108  1  0.39650000  0.28320000  0.11930000  1.0 0.089542364
H  H109  1  0.90120000  0.57100000  0.73630000  1.0 0.1002507666
H  H110  1  0.09880000  0.07100000  0.76370000  1.0 0.1002507666
H  H111  1  0.09880000  0.42900000  0.26370000  1.0 0.1002507666
H  H112  1  0.90120000  0.92900000  0.23630000  1.0 0.1002507666
H  H113  1  0.92950000  0.77210000  0.79300000  1.0 0.1002507666
H  H114  1  0.07050000  0.27210000  0.70700000  1.0 0.1002507666
H  H115  1  0.07050000  0.22790000  0.20700000  1.0 0.1002507666
H  H116  1  0.92950000  0.72790000  0.29300000  1.0 0.1002507666
H  H117  1  0.03060000  0.83730000  0.74070000  1.0 0.089542364
H  H118  1  0.96940000  0.33730000  0.75930000  1.0 0.089542364
H  H119  1  0.96940000  0.16270000  0.25930000  1.0 0.089542364
H  H120  1  0.03060000  0.66270000  0.24070000  1.0 0.089542364
H  H121  1  0.09050000  0.55760000  0.60790000  1.0 0.1002507666
H  H122  1  0.90950000  0.05760000  0.89210000  1.0 0.1002507666
H  H123  1  0.90950000  0.44240000  0.39210000  1.0 0.1002507666
H  H124  1  0.09050000  0.94240000  0.10790000  1.0 0.1002507666
H  H125  1  0.98910000  0.43440000  0.60830000  1.0 0.1002507666
H  H126  1  0.01090000  0.93440000  0.89170000  1.0 0.1002507666
H  H127  1  0.01090000  0.56560000  0.39170000  1.0 0.1002507666
H  H128  1  0.98910000  0.06560000  0.10830000  1.0 0.1002507666
C  C1  1  0.38030000  0.23290000  0.70490000  1.0 -0.0804451161
C  C2  1  0.61970000  0.73290000  0.79510000  1.0 -0.0804451161
C  C3  1  0.61970000  0.76710000  0.29510000  1.0 -0.0804451161
C  C4  1  0.38030000  0.26710000  0.20490000  1.0 -0.0804451161
C  C5  1  0.41840000  0.34790000  0.73690000  1.0 -0.0493301709
C  C6  1  0.58160000  0.84790000  0.76310000  1.0 -0.0493301709
C  C7  1  0.58160000  0.65210000  0.26310000  1.0 -0.0493301709
C  C8  1  0.41840000  0.15210000  0.23690000  1.0 -0.0493301709
C  C9  1  0.49940000  0.20490000  0.75100000  1.0 0.1083990048
C  C10  1  0.50060000  0.70490000  0.74900000  1.0 0.1083990048
C  C11  1  0.50060000  0.79510000  0.24900000  1.0 0.1083990048
C  C12  1  0.49940000  0.29510000  0.25100000  1.0 0.1083990048
C  C13  1  0.28980000  0.73950000  0.62690000  1.0 -0.0585198028
C  C14  1  0.71020000  0.23950000  0.87310000  1.0 -0.0585198028
C  C15  1  0.71020000  0.26050000  0.37310000  1.0 -0.0585198028
C  C16  1  0.28980000  0.76050000  0.12690000  1.0 -0.0585198028
C  C17  1  0.24200000  0.69140000  0.63250000  1.0 -0.0585198028
C  C18  1  0.75800000  0.19140000  0.86750000  1.0 -0.0585198028
C  C19  1  0.75800000  0.30860000  0.36750000  1.0 -0.0585198028
C  C20  1  0.24200000  0.80860000  0.13250000  1.0 -0.0585198028
C  C21  1  0.30290000  0.86920000  0.68350000  1.0 0.1217670714
C  C22  1  0.69710000  0.36920000  0.81650000  1.0 0.1217670714
C  C23  1  0.69710000  0.13080000  0.31650000  1.0 0.1217670714
C  C24  1  0.30290000  0.63080000  0.18350000  1.0 0.1217670714
C  C25  1  0.18800000  0.01950000  0.73370000  1.0 -0.0702860188
C  C26  1  0.81200000  0.51950000  0.76630000  1.0 -0.0702860188
C  C27  1  0.81200000  0.98050000  0.26630000  1.0 -0.0702860188
C  C28  1  0.18800000  0.48050000  0.23370000  1.0 -0.0702860188
C  C29  1  0.22450000  0.13350000  0.76800000  1.0 -0.0493301709
C  C30  1  0.77550000  0.63350000  0.73200000  1.0 -0.0493301709
C  C31  1  0.77550000  0.86650000  0.23200000  1.0 -0.0493301709
C  C32  1  0.22450000  0.36650000  0.26800000  1.0 -0.0493301709
C  C33  1  0.30730000  0.98540000  0.78900000  1.0 0.1217670714
C  C34  1  0.69270000  0.48540000  0.71100000  1.0 0.1217670714
C  C35  1  0.69270000  0.01460000  0.21100000  1.0 0.1217670714
C  C36  1  0.30730000  0.51460000  0.28900000  1.0 0.1217670714
C  C37  1  0.06370000  0.69700000  0.62560000  1.0 -0.0921404021
C  C38  1  0.93630000  0.19700000  0.87440000  1.0 -0.0921404021
C  C39  1  0.93630000  0.30300000  0.37440000  1.0 -0.0921404021
C  C40  1  0.06370000  0.80300000  0.12560000  1.0 -0.0921404021
C  C41  1  0.00470000  0.63500000  0.61950000  1.0 -0.0390682348
C  C42  1  0.99530000  0.13500000  0.88050000  1.0 -0.0390682348
C  C43  1  0.99530000  0.36500000  0.38050000  1.0 -0.0390682348
C  C44  1  0.00470000  0.86500000  0.11950000  1.0 -0.0390682348
C  C45  1  0.10370000  0.63030000  0.70160000  1.0 -0.0140631422
C  C46  1  0.89630000  0.13030000  0.79840000  1.0 -0.0140631422
C  C47  1  0.89630000  0.36970000  0.29840000  1.0 -0.0140631422
C  C48  1  0.10370000  0.86970000  0.20160000  1.0 -0.0140631422
C  C49  1  0.50110000  0.60870000  0.64780000  1.0 -0.0702860188
C  C50  1  0.49890000  0.10870000  0.85220000  1.0 -0.0702860188
C  C51  1  0.49890000  0.39130000  0.35220000  1.0 -0.0702860188
C  C52  1  0.50110000  0.89130000  0.14780000  1.0 -0.0702860188
C  C53  1  0.44450000  0.51470000  0.62110000  1.0 -0.0921404021
C  C54  1  0.55550000  0.01470000  0.87890000  1.0 -0.0921404021
C  C55  1  0.55550000  0.48530000  0.37890000  1.0 -0.0921404021
C  C56  1  0.44450000  0.98530000  0.12110000  1.0 -0.0921404021
C  C57  1  0.47800000  0.54810000  0.57770000  1.0 0.1255486359
C  C58  1  0.52200000  0.04810000  0.92230000  1.0 0.1255486359
C  C59  1  0.52200000  0.45190000  0.42230000  1.0 0.1255486359
C  C60  1  0.47800000  0.95190000  0.07770000  1.0 0.1255486359
C  C61  1  0.46420000  0.18480000  0.47010000  1.0 -0.0585198028
C  C62  1  0.53580000  0.68480000  0.02990000  1.0 -0.0585198028
C  C63  1  0.53580000  0.81520000  0.52990000  1.0 -0.0585198028
C  C64  1  0.46420000  0.31520000  0.97010000  1.0 -0.0585198028
C  C65  1  0.45660000  0.20150000  0.50610000  1.0 -0.0585198028
C  C66  1  0.54340000  0.70150000  0.99390000  1.0 -0.0585198028
C  C67  1  0.54340000  0.79850000  0.49390000  1.0 -0.0585198028
C  C68  1  0.45660000  0.29850000  0.00610000  1.0 -0.0585198028
C  C69  1  0.36650000  0.30930000  0.43340000  1.0 0.1083990048
C  C70  1  0.63350000  0.80930000  0.06660000  1.0 0.1083990048
C  C71  1  0.63350000  0.69070000  0.56660000  1.0 0.1083990048
C  C72  1  0.36650000  0.19070000  0.93340000  1.0 0.1083990048
C  C73  1  0.42710000  0.52130000  0.84210000  1.0 -0.0585198028
C  C74  1  0.57290000  0.02130000  0.65790000  1.0 -0.0585198028
C  C75  1  0.57290000  0.47870000  0.15790000  1.0 -0.0585198028
C  C76  1  0.42710000  0.97870000  0.34210000  1.0 -0.0585198028
C  C77  1  0.39010000  0.63830000  0.80900000  1.0 -0.0585198028
C  C78  1  0.60990000  0.13830000  0.69100000  1.0 -0.0585198028
C  C79  1  0.60990000  0.36170000  0.19100000  1.0 -0.0585198028
C  C80  1  0.39010000  0.86170000  0.30900000  1.0 -0.0585198028
C  C81  1  0.30820000  0.48190000  0.78540000  1.0 0.1217670714
C  C82  1  0.69180000  0.98190000  0.71460000  1.0 0.1217670714
C  C83  1  0.69180000  0.51810000  0.21460000  1.0 0.1217670714
C  C84  1  0.30820000  0.01810000  0.28540000  1.0 0.1217670714
C  C85  1  0.24000000  0.55050000  0.47420000  1.0 -0.0390682348
C  C86  1  0.76000000  0.05050000  0.02580000  1.0 -0.0390682348
C  C87  1  0.76000000  0.44950000  0.52580000  1.0 -0.0390682348
C  C88  1  0.24000000  0.94950000  0.97420000  1.0 -0.0390682348
C  C89  1  0.16470000  0.58390000  0.42910000  1.0 -0.0702860188
C  C90  1  0.83530000  0.08390000  0.07090000  1.0 -0.0702860188
C  C91  1  0.83530000  0.41610000  0.57090000  1.0 -0.0702860188
C  C92  1  0.16470000  0.91610000  0.92910000  1.0 -0.0702860188
C  C93  1  0.19470000  0.39070000  0.41570000  1.0 0.1217670714
C  C94  1  0.80530000  0.89070000  0.08430000  1.0 0.1217670714
C  C95  1  0.80530000  0.60930000  0.58430000  1.0 0.1217670714
C  C96  1  0.19470000  0.10930000  0.91570000  1.0 0.1217670714
C  C97  1  0.35820000  0.01520000  0.53390000  1.0 -0.0585198028
C  C98  1  0.64180000  0.51520000  0.96610000  1.0 -0.0585198028
C  C99  1  0.64180000  0.98480000  0.46610000  1.0 -0.0585198028
C  C100  1  0.35820000  0.48480000  0.03390000  1.0 -0.0585198028
C  C101  1  0.37310000  0.92380000  0.57110000  1.0 -0.0702860188
C  C102  1  0.62690000  0.42380000  0.92890000  1.0 -0.0702860188
C  C103  1  0.62690000  0.07620000  0.42890000  1.0 -0.0702860188
C  C104  1  0.37310000  0.57620000  0.07110000  1.0 -0.0702860188
C  C105  1  0.38650000  0.13800000  0.59790000  1.0 0.1217670714
C  C106  1  0.61350000  0.63800000  0.90210000  1.0 0.1217670714
C  C107  1  0.61350000  0.86200000  0.40210000  1.0 0.1217670714
C  C108  1  0.38650000  0.36200000  0.09790000  1.0 0.1217670714
C  C109  1  0.93130000  0.65040000  0.74410000  1.0 -0.0702860188
C  C110  1  0.06870000  0.15040000  0.75590000  1.0 -0.0702860188
C  C111  1  0.06870000  0.34960000  0.25590000  1.0 -0.0702860188
C  C112  1  0.93130000  0.84960000  0.24410000  1.0 -0.0702860188
C  C113  1  0.94730000  0.76070000  0.77570000  1.0 -0.0804451161
C  C114  1  0.05270000  0.26070000  0.72430000  1.0 -0.0804451161
C  C115  1  0.05270000  0.23930000  0.22430000  1.0 -0.0804451161
C  C116  1  0.94730000  0.73930000  0.27570000  1.0 -0.0804451161
C  C117  1  0.00190000  0.79530000  0.74700000  1.0 0.1217670714
C  C118  1  0.99810000  0.29530000  0.75300000  1.0 0.1217670714
C  C119  1  0.99810000  0.20470000  0.25300000  1.0 0.1217670714
C  C120  1  0.00190000  0.70470000  0.24700000  1.0 0.1217670714
C  C121  1  0.08440000  0.57400000  0.63210000  1.0 -0.0333773007
C  C122  1  0.91560000  0.07400000  0.86790000  1.0 -0.0333773007
C  C123  1  0.91560000  0.42600000  0.36790000  1.0 -0.0333773007
C  C124  1  0.08440000  0.92600000  0.13210000  1.0 -0.0333773007
C  C125  1  0.02310000  0.51000000  0.62970000  1.0 -0.0921404021
C  C126  1  0.97690000  0.01000000  0.87030000  1.0 -0.0921404021
C  C127  1  0.97690000  0.49000000  0.37030000  1.0 -0.0921404021
C  C128  1  0.02310000  0.99000000  0.12970000  1.0 -0.0921404021
N  N1  1  0.43230000  0.14020000  0.71440000  1.0 -0.2994993159
N  N2  1  0.56770000  0.64020000  0.78560000  1.0 -0.2994993159
N  N3  1  0.56770000  0.85980000  0.28560000  1.0 -0.2994993159
N  N4  1  0.43230000  0.35980000  0.21440000  1.0 -0.2994993159
N  N5  1  0.49300000  0.33160000  0.76610000  1.0 -0.2994993159
N  N6  1  0.50700000  0.83160000  0.73390000  1.0 -0.2994993159
N  N7  1  0.50700000  0.66840000  0.23390000  1.0 -0.2994993159
N  N8  1  0.49300000  0.16840000  0.26610000  1.0 -0.2994993159
N  N9  1  0.32920000  0.85240000  0.66000000  1.0 -0.2994993159
N  N10  1  0.67080000  0.35240000  0.84000000  1.0 -0.2994993159
N  N11  1  0.67080000  0.14760000  0.34000000  1.0 -0.2994993159
N  N12  1  0.32920000  0.64760000  0.16000000  1.0 -0.2994993159
N  N13  1  0.25080000  0.77400000  0.66870000  1.0 -0.291113091
N  N14  1  0.74920000  0.27400000  0.83130000  1.0 -0.291113091
N  N15  1  0.74920000  0.22600000  0.33130000  1.0 -0.291113091
N  N16  1  0.25080000  0.72600000  0.16870000  1.0 -0.291113091
N  N17  1  0.24230000  0.92410000  0.74840000  1.0 -0.291113091
N  N18  1  0.75770000  0.42410000  0.75160000  1.0 -0.291113091
N  N19  1  0.75770000  0.07590000  0.25160000  1.0 -0.291113091
N  N20  1  0.24230000  0.57590000  0.24840000  1.0 -0.291113091
N  N21  1  0.29990000  0.11330000  0.80240000  1.0 -0.2994993159
N  N22  1  0.70010000  0.61330000  0.69760000  1.0 -0.2994993159
N  N23  1  0.70010000  0.88670000  0.19760000  1.0 -0.2994993159
N  N24  1  0.29990000  0.38670000  0.30240000  1.0 -0.2994993159
N  N25  1  0.13040000  0.66480000  0.67970000  1.0 -0.241772766
N  N26  1  0.86960000  0.16480000  0.82030000  1.0 -0.241772766
N  N27  1  0.86960000  0.33520000  0.32030000  1.0 -0.241772766
N  N28  1  0.13040000  0.83520000  0.17970000  1.0 -0.241772766
N  N29  1  0.03090000  0.59550000  0.66790000  1.0 -0.2323895457
N  N30  1  0.96910000  0.09550000  0.83210000  1.0 -0.2323895457
N  N31  1  0.96910000  0.40450000  0.33210000  1.0 -0.2323895457
N  N32  1  0.03090000  0.90450000  0.16790000  1.0 -0.2323895457
N  N33  1  0.52240000  0.63070000  0.61970000  1.0 -0.2994993159
N  N34  1  0.47760000  0.13070000  0.88030000  1.0 -0.2994993159
N  N35  1  0.47760000  0.36930000  0.38030000  1.0 -0.2994993159
N  N36  1  0.52240000  0.86930000  0.11970000  1.0 -0.2994993159
N  N37  1  0.42850000  0.47210000  0.57490000  1.0 -0.3159696485
N  N38  1  0.57150000  0.97210000  0.92510000  1.0 -0.3159696485
N  N39  1  0.57150000  0.52790000  0.42510000  1.0 -0.3159696485
N  N40  1  0.42850000  0.02790000  0.07490000  1.0 -0.3159696485
N  N41  1  0.40690000  0.25150000  0.42370000  1.0 -0.2994993159
N  N42  1  0.59310000  0.75150000  0.07630000  1.0 -0.2994993159
N  N43  1  0.59310000  0.74850000  0.57630000  1.0 -0.2994993159
N  N44  1  0.40690000  0.24850000  0.92370000  1.0 -0.2994993159
N  N45  1  0.39480000  0.28180000  0.48270000  1.0 -0.2994993159
N  N46  1  0.60520000  0.78180000  0.01730000  1.0 -0.2994993159
N  N47  1  0.60520000  0.71820000  0.51730000  1.0 -0.2994993159
N  N48  1  0.39480000  0.21820000  0.98270000  1.0 -0.2994993159
N  N49  1  0.37340000  0.42250000  0.82560000  1.0 -0.2994993159
N  N50  1  0.62660000  0.92250000  0.67440000  1.0 -0.2994993159
N  N51  1  0.62660000  0.57750000  0.17440000  1.0 -0.2994993159
N  N52  1  0.37340000  0.07750000  0.32560000  1.0 -0.2994993159
N  N53  1  0.31390000  0.61280000  0.77230000  1.0 -0.3086548845
N  N54  1  0.68610000  0.11280000  0.72770000  1.0 -0.3086548845
N  N55  1  0.68610000  0.38720000  0.22770000  1.0 -0.3086548845
N  N56  1  0.31390000  0.88720000  0.27230000  1.0 -0.3086548845
N  N57  1  0.25680000  0.42790000  0.46510000  1.0 -0.291113091
N  N58  1  0.74320000  0.92790000  0.03490000  1.0 -0.291113091
N  N59  1  0.74320000  0.57210000  0.53490000  1.0 -0.291113091
N  N60  1  0.25680000  0.07210000  0.96510000  1.0 -0.291113091
N  N61  1  0.13720000  0.48160000  0.39140000  1.0 -0.2994993159
N  N62  1  0.86280000  0.98160000  0.10860000  1.0 -0.2994993159
N  N63  1  0.86280000  0.51840000  0.60860000  1.0 -0.2994993159
N  N64  1  0.13720000  0.01840000  0.89140000  1.0 -0.2994993159
N  N65  1  0.36510000  0.15120000  0.55030000  1.0 -0.2994993159
N  N66  1  0.63490000  0.65120000  0.94970000  1.0 -0.2994993159
N  N67  1  0.63490000  0.84880000  0.44970000  1.0 -0.2994993159
N  N68  1  0.36510000  0.34880000  0.05030000  1.0 -0.2994993159
N  N69  1  0.39270000  0.00390000  0.61300000  1.0 -0.2994993159
N  N70  1  0.60730000  0.50390000  0.88700000  1.0 -0.2994993159
N  N71  1  0.60730000  0.99610000  0.38700000  1.0 -0.2994993159
N  N72  1  0.39270000  0.49610000  0.11300000  1.0 -0.2994993159
N  N73  1  0.96540000  0.67060000  0.72520000  1.0 -0.2994993159
N  N74  1  0.03460000  0.17060000  0.77480000  1.0 -0.2994993159
N  N75  1  0.03460000  0.32940000  0.27480000  1.0 -0.2994993159
N  N76  1  0.96540000  0.82940000  0.22520000  1.0 -0.2994993159
N  N77  1  0.99390000  0.85430000  0.77870000  1.0 -0.2994993159
N  N78  1  0.00610000  0.35430000  0.72130000  1.0 -0.2994993159
N  N79  1  0.00610000  0.14570000  0.22130000  1.0 -0.2994993159
N  N80  1  0.99390000  0.64570000  0.27870000  1.0 -0.2994993159
