# DDEC6 charges by PACMAN v1.1 (https://github.com/mtap-research/PACMAN-charge/)
data_AFOYOK_FSR_pacman
_symmetry_space_group_name_H-M   'P 1'
_cell_length_a   13.47450000
_cell_length_b   13.47450000
_cell_length_c   25.18920000
_cell_angle_alpha   90.00000000
_cell_angle_beta   90.00000000
_cell_angle_gamma   146.74300000
_symmetry_Int_Tables_number   1
_chemical_formula_structural   CuH14(C10N3)2
_chemical_formula_sum   'Cu4 H56 C80 N24'
_cell_volume   2508.03442366
_cell_formula_units_Z   4
loop_
 _symmetry_equiv_pos_site_id
 _symmetry_equiv_pos_as_xyz
  1  'x, y, z'
loop_
 _atom_site_type_symbol
 _atom_site_label
 _atom_site_symmetry_multiplicity
 _atom_site_fract_x
 _atom_site_fract_y
 _atom_site_fract_z
 _atom_site_occupancy
 _atom_site_charge
Cu  Cu1  1  0.00000000  0.50000000  0.50000000  1.0 0.5165701577
Cu  Cu2  1  0.00000000  0.50000000  0.00000000  1.0 0.5165701577
Cu  Cu3  1  0.50000000  0.00000000  0.00000000  1.0 0.5165701577
Cu  Cu4  1  0.50000000  0.00000000  0.50000000  1.0 0.5165701577
H  H1  1  0.65900000  0.96620000  0.29660000  1.0 0.1197311699
H  H2  1  0.34100000  0.03380000  0.79660000  1.0 0.1197311699
H  H3  1  0.96620000  0.65900000  0.20340000  1.0 0.1197311699
H  H4  1  0.03380000  0.34100000  0.70340000  1.0 0.1197311699
H  H5  1  0.34100000  0.03380000  0.70340000  1.0 0.1197311699
H  H6  1  0.65900000  0.96620000  0.20340000  1.0 0.1197311699
H  H7  1  0.03380000  0.34100000  0.79660000  1.0 0.1197311699
H  H8  1  0.96620000  0.65900000  0.29660000  1.0 0.1197311699
H  H9  1  0.08700000  0.50540000  0.29620000  1.0 0.1197311699
H  H10  1  0.91300000  0.49460000  0.79620000  1.0 0.1197311699
H  H11  1  0.50540000  0.08700000  0.20380000  1.0 0.1197311699
H  H12  1  0.49460000  0.91300000  0.70380000  1.0 0.1197311699
H  H13  1  0.91300000  0.49460000  0.70380000  1.0 0.1197311699
H  H14  1  0.08700000  0.50540000  0.20380000  1.0 0.1197311699
H  H15  1  0.49460000  0.91300000  0.79620000  1.0 0.1197311699
H  H16  1  0.50540000  0.08700000  0.29620000  1.0 0.1197311699
H  H17  1  0.73570000  0.64510000  0.55560000  1.0 0.1020927144
H  H18  1  0.26430000  0.35490000  0.05560000  1.0 0.1020927144
H  H19  1  0.64510000  0.73570000  0.94440000  1.0 0.1020927144
H  H20  1  0.35490000  0.26430000  0.44440000  1.0 0.1020927144
H  H21  1  0.26430000  0.35490000  0.44440000  1.0 0.1020927144
H  H22  1  0.73570000  0.64510000  0.94440000  1.0 0.1020927144
H  H23  1  0.35490000  0.26430000  0.05560000  1.0 0.1020927144
H  H24  1  0.64510000  0.73570000  0.55560000  1.0 0.1020927144
H  H25  1  0.08930000  0.50150000  0.38270000  1.0 0.1127071617
H  H26  1  0.91070000  0.49850000  0.88270000  1.0 0.1127071617
H  H27  1  0.50150000  0.08930000  0.11730000  1.0 0.1127071617
H  H28  1  0.49850000  0.91070000  0.61730000  1.0 0.1127071617
H  H29  1  0.91070000  0.49850000  0.61730000  1.0 0.1127071617
H  H30  1  0.08930000  0.50150000  0.11730000  1.0 0.1127071617
H  H31  1  0.49850000  0.91070000  0.88270000  1.0 0.1127071617
H  H32  1  0.50150000  0.08930000  0.38270000  1.0 0.1127071617
H  H33  1  0.59930000  0.97310000  0.38040000  1.0 0.1127071617
H  H34  1  0.40070000  0.02690000  0.88040000  1.0 0.1127071617
H  H35  1  0.97310000  0.59930000  0.11960000  1.0 0.1127071617
H  H36  1  0.02690000  0.40070000  0.61960000  1.0 0.1127071617
H  H37  1  0.40070000  0.02690000  0.61960000  1.0 0.1127071617
H  H38  1  0.59930000  0.97310000  0.11960000  1.0 0.1127071617
H  H39  1  0.02690000  0.40070000  0.88040000  1.0 0.1127071617
H  H40  1  0.97310000  0.59930000  0.38040000  1.0 0.1127071617
H  H41  1  0.88620000  0.62820000  0.50010000  1.0 0.1197311699
H  H42  1  0.11380000  0.37180000  0.00010000  1.0 0.1197311699
H  H43  1  0.62820000  0.88620000  0.99990000  1.0 0.1197311699
H  H44  1  0.37180000  0.11380000  0.49990000  1.0 0.1197311699
H  H45  1  0.11380000  0.37180000  0.49990000  1.0 0.1197311699
H  H46  1  0.88620000  0.62820000  0.99990000  1.0 0.1197311699
H  H47  1  0.37180000  0.11380000  0.00010000  1.0 0.1197311699
H  H48  1  0.62820000  0.88620000  0.50010000  1.0 0.1197311699
H  H49  1  0.72580000  0.63520000  0.44170000  1.0 0.1020927144
H  H50  1  0.27420000  0.36480000  0.94170000  1.0 0.1020927144
H  H51  1  0.63520000  0.72580000  0.05830000  1.0 0.1020927144
H  H52  1  0.36480000  0.27420000  0.55830000  1.0 0.1020927144
H  H53  1  0.27420000  0.36480000  0.55830000  1.0 0.1020927144
H  H54  1  0.72580000  0.63520000  0.05830000  1.0 0.1020927144
H  H55  1  0.36480000  0.27420000  0.94170000  1.0 0.1020927144
H  H56  1  0.63520000  0.72580000  0.44170000  1.0 0.1020927144
C  C1  1  0.97386000  0.38354000  0.39265000  1.0 -0.0631629386
C  C2  1  0.02614000  0.61646000  0.89265000  1.0 -0.0631629386
C  C3  1  0.38354000  0.97386000  0.10735000  1.0 -0.0631629386
C  C4  1  0.61646000  0.02614000  0.60735000  1.0 -0.0631629386
C  C5  1  0.02614000  0.61646000  0.60735000  1.0 -0.0631629386
C  C6  1  0.97386000  0.38354000  0.10735000  1.0 -0.0631629386
C  C7  1  0.61646000  0.02614000  0.89265000  1.0 -0.0631629386
C  C8  1  0.38354000  0.97386000  0.39265000  1.0 -0.0631629386
C  C9  1  0.85297000  0.23523000  0.36215000  1.0 -0.0373033668
C  C10  1  0.14703000  0.76477000  0.86215000  1.0 -0.0373033668
C  C11  1  0.23523000  0.85297000  0.13785000  1.0 -0.0373033668
C  C12  1  0.76477000  0.14703000  0.63785000  1.0 -0.0373033668
C  C13  1  0.14703000  0.76477000  0.63785000  1.0 -0.0373033668
C  C14  1  0.85297000  0.23523000  0.13785000  1.0 -0.0373033668
C  C15  1  0.76477000  0.14703000  0.86215000  1.0 -0.0373033668
C  C16  1  0.23523000  0.85297000  0.36215000  1.0 -0.0373033668
C  C17  1  0.70329000  0.09251000  0.39170000  1.0 -0.0689410126
C  C18  1  0.29671000  0.90749000  0.89170000  1.0 -0.0631629386
C  C19  1  0.09251000  0.70329000  0.10830000  1.0 -0.0689410126
C  C20  1  0.90749000  0.29671000  0.60830000  1.0 -0.0689410126
C  C21  1  0.29671000  0.90749000  0.60830000  1.0 -0.0631629386
C  C22  1  0.70329000  0.09251000  0.10830000  1.0 -0.0689410126
C  C23  1  0.90749000  0.29671000  0.89170000  1.0 -0.0689410126
C  C24  1  0.09251000  0.70329000  0.39170000  1.0 -0.0689410126
C  C25  1  0.86629000  0.23431000  0.30484000  1.0 0.0938319595
C  C26  1  0.13371000  0.76569000  0.80484000  1.0 0.0938319595
C  C27  1  0.23431000  0.86629000  0.19516000  1.0 0.0938319595
C  C28  1  0.76569000  0.13371000  0.69516000  1.0 0.0938319595
C  C29  1  0.13371000  0.76569000  0.69516000  1.0 0.0938319595
C  C30  1  0.86629000  0.23431000  0.19516000  1.0 0.0938319595
C  C31  1  0.76569000  0.13371000  0.80484000  1.0 0.0938319595
C  C32  1  0.23431000  0.86629000  0.30484000  1.0 0.0938319595
C  C33  1  0.74464000  0.07696000  0.27782000  1.0 -0.1422102905
C  C34  1  0.25536000  0.92304000  0.77782000  1.0 -0.1422102905
C  C35  1  0.07696000  0.74464000  0.22218000  1.0 -0.1422102905
C  C36  1  0.92304000  0.25536000  0.72218000  1.0 -0.1422102905
C  C37  1  0.25536000  0.92304000  0.72218000  1.0 -0.1422102905
C  C38  1  0.74464000  0.07696000  0.22218000  1.0 -0.1422102905
C  C39  1  0.92304000  0.25536000  0.77782000  1.0 -0.1422102905
C  C40  1  0.07696000  0.74464000  0.27782000  1.0 -0.1422102905
C  C41  1  0.99636000  0.39404000  0.27743000  1.0 -0.147945874
C  C42  1  0.00364000  0.60596000  0.77743000  1.0 -0.147945874
C  C43  1  0.39404000  0.99636000  0.22257000  1.0 -0.147945874
C  C44  1  0.60596000  0.00364000  0.72257000  1.0 -0.147945874
C  C45  1  0.00364000  0.60596000  0.72257000  1.0 -0.147945874
C  C46  1  0.99636000  0.39404000  0.22257000  1.0 -0.147945874
C  C47  1  0.60596000  0.00364000  0.77743000  1.0 -0.147945874
C  C48  1  0.39404000  0.99636000  0.27743000  1.0 -0.147945874
C  C49  1  0.78210000  0.50250000  0.50001000  1.0 -0.0631629386
C  C50  1  0.21790000  0.49750000  0.00001000  1.0 -0.0631629386
C  C51  1  0.50250000  0.78210000  0.99999000  1.0 -0.0631629386
C  C52  1  0.49750000  0.21790000  0.49999000  1.0 -0.0631629386
C  C53  1  0.21790000  0.49750000  0.49999000  1.0 -0.0631629386
C  C54  1  0.78210000  0.50250000  0.99999000  1.0 -0.0631629386
C  C55  1  0.49750000  0.21790000  0.00001000  1.0 -0.0631629386
C  C56  1  0.50250000  0.78210000  0.50001000  1.0 -0.0631629386
C  C57  1  0.60916000  0.39084000  0.50000000  1.0 -0.0689410126
C  C58  1  0.39084000  0.60916000  0.00000000  1.0 -0.0689410126
C  C59  1  0.39084000  0.60916000  0.50000000  1.0 -0.0689410126
C  C60  1  0.60916000  0.39084000  0.00000000  1.0 -0.0689410126
C  C61  1  0.55292000  0.44708000  0.50000000  1.0 0.0621968651
C  C62  1  0.44708000  0.55292000  0.00000000  1.0 0.0621968651
C  C63  1  0.44708000  0.55292000  0.50000000  1.0 0.0621968651
C  C64  1  0.55292000  0.44708000  0.00000000  1.0 0.0621968651
C  C65  1  0.63922000  0.58558000  0.53290000  1.0 -0.0836324921
C  C66  1  0.36078000  0.41442000  0.03290000  1.0 -0.0862640319
C  C67  1  0.58558000  0.63922000  0.96710000  1.0 -0.0862640319
C  C68  1  0.41442000  0.36078000  0.46710000  1.0 -0.0862640319
C  C69  1  0.36078000  0.41442000  0.46710000  1.0 -0.0862640319
C  C70  1  0.63922000  0.58558000  0.96710000  1.0 -0.0836324921
C  C71  1  0.41442000  0.36078000  0.03290000  1.0 -0.0862640319
C  C72  1  0.58558000  0.63922000  0.53290000  1.0 -0.0862640319
C  C73  1  0.63420000  0.58000000  0.46550000  1.0 -0.0862640319
C  C74  1  0.36580000  0.42000000  0.96550000  1.0 -0.0862640319
C  C75  1  0.58000000  0.63420000  0.03450000  1.0 -0.0862640319
C  C76  1  0.42000000  0.36580000  0.53450000  1.0 -0.0862640319
C  C77  1  0.36580000  0.42000000  0.53450000  1.0 -0.0862640319
C  C78  1  0.63420000  0.58000000  0.03450000  1.0 -0.0862640319
C  C79  1  0.42000000  0.36580000  0.96550000  1.0 -0.0862640319
C  C80  1  0.58000000  0.63420000  0.46550000  1.0 -0.0862640319
N  N1  1  0.89829000  0.33151000  0.43981000  1.0 -0.1230020417
N  N2  1  0.10171000  0.66849000  0.93981000  1.0 -0.1230020417
N  N3  1  0.33151000  0.89829000  0.06019000  1.0 -0.1230020417
N  N4  1  0.66849000  0.10171000  0.56019000  1.0 -0.1230020417
N  N5  1  0.10171000  0.66849000  0.56019000  1.0 -0.1230020417
N  N6  1  0.89829000  0.33151000  0.06019000  1.0 -0.1230020417
N  N7  1  0.66849000  0.10171000  0.93981000  1.0 -0.1230020417
N  N8  1  0.33151000  0.89829000  0.43981000  1.0 -0.1230020417
N  N9  1  0.73136000  0.15184000  0.43969000  1.0 -0.1791738129
N  N10  1  0.26864000  0.84816000  0.93969000  1.0 -0.1791738129
N  N11  1  0.15184000  0.73136000  0.06031000  1.0 -0.1791738129
N  N12  1  0.84816000  0.26864000  0.56031000  1.0 -0.1791738129
N  N13  1  0.26864000  0.84816000  0.56031000  1.0 -0.1791738129
N  N14  1  0.73136000  0.15184000  0.06031000  1.0 -0.1791738129
N  N15  1  0.84816000  0.26864000  0.93969000  1.0 -0.1791738129
N  N16  1  0.15184000  0.73136000  0.43969000  1.0 -0.1791738129
N  N17  1  0.77600000  0.39980000  0.50002000  1.0 -0.1422102905
N  N18  1  0.22400000  0.60020000  0.00002000  1.0 -0.1422102905
N  N19  1  0.39980000  0.77600000  0.99998000  1.0 -0.1422102905
N  N20  1  0.60020000  0.22400000  0.49998000  1.0 -0.1422102905
N  N21  1  0.22400000  0.60020000  0.49998000  1.0 -0.1422102905
N  N22  1  0.77600000  0.39980000  0.99998000  1.0 -0.1422102905
N  N23  1  0.60020000  0.22400000  0.00002000  1.0 -0.1422102905
N  N24  1  0.39980000  0.77600000  0.50002000  1.0 -0.1422102905
