# DDEC6 charges by PACMAN v1.1 (https://github.com/mtap-research/PACMAN-charge/)
data_AFUDOX_ASR_pacman
_symmetry_space_group_name_H-M   'P 1'
_cell_length_a   17.84350000
_cell_length_b   17.84350000
_cell_length_c   14.17510000
_cell_angle_alpha   79.28260000
_cell_angle_beta   100.71700000
_cell_angle_gamma   137.13600000
_symmetry_Int_Tables_number   1
_chemical_formula_structural   HoH25C27(NO4)2
_chemical_formula_sum   'Ho4 H100 C108 N8 O32'
_cell_volume   3008.27373280
_cell_formula_units_Z   4
loop_
 _symmetry_equiv_pos_site_id
 _symmetry_equiv_pos_as_xyz
  1  'x, y, z'
loop_
 _atom_site_type_symbol
 _atom_site_label
 _atom_site_symmetry_multiplicity
 _atom_site_fract_x
 _atom_site_fract_y
 _atom_site_fract_z
 _atom_site_occupancy
 _atom_site_charge
Ho  Ho1  1  0.49118000  0.10562000  0.45238000  1.0 2.0191378913
Ho  Ho2  1  0.10562000  0.49118000  0.04762000  1.0 2.0191378913
Ho  Ho3  1  0.50882000  0.89438000  0.54762000  1.0 2.0191378913
Ho  Ho4  1  0.89438000  0.50882000  0.95238000  1.0 2.0191378913
H  H1  1  0.19136000  0.85496000  0.41625000  1.0 0.1276022225
H  H2  1  0.21246000  0.68480000  0.29629000  1.0 0.1387289784
H  H3  1  0.84951000  0.62885000  0.29207000  1.0 0.1199700303
H  H4  1  0.12951000  0.93187000  0.37212000  1.0 0.110088642
H  H5  1  0.74943000  0.65675000  0.32422000  1.0 0.110088642
H  H6  1  0.96366000  0.65296000  0.20894000  1.0 0.1276022225
H  H7  1  0.57362000  0.68544000  0.47251000  1.0 0.1276022225
H  H8  1  0.02851000  0.95799000  0.40569000  1.0 0.1199700303
H  H9  1  0.67079000  0.66199000  0.42109000  1.0 0.110088642
H  H10  1  0.92876000  0.99044000  0.38226000  1.0 0.110088642
H  H11  1  0.83292000  0.01212000  0.43855000  1.0 0.1199700303
H  H12  1  0.38561000  0.98821000  0.24192000  1.0 0.1464273951
H  H13  1  0.16802000  0.86218000  0.08677000  1.0 0.1276022225
H  H14  1  0.27027000  0.96661000  0.02981000  1.0 0.110088642
H  H15  1  0.28049000  0.89935000  0.10818000  1.0 0.1276022225
H  H16  1  0.29033000  0.10013000  0.19308000  1.0 0.1007709413
H  H17  1  0.22795000  0.05527000  0.09206000  1.0 0.0724506176
H  H18  1  0.16868000  0.98188000  0.18615000  1.0 0.1007709413
H  H19  1  0.23452000  0.98036000  0.28266000  1.0 0.1007709413
H  H20  1  0.14157000  0.95387000  0.13515000  1.0 0.0774325862
H  H21  1  0.20626000  0.05570000  0.05903000  1.0 0.0902316108
H  H22  1  0.19221000  0.95933000  0.05153000  1.0 0.1007709413
H  H23  1  0.40773000  0.18069000  0.08108000  1.0 0.1199700303
H  H24  1  0.46782000  0.15524000  0.14939000  1.0 0.1199700303
H  H25  1  0.39971000  0.09321000  0.05522000  1.0 0.110088642
H  H26  1  0.85496000  0.19136000  0.08375000  1.0 0.1276022225
H  H27  1  0.68480000  0.21246000  0.20371000  1.0 0.1387289784
H  H28  1  0.62885000  0.84951000  0.20793000  1.0 0.1199700303
H  H29  1  0.93187000  0.12951000  0.12788000  1.0 0.110088642
H  H30  1  0.65675000  0.74943000  0.17578000  1.0 0.110088642
H  H31  1  0.65296000  0.96366000  0.29106000  1.0 0.1276022225
H  H32  1  0.68544000  0.57362000  0.02749000  1.0 0.1276022225
H  H33  1  0.95799000  0.02851000  0.09431000  1.0 0.1199700303
H  H34  1  0.66199000  0.67079000  0.07891000  1.0 0.110088642
H  H35  1  0.99044000  0.92876000  0.11774000  1.0 0.110088642
H  H36  1  0.01212000  0.83292000  0.06145000  1.0 0.1199700303
H  H37  1  0.98821000  0.38561000  0.25808000  1.0 0.1464273951
H  H38  1  0.86218000  0.16802000  0.41323000  1.0 0.1276022225
H  H39  1  0.96661000  0.27027000  0.47019000  1.0 0.110088642
H  H40  1  0.89935000  0.28049000  0.39182000  1.0 0.1276022225
H  H41  1  0.10013000  0.29033000  0.30692000  1.0 0.1007709413
H  H42  1  0.05527000  0.22795000  0.40794000  1.0 0.0724506176
H  H43  1  0.98188000  0.16868000  0.31385000  1.0 0.1007709413
H  H44  1  0.98036000  0.23452000  0.21734000  1.0 0.1007709413
H  H45  1  0.95387000  0.14157000  0.36485000  1.0 0.0774325862
H  H46  1  0.05570000  0.20626000  0.44097000  1.0 0.0902316108
H  H47  1  0.95933000  0.19221000  0.44847000  1.0 0.1007709413
H  H48  1  0.18069000  0.40773000  0.41892000  1.0 0.1199700303
H  H49  1  0.15524000  0.46782000  0.35061000  1.0 0.1199700303
H  H50  1  0.09321000  0.39971000  0.44478000  1.0 0.110088642
H  H51  1  0.80864000  0.14504000  0.58375000  1.0 0.1276022225
H  H52  1  0.78754000  0.31520000  0.70371000  1.0 0.1387289784
H  H53  1  0.15049000  0.37115000  0.70793000  1.0 0.1199700303
H  H54  1  0.87049000  0.06813000  0.62788000  1.0 0.110088642
H  H55  1  0.25057000  0.34325000  0.67578000  1.0 0.110088642
H  H56  1  0.03634000  0.34704000  0.79106000  1.0 0.1276022225
H  H57  1  0.42638000  0.31456000  0.52749000  1.0 0.1276022225
H  H58  1  0.97149000  0.04201000  0.59431000  1.0 0.1199700303
H  H59  1  0.32921000  0.33801000  0.57891000  1.0 0.110088642
H  H60  1  0.07124000  0.00956000  0.61774000  1.0 0.110088642
H  H61  1  0.16708000  0.98788000  0.56145000  1.0 0.1199700303
H  H62  1  0.61439000  0.01179000  0.75808000  1.0 0.1464273951
H  H63  1  0.83198000  0.13782000  0.91323000  1.0 0.1276022225
H  H64  1  0.72973000  0.03339000  0.97019000  1.0 0.110088642
H  H65  1  0.71951000  0.10065000  0.89182000  1.0 0.1276022225
H  H66  1  0.70967000  0.89987000  0.80692000  1.0 0.1007709413
H  H67  1  0.77205000  0.94473000  0.90794000  1.0 0.0724506176
H  H68  1  0.83132000  0.01812000  0.81385000  1.0 0.1007709413
H  H69  1  0.76548000  0.01964000  0.71734000  1.0 0.1007709413
H  H70  1  0.85843000  0.04613000  0.86485000  1.0 0.0774325862
H  H71  1  0.79374000  0.94430000  0.94097000  1.0 0.0902316108
H  H72  1  0.80779000  0.04067000  0.94847000  1.0 0.1007709413
H  H73  1  0.59227000  0.81931000  0.91892000  1.0 0.1199700303
H  H74  1  0.53218000  0.84476000  0.85061000  1.0 0.1199700303
H  H75  1  0.60029000  0.90679000  0.94478000  1.0 0.110088642
H  H76  1  0.14504000  0.80864000  0.91625000  1.0 0.1276022225
H  H77  1  0.31520000  0.78754000  0.79629000  1.0 0.1387289784
H  H78  1  0.37115000  0.15049000  0.79207000  1.0 0.1199700303
H  H79  1  0.06813000  0.87049000  0.87212000  1.0 0.110088642
H  H80  1  0.34325000  0.25057000  0.82422000  1.0 0.110088642
H  H81  1  0.34704000  0.03634000  0.70894000  1.0 0.1276022225
H  H82  1  0.31456000  0.42638000  0.97251000  1.0 0.1276022225
H  H83  1  0.04201000  0.97149000  0.90569000  1.0 0.1199700303
H  H84  1  0.33801000  0.32921000  0.92109000  1.0 0.110088642
H  H85  1  0.00956000  0.07124000  0.88226000  1.0 0.110088642
H  H86  1  0.98788000  0.16708000  0.93855000  1.0 0.1199700303
H  H87  1  0.01179000  0.61439000  0.74192000  1.0 0.1464273951
H  H88  1  0.13782000  0.83198000  0.58677000  1.0 0.1276022225
H  H89  1  0.03339000  0.72973000  0.52981000  1.0 0.110088642
H  H90  1  0.10065000  0.71951000  0.60818000  1.0 0.1276022225
H  H91  1  0.89987000  0.70967000  0.69308000  1.0 0.1007709413
H  H92  1  0.94473000  0.77205000  0.59206000  1.0 0.0724506176
H  H93  1  0.01812000  0.83132000  0.68615000  1.0 0.1007709413
H  H94  1  0.01964000  0.76548000  0.78266000  1.0 0.1007709413
H  H95  1  0.04613000  0.85843000  0.63515000  1.0 0.0774325862
H  H96  1  0.94430000  0.79374000  0.55903000  1.0 0.0902316108
H  H97  1  0.04067000  0.80779000  0.55153000  1.0 0.1007709413
H  H98  1  0.81931000  0.59227000  0.58108000  1.0 0.1199700303
H  H99  1  0.84476000  0.53218000  0.64939000  1.0 0.1199700303
H  H100  1  0.90679000  0.60029000  0.55522000  1.0 0.110088642
C  C1  1  0.21567000  0.77593000  0.36614000  1.0 -0.0193410504
C  C2  1  0.00127000  0.77609000  0.33147000  1.0 0.0236770043
C  C3  1  0.16206000  0.80358000  0.37362000  1.0 -0.2390439079
C  C4  1  0.17628000  0.70342000  0.30026000  1.0 -0.1196434476
C  C5  1  0.04317000  0.58509000  0.16364000  1.0 0.6213693045
C  C6  1  0.06433000  0.75475000  0.31754000  1.0 0.0444158468
C  C7  1  0.63141000  0.86685000  0.49554000  1.0 0.5553962908
C  C8  1  0.88624000  0.69486000  0.31587000  1.0 -0.1317603585
C  C9  1  0.08309000  0.65881000  0.24044000  1.0 -0.0139077454
C  C10  1  0.05282000  0.87518000  0.36379000  1.0 -0.2478990757
C  C11  1  0.82589000  0.71165000  0.33557000  1.0 -0.1317603585
C  C12  1  0.02680000  0.68374000  0.24905000  1.0 -0.1617194505
C  C13  1  0.31636000  0.82326000  0.43044000  1.0 0.6213693045
C  C14  1  0.87800000  0.80908000  0.37193000  1.0 0.0499368294
C  C15  1  0.69359000  0.85121000  0.46040000  1.0 -0.0139077454
C  C16  1  0.81290000  0.82368000  0.39983000  1.0 0.0649754576
C  C17  1  0.64567000  0.74697000  0.45540000  1.0 -0.1055273094
C  C18  1  0.99191000  0.89113000  0.38390000  1.0 -0.2315060177
C  C19  1  0.70447000  0.73295000  0.42483000  1.0 -0.1542875149
C  C20  1  0.85821000  0.92841000  0.40241000  1.0 -0.1899278514
C  C21  1  0.79981000  0.94143000  0.43450000  1.0 -0.1784258016
C  C22  1  0.35789000  0.01691000  0.23916000  1.0 0.2243628784
C  C23  1  0.24696000  0.92460000  0.09096000  1.0 -0.3577256181
C  C24  1  0.23805000  0.03551000  0.15729000  1.0 -0.0604855844
C  C25  1  0.30138000  0.02804000  0.25487000  1.0 0.2143105961
C  C26  1  0.20251000  0.00197000  0.09510000  1.0 -0.141381988
C  C27  1  0.40345000  0.12403000  0.10691000  1.0 -0.3265591316
C  C28  1  0.77593000  0.21567000  0.13386000  1.0 -0.0193410504
C  C29  1  0.77609000  0.00127000  0.16853000  1.0 0.0236770043
C  C30  1  0.80358000  0.16206000  0.12638000  1.0 -0.2390439079
C  C31  1  0.70342000  0.17628000  0.19974000  1.0 -0.1196434476
C  C32  1  0.58509000  0.04317000  0.33636000  1.0 0.6213693045
C  C33  1  0.75475000  0.06433000  0.18246000  1.0 0.0444158468
C  C34  1  0.86685000  0.63141000  0.00446000  1.0 0.5553962908
C  C35  1  0.69486000  0.88624000  0.18413000  1.0 -0.1317603585
C  C36  1  0.65881000  0.08309000  0.25956000  1.0 -0.0139077454
C  C37  1  0.87518000  0.05282000  0.13621000  1.0 -0.2478990757
C  C38  1  0.71165000  0.82589000  0.16443000  1.0 -0.1317603585
C  C39  1  0.68374000  0.02680000  0.25095000  1.0 -0.1617194505
C  C40  1  0.82326000  0.31636000  0.06956000  1.0 0.6213693045
C  C41  1  0.80908000  0.87800000  0.12807000  1.0 0.0499368294
C  C42  1  0.85121000  0.69359000  0.03960000  1.0 -0.0139077454
C  C43  1  0.82368000  0.81290000  0.10017000  1.0 0.0649754576
C  C44  1  0.74697000  0.64567000  0.04460000  1.0 -0.1055273094
C  C45  1  0.89113000  0.99191000  0.11610000  1.0 -0.2315060177
C  C46  1  0.73295000  0.70447000  0.07517000  1.0 -0.1542875149
C  C47  1  0.92841000  0.85821000  0.09759000  1.0 -0.1899278514
C  C48  1  0.94143000  0.79981000  0.06550000  1.0 -0.1784258016
C  C49  1  0.01691000  0.35789000  0.26084000  1.0 0.2243628784
C  C50  1  0.92460000  0.24696000  0.40904000  1.0 -0.3577256181
C  C51  1  0.03551000  0.23805000  0.34271000  1.0 -0.0604855844
C  C52  1  0.02804000  0.30138000  0.24513000  1.0 0.2143105961
C  C53  1  0.00197000  0.20251000  0.40490000  1.0 -0.141381988
C  C54  1  0.12403000  0.40345000  0.39309000  1.0 -0.3265591316
C  C55  1  0.78433000  0.22407000  0.63386000  1.0 -0.0193410504
C  C56  1  0.99873000  0.22391000  0.66853000  1.0 0.0236770043
C  C57  1  0.83794000  0.19642000  0.62638000  1.0 -0.2390439079
C  C58  1  0.82372000  0.29658000  0.69974000  1.0 -0.1196434476
C  C59  1  0.95683000  0.41491000  0.83636000  1.0 0.6213693045
C  C60  1  0.93567000  0.24525000  0.68246000  1.0 0.0444158468
C  C61  1  0.36859000  0.13315000  0.50446000  1.0 0.5553962908
C  C62  1  0.11376000  0.30514000  0.68413000  1.0 -0.1317603585
C  C63  1  0.91691000  0.34119000  0.75956000  1.0 -0.0139077454
C  C64  1  0.94718000  0.12482000  0.63621000  1.0 -0.2478990757
C  C65  1  0.17411000  0.28835000  0.66443000  1.0 -0.1317603585
C  C66  1  0.97320000  0.31626000  0.75095000  1.0 -0.1617194505
C  C67  1  0.68364000  0.17674000  0.56956000  1.0 0.6213693045
C  C68  1  0.12200000  0.19092000  0.62807000  1.0 0.0499368294
C  C69  1  0.30641000  0.14879000  0.53960000  1.0 -0.0139077454
C  C70  1  0.18710000  0.17632000  0.60017000  1.0 0.0649754576
C  C71  1  0.35433000  0.25303000  0.54460000  1.0 -0.1055273094
C  C72  1  0.00809000  0.10887000  0.61610000  1.0 -0.2315060177
C  C73  1  0.29553000  0.26705000  0.57517000  1.0 -0.1542875149
C  C74  1  0.14179000  0.07159000  0.59759000  1.0 -0.1899278514
C  C75  1  0.20019000  0.05857000  0.56550000  1.0 -0.1784258016
C  C76  1  0.64211000  0.98309000  0.76084000  1.0 0.2243628784
C  C77  1  0.75304000  0.07540000  0.90904000  1.0 -0.3577256181
C  C78  1  0.76195000  0.96449000  0.84271000  1.0 -0.0604855844
C  C79  1  0.69862000  0.97196000  0.74513000  1.0 0.2143105961
C  C80  1  0.79749000  0.99803000  0.90490000  1.0 -0.141381988
C  C81  1  0.59655000  0.87597000  0.89309000  1.0 -0.3265591316
C  C82  1  0.22407000  0.78433000  0.86614000  1.0 -0.0193410504
C  C83  1  0.22391000  0.99873000  0.83147000  1.0 0.0236770043
C  C84  1  0.19642000  0.83794000  0.87362000  1.0 -0.2390439079
C  C85  1  0.29658000  0.82372000  0.80026000  1.0 -0.1196434476
C  C86  1  0.41491000  0.95683000  0.66364000  1.0 0.6213693045
C  C87  1  0.24525000  0.93567000  0.81754000  1.0 0.0444158468
C  C88  1  0.13315000  0.36859000  0.99554000  1.0 0.5553962908
C  C89  1  0.30514000  0.11376000  0.81587000  1.0 -0.1317603585
C  C90  1  0.34119000  0.91691000  0.74044000  1.0 -0.0139077454
C  C91  1  0.12482000  0.94718000  0.86379000  1.0 -0.2478990757
C  C92  1  0.28835000  0.17411000  0.83557000  1.0 -0.1317603585
C  C93  1  0.31626000  0.97320000  0.74905000  1.0 -0.1617194505
C  C94  1  0.17674000  0.68364000  0.93044000  1.0 0.6213693045
C  C95  1  0.19092000  0.12200000  0.87193000  1.0 0.0499368294
C  C96  1  0.14879000  0.30641000  0.96040000  1.0 -0.0139077454
C  C97  1  0.17632000  0.18710000  0.89983000  1.0 0.0649754576
C  C98  1  0.25303000  0.35433000  0.95540000  1.0 -0.1055273094
C  C99  1  0.10887000  0.00809000  0.88390000  1.0 -0.2315060177
C  C100  1  0.26705000  0.29553000  0.92483000  1.0 -0.1542875149
C  C101  1  0.07159000  0.14179000  0.90241000  1.0 -0.1899278514
C  C102  1  0.05857000  0.20019000  0.93450000  1.0 -0.1784258016
C  C103  1  0.98309000  0.64211000  0.73916000  1.0 0.2243628784
C  C104  1  0.07540000  0.75304000  0.59096000  1.0 -0.3577256181
C  C105  1  0.96449000  0.76195000  0.65729000  1.0 -0.0604855844
C  C106  1  0.97196000  0.69862000  0.75487000  1.0 0.2143105961
C  C107  1  0.99803000  0.79749000  0.59510000  1.0 -0.141381988
C  C108  1  0.87597000  0.59655000  0.60691000  1.0 -0.3265591316
N  N1  1  0.27826000  0.98914000  0.15823000  1.0 0.202141615
N  N2  1  0.30276000  0.05034000  0.15809000  1.0 0.1387289784
N  N3  1  0.98914000  0.27826000  0.34177000  1.0 0.202141615
N  N4  1  0.05034000  0.30276000  0.34191000  1.0 0.1387289784
N  N5  1  0.72174000  0.01086000  0.84177000  1.0 0.202141615
N  N6  1  0.69724000  0.94966000  0.84191000  1.0 0.1387289784
N  N7  1  0.01086000  0.72174000  0.65823000  1.0 0.202141615
N  N8  1  0.94966000  0.69724000  0.65809000  1.0 0.1387289784
O  O1  1  0.95559000  0.54335000  0.11589000  1.0 -0.6190713026
O  O2  1  0.10172000  0.57138000  0.15597000  1.0 -0.6662200966
O  O3  1  0.38117000  0.91955000  0.45921000  1.0 -0.736857263
O  O4  1  0.33809000  0.76965000  0.45541000  1.0 -0.6024446168
O  O5  1  0.52860000  0.78650000  0.50130000  1.0 -0.6265695968
O  O6  1  0.68299000  0.96093000  0.51789000  1.0 -0.6190713026
O  O7  1  0.39027000  0.07371000  0.30218000  1.0 -0.4572381952
O  O8  1  0.38321000  0.06745000  0.30626000  1.0 -0.4542877354
O  O9  1  0.54335000  0.95559000  0.38411000  1.0 -0.6190713026
O  O10  1  0.57138000  0.10172000  0.34403000  1.0 -0.6662200966
O  O11  1  0.91955000  0.38117000  0.04079000  1.0 -0.736857263
O  O12  1  0.76965000  0.33809000  0.04459000  1.0 -0.6024446168
O  O13  1  0.78650000  0.52860000  0.99870000  1.0 -0.6265695968
O  O14  1  0.96093000  0.68299000  0.98211000  1.0 -0.6190713026
O  O15  1  0.07371000  0.39027000  0.19782000  1.0 -0.4572381952
O  O16  1  0.06745000  0.38321000  0.19374000  1.0 -0.4542877354
O  O17  1  0.04441000  0.45665000  0.88411000  1.0 -0.6190713026
O  O18  1  0.89828000  0.42862000  0.84403000  1.0 -0.6662200966
O  O19  1  0.61883000  0.08045000  0.54079000  1.0 -0.736857263
O  O20  1  0.66191000  0.23035000  0.54459000  1.0 -0.6024446168
O  O21  1  0.47140000  0.21350000  0.49870000  1.0 -0.6265695968
O  O22  1  0.31701000  0.03907000  0.48211000  1.0 -0.6190713026
O  O23  1  0.60973000  0.92629000  0.69782000  1.0 -0.4572381952
O  O24  1  0.61679000  0.93255000  0.69374000  1.0 -0.4542877354
O  O25  1  0.45665000  0.04441000  0.61589000  1.0 -0.6190713026
O  O26  1  0.42862000  0.89828000  0.65597000  1.0 -0.6662200966
O  O27  1  0.08045000  0.61883000  0.95921000  1.0 -0.736857263
O  O28  1  0.23035000  0.66191000  0.95541000  1.0 -0.6024446168
O  O29  1  0.21350000  0.47140000  0.00130000  1.0 -0.6265695968
O  O30  1  0.03907000  0.31701000  0.01788000  1.0 -0.6190713026
O  O31  1  0.92629000  0.60973000  0.80218000  1.0 -0.4572381952
O  O32  1  0.93255000  0.61679000  0.80626000  1.0 -0.4542877354
