# DDEC6 charges by PACMAN v1.1 (https://github.com/mtap-research/PACMAN-charge/)
data_AFUDIR_ASR_pacman
_symmetry_space_group_name_H-M   'P 1'
_cell_length_a   17.90570000
_cell_length_b   17.90570000
_cell_length_c   13.91720000
_cell_angle_alpha   78.89890000
_cell_angle_beta   101.10100000
_cell_angle_gamma   134.52400000
_symmetry_Int_Tables_number   1
_chemical_formula_structural   DyH25C27(NO4)2
_chemical_formula_sum   'Dy4 H100 C108 N8 O32'
_cell_volume   3111.15317458
_cell_formula_units_Z   4
loop_
 _symmetry_equiv_pos_site_id
 _symmetry_equiv_pos_as_xyz
  1  'x, y, z'
loop_
 _atom_site_type_symbol
 _atom_site_label
 _atom_site_symmetry_multiplicity
 _atom_site_fract_x
 _atom_site_fract_y
 _atom_site_fract_z
 _atom_site_occupancy
 _atom_site_charge
Dy  Dy1  1  0.51798000  0.90108000  0.04542000  1.0 1.9841168069
Dy  Dy2  1  0.90108000  0.51798000  0.45458000  1.0 1.9841168069
Dy  Dy3  1  0.48202000  0.09892000  0.95458000  1.0 1.9841168069
Dy  Dy4  1  0.09892000  0.48202000  0.54542000  1.0 1.9841168069
H  H1  1  0.79799000  0.13807000  0.08604000  1.0 0.1311114163
H  H2  1  0.77766000  0.31112000  0.20478000  1.0 0.1201707591
H  H3  1  0.02099000  0.33623000  0.28843000  1.0 0.1201707591
H  H4  1  0.86394000  0.06452000  0.13010000  1.0 0.1311114163
H  H5  1  0.96383000  0.03611000  0.09866000  1.0 0.1092861272
H  H6  1  0.22678000  0.32504000  0.17065000  1.0 0.1092861272
H  H7  1  0.12710000  0.35252000  0.20398000  1.0 0.1201707591
H  H8  1  0.06550000  0.00410000  0.12048000  1.0 0.1201707591
H  H9  1  0.16299000  0.98139000  0.06817000  1.0 0.1092861272
H  H10  1  0.39824000  0.29198000  0.02507000  1.0 0.1201707591
H  H11  1  0.29976000  0.31456000  0.07282000  1.0 0.1092861272
H  H12  1  0.61600000  0.01580000  0.25513000  1.0 0.1470389322
H  H13  1  0.69854000  0.09626000  0.39174000  1.0 0.1201707591
H  H14  1  0.81297000  0.14213000  0.40674000  1.0 0.1092861272
H  H15  1  0.72786000  0.04682000  0.47635000  1.0 0.092354289
H  H16  1  0.81537000  0.00195000  0.32616000  1.0 0.071622736
H  H17  1  0.70041000  0.89059000  0.32774000  1.0 0.1092861272
H  H18  1  0.76327000  0.94455000  0.42590000  1.0 0.092354289
H  H19  1  0.51187000  0.83583000  0.27683000  1.0 0.1470389322
H  H20  1  0.54582000  0.78564000  0.45772000  1.0 0.1367919494
H  H21  1  0.52104000  0.85514000  0.44935000  1.0 0.1367919494
H  H22  1  0.62175000  0.88869000  0.51244000  1.0 0.1201707591
H  H23  1  0.77743000  0.04987000  0.41730000  1.0 0.092354289
H  H24  1  0.77620000  0.03642000  0.30882000  1.0 0.1003030942
H  H25  1  0.78135000  0.96985000  0.39606000  1.0 0.0790718936
H  H26  1  0.13807000  0.79799000  0.41396000  1.0 0.1311114163
H  H27  1  0.31112000  0.77766000  0.29522000  1.0 0.1201707591
H  H28  1  0.33623000  0.02099000  0.21157000  1.0 0.1201707591
H  H29  1  0.06452000  0.86394000  0.36990000  1.0 0.1311114163
H  H30  1  0.03611000  0.96383000  0.40134000  1.0 0.1092861272
H  H31  1  0.32504000  0.22678000  0.32935000  1.0 0.1092861272
H  H32  1  0.35252000  0.12710000  0.29602000  1.0 0.1201707591
H  H33  1  0.00410000  0.06550000  0.37952000  1.0 0.1201707591
H  H34  1  0.98139000  0.16299000  0.43183000  1.0 0.1092861272
H  H35  1  0.29198000  0.39824000  0.47493000  1.0 0.1201707591
H  H36  1  0.31456000  0.29976000  0.42718000  1.0 0.1092861272
H  H37  1  0.01580000  0.61600000  0.24487000  1.0 0.1470389322
H  H38  1  0.09626000  0.69854000  0.10826000  1.0 0.1201707591
H  H39  1  0.14213000  0.81297000  0.09326000  1.0 0.1092861272
H  H40  1  0.04682000  0.72786000  0.02365000  1.0 0.092354289
H  H41  1  0.00195000  0.81537000  0.17384000  1.0 0.071622736
H  H42  1  0.89059000  0.70041000  0.17226000  1.0 0.1092861272
H  H43  1  0.94455000  0.76327000  0.07410000  1.0 0.092354289
H  H44  1  0.83583000  0.51187000  0.22317000  1.0 0.1470389322
H  H45  1  0.78564000  0.54582000  0.04228000  1.0 0.1367919494
H  H46  1  0.85514000  0.52104000  0.05065000  1.0 0.1367919494
H  H47  1  0.88869000  0.62175000  0.98756000  1.0 0.1201707591
H  H48  1  0.04987000  0.77743000  0.08270000  1.0 0.092354289
H  H49  1  0.03642000  0.77620000  0.19118000  1.0 0.1003030942
H  H50  1  0.96985000  0.78135000  0.10394000  1.0 0.0790718936
H  H51  1  0.20201000  0.86193000  0.91396000  1.0 0.1311114163
H  H52  1  0.22234000  0.68888000  0.79522000  1.0 0.1201707591
H  H53  1  0.97901000  0.66377000  0.71157000  1.0 0.1201707591
H  H54  1  0.13606000  0.93548000  0.86990000  1.0 0.1311114163
H  H55  1  0.03617000  0.96389000  0.90134000  1.0 0.1092861272
H  H56  1  0.77322000  0.67496000  0.82935000  1.0 0.1092861272
H  H57  1  0.87290000  0.64748000  0.79602000  1.0 0.1201707591
H  H58  1  0.93450000  0.99590000  0.87952000  1.0 0.1201707591
H  H59  1  0.83701000  0.01861000  0.93183000  1.0 0.1092861272
H  H60  1  0.60176000  0.70802000  0.97494000  1.0 0.1201707591
H  H61  1  0.70024000  0.68544000  0.92718000  1.0 0.1092861272
H  H62  1  0.38400000  0.98420000  0.74487000  1.0 0.1470389322
H  H63  1  0.30146000  0.90374000  0.60826000  1.0 0.1201707591
H  H64  1  0.18703000  0.85787000  0.59326000  1.0 0.1092861272
H  H65  1  0.27214000  0.95318000  0.52365000  1.0 0.092354289
H  H66  1  0.18463000  0.99805000  0.67384000  1.0 0.071622736
H  H67  1  0.29959000  0.10941000  0.67226000  1.0 0.1092861272
H  H68  1  0.23673000  0.05545000  0.57410000  1.0 0.092354289
H  H69  1  0.48813000  0.16417000  0.72317000  1.0 0.1470389322
H  H70  1  0.45418000  0.21436000  0.54228000  1.0 0.1367919494
H  H71  1  0.47896000  0.14486000  0.55065000  1.0 0.1367919494
H  H72  1  0.37825000  0.11131000  0.48756000  1.0 0.1201707591
H  H73  1  0.22257000  0.95013000  0.58270000  1.0 0.092354289
H  H74  1  0.22380000  0.96358000  0.69118000  1.0 0.1003030942
H  H75  1  0.21865000  0.03015000  0.60394000  1.0 0.0790718936
H  H76  1  0.86193000  0.20201000  0.58604000  1.0 0.1311114163
H  H77  1  0.68888000  0.22234000  0.70478000  1.0 0.1201707591
H  H78  1  0.66377000  0.97901000  0.78843000  1.0 0.1201707591
H  H79  1  0.93548000  0.13606000  0.63010000  1.0 0.1311114163
H  H80  1  0.96389000  0.03617000  0.59866000  1.0 0.1092861272
H  H81  1  0.67496000  0.77322000  0.67065000  1.0 0.1092861272
H  H82  1  0.64748000  0.87290000  0.70398000  1.0 0.1201707591
H  H83  1  0.99590000  0.93450000  0.62048000  1.0 0.1201707591
H  H84  1  0.01861000  0.83701000  0.56817000  1.0 0.1092861272
H  H85  1  0.70802000  0.60176000  0.52507000  1.0 0.1201707591
H  H86  1  0.68544000  0.70024000  0.57282000  1.0 0.1092861272
H  H87  1  0.98420000  0.38400000  0.75513000  1.0 0.1470389322
H  H88  1  0.90374000  0.30146000  0.89174000  1.0 0.1201707591
H  H89  1  0.85787000  0.18703000  0.90674000  1.0 0.1092861272
H  H90  1  0.95318000  0.27214000  0.97635000  1.0 0.092354289
H  H91  1  0.99805000  0.18463000  0.82616000  1.0 0.071622736
H  H92  1  0.10941000  0.29959000  0.82774000  1.0 0.1092861272
H  H93  1  0.05545000  0.23673000  0.92590000  1.0 0.092354289
H  H94  1  0.16417000  0.48813000  0.77683000  1.0 0.1470389322
H  H95  1  0.21436000  0.45418000  0.95772000  1.0 0.1367919494
H  H96  1  0.14486000  0.47896000  0.94935000  1.0 0.1367919494
H  H97  1  0.11131000  0.37825000  0.01244000  1.0 0.1201707591
H  H98  1  0.95013000  0.22257000  0.91730000  1.0 0.092354289
H  H99  1  0.96358000  0.22380000  0.80882000  1.0 0.1003030942
H  H100  1  0.03015000  0.21865000  0.89606000  1.0 0.0790718936
C  C1  1  0.92191000  0.23617000  0.18234000  1.0 0.0522688565
C  C2  1  0.82609000  0.18879000  0.12776000  1.0 -0.2081130035
C  C3  1  0.77237000  0.21697000  0.13539000  1.0 -0.0170010566
C  C4  1  0.81278000  0.29114000  0.20055000  1.0 -0.1298719949
C  C5  1  0.90462000  0.33406000  0.25808000  1.0 -0.0095248281
C  C6  1  0.95902000  0.30686000  0.24922000  1.0 -0.1715334605
C  C7  1  0.67198000  0.16948000  0.07394000  1.0 0.6208318614
C  C8  1  0.94706000  0.40912000  0.33346000  1.0 0.6208318614
C  C9  1  0.98465000  0.21329000  0.16830000  1.0 0.0319936176
C  C10  1  0.93686000  0.11766000  0.13777000  1.0 -0.2184036168
C  C11  1  0.99739000  0.10087000  0.11858000  1.0 -0.2081130035
C  C12  1  0.10673000  0.17823000  0.12835000  1.0 0.0586088293
C  C13  1  0.15389000  0.27237000  0.16154000  1.0 -0.1452704228
C  C14  1  0.09354000  0.28886000  0.18131000  1.0 -0.1452704228
C  C15  1  0.17033000  0.16223000  0.09993000  1.0 0.071622736
C  C16  1  0.13199000  0.06269000  0.09978000  1.0 -0.1715334605
C  C17  1  0.19106000  0.04886000  0.06927000  1.0 -0.1415041186
C  C18  1  0.29060000  0.13438000  0.04078000  1.0 -0.0170010566
C  C19  1  0.33056000  0.23342000  0.04313000  1.0 -0.0993121422
C  C20  1  0.27114000  0.24682000  0.07207000  1.0 -0.1572080336
C  C21  1  0.35333000  0.11923000  0.00659000  1.0 0.5542934679
C  C22  1  0.64326000  0.98572000  0.26331000  1.0 0.2233809226
C  C23  1  0.73985000  0.07913000  0.41034000  1.0 -0.2944111682
C  C24  1  0.75072000  0.95646000  0.35697000  1.0 -0.1572080336
C  C25  1  0.58387000  0.89435000  0.27741000  1.0 0.1997589164
C  C26  1  0.57605000  0.85627000  0.45427000  1.0 -0.4660718001
C  C27  1  0.75320000  0.00064000  0.37268000  1.0 -0.0095248281
C  C28  1  0.23617000  0.92191000  0.31766000  1.0 0.0522688565
C  C29  1  0.18879000  0.82609000  0.37224000  1.0 -0.2184036168
C  C30  1  0.21697000  0.77237000  0.36461000  1.0 -0.0170010566
C  C31  1  0.29114000  0.81278000  0.29945000  1.0 -0.1298719949
C  C32  1  0.33406000  0.90462000  0.24192000  1.0 -0.0095248281
C  C33  1  0.30686000  0.95902000  0.25078000  1.0 -0.1715334605
C  C34  1  0.16948000  0.67198000  0.42606000  1.0 0.6208318614
C  C35  1  0.40912000  0.94706000  0.16654000  1.0 0.6208318614
C  C36  1  0.21329000  0.98465000  0.33170000  1.0 0.0319936176
C  C37  1  0.11766000  0.93686000  0.36223000  1.0 -0.2184036168
C  C38  1  0.10087000  0.99739000  0.38142000  1.0 -0.2081130035
C  C39  1  0.17823000  0.10673000  0.37165000  1.0 0.0586088293
C  C40  1  0.27237000  0.15389000  0.33846000  1.0 -0.1452704228
C  C41  1  0.28886000  0.09354000  0.31869000  1.0 -0.1415041186
C  C42  1  0.16223000  0.17033000  0.40007000  1.0 0.071622736
C  C43  1  0.06269000  0.13199000  0.40022000  1.0 -0.1715334605
C  C44  1  0.04886000  0.19106000  0.43073000  1.0 -0.1415041186
C  C45  1  0.13438000  0.29060000  0.45922000  1.0 -0.0170010566
C  C46  1  0.23342000  0.33056000  0.45687000  1.0 -0.0993121422
C  C47  1  0.24682000  0.27114000  0.42793000  1.0 -0.1572080336
C  C48  1  0.11923000  0.35333000  0.49341000  1.0 0.5542934679
C  C49  1  0.98572000  0.64326000  0.23669000  1.0 0.2233809226
C  C50  1  0.07913000  0.73985000  0.08966000  1.0 -0.2954719223
C  C51  1  0.95646000  0.75072000  0.14303000  1.0 -0.1572080336
C  C52  1  0.89435000  0.58387000  0.22259000  1.0 0.1997589164
C  C53  1  0.85627000  0.57605000  0.04573000  1.0 -0.4660718001
C  C54  1  0.00064000  0.75320000  0.12732000  1.0 -0.0095248281
C  C55  1  0.07809000  0.76383000  0.81766000  1.0 0.0522688565
C  C56  1  0.17391000  0.81121000  0.87224000  1.0 -0.2184036168
C  C57  1  0.22763000  0.78303000  0.86461000  1.0 -0.0170010566
C  C58  1  0.18722000  0.70886000  0.79945000  1.0 -0.1298719949
C  C59  1  0.09538000  0.66594000  0.74192000  1.0 -0.0095248281
C  C60  1  0.04098000  0.69314000  0.75078000  1.0 -0.1715334605
C  C61  1  0.32802000  0.83052000  0.92606000  1.0 0.6208318614
C  C62  1  0.05294000  0.59088000  0.66654000  1.0 0.6208318614
C  C63  1  0.01535000  0.78671000  0.83170000  1.0 0.0319936176
C  C64  1  0.06314000  0.88234000  0.86223000  1.0 -0.2184036168
C  C65  1  0.00261000  0.89913000  0.88142000  1.0 -0.2081130035
C  C66  1  0.89327000  0.82177000  0.87165000  1.0 0.0586088293
C  C67  1  0.84611000  0.72763000  0.83846000  1.0 -0.1452704228
C  C68  1  0.90646000  0.71114000  0.81869000  1.0 -0.1452704228
C  C69  1  0.82967000  0.83777000  0.90007000  1.0 0.071622736
C  C70  1  0.86801000  0.93731000  0.90022000  1.0 -0.1715334605
C  C71  1  0.80894000  0.95114000  0.93073000  1.0 -0.1415041186
C  C72  1  0.70940000  0.86562000  0.95922000  1.0 -0.0170010566
C  C73  1  0.66944000  0.76658000  0.95687000  1.0 -0.0993121422
C  C74  1  0.72886000  0.75318000  0.92793000  1.0 -0.1572080336
C  C75  1  0.64667000  0.88077000  0.99341000  1.0 0.5542934679
C  C76  1  0.35674000  0.01428000  0.73669000  1.0 0.2233809226
C  C77  1  0.26015000  0.92087000  0.58966000  1.0 -0.2954719223
C  C78  1  0.24928000  0.04354000  0.64303000  1.0 -0.1572080336
C  C79  1  0.41613000  0.10565000  0.72259000  1.0 0.1997589164
C  C80  1  0.42395000  0.14373000  0.54573000  1.0 -0.4647344805
C  C81  1  0.24680000  0.99936000  0.62732000  1.0 -0.0095248281
C  C82  1  0.76383000  0.07809000  0.68234000  1.0 0.0522688565
C  C83  1  0.81121000  0.17391000  0.62776000  1.0 -0.2184036168
C  C84  1  0.78303000  0.22763000  0.63539000  1.0 -0.0170010566
C  C85  1  0.70886000  0.18722000  0.70055000  1.0 -0.1298719949
C  C86  1  0.66594000  0.09538000  0.75808000  1.0 -0.0095248281
C  C87  1  0.69314000  0.04098000  0.74922000  1.0 -0.1715334605
C  C88  1  0.83052000  0.32802000  0.57394000  1.0 0.6208318614
C  C89  1  0.59088000  0.05294000  0.83346000  1.0 0.6208318614
C  C90  1  0.78671000  0.01535000  0.66830000  1.0 0.0319936176
C  C91  1  0.88234000  0.06314000  0.63777000  1.0 -0.2184036168
C  C92  1  0.89913000  0.00261000  0.61858000  1.0 -0.2081130035
C  C93  1  0.82177000  0.89327000  0.62835000  1.0 0.0586088293
C  C94  1  0.72763000  0.84611000  0.66154000  1.0 -0.1452704228
C  C95  1  0.71114000  0.90646000  0.68131000  1.0 -0.1452704228
C  C96  1  0.83777000  0.82967000  0.59993000  1.0 0.071622736
C  C97  1  0.93731000  0.86801000  0.59978000  1.0 -0.1715334605
C  C98  1  0.95114000  0.80894000  0.56927000  1.0 -0.1415041186
C  C99  1  0.86562000  0.70940000  0.54078000  1.0 -0.0170010566
C  C100  1  0.76658000  0.66944000  0.54313000  1.0 -0.0993121422
C  C101  1  0.75318000  0.72886000  0.57207000  1.0 -0.1572080336
C  C102  1  0.88077000  0.64667000  0.50659000  1.0 0.5542934679
C  C103  1  0.01428000  0.35674000  0.76331000  1.0 0.2233809226
C  C104  1  0.92087000  0.26015000  0.91034000  1.0 -0.2944111682
C  C105  1  0.04354000  0.24928000  0.85697000  1.0 -0.1572080336
C  C106  1  0.10565000  0.41613000  0.77741000  1.0 0.1997589164
C  C107  1  0.14373000  0.42395000  0.95427000  1.0 -0.4660718001
C  C108  1  0.99936000  0.24680000  0.87268000  1.0 -0.0095248281
N  N1  1  0.70947000  0.00597000  0.34335000  1.0 0.092354289
N  N2  1  0.63741000  0.91737000  0.36630000  1.0 0.1585750647
N  N3  1  0.00597000  0.70947000  0.15665000  1.0 0.092354289
N  N4  1  0.91737000  0.63741000  0.13370000  1.0 0.1585750647
N  N5  1  0.29053000  0.99403000  0.65665000  1.0 0.092354289
N  N6  1  0.36259000  0.08263000  0.63370000  1.0 0.1585750647
N  N7  1  0.99403000  0.29053000  0.84335000  1.0 0.092354289
N  N8  1  0.08263000  0.36259000  0.86630000  1.0 0.1585750647
O  O1  1  0.61491000  0.07869000  0.04452000  1.0 -0.7307615138
O  O2  1  0.64617000  0.22023000  0.05054000  1.0 -0.6119395948
O  O3  1  0.89210000  0.42758000  0.34307000  1.0 -0.6950814582
O  O4  1  0.03204000  0.44684000  0.38126000  1.0 -0.6331069923
O  O5  1  0.45171000  0.19665000  0.00273000  1.0 -0.6231555201
O  O6  1  0.30978000  0.03210000  0.98263000  1.0 -0.5846316076
O  O7  1  0.61714000  0.92958000  0.20069000  1.0 -0.4354844622
O  O8  1  0.61749000  0.94045000  0.19675000  1.0 -0.4354844622
O  O9  1  0.07869000  0.61491000  0.45548000  1.0 -0.7307615138
O  O10  1  0.22023000  0.64617000  0.44946000  1.0 -0.6119395948
O  O11  1  0.42758000  0.89210000  0.15693000  1.0 -0.6950814582
O  O12  1  0.44684000  0.03204000  0.11874000  1.0 -0.6331069923
O  O13  1  0.19665000  0.45171000  0.49727000  1.0 -0.6231555201
O  O14  1  0.03210000  0.30978000  0.51737000  1.0 -0.5846316076
O  O15  1  0.92958000  0.61714000  0.29931000  1.0 -0.4354844622
O  O16  1  0.94045000  0.61749000  0.30325000  1.0 -0.4354844622
O  O17  1  0.38509000  0.92131000  0.95548000  1.0 -0.7307615138
O  O18  1  0.35383000  0.77977000  0.94946000  1.0 -0.6119395948
O  O19  1  0.10790000  0.57242000  0.65693000  1.0 -0.6950814582
O  O20  1  0.96796000  0.55316000  0.61874000  1.0 -0.6331069923
O  O21  1  0.54829000  0.80335000  0.99727000  1.0 -0.6231555201
O  O22  1  0.69022000  0.96790000  0.01737000  1.0 -0.5846316076
O  O23  1  0.38286000  0.07042000  0.79931000  1.0 -0.4354844622
O  O24  1  0.38251000  0.05955000  0.80325000  1.0 -0.4354844622
O  O25  1  0.92131000  0.38509000  0.54452000  1.0 -0.7307615138
O  O26  1  0.77977000  0.35383000  0.55054000  1.0 -0.6119395948
O  O27  1  0.57242000  0.10790000  0.84307000  1.0 -0.6950814582
O  O28  1  0.55316000  0.96796000  0.88126000  1.0 -0.6331069923
O  O29  1  0.80335000  0.54829000  0.50273000  1.0 -0.6231555201
O  O30  1  0.96790000  0.69022000  0.48263000  1.0 -0.5846316076
O  O31  1  0.07042000  0.38286000  0.70069000  1.0 -0.4354844622
O  O32  1  0.05955000  0.38251000  0.69675000  1.0 -0.4354844622
