# DDEC6 charges by PACMAN v1.1 (https://github.com/mtap-research/PACMAN-charge/)
data_AGABIU_ion_pacman
_symmetry_space_group_name_H-M   'P 1'
_cell_length_a   18.60500000
_cell_length_b   18.60500000
_cell_length_c   14.90400000
_cell_angle_alpha   90.00000000
_cell_angle_beta   90.00000000
_cell_angle_gamma   120.00000000
_symmetry_Int_Tables_number   1
_chemical_formula_structural   Li3NiC15(NO4)3
_chemical_formula_sum   'Li12 Ni4 C60 N12 O48'
_cell_volume   4467.79072593
_cell_formula_units_Z   4
loop_
 _symmetry_equiv_pos_site_id
 _symmetry_equiv_pos_as_xyz
  1  'x, y, z'
loop_
 _atom_site_type_symbol
 _atom_site_label
 _atom_site_symmetry_multiplicity
 _atom_site_fract_x
 _atom_site_fract_y
 _atom_site_fract_z
 _atom_site_occupancy
 _atom_site_charge
Li  Li1  1  0.50000000  0.00000000  0.00000000  1.0 0.9313498319
Li  Li2  1  0.50000000  0.50000000  0.50000000  1.0 0.9313498319
Li  Li3  1  0.00000000  0.50000000  0.00000000  1.0 0.9313498319
Li  Li4  1  0.50000000  0.50000000  0.00000000  1.0 0.9313498319
Li  Li5  1  0.00000000  0.50000000  0.50000000  1.0 0.9313498319
Li  Li6  1  0.50000000  0.00000000  0.50000000  1.0 0.9313498319
Li  Li7  1  0.48120000  0.34120000  0.25000000  1.0 0.7588699839
Li  Li8  1  0.65880000  0.14000000  0.25000000  1.0 0.7588699839
Li  Li9  1  0.14000000  0.48120000  0.75000000  1.0 0.7588699839
Li  Li10  1  0.34120000  0.86000000  0.75000000  1.0 0.7588699839
Li  Li11  1  0.86000000  0.51880000  0.25000000  1.0 0.7588699839
Li  Li12  1  0.51880000  0.65880000  0.75000000  1.0 0.7588699839
Ni  Ni1  1  0.33333333  0.66666667  0.02000000  1.0 0.7028655441
Ni  Ni2  1  0.66666667  0.33333333  0.52000000  1.0 0.7028655441
Ni  Ni3  1  0.66666667  0.33333333  0.98000000  1.0 0.7028655441
Ni  Ni4  1  0.33333333  0.66666667  0.48000000  1.0 0.7028655441
C  C1  1  0.46500000  0.76750000  0.16850000  1.0 0.1727747587
C  C2  1  0.69750000  0.46500000  0.66850000  1.0 0.1727747587
C  C3  1  0.23250000  0.69750000  0.16850000  1.0 0.1727747587
C  C4  1  0.30250000  0.53500000  0.16850000  1.0 0.1727747587
C  C5  1  0.76750000  0.30250000  0.66850000  1.0 0.1727747587
C  C6  1  0.53500000  0.23250000  0.66850000  1.0 0.1727747587
C  C7  1  0.53500000  0.23250000  0.83150000  1.0 0.1727747587
C  C8  1  0.30250000  0.53500000  0.33150000  1.0 0.1727747587
C  C9  1  0.76750000  0.30250000  0.83150000  1.0 0.1727747587
C  C10  1  0.69750000  0.46500000  0.83150000  1.0 0.1727747587
C  C11  1  0.23250000  0.69750000  0.33150000  1.0 0.1727747587
C  C12  1  0.46500000  0.76750000  0.33150000  1.0 0.1727747587
C  C13  1  0.43420000  0.77780000  0.25000000  1.0 -0.1363280434
C  C14  1  0.65640000  0.43420000  0.75000000  1.0 -0.1363280434
C  C15  1  0.22220000  0.65640000  0.25000000  1.0 -0.1363280434
C  C16  1  0.34360000  0.56580000  0.25000000  1.0 -0.1363280434
C  C17  1  0.77780000  0.34360000  0.75000000  1.0 -0.1363280434
C  C18  1  0.56580000  0.22220000  0.75000000  1.0 -0.1363280434
C  C19  1  0.52990000  0.75010000  0.16770000  1.0 -0.0860328592
C  C20  1  0.77980000  0.52990000  0.66770000  1.0 -0.0860328592
C  C21  1  0.24990000  0.77980000  0.16770000  1.0 -0.0841641582
C  C22  1  0.22020000  0.47010000  0.16770000  1.0 -0.0860328592
C  C23  1  0.75010000  0.22020000  0.66770000  1.0 -0.0860328592
C  C24  1  0.47010000  0.24990000  0.66770000  1.0 -0.0860328592
C  C25  1  0.47010000  0.24990000  0.83230000  1.0 -0.0860328592
C  C26  1  0.22020000  0.47010000  0.33230000  1.0 -0.0860328592
C  C27  1  0.75010000  0.22020000  0.83230000  1.0 -0.0860328592
C  C28  1  0.77980000  0.52990000  0.83230000  1.0 -0.0860328592
C  C29  1  0.24990000  0.77980000  0.33230000  1.0 -0.0841641582
C  C30  1  0.52990000  0.75010000  0.33230000  1.0 -0.0860328592
C  C31  1  0.56120000  0.74120000  0.25000000  1.0 -0.0164917255
C  C32  1  0.82000000  0.56120000  0.75000000  1.0 -0.0164917255
C  C33  1  0.25880000  0.82000000  0.25000000  1.0 -0.0164917255
C  C34  1  0.18000000  0.43880000  0.25000000  1.0 -0.0164917255
C  C35  1  0.74120000  0.18000000  0.75000000  1.0 -0.0164917255
C  C36  1  0.43880000  0.25880000  0.75000000  1.0 -0.0164917255
C  C37  1  0.44270000  0.84050000  0.05370000  1.0 0.363062668
C  C38  1  0.60220000  0.44270000  0.55370000  1.0 0.363062668
C  C39  1  0.15950000  0.60220000  0.05370000  1.0 0.363062668
C  C40  1  0.39780000  0.55730000  0.05370000  1.0 0.363062668
C  C41  1  0.84050000  0.39780000  0.55370000  1.0 0.363062668
C  C42  1  0.55730000  0.15950000  0.55370000  1.0 0.3656222106
C  C43  1  0.55730000  0.15950000  0.94630000  1.0 0.363062668
C  C44  1  0.39780000  0.55730000  0.44630000  1.0 0.363062668
C  C45  1  0.84050000  0.39780000  0.94630000  1.0 0.363062668
C  C46  1  0.60220000  0.44270000  0.94630000  1.0 0.363062668
C  C47  1  0.15950000  0.60220000  0.44630000  1.0 0.363062668
C  C48  1  0.44270000  0.84050000  0.44630000  1.0 0.363062668
C  C49  1  0.39440000  0.83430000  0.96740000  1.0 0.4665706685
C  C50  1  0.56010000  0.39440000  0.46740000  1.0 0.4665706685
C  C51  1  0.16570000  0.56010000  0.96740000  1.0 0.4665706685
C  C52  1  0.43990000  0.60560000  0.96740000  1.0 0.4665706685
C  C53  1  0.83430000  0.43990000  0.46740000  1.0 0.4665706685
C  C54  1  0.60560000  0.16570000  0.46740000  1.0 0.4665706685
C  C55  1  0.60560000  0.16570000  0.03260000  1.0 0.4665706685
C  C56  1  0.43990000  0.60560000  0.53260000  1.0 0.4665706685
C  C57  1  0.83430000  0.43990000  0.03260000  1.0 0.4665706685
C  C58  1  0.56010000  0.39440000  0.03260000  1.0 0.4665706685
C  C59  1  0.16570000  0.56010000  0.53260000  1.0 0.4665706685
C  C60  1  0.39440000  0.83430000  0.53260000  1.0 0.4665706685
N  N1  1  0.42580000  0.76900000  0.08660000  1.0 -0.42048262
N  N2  1  0.65680000  0.42580000  0.58660000  1.0 -0.42048262
N  N3  1  0.23100000  0.65680000  0.08660000  1.0 -0.42048262
N  N4  1  0.34320000  0.57420000  0.08660000  1.0 -0.42048262
N  N5  1  0.76900000  0.34320000  0.58660000  1.0 -0.42048262
N  N6  1  0.57420000  0.23100000  0.58660000  1.0 -0.42048262
N  N7  1  0.57420000  0.23100000  0.91340000  1.0 -0.42048262
N  N8  1  0.34320000  0.57420000  0.41340000  1.0 -0.42048262
N  N9  1  0.76900000  0.34320000  0.91340000  1.0 -0.42048262
N  N10  1  0.65680000  0.42580000  0.91340000  1.0 -0.42048262
N  N11  1  0.23100000  0.65680000  0.41340000  1.0 -0.42048262
N  N12  1  0.42580000  0.76900000  0.41340000  1.0 -0.42048262
O  O1  1  0.49370000  0.91280000  0.08290000  1.0 -0.5612335224
O  O2  1  0.58090000  0.49370000  0.58290000  1.0 -0.5612335224
O  O3  1  0.08720000  0.58090000  0.08290000  1.0 -0.5612335224
O  O4  1  0.41910000  0.50630000  0.08290000  1.0 -0.5612335224
O  O5  1  0.91280000  0.41910000  0.58290000  1.0 -0.5612335224
O  O6  1  0.50630000  0.08720000  0.58290000  1.0 -0.5612335224
O  O7  1  0.50630000  0.08720000  0.91710000  1.0 -0.5612335224
O  O8  1  0.41910000  0.50630000  0.41710000  1.0 -0.5612335224
O  O9  1  0.91280000  0.41910000  0.91710000  1.0 -0.5612335224
O  O10  1  0.58090000  0.49370000  0.91710000  1.0 -0.5612335224
O  O11  1  0.08720000  0.58090000  0.41710000  1.0 -0.5612335224
O  O12  1  0.49370000  0.91280000  0.41710000  1.0 -0.5612335224
O  O13  1  0.40930000  0.90190000  0.93220000  1.0 -0.6385850478
O  O14  1  0.50740000  0.40930000  0.43220000  1.0 -0.6385850478
O  O15  1  0.09810000  0.50740000  0.93220000  1.0 -0.6385850478
O  O16  1  0.49260000  0.59070000  0.93220000  1.0 -0.6385850478
O  O17  1  0.90190000  0.49260000  0.43220000  1.0 -0.6385850478
O  O18  1  0.59070000  0.09810000  0.43220000  1.0 -0.6385850478
O  O19  1  0.59070000  0.09810000  0.06780000  1.0 -0.6385850478
O  O20  1  0.49260000  0.59070000  0.56780000  1.0 -0.6385850478
O  O21  1  0.90190000  0.49260000  0.06780000  1.0 -0.6385850478
O  O22  1  0.50740000  0.40930000  0.06780000  1.0 -0.6385850478
O  O23  1  0.09810000  0.50740000  0.56780000  1.0 -0.6385850478
O  O24  1  0.40930000  0.90190000  0.56780000  1.0 -0.6385850478
O  O25  1  0.34390000  0.76330000  0.93780000  1.0 -0.5130470712
O  O26  1  0.58060000  0.34390000  0.43780000  1.0 -0.5130470712
O  O27  1  0.23670000  0.58060000  0.93780000  1.0 -0.5130470712
O  O28  1  0.41940000  0.65610000  0.93780000  1.0 -0.5130470712
O  O29  1  0.76330000  0.41940000  0.43780000  1.0 -0.5130470712
O  O30  1  0.65610000  0.23670000  0.43780000  1.0 -0.5130470712
O  O31  1  0.65610000  0.23670000  0.06220000  1.0 -0.5130470712
O  O32  1  0.41940000  0.65610000  0.56220000  1.0 -0.5130470712
O  O33  1  0.76330000  0.41940000  0.06220000  1.0 -0.5130470712
O  O34  1  0.58060000  0.34390000  0.06220000  1.0 -0.5130470712
O  O35  1  0.23670000  0.58060000  0.56220000  1.0 -0.5130470712
O  O36  1  0.34390000  0.76330000  0.56220000  1.0 -0.5130470712
O  O37  1  0.60730000  0.98280000  0.90180000  1.0 0.2104676143
O  O38  1  0.62450000  0.60730000  0.40180000  1.0 0.2284203799
O  O39  1  0.01720000  0.62450000  0.90180000  1.0 0.2104676143
O  O40  1  0.37550000  0.39270000  0.90180000  1.0 0.2104676143
O  O41  1  0.98280000  0.37550000  0.40180000  1.0 0.2284203799
O  O42  1  0.39270000  0.01720000  0.40180000  1.0 0.2104676143
O  O43  1  0.39270000  0.01720000  0.09820000  1.0 0.2104676143
O  O44  1  0.37550000  0.39270000  0.59820000  1.0 0.2104676143
O  O45  1  0.98280000  0.37550000  0.09820000  1.0 0.2104676143
O  O46  1  0.62450000  0.60730000  0.09820000  1.0 0.2104676143
O  O47  1  0.01720000  0.62450000  0.59820000  1.0 0.2104676143
O  O48  1  0.60730000  0.98280000  0.59820000  1.0 0.2104676143
