# DDEC6 charges by PACMAN v1.1 (https://github.com/mtap-research/PACMAN-charge/)
data_AGALAZ_ASR_pacman
_symmetry_space_group_name_H-M   'P 1'
_cell_length_a   11.58730000
_cell_length_b   8.99960000
_cell_length_c   11.90260000
_cell_angle_alpha   90.00000000
_cell_angle_beta   119.01300000
_cell_angle_gamma   90.00000000
_symmetry_Int_Tables_number   1
_chemical_formula_structural   CaP2H5C4O7
_chemical_formula_sum   'Ca4 P8 H20 C16 O28'
_cell_volume   1085.45524261
_cell_formula_units_Z   4
loop_
 _symmetry_equiv_pos_site_id
 _symmetry_equiv_pos_as_xyz
  1  'x, y, z'
loop_
 _atom_site_type_symbol
 _atom_site_label
 _atom_site_symmetry_multiplicity
 _atom_site_fract_x
 _atom_site_fract_y
 _atom_site_fract_z
 _atom_site_occupancy
 _atom_site_charge
Ca  Ca1  1  0.57379000  0.79888000  0.47158000  1.0 1.4317863144
Ca  Ca2  1  0.42621000  0.29888000  0.02842000  1.0 1.4317863144
Ca  Ca3  1  0.42621000  0.20112000  0.52842000  1.0 1.4317863144
Ca  Ca4  1  0.57379000  0.70112000  0.97158000  1.0 1.4317863144
P  P1  1  0.75881000  0.81332000  0.28781000  1.0 1.2504659452
P  P2  1  0.24119000  0.31332000  0.21219000  1.0 1.2504659452
P  P3  1  0.24119000  0.18668000  0.71219000  1.0 1.2504659452
P  P4  1  0.75881000  0.68668000  0.78781000  1.0 1.2504659452
P  P5  1  0.60036000  0.53398000  0.24928000  1.0 1.2240768828
P  P6  1  0.39964000  0.03398000  0.25072000  1.0 1.2240768828
P  P7  1  0.39964000  0.46602000  0.75072000  1.0 1.2240768828
P  P8  1  0.60036000  0.96602000  0.74928000  1.0 1.2240768828
H  H1  1  0.77790000  0.49223000  0.15205000  1.0 0.3489917674
H  H2  1  0.22210000  0.99223000  0.34795000  1.0 0.3489917674
H  H3  1  0.22210000  0.50777000  0.84795000  1.0 0.3489917674
H  H4  1  0.77790000  0.00777000  0.65205000  1.0 0.3489917674
H  H5  1  0.67307000  0.32720000  0.31246000  1.0 0.3880651154
H  H6  1  0.32693000  0.82720000  0.18754000  1.0 0.3880651154
H  H7  1  0.32693000  0.67280000  0.68754000  1.0 0.3880651154
H  H8  1  0.67307000  0.17280000  0.81246000  1.0 0.3880651154
H  H9  1  0.91919000  0.94263000  0.33924000  1.0 0.3880651154
H  H10  1  0.08081000  0.44263000  0.16076000  1.0 0.3880651154
H  H11  1  0.08081000  0.05737000  0.66076000  1.0 0.3880651154
H  H12  1  0.91919000  0.55737000  0.83924000  1.0 0.3880651154
H  H13  1  0.81291000  0.55107000  0.52028000  1.0 0.1274260588
H  H14  1  0.18709000  0.05107000  0.97972000  1.0 0.1274260588
H  H15  1  0.18709000  0.44893000  0.47972000  1.0 0.1274260588
H  H16  1  0.81291000  0.94893000  0.02028000  1.0 0.1274260588
H  H17  1  0.00725000  0.47131000  0.69782000  1.0 0.1143234492
H  H18  1  0.99275000  0.97131000  0.80218000  1.0 0.1143234492
H  H19  1  0.99275000  0.52869000  0.30218000  1.0 0.1143234492
H  H20  1  0.00725000  0.02869000  0.19782000  1.0 0.1143234492
C  C1  1  0.76050000  0.60860000  0.27600000  1.0 -0.2844353161
C  C2  1  0.23950000  0.10860000  0.22400000  1.0 -0.2844353161
C  C3  1  0.23950000  0.39140000  0.72400000  1.0 -0.2844353161
C  C4  1  0.76050000  0.89140000  0.77600000  1.0 -0.2844353161
C  C5  1  0.88260000  0.54760000  0.39270000  1.0 0.0608237058
C  C6  1  0.11740000  0.04760000  0.10730000  1.0 0.0608237058
C  C7  1  0.11740000  0.45240000  0.60730000  1.0 0.0608237058
C  C8  1  0.88260000  0.95240000  0.89270000  1.0 0.0608237058
C  C9  1  0.88850000  0.53040000  0.51140000  1.0 -0.1226314373
C  C10  1  0.11150000  0.03040000  0.98860000  1.0 -0.1226314373
C  C11  1  0.11150000  0.46960000  0.48860000  1.0 -0.1226314373
C  C12  1  0.88850000  0.96960000  0.01140000  1.0 -0.1226314373
C  C13  1  0.00470000  0.48300000  0.61730000  1.0 -0.1226314373
C  C14  1  0.99530000  0.98300000  0.88270000  1.0 -0.1226314373
C  C15  1  0.99530000  0.51700000  0.38270000  1.0 -0.1226314373
C  C16  1  0.00470000  0.01700000  0.11730000  1.0 -0.1226314373
O  O1  1  0.76401000  0.58277000  0.15789000  1.0 -0.451698295
O  O2  1  0.23599000  0.08277000  0.34211000  1.0 -0.451698295
O  O3  1  0.23599000  0.41723000  0.84211000  1.0 -0.451698295
O  O4  1  0.76401000  0.91723000  0.65789000  1.0 -0.451698295
O  O5  1  0.57720000  0.57845000  0.35764000  1.0 -0.7535451941
O  O6  1  0.42280000  0.07845000  0.14236000  1.0 -0.7535451941
O  O7  1  0.42280000  0.42155000  0.64236000  1.0 -0.7535451941
O  O8  1  0.57720000  0.92155000  0.85764000  1.0 -0.7535451941
O  O9  1  0.49936000  0.57249000  0.11292000  1.0 -0.8113083981
O  O10  1  0.50064000  0.07249000  0.38708000  1.0 -0.8113083981
O  O11  1  0.50064000  0.42751000  0.88708000  1.0 -0.8113083981
O  O12  1  0.49936000  0.92751000  0.61292000  1.0 -0.8113083981
O  O13  1  0.61206000  0.35859000  0.24219000  1.0 -0.6568820766
O  O14  1  0.38794000  0.85859000  0.25781000  1.0 -0.6568820766
O  O15  1  0.38794000  0.64141000  0.75781000  1.0 -0.6568820766
O  O16  1  0.61206000  0.14141000  0.74219000  1.0 -0.6568820766
O  O17  1  0.73043000  0.85976000  0.39392000  1.0 -0.7821627103
O  O18  1  0.26957000  0.35976000  0.10608000  1.0 -0.7821627103
O  O19  1  0.26957000  0.14024000  0.60608000  1.0 -0.7821627103
O  O20  1  0.73043000  0.64024000  0.89392000  1.0 -0.7821627103
O  O21  1  0.90627000  0.85096000  0.32574000  1.0 -0.5943703197
O  O22  1  0.09373000  0.35096000  0.17426000  1.0 -0.5959982715
O  O23  1  0.09373000  0.14904000  0.67426000  1.0 -0.5959982715
O  O24  1  0.90627000  0.64904000  0.82574000  1.0 -0.5943703197
O  O25  1  0.66530000  0.86667000  0.15448000  1.0 -0.7535451941
O  O26  1  0.33470000  0.36667000  0.34552000  1.0 -0.7535451941
O  O27  1  0.33470000  0.13333000  0.84552000  1.0 -0.7535451941
O  O28  1  0.66530000  0.63333000  0.65448000  1.0 -0.7535451941
