# DDEC6 charges by PACMAN v1.1 (https://github.com/mtap-research/PACMAN-charge/)
data_AGAMOO_ion_pacman
_symmetry_space_group_name_H-M   'P 1'
_cell_length_a   18.43310000
_cell_length_b   18.43310000
_cell_length_c   18.43310000
_cell_angle_alpha   120.57400000
_cell_angle_beta   120.57400000
_cell_angle_gamma   89.00830000
_symmetry_Int_Tables_number   1
_chemical_formula_structural   CoH18C24N8Cl3O
_chemical_formula_sum   'Co4 H72 C96 N32 Cl12 O4'
_cell_volume   4389.61621464
_cell_formula_units_Z   4
loop_
 _symmetry_equiv_pos_site_id
 _symmetry_equiv_pos_as_xyz
  1  'x, y, z'
loop_
 _atom_site_type_symbol
 _atom_site_label
 _atom_site_symmetry_multiplicity
 _atom_site_fract_x
 _atom_site_fract_y
 _atom_site_fract_z
 _atom_site_occupancy
 _atom_site_charge
Co  Co1  1  0.09824000  0.09824000  0.00000000  1.0 0.6714886956
Co  Co2  1  0.40176000  0.40176000  0.00000000  1.0 0.6714886956
Co  Co3  1  0.90176000  0.90176000  0.00000000  1.0 0.6714886956
Co  Co4  1  0.59824000  0.59824000  0.00000000  1.0 0.6714886956
H  H1  1  0.03780000  0.21120000  0.15420000  1.0 0.1231746536
H  H2  1  0.05700000  0.88360000  0.84580000  1.0 0.1231746536
H  H3  1  0.21120000  0.05700000  0.17340000  1.0 0.1231746536
H  H4  1  0.88360000  0.03780000  0.82660000  1.0 0.1231746536
H  H5  1  0.44300000  0.28880000  0.82660000  1.0 0.1231746536
H  H6  1  0.46220000  0.61640000  0.17340000  1.0 0.1231746536
H  H7  1  0.61640000  0.44300000  0.15420000  1.0 0.1231746536
H  H8  1  0.28880000  0.46220000  0.84580000  1.0 0.1231746536
H  H9  1  0.96220000  0.78880000  0.84580000  1.0 0.1231746536
H  H10  1  0.94300000  0.11640000  0.15420000  1.0 0.1231746536
H  H11  1  0.78880000  0.94300000  0.82660000  1.0 0.1231746536
H  H12  1  0.11640000  0.96220000  0.17340000  1.0 0.1231746536
H  H13  1  0.55700000  0.71120000  0.17340000  1.0 0.1231746536
H  H14  1  0.53780000  0.38360000  0.82660000  1.0 0.1231746536
H  H15  1  0.38360000  0.55700000  0.84580000  1.0 0.1231746536
H  H16  1  0.71120000  0.53780000  0.15420000  1.0 0.1231746536
H  H17  1  0.13930000  0.33410000  0.33660000  1.0 0.1278358035
H  H18  1  0.99750000  0.80270000  0.66340000  1.0 0.1278358035
H  H19  1  0.33410000  0.99750000  0.19480000  1.0 0.1278358035
H  H20  1  0.80270000  0.13930000  0.80520000  1.0 0.1278358035
H  H21  1  0.50250000  0.16590000  0.80520000  1.0 0.1278358035
H  H22  1  0.36070000  0.69730000  0.19480000  1.0 0.1278358035
H  H23  1  0.69730000  0.50250000  0.33660000  1.0 0.1278358035
H  H24  1  0.16590000  0.36070000  0.66340000  1.0 0.1278358035
H  H25  1  0.86070000  0.66590000  0.66340000  1.0 0.1278358035
H  H26  1  0.00250000  0.19730000  0.33660000  1.0 0.1278358035
H  H27  1  0.66590000  0.00250000  0.80520000  1.0 0.1278358035
H  H28  1  0.19730000  0.86070000  0.19480000  1.0 0.1278358035
H  H29  1  0.49750000  0.83410000  0.19480000  1.0 0.1278358035
H  H30  1  0.63930000  0.30270000  0.80520000  1.0 0.1278358035
H  H31  1  0.30270000  0.49750000  0.66340000  1.0 0.1278358035
H  H32  1  0.83410000  0.63930000  0.33660000  1.0 0.1278358035
H  H33  1  0.27630000  0.24900000  0.21810000  1.0 0.1121316277
H  H34  1  0.03090000  0.05820000  0.78190000  1.0 0.1121316277
H  H35  1  0.24900000  0.03090000  0.97270000  1.0 0.1121316277
H  H36  1  0.05820000  0.27630000  0.02730000  1.0 0.1121316277
H  H37  1  0.46910000  0.25100000  0.02730000  1.0 0.1121316277
H  H38  1  0.22370000  0.44180000  0.97270000  1.0 0.1121316277
H  H39  1  0.44180000  0.46910000  0.21810000  1.0 0.1121316277
H  H40  1  0.25100000  0.22370000  0.78190000  1.0 0.1121316277
H  H41  1  0.72370000  0.75100000  0.78190000  1.0 0.1121316277
H  H42  1  0.96910000  0.94180000  0.21810000  1.0 0.1121316277
H  H43  1  0.75100000  0.96910000  0.02730000  1.0 0.1121316277
H  H44  1  0.94180000  0.72370000  0.97270000  1.0 0.1121316277
H  H45  1  0.53090000  0.74900000  0.97270000  1.0 0.1121316277
H  H46  1  0.77630000  0.55820000  0.02730000  1.0 0.1121316277
H  H47  1  0.55820000  0.53090000  0.78190000  1.0 0.1121316277
H  H48  1  0.74900000  0.77630000  0.21810000  1.0 0.1121316277
H  H49  1  0.28950000  0.38190000  0.50000000  1.0 0.1386198769
H  H50  1  0.88190000  0.78950000  0.50000000  1.0 0.1386198769
H  H51  1  0.38190000  0.88190000  0.09240000  1.0 0.1386198769
H  H52  1  0.78950000  0.28950000  0.90760000  1.0 0.1386198769
H  H53  1  0.61810000  0.11810000  0.90760000  1.0 0.1386198769
H  H54  1  0.21050000  0.71050000  0.09240000  1.0 0.1386198769
H  H55  1  0.71050000  0.61810000  0.50000000  1.0 0.1386198769
H  H56  1  0.11810000  0.21050000  0.50000000  1.0 0.1386198769
H  H57  1  0.37250000  0.39880000  0.34430000  1.0 0.1278358035
H  H58  1  0.05450000  0.02820000  0.65570000  1.0 0.1278358035
H  H59  1  0.39880000  0.05450000  0.02630000  1.0 0.1278358035
H  H60  1  0.02820000  0.37250000  0.97370000  1.0 0.1278358035
H  H61  1  0.44550000  0.10120000  0.97370000  1.0 0.1278358035
H  H62  1  0.12750000  0.47180000  0.02630000  1.0 0.1278358035
H  H63  1  0.47180000  0.44550000  0.34430000  1.0 0.1278358035
H  H64  1  0.10120000  0.12750000  0.65570000  1.0 0.1278358035
H  H65  1  0.62750000  0.60120000  0.65570000  1.0 0.1278358035
H  H66  1  0.94550000  0.97180000  0.34430000  1.0 0.1278358035
H  H67  1  0.60120000  0.94550000  0.97370000  1.0 0.1278358035
H  H68  1  0.97180000  0.62750000  0.02630000  1.0 0.1278358035
H  H69  1  0.55450000  0.89880000  0.02630000  1.0 0.1278358035
H  H70  1  0.87250000  0.52820000  0.97370000  1.0 0.1278358035
H  H71  1  0.52820000  0.55450000  0.65570000  1.0 0.1278358035
H  H72  1  0.89880000  0.87250000  0.34430000  1.0 0.1278358035
C  C1  1  0.09920000  0.23380000  0.19020000  1.0 -0.0431946244
C  C2  1  0.04360000  0.90900000  0.80980000  1.0 -0.0431946244
C  C3  1  0.23380000  0.04360000  0.13460000  1.0 -0.0431946244
C  C4  1  0.90900000  0.09920000  0.86540000  1.0 -0.0431946244
C  C5  1  0.45640000  0.26620000  0.86540000  1.0 -0.0431946244
C  C6  1  0.40080000  0.59100000  0.13460000  1.0 -0.0431946244
C  C7  1  0.59100000  0.45640000  0.19020000  1.0 -0.0431946244
C  C8  1  0.26620000  0.40080000  0.80980000  1.0 -0.0431946244
C  C9  1  0.90080000  0.76620000  0.80980000  1.0 -0.0431946244
C  C10  1  0.95640000  0.09100000  0.19020000  1.0 -0.0431946244
C  C11  1  0.76620000  0.95640000  0.86540000  1.0 -0.0431946244
C  C12  1  0.09100000  0.90080000  0.13460000  1.0 -0.0431946244
C  C13  1  0.54360000  0.73380000  0.13460000  1.0 -0.0431946244
C  C14  1  0.59920000  0.40900000  0.86540000  1.0 -0.0431946244
C  C15  1  0.40900000  0.54360000  0.80980000  1.0 -0.0431946244
C  C16  1  0.73380000  0.59920000  0.19020000  1.0 -0.0431946244
C  C17  1  0.15410000  0.30210000  0.29060000  1.0 -0.0978095031
C  C18  1  0.01150000  0.86350000  0.70940000  1.0 -0.0978095031
C  C19  1  0.30210000  0.01150000  0.14800000  1.0 -0.0978095031
C  C20  1  0.86350000  0.15410000  0.85200000  1.0 -0.0978095031
C  C21  1  0.48850000  0.19790000  0.85200000  1.0 -0.0978095031
C  C22  1  0.34590000  0.63650000  0.14800000  1.0 -0.0978095031
C  C23  1  0.63650000  0.48850000  0.29060000  1.0 -0.0978095031
C  C24  1  0.19790000  0.34590000  0.70940000  1.0 -0.0978095031
C  C25  1  0.84590000  0.69790000  0.70940000  1.0 -0.0978095031
C  C26  1  0.98850000  0.13650000  0.29060000  1.0 -0.0978095031
C  C27  1  0.69790000  0.98850000  0.85200000  1.0 -0.0978095031
C  C28  1  0.13650000  0.84590000  0.14800000  1.0 -0.0978095031
C  C29  1  0.51150000  0.80210000  0.14800000  1.0 -0.0978095031
C  C30  1  0.65410000  0.36350000  0.85200000  1.0 -0.0978095031
C  C31  1  0.36350000  0.51150000  0.70940000  1.0 -0.0978095031
C  C32  1  0.80210000  0.65410000  0.29060000  1.0 -0.0978095031
C  C33  1  0.22910000  0.25400000  0.22410000  1.0 0.1386198769
C  C34  1  0.02990000  0.00500000  0.77590000  1.0 0.1386198769
C  C35  1  0.25400000  0.02990000  0.02490000  1.0 0.1386198769
C  C36  1  0.00500000  0.22910000  0.97510000  1.0 0.1386198769
C  C37  1  0.47010000  0.24600000  0.97510000  1.0 0.1386198769
C  C38  1  0.27090000  0.49500000  0.02490000  1.0 0.1386198769
C  C39  1  0.49500000  0.47010000  0.22410000  1.0 0.1386198769
C  C40  1  0.24600000  0.27090000  0.77590000  1.0 0.1386198769
C  C41  1  0.77090000  0.74600000  0.77590000  1.0 0.1386198769
C  C42  1  0.97010000  0.99500000  0.22410000  1.0 0.1386198769
C  C43  1  0.74600000  0.97010000  0.97510000  1.0 0.1386198769
C  C44  1  0.99500000  0.77090000  0.02490000  1.0 0.1386198769
C  C45  1  0.52990000  0.75400000  0.02490000  1.0 0.1386198769
C  C46  1  0.72910000  0.50500000  0.97510000  1.0 0.1386198769
C  C47  1  0.50500000  0.52990000  0.77590000  1.0 0.1386198769
C  C48  1  0.75400000  0.72910000  0.22410000  1.0 0.1386198769
C  C49  1  0.32033000  0.38173000  0.40860000  1.0 0.1819605685
C  C50  1  0.97313000  0.91173000  0.59140000  1.0 0.1819605685
C  C51  1  0.38173000  0.97313000  0.06140000  1.0 0.1819605685
C  C52  1  0.91173000  0.32033000  0.93860000  1.0 0.1819605685
C  C53  1  0.52687000  0.11827000  0.93860000  1.0 0.1819605685
C  C54  1  0.17967000  0.58827000  0.06140000  1.0 0.1819605685
C  C55  1  0.58827000  0.52687000  0.40860000  1.0 0.1819605685
C  C56  1  0.11827000  0.17967000  0.59140000  1.0 0.1819605685
C  C57  1  0.67967000  0.61827000  0.59140000  1.0 0.1819605685
C  C58  1  0.02687000  0.08827000  0.40860000  1.0 0.1819605685
C  C59  1  0.61827000  0.02687000  0.93860000  1.0 0.1819605685
C  C60  1  0.08827000  0.67967000  0.06140000  1.0 0.1819605685
C  C61  1  0.47313000  0.88173000  0.06140000  1.0 0.1819605685
C  C62  1  0.82033000  0.41173000  0.93860000  1.0 0.1819605685
C  C63  1  0.41173000  0.47313000  0.59140000  1.0 0.1819605685
C  C64  1  0.88173000  0.82033000  0.40860000  1.0 0.1819605685
C  C65  1  0.33250000  0.40750000  0.50000000  1.0 -0.2511141964
C  C66  1  0.90750000  0.83250000  0.50000000  1.0 -0.2511141964
C  C67  1  0.40750000  0.90750000  0.07500000  1.0 -0.2511141964
C  C68  1  0.83250000  0.33250000  0.92500000  1.0 -0.2511141964
C  C69  1  0.59250000  0.09250000  0.92500000  1.0 -0.2511141964
C  C70  1  0.16750000  0.66750000  0.07500000  1.0 -0.2511141964
C  C71  1  0.66750000  0.59250000  0.50000000  1.0 -0.2511141964
C  C72  1  0.09250000  0.16750000  0.50000000  1.0 -0.2511141964
C  C73  1  0.46530000  0.48070000  0.50000000  1.0 0.1121316277
C  C74  1  0.98070000  0.96530000  0.50000000  1.0 0.1121316277
C  C75  1  0.48070000  0.98070000  0.01540000  1.0 0.1121316277
C  C76  1  0.96530000  0.46530000  0.98460000  1.0 0.1121316277
C  C77  1  0.51930000  0.01930000  0.98460000  1.0 0.1121316277
C  C78  1  0.03470000  0.53470000  0.01540000  1.0 0.1121316277
C  C79  1  0.53470000  0.51930000  0.50000000  1.0 0.1121316277
C  C80  1  0.01930000  0.03470000  0.50000000  1.0 0.1121316277
C  C81  1  0.38362000  0.41702000  0.40720000  1.0 -0.2162422419
C  C82  1  0.00982000  0.97642000  0.59280000  1.0 -0.2162422419
C  C83  1  0.41702000  0.00982000  0.03340000  1.0 -0.2162422419
C  C84  1  0.97642000  0.38362000  0.96660000  1.0 -0.2162422419
C  C85  1  0.49018000  0.08298000  0.96660000  1.0 -0.2162422419
C  C86  1  0.11638000  0.52358000  0.03340000  1.0 -0.2162422419
C  C87  1  0.52358000  0.49018000  0.40720000  1.0 -0.2162422419
C  C88  1  0.08298000  0.11638000  0.59280000  1.0 -0.2162422419
C  C89  1  0.61638000  0.58298000  0.59280000  1.0 -0.2162422419
C  C90  1  0.99018000  0.02358000  0.40720000  1.0 -0.2162422419
C  C91  1  0.58298000  0.99018000  0.96660000  1.0 -0.2162422419
C  C92  1  0.02358000  0.61638000  0.03340000  1.0 -0.2162422419
C  C93  1  0.50982000  0.91702000  0.03340000  1.0 -0.2162422419
C  C94  1  0.88362000  0.47642000  0.96660000  1.0 -0.2162422419
C  C95  1  0.47642000  0.50982000  0.59280000  1.0 -0.2162422419
C  C96  1  0.91702000  0.88362000  0.40720000  1.0 -0.2162422419
N  N1  1  0.14571000  0.20131000  0.14720000  1.0 -0.292924694
N  N2  1  0.05411000  0.99851000  0.85280000  1.0 -0.292924694
N  N3  1  0.20131000  0.05411000  0.05560000  1.0 -0.292924694
N  N4  1  0.99851000  0.14571000  0.94440000  1.0 -0.292924694
N  N5  1  0.44589000  0.29869000  0.94440000  1.0 -0.292924694
N  N6  1  0.35429000  0.50149000  0.05560000  1.0 -0.292924694
N  N7  1  0.50149000  0.44589000  0.14720000  1.0 -0.292924694
N  N8  1  0.29869000  0.35429000  0.85280000  1.0 -0.292924694
N  N9  1  0.85429000  0.79869000  0.85280000  1.0 -0.292924694
N  N10  1  0.94589000  0.00149000  0.14720000  1.0 -0.292924694
N  N11  1  0.79869000  0.94589000  0.94440000  1.0 -0.292924694
N  N12  1  0.00149000  0.85429000  0.05560000  1.0 -0.292924694
N  N13  1  0.55411000  0.70131000  0.05560000  1.0 -0.292924694
N  N14  1  0.64571000  0.49851000  0.94440000  1.0 -0.292924694
N  N15  1  0.49851000  0.55411000  0.85280000  1.0 -0.292924694
N  N16  1  0.70131000  0.64571000  0.14720000  1.0 -0.292924694
N  N17  1  0.23746000  0.31436000  0.31030000  1.0 0.0005236685
N  N18  1  0.00406000  0.92716000  0.68970000  1.0 0.0005236685
N  N19  1  0.31436000  0.00406000  0.07690000  1.0 0.0005236685
N  N20  1  0.92716000  0.23746000  0.92310000  1.0 0.0005236685
N  N21  1  0.49594000  0.18564000  0.92310000  1.0 0.0005236685
N  N22  1  0.26254000  0.57284000  0.07690000  1.0 0.0005236685
N  N23  1  0.57284000  0.49594000  0.31030000  1.0 0.0005236685
N  N24  1  0.18564000  0.26254000  0.68970000  1.0 0.0005236685
N  N25  1  0.76254000  0.68564000  0.68970000  1.0 0.0005236685
N  N26  1  0.99594000  0.07284000  0.31030000  1.0 0.0005236685
N  N27  1  0.68564000  0.99594000  0.92310000  1.0 0.0005236685
N  N28  1  0.07284000  0.76254000  0.07690000  1.0 0.0005236685
N  N29  1  0.50406000  0.81436000  0.07690000  1.0 0.0005236685
N  N30  1  0.73746000  0.42716000  0.92310000  1.0 0.0005236685
N  N31  1  0.42716000  0.50406000  0.68970000  1.0 0.0005236685
N  N32  1  0.81436000  0.73746000  0.31030000  1.0 0.0005236685
Cl  Cl1  1  0.89250000  0.75000000  0.14250000  1.0 -0.4081468501
Cl  Cl2  1  0.60750000  0.75000000  0.85750000  1.0 -0.4081468501
Cl  Cl3  1  0.75000000  0.89250000  0.14250000  1.0 -0.4081468501
Cl  Cl4  1  0.75000000  0.60750000  0.85750000  1.0 -0.4081468501
Cl  Cl5  1  0.10750000  0.25000000  0.85750000  1.0 -0.4081468501
Cl  Cl6  1  0.39250000  0.25000000  0.14250000  1.0 -0.4023903676
Cl  Cl7  1  0.25000000  0.10750000  0.85750000  1.0 -0.4023903676
Cl  Cl8  1  0.25000000  0.39250000  0.14250000  1.0 -0.4081468501
Cl  Cl9  1  0.62440000  0.12440000  0.74880000  1.0 -0.4663697847
Cl  Cl10  1  0.37560000  0.87560000  0.25120000  1.0 -0.4572241821
Cl  Cl11  1  0.87560000  0.62440000  0.50000000  1.0 -0.4663697847
Cl  Cl12  1  0.12440000  0.37560000  0.50000000  1.0 -0.4572241821
O  O1  1  0.17740000  0.17740000  0.00000000  1.0 -0.0431946244
O  O2  1  0.32260000  0.32260000  0.00000000  1.0 -0.0431946244
O  O3  1  0.82260000  0.82260000  0.00000000  1.0 -0.0431946244
O  O4  1  0.67740000  0.67740000  0.00000000  1.0 -0.0431946244
