# DDEC6 charges by PACMAN v1.1 (https://github.com/mtap-research/PACMAN-charge/)
data_AGAWEO_FSR_pacman
_symmetry_space_group_name_H-M   'P 1'
_cell_length_a   6.86470000
_cell_length_b   18.04660000
_cell_length_c   19.05430000
_cell_angle_alpha   90.00000000
_cell_angle_beta   103.48600000
_cell_angle_gamma   90.00000000
_symmetry_Int_Tables_number   1
_chemical_formula_structural   ZnH12C20N4O5
_chemical_formula_sum   'Zn4 H48 C80 N16 O20'
_cell_volume   2295.44521688
_cell_formula_units_Z   4
loop_
 _symmetry_equiv_pos_site_id
 _symmetry_equiv_pos_as_xyz
  1  'x, y, z'
loop_
 _atom_site_type_symbol
 _atom_site_label
 _atom_site_symmetry_multiplicity
 _atom_site_fract_x
 _atom_site_fract_y
 _atom_site_fract_z
 _atom_site_occupancy
 _atom_site_charge
Zn  Zn1  1  0.44262000  0.59027000  0.43739000  1.0 0.8593719821
Zn  Zn2  1  0.55738000  0.09027000  0.06261000  1.0 0.8593719821
Zn  Zn3  1  0.55738000  0.40973000  0.56261000  1.0 0.8593719821
Zn  Zn4  1  0.44262000  0.90973000  0.93739000  1.0 0.8593719821
H  H1  1  0.11852000  0.31139000  0.15874000  1.0 0.1313234377
H  H2  1  0.88148000  0.81139000  0.34126000  1.0 0.1313234377
H  H3  1  0.88148000  0.68861000  0.84126000  1.0 0.1313234377
H  H4  1  0.11852000  0.18861000  0.65874000  1.0 0.1313234377
H  H5  1  0.33601000  0.24878000  0.04985000  1.0 0.1313234377
H  H6  1  0.66399000  0.74878000  0.45015000  1.0 0.1313234377
H  H7  1  0.66399000  0.75122000  0.95015000  1.0 0.1313234377
H  H8  1  0.33601000  0.25122000  0.54985000  1.0 0.1313234377
H  H9  1  0.60123000  0.18931000  0.25568000  1.0 0.1313234377
H  H10  1  0.39877000  0.68931000  0.24432000  1.0 0.1313234377
H  H11  1  0.39877000  0.81069000  0.74432000  1.0 0.1313234377
H  H12  1  0.60123000  0.31069000  0.75568000  1.0 0.1313234377
H  H13  1  0.34974000  0.38641000  0.23297000  1.0 0.1106220182
H  H14  1  0.65026000  0.88641000  0.26703000  1.0 0.1106220182
H  H15  1  0.65026000  0.61359000  0.76703000  1.0 0.1106220182
H  H16  1  0.34974000  0.11359000  0.73297000  1.0 0.1106220182
H  H17  1  0.97213000  0.33090000  0.44268000  1.0 0.1373762783
H  H18  1  0.02787000  0.83090000  0.05732000  1.0 0.1373762783
H  H19  1  0.02787000  0.66910000  0.55732000  1.0 0.1373762783
H  H20  1  0.97213000  0.16910000  0.94268000  1.0 0.1373762783
H  H21  1  0.23342000  0.13376000  0.32337000  1.0 0.1373762783
H  H22  1  0.76658000  0.63376000  0.17663000  1.0 0.1373762783
H  H23  1  0.76658000  0.86624000  0.67663000  1.0 0.1373762783
H  H24  1  0.23342000  0.36624000  0.82337000  1.0 0.1373762783
H  H25  1  0.91765000  0.47658000  0.31374000  1.0 0.1313234377
H  H26  1  0.08235000  0.97658000  0.18626000  1.0 0.1313234377
H  H27  1  0.08235000  0.52342000  0.68626000  1.0 0.1313234377
H  H28  1  0.91765000  0.02342000  0.81374000  1.0 0.1313234377
H  H29  1  0.48614000  0.36396000  0.10482000  1.0 0.1373762783
H  H30  1  0.51386000  0.86396000  0.39518000  1.0 0.1373762783
H  H31  1  0.51386000  0.63604000  0.89518000  1.0 0.1373762783
H  H32  1  0.48614000  0.13604000  0.60482000  1.0 0.1373762783
H  H33  1  0.13380000  0.26172000  0.37127000  1.0 0.1373762783
H  H34  1  0.86620000  0.76172000  0.12873000  1.0 0.1373762783
H  H35  1  0.86620000  0.73828000  0.62873000  1.0 0.1373762783
H  H36  1  0.13380000  0.23828000  0.87127000  1.0 0.1373762783
H  H37  1  0.31642000  0.09532000  0.21176000  1.0 0.1313234377
H  H38  1  0.68358000  0.59532000  0.28824000  1.0 0.1313234377
H  H39  1  0.68358000  0.90468000  0.78824000  1.0 0.1313234377
H  H40  1  0.31642000  0.40468000  0.71176000  1.0 0.1313234377
H  H41  1  0.44238000  0.26058000  0.32559000  1.0 0.1106220182
H  H42  1  0.55762000  0.76058000  0.17441000  1.0 0.1106220182
H  H43  1  0.55762000  0.73942000  0.67441000  1.0 0.1106220182
H  H44  1  0.44238000  0.23942000  0.82559000  1.0 0.1106220182
H  H45  1  0.68211000  0.40342000  0.23808000  1.0 0.1313234377
H  H46  1  0.31789000  0.90342000  0.26192000  1.0 0.1313234377
H  H47  1  0.31789000  0.59658000  0.76192000  1.0 0.1313234377
H  H48  1  0.68211000  0.09658000  0.73808000  1.0 0.1313234377
C  C1  1  0.88390000  0.22080000  0.30530000  1.0 0.1537164073
C  C2  1  0.11610000  0.72080000  0.19470000  1.0 0.1537164073
C  C3  1  0.11610000  0.77920000  0.69470000  1.0 0.1537164073
C  C4  1  0.88390000  0.27920000  0.80530000  1.0 0.1537164073
C  C5  1  0.07830000  0.34450000  0.19000000  1.0 -0.1866476912
C  C6  1  0.92170000  0.84450000  0.31000000  1.0 -0.1847248901
C  C7  1  0.92170000  0.65550000  0.81000000  1.0 -0.1847248901
C  C8  1  0.07830000  0.15550000  0.69000000  1.0 -0.1847248901
C  C9  1  0.46240000  0.25320000  0.08060000  1.0 -0.0100208617
C  C10  1  0.53760000  0.75320000  0.41940000  1.0 -0.0100208617
C  C11  1  0.53760000  0.74680000  0.91940000  1.0 -0.0100208617
C  C12  1  0.46240000  0.24680000  0.58060000  1.0 -0.0100208617
C  C13  1  0.68953000  0.30410000  0.39093000  1.0 -0.0100208617
C  C14  1  0.31047000  0.80410000  0.10907000  1.0 -0.0100208617
C  C15  1  0.31047000  0.69590000  0.60907000  1.0 -0.0100208617
C  C16  1  0.68953000  0.19590000  0.89093000  1.0 -0.0100208617
C  C17  1  0.67550000  0.21880000  0.29240000  1.0 -0.1866476912
C  C18  1  0.32450000  0.71880000  0.20760000  1.0 -0.1866476912
C  C19  1  0.32450000  0.78120000  0.70760000  1.0 -0.1866476912
C  C20  1  0.67550000  0.28120000  0.79240000  1.0 -0.1866476912
C  C21  1  0.31290000  0.48820000  0.32750000  1.0 0.5444109063
C  C22  1  0.68710000  0.98820000  0.17250000  1.0 0.5444109063
C  C23  1  0.68710000  0.51180000  0.67250000  1.0 0.5444109063
C  C24  1  0.31290000  0.01180000  0.82750000  1.0 0.5444109063
C  C25  1  0.75658000  0.22500000  0.14428000  1.0 0.1881139349
C  C26  1  0.24342000  0.72500000  0.35572000  1.0 0.1881139349
C  C27  1  0.24342000  0.77500000  0.85572000  1.0 0.1881139349
C  C28  1  0.75658000  0.27500000  0.64428000  1.0 0.1881139349
C  C29  1  0.21550000  0.38940000  0.23440000  1.0 -0.0894979391
C  C30  1  0.78450000  0.88940000  0.26560000  1.0 -0.0894979391
C  C31  1  0.78450000  0.61060000  0.76560000  1.0 -0.0894979391
C  C32  1  0.21550000  0.11060000  0.73440000  1.0 -0.0894979391
C  C33  1  0.93300000  0.18450000  0.18460000  1.0 0.1599746641
C  C34  1  0.06700000  0.68450000  0.31540000  1.0 0.1599746641
C  C35  1  0.06700000  0.81550000  0.81540000  1.0 0.1599746641
C  C36  1  0.93300000  0.31550000  0.68460000  1.0 0.1599746641
C  C37  1  0.15830000  0.43910000  0.28110000  1.0 -0.0100208617
C  C38  1  0.84170000  0.93910000  0.21890000  1.0 -0.0100208617
C  C39  1  0.84170000  0.56090000  0.71890000  1.0 -0.0100208617
C  C40  1  0.15830000  0.06090000  0.78110000  1.0 -0.0100208617
C  C41  1  0.89750000  0.30330000  0.40450000  1.0 -0.0788789694
C  C42  1  0.10250000  0.80330000  0.09550000  1.0 -0.0788789694
C  C43  1  0.10250000  0.69670000  0.59550000  1.0 -0.0788789694
C  C44  1  0.89750000  0.19670000  0.90450000  1.0 -0.0788789694
C  C45  1  0.58220000  0.34730000  0.43750000  1.0 0.5260302942
C  C46  1  0.41780000  0.84730000  0.06250000  1.0 0.5260302942
C  C47  1  0.41780000  0.65270000  0.56250000  1.0 0.5260302942
C  C48  1  0.58220000  0.15270000  0.93750000  1.0 0.5260302942
C  C49  1  0.15970000  0.14370000  0.27680000  1.0 -0.1073599045
C  C50  1  0.84030000  0.64370000  0.22320000  1.0 -0.1073599045
C  C51  1  0.84030000  0.85630000  0.72320000  1.0 -0.1073599045
C  C52  1  0.15970000  0.35630000  0.77680000  1.0 -0.1073599045
C  C53  1  0.95790000  0.44350000  0.28240000  1.0 -0.0671090413
C  C54  1  0.04210000  0.94350000  0.21760000  1.0 -0.0671090413
C  C55  1  0.04210000  0.55650000  0.71760000  1.0 -0.0671090413
C  C56  1  0.95790000  0.05650000  0.78240000  1.0 -0.0671090413
C  C57  1  0.54510000  0.31730000  0.11020000  1.0 -0.0990698877
C  C58  1  0.45490000  0.81730000  0.38980000  1.0 -0.0990698877
C  C59  1  0.45490000  0.68270000  0.88980000  1.0 -0.0990698877
C  C60  1  0.54510000  0.18270000  0.61020000  1.0 -0.0990698877
C  C61  1  0.99470000  0.26190000  0.36190000  1.0 -0.1686987993
C  C62  1  0.00530000  0.76190000  0.13810000  1.0 -0.1686987993
C  C63  1  0.00530000  0.73810000  0.63810000  1.0 -0.1686987993
C  C64  1  0.99470000  0.23810000  0.86190000  1.0 -0.1686987993
C  C65  1  0.20500000  0.12330000  0.21480000  1.0 -0.0229422615
C  C66  1  0.79500000  0.62330000  0.28520000  1.0 -0.0229422615
C  C67  1  0.79500000  0.87670000  0.78520000  1.0 -0.0229422615
C  C68  1  0.20500000  0.37670000  0.71480000  1.0 -0.0229422615
C  C69  1  0.58150000  0.26090000  0.33470000  1.0 -0.0990698877
C  C70  1  0.41850000  0.76090000  0.16530000  1.0 -0.0990698877
C  C71  1  0.41850000  0.73910000  0.66530000  1.0 -0.0990698877
C  C72  1  0.58150000  0.23910000  0.83470000  1.0 -0.0990698877
C  C73  1  0.87890000  0.34950000  0.19280000  1.0 0.1537164073
C  C74  1  0.12110000  0.84950000  0.30720000  1.0 0.1537164073
C  C75  1  0.12110000  0.65050000  0.80720000  1.0 0.1537164073
C  C76  1  0.87890000  0.15050000  0.69280000  1.0 0.1537164073
C  C77  1  0.81700000  0.39940000  0.23780000  1.0 -0.1686987993
C  C78  1  0.18300000  0.89940000  0.26220000  1.0 -0.1686987993
C  C79  1  0.18300000  0.60060000  0.76220000  1.0 -0.1686987993
C  C80  1  0.81700000  0.10060000  0.73780000  1.0 -0.1686987993
N  N1  1  0.59406000  0.19553000  0.10286000  1.0 -0.3300900538
N  N2  1  0.40594000  0.69553000  0.39714000  1.0 -0.3300900538
N  N3  1  0.40594000  0.80447000  0.89714000  1.0 -0.3300900538
N  N4  1  0.59406000  0.30447000  0.60286000  1.0 -0.3300900538
N  N5  1  0.06367000  0.14955000  0.15587000  1.0 -0.2942352001
N  N6  1  0.93633000  0.64955000  0.34413000  1.0 -0.2942352001
N  N7  1  0.93633000  0.85045000  0.84413000  1.0 -0.2942352001
N  N8  1  0.06367000  0.35045000  0.65587000  1.0 -0.2942352001
N  N9  1  0.73511000  0.29963000  0.15021000  1.0 -0.0229422615
N  N10  1  0.26489000  0.79963000  0.34979000  1.0 -0.0229422615
N  N11  1  0.26489000  0.70037000  0.84979000  1.0 -0.0229422615
N  N12  1  0.73511000  0.20037000  0.65021000  1.0 -0.0229422615
N  N13  1  0.98251000  0.18236000  0.25781000  1.0 -0.0285542052
N  N14  1  0.01749000  0.68236000  0.24219000  1.0 -0.0285542052
N  N15  1  0.01749000  0.81764000  0.74219000  1.0 -0.0285542052
N  N16  1  0.98251000  0.31764000  0.75781000  1.0 -0.0285542052
O  O1  1  0.68630000  0.39461000  0.48070000  1.0 -0.4926103283
O  O2  1  0.31370000  0.89461000  0.01930000  1.0 -0.4926103283
O  O3  1  0.31370000  0.60539000  0.51930000  1.0 -0.4926103283
O  O4  1  0.68630000  0.10539000  0.98070000  1.0 -0.4926103283
O  O5  1  0.47560000  0.49690000  0.31220000  1.0 -0.5283447806
O  O6  1  0.52440000  0.99690000  0.18780000  1.0 -0.5283447806
O  O7  1  0.52440000  0.50310000  0.68780000  1.0 -0.5283447806
O  O8  1  0.47560000  0.00310000  0.81220000  1.0 -0.5283447806
O  O9  1  0.73364000  0.55900000  0.46084000  1.0 -0.0990698877
O  O10  1  0.26636000  0.05900000  0.03916000  1.0 -0.1073599045
O  O11  1  0.26636000  0.44100000  0.53916000  1.0 -0.0990698877
O  O12  1  0.73364000  0.94100000  0.96084000  1.0 -0.0990698877
O  O13  1  0.26151000  0.51759000  0.38181000  1.0 -0.5145190139
O  O14  1  0.73849000  0.01759000  0.11819000  1.0 -0.5145190139
O  O15  1  0.73849000  0.48241000  0.61819000  1.0 -0.5145190139
O  O16  1  0.26151000  0.98241000  0.88181000  1.0 -0.5145190139
O  O17  1  0.40466000  0.33370000  0.43456000  1.0 -0.5283447806
O  O18  1  0.59534000  0.83370000  0.06544000  1.0 -0.5283447806
O  O19  1  0.59534000  0.66630000  0.56544000  1.0 -0.5283447806
O  O20  1  0.40466000  0.16630000  0.93456000  1.0 -0.5283447806
