# DDEC6 charges by PACMAN v1.1 (https://github.com/mtap-research/PACMAN-charge/)
data_AGAXOV_FSR_pacman
_symmetry_space_group_name_H-M   'P 1'
_cell_length_a   11.03180000
_cell_length_b   18.06730000
_cell_length_c   18.45280000
_cell_angle_alpha   104.81200000
_cell_angle_beta   97.07500000
_cell_angle_gamma   95.20600000
_symmetry_Int_Tables_number   1
_chemical_formula_structural   Cu4H8C56S4(NO3)7
_chemical_formula_sum   'Cu8 H16 C112 S8 N14 O42'
_cell_volume   3499.87392045
_cell_formula_units_Z   2
loop_
 _symmetry_equiv_pos_site_id
 _symmetry_equiv_pos_as_xyz
  1  'x, y, z'
loop_
 _atom_site_type_symbol
 _atom_site_label
 _atom_site_symmetry_multiplicity
 _atom_site_fract_x
 _atom_site_fract_y
 _atom_site_fract_z
 _atom_site_occupancy
 _atom_site_charge
Cu  Cu1  1  0.42414000  0.55244000  0.01771000  1.0 0.869902904
Cu  Cu2  1  0.57586000  0.44756000  0.98229000  1.0 0.869902904
Cu  Cu3  1  0.03894000  0.44513000  0.44883000  1.0 0.845828573
Cu  Cu4  1  0.96106000  0.55487000  0.55117000  1.0 0.845828573
Cu  Cu5  1  0.57529000  0.97986000  0.44946000  1.0 0.869902904
Cu  Cu6  1  0.42471000  0.02014000  0.55054000  1.0 0.869902904
Cu  Cu7  1  0.89172000  0.02129000  0.01737000  1.0 0.8320229452
Cu  Cu8  1  0.10828000  0.97871000  0.98263000  1.0 0.8320229452
H  H1  1  0.51630000  0.60470000  0.27600000  1.0 0.1395965958
H  H2  1  0.48370000  0.39530000  0.72400000  1.0 0.1395965958
H  H3  1  0.63860000  0.60370000  0.39770000  1.0 0.1395965958
H  H4  1  0.36140000  0.39630000  0.60230000  1.0 0.1395965958
H  H5  1  0.33760000  0.59810000  0.38110000  1.0 0.1395965958
H  H6  1  0.66240000  0.40190000  0.61890000  1.0 0.1395965958
H  H7  1  0.45390000  0.71790000  0.37830000  1.0 0.1336189261
H  H8  1  0.54610000  0.28210000  0.62170000  1.0 0.1336189261
H  H9  1  0.10900000  0.06760000  0.39130000  1.0 0.1395965958
H  H10  1  0.89100000  0.93240000  0.60870000  1.0 0.1395965958
H  H11  1  0.98880000  0.06870000  0.26920000  1.0 0.1395965958
H  H12  1  0.01120000  0.93130000  0.73080000  1.0 0.1395965958
H  H13  1  0.91650000  0.60740000  0.98950000  1.0 0.1532337319
H  H14  1  0.08350000  0.39260000  0.01050000  1.0 0.1532337319
H  H15  1  0.03770000  0.72880000  0.98840000  1.0 0.1395965958
H  H16  1  0.96230000  0.27120000  0.01160000  1.0 0.1395965958
C  C1  1  0.57300000  0.51340000  0.13840000  1.0 0.5984321834
C  C2  1  0.42700000  0.48660000  0.86160000  1.0 0.5984321834
C  C3  1  0.61950000  0.52500000  0.22130000  1.0 -0.0704769987
C  C4  1  0.38050000  0.47500000  0.77870000  1.0 -0.0704769987
C  C5  1  0.58150000  0.57450000  0.28040000  1.0 -0.1003608901
C  C6  1  0.41850000  0.42550000  0.71960000  1.0 -0.1003608901
C  C7  1  0.65320000  0.57440000  0.34960000  1.0 -0.1181654718
C  C8  1  0.34680000  0.42560000  0.65040000  1.0 -0.1181654718
C  C9  1  0.74260000  0.52980000  0.34120000  1.0 -0.0793322172
C  C10  1  0.25740000  0.47020000  0.65880000  1.0 -0.0793322172
C  C11  1  0.83610000  0.51880000  0.40070000  1.0 0.5916236144
C  C12  1  0.16390000  0.48120000  0.59930000  1.0 0.5916236144
C  C13  1  0.15410000  0.59760000  0.47450000  1.0 0.5916236144
C  C14  1  0.84590000  0.40240000  0.52550000  1.0 0.5916236144
C  C15  1  0.24440000  0.65770000  0.46120000  1.0 -0.0793322172
C  C16  1  0.75560000  0.34230000  0.53880000  1.0 -0.0793322172
C  C17  1  0.32710000  0.64730000  0.41200000  1.0 -0.1299740472
C  C18  1  0.67290000  0.35270000  0.58800000  1.0 -0.1299740472
C  C19  1  0.39450000  0.71540000  0.41110000  1.0 -0.1003608901
C  C20  1  0.60550000  0.28460000  0.58890000  1.0 -0.1003608901
C  C21  1  0.36750000  0.77760000  0.46120000  1.0 -0.0885090038
C  C22  1  0.63250000  0.22240000  0.53880000  1.0 -0.0885090038
C  C23  1  0.41720000  0.86000000  0.47650000  1.0 0.5984321834
C  C24  1  0.58280000  0.14000000  0.52350000  1.0 0.5984321834
C  C25  1  0.34050000  0.01430000  0.39750000  1.0 0.5916236144
C  C26  1  0.65950000  0.98570000  0.60250000  1.0 0.5916236144
C  C27  1  0.24660000  0.02600000  0.33790000  1.0 -0.0793322172
C  C28  1  0.75340000  0.97400000  0.66210000  1.0 -0.0793322172
C  C29  1  0.13800000  0.05180000  0.34410000  1.0 -0.1129764292
C  C30  1  0.86200000  0.94820000  0.65590000  1.0 -0.1129764292
C  C31  1  0.06900000  0.05370000  0.27430000  1.0 -0.1003608901
C  C32  1  0.93100000  0.94630000  0.72570000  1.0 -0.1003608901
C  C33  1  0.13200000  0.03160000  0.21720000  1.0 -0.1003608901
C  C34  1  0.86800000  0.96840000  0.78280000  1.0 -0.1003608901
C  C35  1  0.08750000  0.02220000  0.13560000  1.0 0.5916236144
C  C36  1  0.91250000  0.97780000  0.86440000  1.0 0.5916236144
C  C37  1  0.66630000  0.60450000  0.00110000  1.0 0.5984321834
C  C38  1  0.33370000  0.39550000  0.99890000  1.0 0.5984321834
C  C39  1  0.76460000  0.66450000  0.99930000  1.0 -0.1003608901
C  C40  1  0.23540000  0.33550000  0.00070000  1.0 -0.0885090038
C  C41  1  0.88370000  0.65480000  0.99300000  1.0 -0.1003608901
C  C42  1  0.11630000  0.34520000  0.00700000  1.0 -0.1003608901
C  C43  1  0.95240000  0.72410000  0.99230000  1.0 -0.1003608901
C  C44  1  0.04760000  0.27590000  0.00770000  1.0 -0.1003608901
C  C45  1  0.88390000  0.78350000  0.99770000  1.0 -0.1003608901
C  C46  1  0.11610000  0.21650000  0.00230000  1.0 -0.1003608901
C  C47  1  0.92490000  0.86360000  0.99950000  1.0 0.5916236144
C  C48  1  0.07510000  0.13640000  0.00050000  1.0 0.5916236144
C  C49  1  0.32570000  0.69700000  0.03630000  1.0 0.279424141
C  C50  1  0.67430000  0.30300000  0.96370000  1.0 0.279424141
C  C51  1  0.23700000  0.76320000  0.15910000  1.0 0.2286140796
C  C52  1  0.76300000  0.23680000  0.84090000  1.0 0.2286140796
C  C53  1  0.31900000  0.77410000  0.22250000  1.0 -0.3385525096
C  C54  1  0.68100000  0.22590000  0.77750000  1.0 -0.3385525096
C  C55  1  0.30830000  0.83630000  0.06420000  1.0 0.2477444287
C  C56  1  0.69170000  0.16370000  0.93580000  1.0 0.2477444287
C  C57  1  0.44600000  0.87210000  0.09900000  1.0 -0.2686315575
C  C58  1  0.55400000  0.12790000  0.90100000  1.0 -0.2686315575
C  C59  1  0.66000000  0.87370000  0.32800000  1.0 0.2882530343
C  C60  1  0.34000000  0.12630000  0.67200000  1.0 0.2882530343
C  C61  1  0.66200000  0.76370000  0.20710000  1.0 0.3265641135
C  C62  1  0.33800000  0.23630000  0.79290000  1.0 0.3265641135
C  C63  1  0.76800000  0.71450000  0.21480000  1.0 -0.4105049569
C  C64  1  0.23200000  0.28550000  0.78520000  1.0 -0.4105049569
C  C65  1  0.81000000  0.89170000  0.23290000  1.0 0.2108246711
C  C66  1  0.19000000  0.10830000  0.76710000  1.0 0.2108246711
C  C67  1  0.72300000  0.93800000  0.17400000  1.0 -0.1967992272
C  C68  1  0.27700000  0.06200000  0.82600000  1.0 -0.1967992272
C  C69  1  0.00700000  0.31430000  0.31780000  1.0 0.1893990651
C  C70  1  0.99300000  0.68570000  0.68220000  1.0 0.1893990651
C  C71  1  0.90400000  0.22870000  0.20180000  1.0 0.1893990651
C  C72  1  0.09600000  0.77130000  0.79820000  1.0 0.1893990651
C  C73  1  0.82000000  0.28100000  0.15400000  1.0 -0.3217633266
C  C74  1  0.18000000  0.71900000  0.84600000  1.0 -0.3134222824
C  C75  1  0.11700000  0.30720000  0.20860000  1.0 0.00751068
C  C76  1  0.88300000  0.69280000  0.79140000  1.0 0.0040431366
C  C77  1  0.18240000  0.24360000  0.20340000  1.0 -0.1299740472
C  C78  1  0.81760000  0.75640000  0.79660000  1.0 -0.1299740472
C  C79  1  0.71400000  0.04920000  0.12480000  1.0 0.2705445987
C  C80  1  0.28600000  0.95080000  0.87520000  1.0 0.2705445987
C  C81  1  0.60880000  0.06010000  0.23360000  1.0 0.1336189261
C  C82  1  0.39120000  0.93990000  0.76640000  1.0 0.1336189261
C  C83  1  0.58400000  0.12600000  0.29000000  1.0 -0.0704769987
C  C84  1  0.41600000  0.87400000  0.71000000  1.0 -0.0793322172
C  C85  1  0.48000000  0.06600000  0.10700000  1.0 -0.0192860222
C  C86  1  0.52000000  0.93400000  0.89300000  1.0 -0.0192860222
C  C87  1  0.45400000  0.12990000  0.10130000  1.0 -0.1506893758
C  C88  1  0.54600000  0.87010000  0.89870000  1.0 -0.1506893758
C  C89  1  0.23300000  0.36940000  0.37000000  1.0 0.1967838259
C  C90  1  0.76700000  0.63060000  0.63000000  1.0 0.1893990651
C  C91  1  0.46400000  0.33900000  0.36900000  1.0 0.1395965958
C  C92  1  0.53600000  0.66100000  0.63100000  1.0 0.1395965958
C  C93  1  0.47300000  0.35900000  0.31300000  1.0 0.0972853627
C  C94  1  0.52700000  0.64100000  0.68700000  1.0 0.0946640622
C  C95  1  0.22200000  0.24000000  0.29000000  1.0 0.1336189261
C  C96  1  0.77800000  0.76000000  0.71000000  1.0 0.1336189261
C  C97  1  0.48100000  0.47820000  0.48100000  1.0 -0.1003608901
C  C98  1  0.51900000  0.52180000  0.51900000  1.0 -0.1003608901
C  C99  1  0.49100000  0.30100000  0.39300000  1.0 0.0711425457
C  C100  1  0.50900000  0.69900000  0.60700000  1.0 0.0711425457
C  C101  1  0.40100000  0.25000000  0.39200000  1.0 -0.2339671005
C  C102  1  0.59900000  0.75000000  0.60800000  1.0 -0.2339671005
C  C103  1  0.39200000  0.42000000  0.41000000  1.0 0.0711425457
C  C104  1  0.60800000  0.58000000  0.59000000  1.0 0.0711425457
C  C105  1  0.75400000  0.12500000  0.11000000  1.0 0.2397957321
C  C106  1  0.24600000  0.87500000  0.89000000  1.0 0.2397957321
C  C107  1  0.78300000  0.25900000  0.19900000  1.0 0.1771199804
C  C108  1  0.21700000  0.74100000  0.80100000  1.0 0.1771199804
C  C109  1  0.82100000  0.23500000  0.27800000  1.0 -0.1670281265
C  C110  1  0.17900000  0.76500000  0.72200000  1.0 -0.1670281265
C  C111  1  0.56700000  0.12700000  0.15100000  1.0 0.2176497083
C  C112  1  0.43300000  0.87300000  0.84900000  1.0 0.2176497083
S  S1  1  0.73870000  0.48123000  0.24850000  1.0 0.2108246711
S  S2  1  0.26130000  0.51877000  0.75150000  1.0 0.2108246711
S  S3  1  0.25200000  0.75226000  0.50966000  1.0 0.1893990651
S  S4  1  0.74800000  0.24774000  0.49034000  1.0 0.1893990651
S  S5  1  0.27110000  0.00466000  0.24525000  1.0 0.1967838259
S  S6  1  0.72890000  0.99534000  0.75475000  1.0 0.1967838259
S  S7  1  0.73600000  0.75668000  0.00561000  1.0 0.2108246711
S  S8  1  0.26400000  0.24332000  0.99439000  1.0 0.2108246711
N  N1  1  0.28750000  0.76700000  0.08880000  1.0 -0.0539210096
N  N2  1  0.71250000  0.23300000  0.91120000  1.0 -0.0539210096
N  N3  1  0.71500000  0.84460000  0.26120000  1.0 -0.1299740472
N  N4  1  0.28500000  0.15540000  0.73880000  1.0 -0.1299740472
N  N5  1  0.01260000  0.28170000  0.24840000  1.0 -0.0793322172
N  N6  1  0.98740000  0.71830000  0.75160000  1.0 -0.0793322172
N  N7  1  0.61850000  0.06790000  0.15940000  1.0 0.00751068
N  N8  1  0.38150000  0.93210000  0.84060000  1.0 0.00751068
N  N9  1  0.29400000  0.32200000  0.33400000  1.0 -0.0192860222
N  N10  1  0.70600000  0.67800000  0.66600000  1.0 -0.0192860222
N  N11  1  0.44900000  0.36700000  0.36960000  1.0 0.00751068
N  N12  1  0.55100000  0.63300000  0.63040000  1.0 0.00751068
N  N13  1  0.72200000  0.17500000  0.17700000  1.0 -0.0885090038
N  N14  1  0.27800000  0.82500000  0.82300000  1.0 -0.0793322172
O  O1  1  0.49080000  0.55290000  0.12180000  1.0 -0.5009745897
O  O2  1  0.50920000  0.44710000  0.87820000  1.0 -0.5009745897
O  O3  1  0.61760000  0.46360000  0.09310000  1.0 -0.5114116806
O  O4  1  0.38240000  0.53640000  0.90690000  1.0 -0.5114116806
O  O5  1  0.90630000  0.47020000  0.38000000  1.0 -0.5009745897
O  O6  1  0.09370000  0.52980000  0.62000000  1.0 -0.5009745897
O  O7  1  0.83920000  0.56200000  0.46700000  1.0 -0.5114116806
O  O8  1  0.16080000  0.43800000  0.53300000  1.0 -0.5114116806
O  O9  1  0.15490000  0.52920000  0.43650000  1.0 -0.5177336831
O  O10  1  0.84510000  0.47080000  0.56350000  1.0 -0.5177336831
O  O11  1  0.08660000  0.62250000  0.52260000  1.0 -0.5114116806
O  O12  1  0.91340000  0.37750000  0.47740000  1.0 -0.5177336831
O  O13  1  0.49830000  0.87450000  0.43880000  1.0 -0.5114116806
O  O14  1  0.50170000  0.12550000  0.56120000  1.0 -0.5114116806
O  O15  1  0.37060000  0.90830000  0.52490000  1.0 -0.5114116806
O  O16  1  0.62940000  0.09170000  0.47510000  1.0 -0.5114116806
O  O17  1  0.30920000  0.02770000  0.46330000  1.0 -0.5114116806
O  O18  1  0.69080000  0.97230000  0.53670000  1.0 -0.5114116806
O  O19  1  0.43790000  0.99250000  0.37630000  1.0 -0.5009745897
O  O20  1  0.56210000  0.00750000  0.62370000  1.0 -0.5009745897
O  O21  1  0.98060000  0.03810000  0.12080000  1.0 -0.5177336831
O  O22  1  0.01940000  0.96190000  0.87920000  1.0 -0.5177336831
O  O23  1  0.16140000  0.00030000  0.09090000  1.0 -0.4762423832
O  O24  1  0.83860000  0.99970000  0.90910000  1.0 -0.4762423832
O  O25  1  0.56560000  0.62590000  0.01680000  1.0 -0.5114116806
O  O26  1  0.43440000  0.37410000  0.98320000  1.0 -0.5114116806
O  O27  1  0.69510000  0.53620000  0.98740000  1.0 -0.5009745897
O  O28  1  0.30490000  0.46380000  0.01260000  1.0 -0.4946066338
O  O29  1  0.85190000  0.91140000  0.01160000  1.0 -0.466524725
O  O30  1  0.14810000  0.08860000  0.98840000  1.0 -0.466524725
O  O31  1  0.03220000  0.87600000  0.98390000  1.0 -0.5114116806
O  O32  1  0.96780000  0.12400000  0.01610000  1.0 -0.5114116806
O  O33  1  0.31190000  0.63730000  0.05670000  1.0 -0.3618751962
O  O34  1  0.68810000  0.36270000  0.94330000  1.0 -0.3618751962
O  O35  1  0.68660000  0.93960000  0.36380000  1.0 -0.3519357491
O  O36  1  0.31340000  0.06040000  0.63620000  1.0 -0.3519357491
O  O37  1  0.10430000  0.35860000  0.36730000  1.0 -0.2686315575
O  O38  1  0.89570000  0.64140000  0.63270000  1.0 -0.2648502189
O  O39  1  0.72910000  0.05760000  0.05850000  1.0 -0.1967992272
O  O40  1  0.27090000  0.94240000  0.94150000  1.0 -0.1967992272
O  O41  1  0.52100000  0.32300000  0.26600000  1.0 -0.2471137244
O  O42  1  0.47900000  0.67700000  0.73400000  1.0 -0.2471137244
