# DDEC6 charges by PACMAN v1.1 (https://github.com/mtap-research/PACMAN-charge/)
data_AGAYOW_ASR_pacman
_symmetry_space_group_name_H-M   'P 1'
_cell_length_a   18.06880000
_cell_length_b   18.12090000
_cell_length_c   18.12090000
_cell_angle_alpha   71.97970000
_cell_angle_beta   75.92610000
_cell_angle_gamma   75.92610000
_symmetry_Int_Tables_number   1
_chemical_formula_structural   Cu3H7C24(BrO4)3
_chemical_formula_sum   'Cu12 H28 C96 Br12 O48'
_cell_volume   5381.31544477
_cell_formula_units_Z   4
loop_
 _symmetry_equiv_pos_site_id
 _symmetry_equiv_pos_as_xyz
  1  'x, y, z'
loop_
 _atom_site_type_symbol
 _atom_site_label
 _atom_site_symmetry_multiplicity
 _atom_site_fract_x
 _atom_site_fract_y
 _atom_site_fract_z
 _atom_site_occupancy
 _atom_site_charge
Cu  Cu1  1  0.95653000  0.47024000  0.06218000  1.0 0.8456938383
Cu  Cu2  1  0.04347000  0.52976000  0.93782000  1.0 0.8446870052
Cu  Cu3  1  0.54347000  0.93782000  0.52976000  1.0 0.8446870052
Cu  Cu4  1  0.45653000  0.06218000  0.47024000  1.0 0.8446870052
Cu  Cu5  1  0.47500000  0.55938000  0.94777000  1.0 0.8446870052
Cu  Cu6  1  0.52500000  0.44062000  0.05223000  1.0 0.8446870052
Cu  Cu7  1  0.02500000  0.05223000  0.44062000  1.0 0.8446870052
Cu  Cu8  1  0.97500000  0.94777000  0.55938000  1.0 0.8446870052
Cu  Cu9  1  0.43911000  0.01877000  0.04531000  1.0 0.8300424931
Cu  Cu10  1  0.56089000  0.98123000  0.95469000  1.0 0.8300424931
Cu  Cu11  1  0.06089000  0.95469000  0.98123000  1.0 0.8300424931
Cu  Cu12  1  0.93911000  0.04531000  0.01877000  1.0 0.8300424931
H  H1  1  0.76315000  0.48063000  0.97501000  1.0 0.133005437
H  H2  1  0.23685000  0.51937000  0.02499000  1.0 0.133005437
H  H3  1  0.73685000  0.02499000  0.51937000  1.0 0.133005437
H  H4  1  0.26315000  0.97501000  0.48063000  1.0 0.133005437
H  H5  1  0.83148000  0.43812000  0.72130000  1.0 0.1391924637
H  H6  1  0.16852000  0.56188000  0.27870000  1.0 0.1391924637
H  H7  1  0.66852000  0.27870000  0.56188000  1.0 0.1391924637
H  H8  1  0.33148000  0.72130000  0.43812000  1.0 0.1391924637
H  H9  1  0.81970000  0.53972000  0.70051000  1.0 0.1391924637
H  H10  1  0.18030000  0.46028000  0.29949000  1.0 0.1391924637
H  H11  1  0.68030000  0.29949000  0.46028000  1.0 0.1391924637
H  H12  1  0.31970000  0.70051000  0.53972000  1.0 0.1391924637
H  H13  1  0.02558000  0.23889000  0.01774000  1.0 0.133005437
H  H14  1  0.97442000  0.76111000  0.98226000  1.0 0.133005437
H  H15  1  0.47442000  0.98226000  0.76111000  1.0 0.133005437
H  H16  1  0.52558000  0.01774000  0.23889000  1.0 0.133005437
H  H17  1  0.23811000  0.06474000  0.01838000  1.0 0.1391924637
H  H18  1  0.76189000  0.93526000  0.98162000  1.0 0.1391924637
H  H19  1  0.26189000  0.98162000  0.93526000  1.0 0.1391924637
H  H20  1  0.73811000  0.01838000  0.06474000  1.0 0.1391924637
H  H21  1  0.48833000  0.25893000  0.97680000  1.0 0.133005437
H  H22  1  0.51167000  0.74107000  0.02320000  1.0 0.133005437
H  H23  1  0.01167000  0.02320000  0.74107000  1.0 0.133005437
H  H24  1  0.98833000  0.97680000  0.25893000  1.0 0.133005437
H  H25  1  0.48024000  0.35288000  0.68739000  1.0 0.133005437
H  H26  1  0.51976000  0.64712000  0.31261000  1.0 0.133005437
H  H27  1  0.01976000  0.31261000  0.64712000  1.0 0.133005437
H  H28  1  0.98024000  0.68739000  0.35288000  1.0 0.133005437
C  C1  1  0.85440000  0.48563000  0.87197000  1.0 -0.0805870681
C  C2  1  0.14560000  0.51437000  0.12803000  1.0 -0.0805870681
C  C3  1  0.64560000  0.12803000  0.51437000  1.0 -0.0805870681
C  C4  1  0.35440000  0.87197000  0.48563000  1.0 -0.0805870681
C  C5  1  0.77725000  0.48604000  0.91121000  1.0 -0.0491492688
C  C6  1  0.22275000  0.51396000  0.08879000  1.0 -0.0491492688
C  C7  1  0.72275000  0.08879000  0.51396000  1.0 -0.0491492688
C  C8  1  0.27725000  0.91121000  0.48604000  1.0 -0.0491492688
C  C9  1  0.71541000  0.49416000  0.87202000  1.0 -0.0805870681
C  C10  1  0.28459000  0.50584000  0.12798000  1.0 -0.0805870681
C  C11  1  0.78459000  0.12798000  0.50584000  1.0 -0.0805870681
C  C12  1  0.21541000  0.87202000  0.49416000  1.0 -0.0805870681
C  C13  1  0.73301000  0.49273000  0.79400000  1.0 0.0851306063
C  C14  1  0.26699000  0.50727000  0.20600000  1.0 0.0834229382
C  C15  1  0.76699000  0.20600000  0.50727000  1.0 0.0851306063
C  C16  1  0.23301000  0.79400000  0.49273000  1.0 0.0851306063
C  C17  1  0.81566000  0.48603000  0.75204000  1.0 -0.2114678058
C  C18  1  0.18434000  0.51397000  0.24796000  1.0 -0.2114678058
C  C19  1  0.68434000  0.24796000  0.51397000  1.0 -0.2114678058
C  C20  1  0.31566000  0.75204000  0.48603000  1.0 -0.2114678058
C  C21  1  0.87735000  0.48177000  0.79397000  1.0 0.0851306063
C  C22  1  0.12265000  0.51823000  0.20603000  1.0 0.0834229382
C  C23  1  0.62265000  0.20603000  0.51823000  1.0 0.0851306063
C  C24  1  0.37735000  0.79397000  0.48177000  1.0 0.0834229382
C  C25  1  0.91163000  0.48621000  0.91979000  1.0 0.6007134037
C  C26  1  0.08837000  0.51379000  0.08021000  1.0 0.6007134037
C  C27  1  0.58837000  0.08021000  0.51379000  1.0 0.6007134037
C  C28  1  0.41163000  0.91979000  0.48621000  1.0 0.6007134037
C  C29  1  0.63536000  0.49902000  0.92078000  1.0 0.6007134037
C  C30  1  0.36464000  0.50098000  0.07922000  1.0 0.6007134037
C  C31  1  0.86464000  0.07922000  0.50098000  1.0 0.6007134037
C  C32  1  0.13536000  0.92078000  0.49902000  1.0 0.6007134037
C  C33  1  0.12685000  0.14728000  0.01452000  1.0 -0.0086767902
C  C34  1  0.87315000  0.85272000  0.98548000  1.0 -0.0086767902
C  C35  1  0.37315000  0.98548000  0.85272000  1.0 -0.0086767902
C  C36  1  0.62685000  0.01452000  0.14728000  1.0 -0.0086767902
C  C37  1  0.08879000  0.22483000  0.01245000  1.0 -0.0895016087
C  C38  1  0.91121000  0.77517000  0.98755000  1.0 -0.0895016087
C  C39  1  0.41121000  0.98755000  0.77517000  1.0 -0.0895016087
C  C40  1  0.58879000  0.01245000  0.22483000  1.0 -0.0895016087
C  C41  1  0.13002000  0.28481000  0.00124000  1.0 -0.0424961406
C  C42  1  0.86998000  0.71519000  0.99876000  1.0 -0.0424961406
C  C43  1  0.36998000  0.99876000  0.71519000  1.0 -0.0424961406
C  C44  1  0.63002000  0.00124000  0.28481000  1.0 -0.0424961406
C  C45  1  0.21181000  0.26588000  0.99252000  1.0 0.0560949422
C  C46  1  0.78819000  0.73412000  0.00748000  1.0 0.0560949422
C  C47  1  0.28819000  0.00748000  0.73412000  1.0 0.0560949422
C  C48  1  0.71181000  0.99252000  0.26588000  1.0 0.0560949422
C  C49  1  0.24471000  0.18807000  0.99913000  1.0 -0.0202106932
C  C50  1  0.75529000  0.81193000  0.00087000  1.0 -0.0202106932
C  C51  1  0.25529000  0.00087000  0.81193000  1.0 -0.0202106932
C  C52  1  0.74471000  0.99913000  0.18807000  1.0 -0.0202106932
C  C53  1  0.20851000  0.12624000  0.01100000  1.0 -0.102248251
C  C54  1  0.79149000  0.87376000  0.98900000  1.0 -0.102248251
C  C55  1  0.29149000  0.98900000  0.87376000  1.0 -0.102248251
C  C56  1  0.70851000  0.01100000  0.12624000  1.0 -0.102248251
C  C57  1  0.08128000  0.08793000  0.01595000  1.0 0.5804809895
C  C58  1  0.91872000  0.91207000  0.98405000  1.0 0.5804809895
C  C59  1  0.41872000  0.98405000  0.91207000  1.0 0.5804809895
C  C60  1  0.58128000  0.01595000  0.08793000  1.0 0.5804809895
C  C61  1  0.08309000  0.36666000  0.99748000  1.0 0.5923990425
C  C62  1  0.91691000  0.63334000  0.00252000  1.0 0.5923990425
C  C63  1  0.41691000  0.00252000  0.63334000  1.0 0.5923990425
C  C64  1  0.58309000  0.99748000  0.36666000  1.0 0.5923990425
C  C65  1  0.48420000  0.35952000  0.87448000  1.0 -0.0711935087
C  C66  1  0.51580000  0.64048000  0.12552000  1.0 -0.0711935087
C  C67  1  0.01580000  0.12552000  0.64048000  1.0 -0.0711935087
C  C68  1  0.98420000  0.87448000  0.35952000  1.0 -0.0711935087
C  C69  1  0.48753000  0.27879000  0.91327000  1.0 -0.062212346
C  C70  1  0.51247000  0.72121000  0.08673000  1.0 -0.062212346
C  C71  1  0.01247000  0.08673000  0.72121000  1.0 -0.062212346
C  C72  1  0.98753000  0.91327000  0.27879000  1.0 -0.062212346
C  C73  1  0.49081000  0.22476000  0.87162000  1.0 -0.0711935087
C  C74  1  0.50919000  0.77524000  0.12838000  1.0 -0.0711935087
C  C75  1  0.00919000  0.12838000  0.77524000  1.0 -0.0711935087
C  C76  1  0.99081000  0.87162000  0.22476000  1.0 -0.0711935087
C  C77  1  0.48904000  0.25145000  0.79015000  1.0 0.1014381018
C  C78  1  0.51096000  0.74855000  0.20985000  1.0 0.1014381018
C  C79  1  0.01096000  0.20985000  0.74855000  1.0 0.1014381018
C  C80  1  0.98904000  0.79015000  0.25145000  1.0 0.1014381018
C  C81  1  0.48384000  0.33266000  0.75041000  1.0 -0.1641918006
C  C82  1  0.51616000  0.66734000  0.24959000  1.0 -0.1641918006
C  C83  1  0.01616000  0.24959000  0.66734000  1.0 -0.1661452982
C  C84  1  0.98384000  0.75041000  0.33266000  1.0 -0.1641918006
C  C85  1  0.48266000  0.38195000  0.79501000  1.0 0.0698379879
C  C86  1  0.51734000  0.61805000  0.20499000  1.0 0.0698379879
C  C87  1  0.01734000  0.20499000  0.61805000  1.0 0.0698379879
C  C88  1  0.98266000  0.79501000  0.38195000  1.0 0.0698379879
C  C89  1  0.48509000  0.41430000  0.92129000  1.0 0.6007134037
C  C90  1  0.51491000  0.58570000  0.07871000  1.0 0.6007134037
C  C91  1  0.01491000  0.07871000  0.58570000  1.0 0.6007134037
C  C92  1  0.98509000  0.92129000  0.41430000  1.0 0.6007134037
C  C93  1  0.49705000  0.14006000  0.91766000  1.0 0.5923990425
C  C94  1  0.50295000  0.85994000  0.08234000  1.0 0.5923990425
C  C95  1  0.00295000  0.08234000  0.85994000  1.0 0.5923990425
C  C96  1  0.99705000  0.91766000  0.14006000  1.0 0.5923990425
Br  Br1  1  0.65613000  0.49630000  0.73889000  1.0 -0.0895016087
Br  Br2  1  0.34387000  0.50370000  0.26111000  1.0 -0.0895016087
Br  Br3  1  0.84387000  0.26111000  0.50370000  1.0 -0.0895016087
Br  Br4  1  0.15613000  0.73889000  0.49630000  1.0 -0.0895016087
Br  Br5  1  0.27419000  0.34267000  0.97636000  1.0 -0.062212346
Br  Br6  1  0.72581000  0.65733000  0.02364000  1.0 -0.0711935087
Br  Br7  1  0.22581000  0.02364000  0.65733000  1.0 -0.0711935087
Br  Br8  1  0.77419000  0.97636000  0.34267000  1.0 -0.0711935087
Br  Br9  1  0.48863000  0.18099000  0.73138000  1.0 -0.102248251
Br  Br10  1  0.51137000  0.81901000  0.26862000  1.0 -0.102248251
Br  Br11  1  0.01137000  0.26862000  0.81901000  1.0 -0.102248251
Br  Br12  1  0.98863000  0.73138000  0.18099000  1.0 -0.102248251
O  O1  1  0.89259000  0.46010000  0.99487000  1.0 -0.509077748
O  O2  1  0.10741000  0.53990000  0.00513000  1.0 -0.509077748
O  O3  1  0.60741000  0.00513000  0.53990000  1.0 -0.509077748
O  O4  1  0.39259000  0.99487000  0.46010000  1.0 -0.509077748
O  O5  1  0.97200000  0.51494000  0.88093000  1.0 -0.509077748
O  O6  1  0.02800000  0.48506000  0.11907000  1.0 -0.509077748
O  O7  1  0.52800000  0.11907000  0.48506000  1.0 -0.509077748
O  O8  1  0.47200000  0.88093000  0.51494000  1.0 -0.509077748
O  O9  1  0.62925000  0.44575000  0.98635000  1.0 -0.502600246
O  O10  1  0.37075000  0.55425000  0.01365000  1.0 -0.502600246
O  O11  1  0.87075000  0.01365000  0.55425000  1.0 -0.502600246
O  O12  1  0.12925000  0.98635000  0.44575000  1.0 -0.502600246
O  O13  1  0.11991000  0.02428000  0.99869000  1.0 -0.5191160707
O  O14  1  0.88009000  0.97572000  0.00131000  1.0 -0.5191160707
O  O15  1  0.38009000  0.00131000  0.97572000  1.0 -0.5191160707
O  O16  1  0.61991000  0.99869000  0.02428000  1.0 -0.5191160707
O  O17  1  0.58359000  0.55551000  0.89223000  1.0 -0.502600246
O  O18  1  0.41641000  0.44449000  0.10777000  1.0 -0.502600246
O  O19  1  0.91641000  0.10777000  0.44449000  1.0 -0.502600246
O  O20  1  0.08359000  0.89223000  0.55551000  1.0 -0.502600246
O  O21  1  0.00713000  0.10817000  0.03130000  1.0 -0.5260627749
O  O22  1  0.99287000  0.89183000  0.96870000  1.0 -0.5260627749
O  O23  1  0.49287000  0.96870000  0.89183000  1.0 -0.5260627749
O  O24  1  0.50713000  0.03130000  0.10817000  1.0 -0.5191160707
O  O25  1  0.10427000  0.42348000  0.93988000  1.0 -0.5191160707
O  O26  1  0.89573000  0.57652000  0.06012000  1.0 -0.509077748
O  O27  1  0.39573000  0.06012000  0.57652000  1.0 -0.509077748
O  O28  1  0.60427000  0.93988000  0.42348000  1.0 -0.509077748
O  O29  1  0.02456000  0.36893000  0.05395000  1.0 -0.5191160707
O  O30  1  0.97544000  0.63107000  0.94605000  1.0 -0.5191160707
O  O31  1  0.47544000  0.94605000  0.63107000  1.0 -0.5191160707
O  O32  1  0.52456000  0.05395000  0.36893000  1.0 -0.5191160707
O  O33  1  0.46411000  0.48817000  0.89106000  1.0 -0.502600246
O  O34  1  0.53589000  0.51183000  0.10894000  1.0 -0.502600246
O  O35  1  0.03589000  0.10894000  0.51183000  1.0 -0.502600246
O  O36  1  0.96411000  0.89106000  0.48817000  1.0 -0.502600246
O  O37  1  0.50843000  0.38070000  0.98729000  1.0 -0.5191160707
O  O38  1  0.49157000  0.61930000  0.01271000  1.0 -0.5191160707
O  O39  1  0.99157000  0.01271000  0.61930000  1.0 -0.5191160707
O  O40  1  0.00843000  0.98729000  0.38070000  1.0 -0.5191160707
O  O41  1  0.55601000  0.09172000  0.89461000  1.0 -0.4898401979
O  O42  1  0.44399000  0.90828000  0.10539000  1.0 -0.4898401979
O  O43  1  0.94399000  0.10539000  0.90828000  1.0 -0.4898401979
O  O44  1  0.05601000  0.89461000  0.09172000  1.0 -0.4898401979
O  O45  1  0.44262000  0.12553000  0.97783000  1.0 -0.509077748
O  O46  1  0.55738000  0.87447000  0.02217000  1.0 -0.509077748
O  O47  1  0.05738000  0.02217000  0.87447000  1.0 -0.509077748
O  O48  1  0.94262000  0.97783000  0.12553000  1.0 -0.509077748
