# DDEC6 charges by PACMAN v1.1 (https://github.com/mtap-research/PACMAN-charge/)
data_AGEXAP_FSR_pacman
_symmetry_space_group_name_H-M   'P 1'
_cell_length_a   18.66200000
_cell_length_b   18.66200000
_cell_length_c   11.72400000
_cell_angle_alpha   90.00000000
_cell_angle_beta   90.00000000
_cell_angle_gamma   120.00000000
_symmetry_Int_Tables_number   1
_chemical_formula_structural   CaZn6H45C33S6(N2O7)3
_chemical_formula_sum   'Ca2 Zn12 H90 C66 S12 N12 O42'
_cell_volume   3536.08594172
_cell_formula_units_Z   2
loop_
 _symmetry_equiv_pos_site_id
 _symmetry_equiv_pos_as_xyz
  1  'x, y, z'
loop_
 _atom_site_type_symbol
 _atom_site_label
 _atom_site_symmetry_multiplicity
 _atom_site_fract_x
 _atom_site_fract_y
 _atom_site_fract_z
 _atom_site_occupancy
 _atom_site_charge
Ca  Ca1  1  0.66666667  0.33333333  0.52180000  1.0 1.3960996152
Ca  Ca2  1  0.33333333  0.66666667  0.02180000  1.0 1.3960996152
Zn  Zn1  1  0.60821000  0.45848000  0.67835000  1.0 0.8435348948
Zn  Zn2  1  0.54152000  0.14973000  0.67835000  1.0 0.8435348948
Zn  Zn3  1  0.85027000  0.39179000  0.67835000  1.0 0.8435348948
Zn  Zn4  1  0.39179000  0.54152000  0.17835000  1.0 0.8435348948
Zn  Zn5  1  0.45848000  0.85027000  0.17835000  1.0 0.8435348948
Zn  Zn6  1  0.14973000  0.60821000  0.17835000  1.0 0.8435348948
Zn  Zn7  1  0.38397000  0.53394000  0.86326000  1.0 0.8751858354
Zn  Zn8  1  0.46606000  0.85003000  0.86326000  1.0 0.8751858354
Zn  Zn9  1  0.14997000  0.61603000  0.86326000  1.0 0.8751858354
Zn  Zn10  1  0.61603000  0.46606000  0.36326000  1.0 0.8751858354
Zn  Zn11  1  0.53394000  0.14997000  0.36326000  1.0 0.8751858354
Zn  Zn12  1  0.85003000  0.38397000  0.36326000  1.0 0.8740092993
H  H1  1  0.58862000  0.69868000  0.76771000  1.0 0.1111866452
H  H2  1  0.30132000  0.88994000  0.76771000  1.0 0.1111866452
H  H3  1  0.11006000  0.41138000  0.76771000  1.0 0.1111866452
H  H4  1  0.41138000  0.30132000  0.26771000  1.0 0.1111866452
H  H5  1  0.69868000  0.11006000  0.26771000  1.0 0.1111866452
H  H6  1  0.88994000  0.58862000  0.26771000  1.0 0.1111866452
H  H7  1  0.44377000  0.30367000  0.85789000  1.0 0.1111866452
H  H8  1  0.69633000  0.14010000  0.85789000  1.0 0.1111866452
H  H9  1  0.85990000  0.55623000  0.85789000  1.0 0.1111866452
H  H10  1  0.55623000  0.69633000  0.35789000  1.0 0.1111866452
H  H11  1  0.30367000  0.85990000  0.35789000  1.0 0.1111866452
H  H12  1  0.14010000  0.44377000  0.35789000  1.0 0.1111866452
H  H13  1  0.55387000  0.65730000  0.57028000  1.0 0.1335311165
H  H14  1  0.34270000  0.89657000  0.57028000  1.0 0.1335311165
H  H15  1  0.10343000  0.44613000  0.57028000  1.0 0.1335311165
H  H16  1  0.44613000  0.34270000  0.07028000  1.0 0.1335311165
H  H17  1  0.65730000  0.10343000  0.07028000  1.0 0.1335311165
H  H18  1  0.89657000  0.55387000  0.07028000  1.0 0.1335311165
H  H19  1  0.55272000  0.74113000  0.59052000  1.0 0.1335311165
H  H20  1  0.25887000  0.81159000  0.59052000  1.0 0.1335311165
H  H21  1  0.18841000  0.44728000  0.59052000  1.0 0.1335311165
H  H22  1  0.44728000  0.25887000  0.09052000  1.0 0.1335311165
H  H23  1  0.74113000  0.18841000  0.09052000  1.0 0.1335311165
H  H24  1  0.81159000  0.55272000  0.09052000  1.0 0.1335311165
H  H25  1  0.44320000  0.52081000  0.55324000  1.0 0.1335311165
H  H26  1  0.47919000  0.92239000  0.55324000  1.0 0.1335311165
H  H27  1  0.07761000  0.55680000  0.55324000  1.0 0.1335311165
H  H28  1  0.55680000  0.47919000  0.05324000  1.0 0.1335311165
H  H29  1  0.52081000  0.07761000  0.05324000  1.0 0.1335311165
H  H30  1  0.92239000  0.44320000  0.05324000  1.0 0.1335311165
H  H31  1  0.38266000  0.51010000  0.44981000  1.0 0.1501742623
H  H32  1  0.48990000  0.87256000  0.44981000  1.0 0.1501742623
H  H33  1  0.12744000  0.61734000  0.44981000  1.0 0.1501742623
H  H34  1  0.61734000  0.48990000  0.94981000  1.0 0.1501742623
H  H35  1  0.51010000  0.12744000  0.94981000  1.0 0.1501742623
H  H36  1  0.87256000  0.38266000  0.94981000  1.0 0.1501742623
H  H37  1  0.34815000  0.49175000  0.57773000  1.0 0.1501742623
H  H38  1  0.50825000  0.85640000  0.57773000  1.0 0.1501742623
H  H39  1  0.14360000  0.65185000  0.57773000  1.0 0.1501742623
H  H40  1  0.65185000  0.50825000  0.07773000  1.0 0.1501742623
H  H41  1  0.49175000  0.14360000  0.07773000  1.0 0.1501742623
H  H42  1  0.85640000  0.34815000  0.07773000  1.0 0.1501742623
H  H43  1  0.33741000  0.29237000  0.72967000  1.0 0.1381760866
H  H44  1  0.70763000  0.04504000  0.72967000  1.0 0.1381760866
H  H45  1  0.95496000  0.66259000  0.72967000  1.0 0.1381760866
H  H46  1  0.66259000  0.70763000  0.22967000  1.0 0.1381760866
H  H47  1  0.29237000  0.95496000  0.22967000  1.0 0.1381760866
H  H48  1  0.04504000  0.33741000  0.22967000  1.0 0.1381760866
H  H49  1  0.34054000  0.20868000  0.74173000  1.0 0.1381760866
H  H50  1  0.79132000  0.13186000  0.74173000  1.0 0.1381760866
H  H51  1  0.86814000  0.65946000  0.74173000  1.0 0.1381760866
H  H52  1  0.65946000  0.79132000  0.24173000  1.0 0.1381760866
H  H53  1  0.20868000  0.86814000  0.24173000  1.0 0.1381760866
H  H54  1  0.13186000  0.34054000  0.24173000  1.0 0.1381760866
H  H55  1  0.39609000  0.36205000  0.42087000  1.0 0.1579748621
H  H56  1  0.63795000  0.03404000  0.42087000  1.0 0.1579748621
H  H57  1  0.96596000  0.60391000  0.42087000  1.0 0.1579748621
H  H58  1  0.60391000  0.63795000  0.92087000  1.0 0.1579748621
H  H59  1  0.36205000  0.96596000  0.92087000  1.0 0.1579748621
H  H60  1  0.03404000  0.39609000  0.92087000  1.0 0.1579748621
H  H61  1  0.34215000  0.36379000  0.52583000  1.0 0.1579748621
H  H62  1  0.63621000  0.97836000  0.52583000  1.0 0.1579748621
H  H63  1  0.02164000  0.65785000  0.52583000  1.0 0.1579748621
H  H64  1  0.65785000  0.63621000  0.02583000  1.0 0.1579748621
H  H65  1  0.36379000  0.02164000  0.02583000  1.0 0.1579748621
H  H66  1  0.97836000  0.34215000  0.02583000  1.0 0.1579748621
H  H67  1  0.44054000  0.40669000  0.53751000  1.0 0.1579748621
H  H68  1  0.59331000  0.03385000  0.53751000  1.0 0.1579748621
H  H69  1  0.96615000  0.55946000  0.53751000  1.0 0.1579748621
H  H70  1  0.55946000  0.59331000  0.03751000  1.0 0.1579748621
H  H71  1  0.40669000  0.96615000  0.03751000  1.0 0.1579748621
H  H72  1  0.03385000  0.44054000  0.03751000  1.0 0.1579748621
H  H73  1  0.36294000  0.17217000  0.40295000  1.0 0.1579748621
H  H74  1  0.82783000  0.19077000  0.40295000  1.0 0.1579748621
H  H75  1  0.80923000  0.63706000  0.40295000  1.0 0.1579748621
H  H76  1  0.63706000  0.82783000  0.90295000  1.0 0.1579748621
H  H77  1  0.17217000  0.80923000  0.90295000  1.0 0.1579748621
H  H78  1  0.19077000  0.36294000  0.90295000  1.0 0.1579748621
H  H79  1  0.39135000  0.14364000  0.51462000  1.0 0.1793676397
H  H80  1  0.85636000  0.24771000  0.51462000  1.0 0.1793676397
H  H81  1  0.75229000  0.60865000  0.51462000  1.0 0.1793676397
H  H82  1  0.60865000  0.85636000  0.01462000  1.0 0.1793676397
H  H83  1  0.14364000  0.75229000  0.01462000  1.0 0.1793676397
H  H84  1  0.24771000  0.39135000  0.01462000  1.0 0.1793676397
H  H85  1  0.29711000  0.12137000  0.50085000  1.0 0.1501742623
H  H86  1  0.87863000  0.17574000  0.50085000  1.0 0.1501742623
H  H87  1  0.82426000  0.70289000  0.50085000  1.0 0.1501742623
H  H88  1  0.70289000  0.87863000  0.00085000  1.0 0.1501742623
H  H89  1  0.12137000  0.82426000  0.00085000  1.0 0.1501742623
H  H90  1  0.17574000  0.29711000  0.00085000  1.0 0.1501742623
C  C1  1  0.52230000  0.53860000  0.75280000  1.0 0.353210035
C  C2  1  0.46140000  0.98370000  0.75280000  1.0 0.353210035
C  C3  1  0.01630000  0.47770000  0.75280000  1.0 0.353210035
C  C4  1  0.47770000  0.46140000  0.25280000  1.0 0.353210035
C  C5  1  0.53860000  0.01630000  0.25280000  1.0 0.353210035
C  C6  1  0.98370000  0.52230000  0.25280000  1.0 0.353210035
C  C7  1  0.46850000  0.44850000  0.78840000  1.0 0.353210035
C  C8  1  0.55150000  0.02000000  0.78840000  1.0 0.353210035
C  C9  1  0.98000000  0.53150000  0.78840000  1.0 0.353210035
C  C10  1  0.53150000  0.55150000  0.28840000  1.0 0.353210035
C  C11  1  0.44850000  0.98000000  0.28840000  1.0 0.353210035
C  C12  1  0.02000000  0.46850000  0.28840000  1.0 0.353210035
C  C13  1  0.52930000  0.67150000  0.74380000  1.0 0.0090537344
C  C14  1  0.32850000  0.85780000  0.74380000  1.0 0.0090537344
C  C15  1  0.14220000  0.47070000  0.74380000  1.0 0.0090537344
C  C16  1  0.47070000  0.32850000  0.24380000  1.0 0.0090537344
C  C17  1  0.67150000  0.14220000  0.24380000  1.0 0.0090537344
C  C18  1  0.85780000  0.52930000  0.24380000  1.0 0.0090537344
C  C19  1  0.48710000  0.71280000  0.80220000  1.0 0.5769240141
C  C20  1  0.28720000  0.77430000  0.80220000  1.0 0.5769240141
C  C21  1  0.22570000  0.51290000  0.80220000  1.0 0.5769240141
C  C22  1  0.51290000  0.28720000  0.30220000  1.0 0.5769240141
C  C23  1  0.71280000  0.22570000  0.30220000  1.0 0.5769240141
C  C24  1  0.77430000  0.48710000  0.30220000  1.0 0.5769240141
C  C25  1  0.51030000  0.28010000  0.73460000  1.0 0.5730355064
C  C26  1  0.71990000  0.23020000  0.73460000  1.0 0.5730355064
C  C27  1  0.76980000  0.48970000  0.73460000  1.0 0.5730355064
C  C28  1  0.48970000  0.71990000  0.23460000  1.0 0.5730355064
C  C29  1  0.28010000  0.76980000  0.23460000  1.0 0.5730355064
C  C30  1  0.23020000  0.51030000  0.23460000  1.0 0.5730355064
C  C31  1  0.45350000  0.31310000  0.77400000  1.0 0.0257069607
C  C32  1  0.68690000  0.14040000  0.77400000  1.0 0.0257069607
C  C33  1  0.85960000  0.54650000  0.77400000  1.0 0.0257069607
C  C34  1  0.54650000  0.68690000  0.27400000  1.0 0.0257069607
C  C35  1  0.31310000  0.85960000  0.27400000  1.0 0.0257069607
C  C36  1  0.14040000  0.45350000  0.27400000  1.0 0.0257069607
C  C37  1  0.52330000  0.68130000  0.60840000  1.0 -0.254199472
C  C38  1  0.31870000  0.84200000  0.60840000  1.0 -0.254199472
C  C39  1  0.15800000  0.47670000  0.60840000  1.0 -0.254199472
C  C40  1  0.47670000  0.31870000  0.10840000  1.0 -0.254199472
C  C41  1  0.68130000  0.15800000  0.10840000  1.0 -0.254199472
C  C42  1  0.84200000  0.52330000  0.10840000  1.0 -0.254199472
C  C43  1  0.39610000  0.52690000  0.53000000  1.0 -0.4374600469
C  C44  1  0.47310000  0.86920000  0.53000000  1.0 -0.4374600469
C  C45  1  0.13080000  0.60390000  0.53000000  1.0 -0.4374600469
C  C46  1  0.60390000  0.47310000  0.03000000  1.0 -0.4374600469
C  C47  1  0.52690000  0.13080000  0.03000000  1.0 -0.4374600469
C  C48  1  0.86920000  0.39610000  0.03000000  1.0 -0.4374600469
C  C49  1  0.37080000  0.26600000  0.71200000  1.0 -0.3016385803
C  C50  1  0.73400000  0.10480000  0.71200000  1.0 -0.3016385803
C  C51  1  0.89520000  0.62920000  0.71200000  1.0 -0.3016385803
C  C52  1  0.62920000  0.73400000  0.21200000  1.0 -0.3016385803
C  C53  1  0.26600000  0.89520000  0.21200000  1.0 -0.3016385803
C  C54  1  0.10480000  0.37080000  0.21200000  1.0 -0.3016385803
C  C55  1  0.39100000  0.36000000  0.50400000  1.0 -0.5008285264
C  C56  1  0.64000000  0.03100000  0.50400000  1.0 -0.5008285264
C  C57  1  0.96900000  0.60900000  0.50400000  1.0 -0.5008285264
C  C58  1  0.60900000  0.64000000  0.00400000  1.0 -0.5008285264
C  C59  1  0.36000000  0.96900000  0.00400000  1.0 -0.5008285264
C  C60  1  0.03100000  0.39100000  0.00400000  1.0 -0.5008285264
C  C61  1  0.35500000  0.16300000  0.48500000  1.0 -0.4495028376
C  C62  1  0.83700000  0.19200000  0.48500000  1.0 -0.4495028376
C  C63  1  0.80800000  0.64500000  0.48500000  1.0 -0.4495028376
C  C64  1  0.64500000  0.83700000  0.98500000  1.0 -0.4495028376
C  C65  1  0.16300000  0.80800000  0.98500000  1.0 -0.4495028376
C  C66  1  0.19200000  0.35500000  0.98500000  1.0 -0.4495028376
S  S1  1  0.42300000  0.63600000  0.54560000  1.0 -0.0062765085
S  S2  1  0.36400000  0.78700000  0.54560000  1.0 -0.0062765085
S  S3  1  0.21300000  0.57700000  0.54560000  1.0 -0.0062765085
S  S4  1  0.57700000  0.36400000  0.04560000  1.0 -0.0043203781
S  S5  1  0.63600000  0.21300000  0.04560000  1.0 -0.0062765085
S  S6  1  0.78700000  0.42300000  0.04560000  1.0 -0.0043203781
S  S7  1  0.37970000  0.26210000  0.55730000  1.0 0.3774766744
S  S8  1  0.73790000  0.11760000  0.55730000  1.0 0.3852217675
S  S9  1  0.88240000  0.62030000  0.55730000  1.0 0.3774766744
S  S10  1  0.62030000  0.73790000  0.05730000  1.0 0.3774766744
S  S11  1  0.26210000  0.88240000  0.05730000  1.0 0.3774766744
S  S12  1  0.11760000  0.37970000  0.05730000  1.0 0.3774766744
N  N1  1  0.48820000  0.58560000  0.77220000  1.0 -0.4495028376
N  N2  1  0.41440000  0.90260000  0.77220000  1.0 -0.4495028376
N  N3  1  0.09740000  0.51180000  0.77220000  1.0 -0.4495028376
N  N4  1  0.51180000  0.41440000  0.27220000  1.0 -0.4495028376
N  N5  1  0.58560000  0.09740000  0.27220000  1.0 -0.4495028376
N  N6  1  0.90260000  0.48820000  0.27220000  1.0 -0.4495028376
N  N7  1  0.49570000  0.40180000  0.75140000  1.0 -0.4374600469
N  N8  1  0.59820000  0.09390000  0.75140000  1.0 -0.4349900007
N  N9  1  0.90610000  0.50430000  0.75140000  1.0 -0.4349900007
N  N10  1  0.50430000  0.59820000  0.25140000  1.0 -0.4374600469
N  N11  1  0.40180000  0.90610000  0.25140000  1.0 -0.4349900007
N  N12  1  0.09390000  0.49570000  0.25140000  1.0 -0.4349900007
O  O1  1  0.59010000  0.56160000  0.70330000  1.0 -0.4556980997
O  O2  1  0.43840000  0.02850000  0.70330000  1.0 -0.4556980997
O  O3  1  0.97150000  0.40990000  0.70330000  1.0 -0.4556980997
O  O4  1  0.40990000  0.43840000  0.20330000  1.0 -0.4556980997
O  O5  1  0.56160000  0.97150000  0.20330000  1.0 -0.4556980997
O  O6  1  0.02850000  0.59010000  0.20330000  1.0 -0.4556980997
O  O7  1  0.40140000  0.42900000  0.84640000  1.0 -0.479423515
O  O8  1  0.57100000  0.97240000  0.84640000  1.0 -0.479423515
O  O9  1  0.02760000  0.59860000  0.84640000  1.0 -0.479423515
O  O10  1  0.59860000  0.57100000  0.34640000  1.0 -0.479423515
O  O11  1  0.42900000  0.02760000  0.34640000  1.0 -0.479423515
O  O12  1  0.97240000  0.40140000  0.34640000  1.0 -0.479423515
O  O13  1  0.42740000  0.66970000  0.87120000  1.0 -0.5471094171
O  O14  1  0.33030000  0.75770000  0.87120000  1.0 -0.5471094171
O  O15  1  0.24230000  0.57260000  0.87120000  1.0 -0.5471094171
O  O16  1  0.57260000  0.33030000  0.37120000  1.0 -0.5471094171
O  O17  1  0.66970000  0.24230000  0.37120000  1.0 -0.5471094171
O  O18  1  0.75770000  0.42740000  0.37120000  1.0 -0.5471094171
O  O19  1  0.34750000  0.52730000  0.02230000  1.0 -0.7677489042
O  O20  1  0.47270000  0.82020000  0.02230000  1.0 -0.7677489042
O  O21  1  0.17980000  0.65250000  0.02230000  1.0 -0.7677489042
O  O22  1  0.65250000  0.47270000  0.52230000  1.0 -0.7677489042
O  O23  1  0.52730000  0.17980000  0.52230000  1.0 -0.7677489042
O  O24  1  0.82020000  0.34750000  0.52230000  1.0 -0.7677489042
O  O25  1  0.57150000  0.32540000  0.67470000  1.0 -0.521438382
O  O26  1  0.67460000  0.24610000  0.67470000  1.0 -0.521438382
O  O27  1  0.75390000  0.42850000  0.67470000  1.0 -0.521438382
O  O28  1  0.42850000  0.67460000  0.17470000  1.0 -0.521438382
O  O29  1  0.32540000  0.75390000  0.17470000  1.0 -0.521438382
O  O30  1  0.24610000  0.57150000  0.17470000  1.0 -0.521438382
O  O31  1  0.48880000  0.20690000  0.76140000  1.0 -0.4874808609
O  O32  1  0.79310000  0.28190000  0.76140000  1.0 -0.4874808609
O  O33  1  0.71810000  0.51120000  0.76140000  1.0 -0.4874808609
O  O34  1  0.51120000  0.79310000  0.26140000  1.0 -0.4874808609
O  O35  1  0.20690000  0.71810000  0.26140000  1.0 -0.4874808609
O  O36  1  0.28190000  0.48880000  0.26140000  1.0 -0.4874808609
O  O37  1  0.51620000  0.79140000  0.78340000  1.0 -0.521438382
O  O38  1  0.20860000  0.72480000  0.78340000  1.0 -0.521438382
O  O39  1  0.27520000  0.48380000  0.78340000  1.0 -0.521438382
O  O40  1  0.48380000  0.20860000  0.28340000  1.0 -0.521438382
O  O41  1  0.79140000  0.27520000  0.28340000  1.0 -0.521438382
O  O42  1  0.72480000  0.51620000  0.28340000  1.0 -0.521438382
