# DDEC6 charges by PACMAN v1.1 (https://github.com/mtap-research/PACMAN-charge/)
data_AGOVOJ_ASR_pacman
_symmetry_space_group_name_H-M   'P 1'
_cell_length_a   25.08540000
_cell_length_b   25.08540000
_cell_length_c   25.08540000
_cell_angle_alpha   109.23500000
_cell_angle_beta   109.23500000
_cell_angle_gamma   109.94500000
_symmetry_Int_Tables_number   1
_chemical_formula_structural   In3C47N3O11
_chemical_formula_sum   'In12 C188 N12 O44'
_cell_volume   12151.14836259
_cell_formula_units_Z   4
loop_
 _symmetry_equiv_pos_site_id
 _symmetry_equiv_pos_as_xyz
  1  'x, y, z'
loop_
 _atom_site_type_symbol
 _atom_site_label
 _atom_site_symmetry_multiplicity
 _atom_site_fract_x
 _atom_site_fract_y
 _atom_site_fract_z
 _atom_site_occupancy
 _atom_site_charge
In  In1  1  0.59365000  0.17544000  0.99999000  1.0 1.454429528
In  In2  1  0.17545000  0.59366000  0.00001000  1.0 1.454429528
In  In3  1  0.40634000  0.40635000  0.58179000  1.0 1.454429528
In  In4  1  0.82456000  0.82455000  0.41821000  1.0 1.454429528
In  In5  1  0.50711000  0.18461000  0.08526000  1.0 1.3705728659
In  In6  1  0.09935000  0.42185000  0.91474000  1.0 1.3705728659
In  In7  1  0.57815000  0.49289000  0.67750000  1.0 1.3790008037
In  In8  1  0.81539000  0.90065000  0.32250000  1.0 1.3705728659
In  In9  1  0.42194000  0.09930000  0.91482000  1.0 1.4302945345
In  In10  1  0.18448000  0.50712000  0.08518000  1.0 1.4302945345
In  In11  1  0.49288000  0.57806000  0.67736000  1.0 1.4302945345
In  In12  1  0.90070000  0.81552000  0.32264000  1.0 1.4302945345
C  C1  1  0.63330000  0.30690000  0.11720000  1.0 0.6501617788
C  C2  1  0.18970000  0.51610000  0.88280000  1.0 0.6501617788
C  C3  1  0.48390000  0.36670000  0.67360000  1.0 0.6501617788
C  C4  1  0.69310000  0.81030000  0.32640000  1.0 0.6501617788
C  C5  1  0.49690000  0.96840000  0.85190000  1.0 -0.0897245125
C  C6  1  0.11650000  0.64500000  0.14810000  1.0 -0.0897245125
C  C7  1  0.35500000  0.50310000  0.47150000  1.0 -0.0897245125
C  C8  1  0.03160000  0.88350000  0.52850000  1.0 -0.0897245125
C  C9  1  0.50030000  0.02930000  0.88700000  1.0 0.6501617788
C  C10  1  0.14230000  0.61330000  0.11300000  1.0 0.6501617788
C  C11  1  0.38670000  0.49970000  0.52900000  1.0 0.6501617788
C  C12  1  0.97070000  0.85770000  0.47100000  1.0 0.6501617788
C  C13  1  0.64650000  0.11780000  0.14910000  1.0 -0.098988353
C  C14  1  0.96870000  0.49740000  0.85090000  1.0 -0.098988353
C  C15  1  0.50260000  0.35350000  0.47130000  1.0 -0.098988353
C  C16  1  0.88220000  0.03130000  0.52870000  1.0 -0.098988353
C  C17  1  0.61500000  0.14480000  0.11660000  1.0 0.6420681923
C  C18  1  0.02820000  0.49840000  0.88340000  1.0 0.6420681923
C  C19  1  0.50160000  0.38500000  0.52980000  1.0 0.6420681923
C  C20  1  0.85520000  0.97180000  0.47020000  1.0 0.6420681923
C  C21  1  0.70350000  0.05900000  0.20890000  1.0 0.0511813289
C  C22  1  0.85010000  0.49460000  0.79110000  1.0 0.0511813289
C  C23  1  0.50540000  0.29650000  0.35550000  1.0 0.0511813289
C  C24  1  0.94100000  0.14990000  0.64450000  1.0 0.0511813289
C  C25  1  0.77810000  0.62260000  0.29670000  1.0 -0.0835095846
C  C26  1  0.32590000  0.48140000  0.70330000  1.0 -0.0835095846
C  C27  1  0.51860000  0.22190000  0.84450000  1.0 -0.0835095846
C  C28  1  0.37740000  0.67410000  0.15550000  1.0 -0.0835095846
C  C29  1  0.67350000  0.37650000  0.15400000  1.0 -0.1110300885
C  C30  1  0.22250000  0.51950000  0.84600000  1.0 -0.1110300885
C  C31  1  0.48050000  0.32650000  0.70300000  1.0 -0.1110300885
C  C32  1  0.62350000  0.77750000  0.29700000  1.0 -0.1110300885
C  C33  1  0.74760000  0.20180000  0.94580000  1.0 -0.1510280188
C  C34  1  0.25600000  0.80180000  0.05420000  1.0 -0.1430611254
C  C35  1  0.19820000  0.25240000  0.45420000  1.0 -0.1430611254
C  C36  1  0.79820000  0.74400000  0.54580000  1.0 -0.1510280188
C  C37  1  0.80320000  0.26270000  0.05510000  1.0 -0.1510280188
C  C38  1  0.20760000  0.74810000  0.94490000  1.0 -0.1510280188
C  C39  1  0.25190000  0.19680000  0.45950000  1.0 -0.1510280188
C  C40  1  0.73730000  0.79240000  0.54050000  1.0 -0.1510280188
C  C41  1  0.74380000  0.23930000  0.05690000  1.0 0.1315980836
C  C42  1  0.18240000  0.68690000  0.94310000  1.0 0.1370839436
C  C43  1  0.31310000  0.25620000  0.49550000  1.0 0.1370839436
C  C44  1  0.76070000  0.81760000  0.50450000  1.0 0.1370839436
C  C45  1  0.70010000  0.11640000  0.14790000  1.0 0.0220973327
C  C46  1  0.96850000  0.55220000  0.85210000  1.0 0.0220973327
C  C47  1  0.44780000  0.29990000  0.41630000  1.0 0.0220973327
C  C48  1  0.88360000  0.03150000  0.58370000  1.0 0.0220973327
C  C49  1  0.04020000  0.38610000  0.00110000  1.0 0.6346236675
C  C50  1  0.38500000  0.03910000  0.99890000  1.0 0.6346236675
C  C51  1  0.96090000  0.95980000  0.34590000  1.0 0.6420681923
C  C52  1  0.61390000  0.61500000  0.65410000  1.0 0.6346236675
C  C53  1  0.54870000  0.96540000  0.84350000  1.0 -0.0180936997
C  C54  1  0.12190000  0.70520000  0.15650000  1.0 -0.0180936997
C  C55  1  0.29480000  0.45130000  0.41670000  1.0 -0.0180936997
C  C56  1  0.03460000  0.87810000  0.58330000  1.0 -0.0180936997
C  C57  1  0.73100000  0.09200000  0.18260000  1.0 0.0103770292
C  C58  1  0.90940000  0.54840000  0.81740000  1.0 0.0103770292
C  C59  1  0.45160000  0.26900000  0.36100000  1.0 0.0103770292
C  C60  1  0.90800000  0.09060000  0.63900000  1.0 0.0103770292
C  C61  1  0.68780000  0.18330000  0.94230000  1.0 0.0662086106
C  C62  1  0.24100000  0.74550000  0.05770000  1.0 0.0662086106
C  C63  1  0.25450000  0.31220000  0.49550000  1.0 0.0662086106
C  C64  1  0.81670000  0.75900000  0.50450000  1.0 0.0662086106
C  C65  1  0.81190000  0.69510000  0.32900000  1.0 0.658712229
C  C66  1  0.36610000  0.48290000  0.67100000  1.0 0.658712229
C  C67  1  0.51710000  0.18810000  0.88320000  1.0 0.658712229
C  C68  1  0.30490000  0.63390000  0.11680000  1.0 0.658712229
C  C69  1  0.86950000  0.27980000  0.99990000  1.0 0.078425535
C  C70  1  0.27990000  0.86960000  0.00010000  1.0 0.0869977098
C  C71  1  0.13040000  0.13050000  0.41030000  1.0 0.0869977098
C  C72  1  0.72020000  0.72010000  0.58970000  1.0 0.078425535
C  C73  1  0.49460000  0.85180000  0.78920000  1.0 0.1006430491
C  C74  1  0.06260000  0.70540000  0.21080000  1.0 0.1006430491
C  C75  1  0.29460000  0.50540000  0.35720000  1.0 0.1006430491
C  C76  1  0.14820000  0.93740000  0.64280000  1.0 0.1006430491
C  C77  1  0.92430000  0.30290000  0.94420000  1.0 -0.0309142052
C  C78  1  0.35870000  0.98010000  0.05580000  1.0 -0.0180936997
C  C79  1  0.01990000  0.07570000  0.37860000  1.0 -0.0180936997
C  C80  1  0.69710000  0.64130000  0.62140000  1.0 -0.0180936997
C  C81  1  0.98360000  0.34770000  0.99930000  1.0 -0.1110300885
C  C82  1  0.34840000  0.98430000  0.00070000  1.0 -0.1110300885
C  C83  1  0.01570000  0.01640000  0.36410000  1.0 -0.1110300885
C  C84  1  0.65230000  0.65160000  0.63590000  1.0 -0.1110300885
C  C85  1  0.70650000  0.48390000  0.23340000  1.0 0.078425535
C  C86  1  0.25050000  0.47310000  0.76660000  1.0 0.078425535
C  C87  1  0.52690000  0.29350000  0.77740000  1.0 0.078425535
C  C88  1  0.51610000  0.74950000  0.22260000  1.0 0.078425535
C  C89  1  0.80290000  0.25130000  0.99760000  1.0 0.1986878573
C  C90  1  0.25370000  0.80530000  0.00240000  1.0 0.182207245
C  C91  1  0.19470000  0.19710000  0.44840000  1.0 0.1899904518
C  C92  1  0.74870000  0.74630000  0.55160000  1.0 0.182207245
C  C93  1  0.97810000  0.35720000  0.05410000  1.0 -0.0082163063
C  C94  1  0.30310000  0.92400000  0.94590000  1.0 -0.0180936997
C  C95  1  0.07600000  0.02190000  0.37910000  1.0 -0.0180936997
C  C96  1  0.64280000  0.69690000  0.62090000  1.0 -0.0180936997
C  C97  1  0.78640000  0.58340000  0.25540000  1.0 -0.0573342359
C  C98  1  0.32800000  0.53100000  0.74460000  1.0 -0.0513060338
C  C99  1  0.46900000  0.21360000  0.79700000  1.0 -0.0513060338
C  C100  1  0.41660000  0.67200000  0.20300000  1.0 -0.0573342359
C  C101  1  0.75190000  0.51540000  0.22290000  1.0 0.0431394934
C  C102  1  0.29250000  0.52900000  0.77710000  1.0 0.0431394934
C  C103  1  0.47100000  0.24810000  0.76350000  1.0 0.0431394934
C  C104  1  0.48460000  0.70750000  0.23650000  1.0 0.0511813289
C  C105  1  0.67000000  0.41680000  0.20140000  1.0 -0.0405433646
C  C106  1  0.21540000  0.46860000  0.79860000  1.0 -0.0405433646
C  C107  1  0.53140000  0.33000000  0.74680000  1.0 -0.0405433646
C  C108  1  0.58320000  0.78460000  0.25320000  1.0 -0.0405433646
C  C109  1  0.54820000  0.90810000  0.81870000  1.0 -0.0405433646
C  C110  1  0.08940000  0.72950000  0.18130000  1.0 -0.0405433646
C  C111  1  0.27050000  0.45180000  0.35990000  1.0 -0.0405433646
C  C112  1  0.09190000  0.91060000  0.64010000  1.0 -0.0513060338
C  C113  1  0.62620000  0.09320000  0.18320000  1.0 -0.0082163063
C  C114  1  0.91000000  0.44300000  0.81680000  1.0 -0.0180936997
C  C115  1  0.55700000  0.37380000  0.46700000  1.0 -0.0082163063
C  C116  1  0.90680000  0.09000000  0.53300000  1.0 -0.0082163063
C  C117  1  0.44310000  0.91120000  0.82490000  1.0 0.0103770292
C  C118  1  0.08630000  0.61820000  0.17510000  1.0 0.0103770292
C  C119  1  0.38180000  0.55690000  0.46810000  1.0 0.0103770292
C  C120  1  0.08880000  0.91370000  0.53190000  1.0 0.0103770292
C  C121  1  0.92820000  0.32300000  0.05900000  1.0 -0.0513060338
C  C122  1  0.26400000  0.86920000  0.94100000  1.0 -0.0513060338
C  C123  1  0.13080000  0.07180000  0.39480000  1.0 -0.0513060338
C  C124  1  0.67700000  0.73600000  0.60520000  1.0 -0.0513060338
C  C125  1  0.86840000  0.27040000  0.94220000  1.0 -0.0180936997
C  C126  1  0.32820000  0.92620000  0.05780000  1.0 -0.0309142052
C  C127  1  0.07380000  0.13160000  0.40200000  1.0 -0.0309142052
C  C128  1  0.72960000  0.67180000  0.59800000  1.0 -0.0180936997
C  C129  1  0.50280000  0.78810000  0.76910000  1.0 0.0869977098
C  C130  1  0.01900000  0.73370000  0.23090000  1.0 0.0869977098
C  C131  1  0.26630000  0.49720000  0.28530000  1.0 0.0869977098
C  C132  1  0.21190000  0.98100000  0.71470000  1.0 0.1006430491
C  C133  1  0.43950000  0.85110000  0.78740000  1.0 -0.0046837308
C  C134  1  0.06370000  0.65210000  0.21260000  1.0 -0.0082163063
C  C135  1  0.34790000  0.56050000  0.41160000  1.0 -0.0082163063
C  C136  1  0.14890000  0.93630000  0.58840000  1.0 -0.0082163063
C  C137  1  0.73370000  0.59570000  0.31200000  1.0 -0.0082163063
C  C138  1  0.28370000  0.42170000  0.68800000  1.0 -0.0082163063
C  C139  1  0.57830000  0.26630000  0.86200000  1.0 -0.0082163063
C  C140  1  0.40430000  0.71630000  0.13800000  1.0 -0.0082163063
C  C141  1  0.65200000  0.06210000  0.21170000  1.0 -0.0082163063
C  C142  1  0.85040000  0.44030000  0.78830000  1.0 0.0013525301
C  C143  1  0.55970000  0.34800000  0.41010000  1.0 -0.0082163063
C  C144  1  0.93790000  0.14960000  0.58990000  1.0 -0.0082163063
C  C145  1  0.71010000  0.51310000  0.28700000  1.0 -0.0573342359
C  C146  1  0.22610000  0.42310000  0.71300000  1.0 -0.0573342359
C  C147  1  0.57690000  0.28990000  0.80300000  1.0 -0.0573342359
C  C148  1  0.48690000  0.77390000  0.19700000  1.0 -0.0573342359
C  C149  1  0.71850000  0.40240000  0.13790000  1.0 0.0511813289
C  C150  1  0.26450000  0.58060000  0.86210000  1.0 0.0511813289
C  C151  1  0.41940000  0.28150000  0.68390000  1.0 0.0511813289
C  C152  1  0.59760000  0.73550000  0.31610000  1.0 0.0511813289
C  C153  1  0.76110000  0.48070000  0.17960000  1.0 0.0013525301
C  C154  1  0.30110000  0.58150000  0.82040000  1.0 -0.0082163063
C  C155  1  0.41850000  0.23890000  0.71960000  1.0 0.0013525301
C  C156  1  0.51930000  0.69890000  0.28040000  1.0 -0.0082163063
C  C157  1  0.72590000  0.01860000  0.23090000  1.0 0.1986878573
C  C158  1  0.78770000  0.49500000  0.76910000  1.0 0.1899904518
C  C159  1  0.50500000  0.27410000  0.29270000  1.0 0.1899904518
C  C160  1  0.98140000  0.21230000  0.70730000  1.0 0.1899904518
C  C161  1  0.72930000  0.92390000  0.23660000  1.0 0.078425535
C  C162  1  0.68730000  0.49270000  0.76340000  1.0 0.0869977098
C  C163  1  0.50730000  0.27070000  0.19460000  1.0 0.078425535
C  C164  1  0.07610000  0.31270000  0.80540000  1.0 0.078425535
C  C165  1  0.78540000  0.04100000  0.27680000  1.0 -0.2274600258
C  C166  1  0.76420000  0.50860000  0.72320000  1.0 -0.2274600258
C  C167  1  0.49140000  0.21460000  0.25560000  1.0 -0.2222259433
C  C168  1  0.95900000  0.23580000  0.74440000  1.0 -0.2222259433
C  C169  1  0.50980000  0.76750000  0.71950000  1.0 -0.1315623463
C  C170  1  0.04800000  0.79030000  0.28050000  1.0 -0.1315623463
C  C171  1  0.20970000  0.49020000  0.25770000  1.0 -0.1315623463
C  C172  1  0.23250000  0.95200000  0.74230000  1.0 -0.1430611254
C  C173  1  0.80370000  0.01000000  0.30770000  1.0 0.1083544105
C  C174  1  0.70230000  0.49600000  0.69230000  1.0 0.1083544105
C  C175  1  0.50400000  0.19630000  0.20630000  1.0 0.1083544105
C  C176  1  0.99000000  0.29770000  0.79370000  1.0 0.1083544105
C  C177  1  0.48500000  0.70800000  0.76900000  1.0 -0.098988353
C  C178  1  0.93900000  0.71600000  0.23100000  1.0 -0.098988353
C  C179  1  0.28400000  0.51500000  0.22300000  1.0 -0.098988353
C  C180  1  0.29200000  0.06100000  0.77700000  1.0 -0.098988353
C  C181  1  0.50950000  0.70580000  0.69690000  1.0 0.182207245
C  C182  1  0.00890000  0.81260000  0.30310000  1.0 0.182207245
C  C183  1  0.18740000  0.49050000  0.19630000  1.0 0.182207245
C  C184  1  0.29420000  0.99110000  0.80370000  1.0 0.182207245
C  C185  1  0.68550000  0.94570000  0.20180000  1.0 -0.2085281552
C  C186  1  0.74390000  0.48370000  0.79820000  1.0 -0.2274600258
C  C187  1  0.51630000  0.31450000  0.26020000  1.0 -0.2085281552
C  C188  1  0.05430000  0.25610000  0.73980000  1.0 -0.2085281552
N  N1  1  0.68510000  0.20010000  0.00020000  1.0 -0.3052224011
N  N2  1  0.19990000  0.68490000  0.99980000  1.0 -0.3052224011
N  N3  1  0.31510000  0.31490000  0.51500000  1.0 -0.3052224011
N  N4  1  0.79990000  0.80010000  0.48500000  1.0 -0.3041819722
N  N5  1  0.49110000  0.67080000  0.71230000  1.0 -0.1683234402
N  N6  1  0.95850000  0.77880000  0.28770000  1.0 -0.1683234402
N  N7  1  0.22120000  0.50890000  0.17970000  1.0 -0.1683234402
N  N8  1  0.32920000  0.04150000  0.82030000  1.0 -0.1683234402
N  N9  1  0.77670000  0.95580000  0.28730000  1.0 -0.1588408776
N  N10  1  0.66850000  0.48940000  0.71270000  1.0 -0.1588408776
N  N11  1  0.51060000  0.22330000  0.17910000  1.0 -0.1588408776
N  N12  1  0.04420000  0.33150000  0.82090000  1.0 -0.1588408776
O  O1  1  0.50740000  0.15240000  0.99940000  1.0 -1.0448457987
O  O2  1  0.15300000  0.50800000  0.00060000  1.0 -1.0448457987
O  O3  1  0.49200000  0.49260000  0.64500000  1.0 -1.0463106425
O  O4  1  0.84760000  0.84700000  0.35500000  1.0 -1.0463106425
O  O5  1  0.55580000  0.07870000  0.92430000  1.0 -0.5370982082
O  O6  1  0.15440000  0.63150000  0.07570000  1.0 -0.5342955978
O  O7  1  0.36850000  0.44420000  0.52290000  1.0 -0.5370982082
O  O8  1  0.92130000  0.84560000  0.47710000  1.0 -0.5370982082
O  O9  1  0.44510000  0.02570000  0.87460000  1.0 -0.549210237
O  O10  1  0.15110000  0.57050000  0.12540000  1.0 -0.549210237
O  O11  1  0.42950000  0.55490000  0.58060000  1.0 -0.549210237
O  O12  1  0.97430000  0.84890000  0.41940000  1.0 -0.549210237
O  O13  1  0.57130000  0.15090000  0.12520000  1.0 -0.5134095143
O  O14  1  0.02570000  0.44610000  0.87480000  1.0 -0.5134095143
O  O15  1  0.55390000  0.42870000  0.57960000  1.0 -0.5153455527
O  O16  1  0.84910000  0.97430000  0.42040000  1.0 -0.5134095143
O  O17  1  0.64110000  0.27630000  0.07180000  1.0 -0.549210237
O  O18  1  0.20450000  0.56930000  0.92820000  1.0 -0.549210237
O  O19  1  0.43070000  0.35890000  0.63520000  1.0 -0.549210237
O  O20  1  0.72370000  0.79550000  0.36480000  1.0 -0.549210237
O  O21  1  0.79660000  0.72590000  0.36650000  1.0 -0.549210237
O  O22  1  0.35940000  0.43010000  0.63350000  1.0 -0.549210237
O  O23  1  0.56990000  0.20340000  0.92930000  1.0 -0.549210237
O  O24  1  0.27410000  0.64060000  0.07070000  1.0 -0.549210237
O  O25  1  0.63090000  0.15480000  0.07590000  1.0 -0.5716374607
O  O26  1  0.07890000  0.55500000  0.92410000  1.0 -0.5716374607
O  O27  1  0.44500000  0.36910000  0.52390000  1.0 -0.5716374607
O  O28  1  0.84520000  0.92110000  0.47610000  1.0 -0.5716374607
O  O29  1  0.09150000  0.42770000  0.05400000  1.0 -0.5601908208
O  O30  1  0.37370000  0.03750000  0.94600000  1.0 -0.5601908208
O  O31  1  0.96250000  0.90850000  0.33620000  1.0 -0.5601908208
O  O32  1  0.57230000  0.62630000  0.66380000  1.0 -0.5601908208
O  O33  1  0.03690000  0.37180000  0.94510000  1.0 -0.5716374607
O  O34  1  0.42670000  0.09180000  0.05490000  1.0 -0.5716374607
O  O35  1  0.90820000  0.96310000  0.33490000  1.0 -0.5716374607
O  O36  1  0.62820000  0.57330000  0.66510000  1.0 -0.5716374607
O  O37  1  0.58960000  0.27960000  0.12800000  1.0 -0.5370982082
O  O38  1  0.15160000  0.46160000  0.87200000  1.0 -0.5370982082
O  O39  1  0.53840000  0.41040000  0.69000000  1.0 -0.5370982082
O  O40  1  0.72040000  0.84840000  0.31000000  1.0 -0.5370982082
O  O41  1  0.84950000  0.71990000  0.31100000  1.0 -0.549210237
O  O42  1  0.40890000  0.53850000  0.68900000  1.0 -0.549210237
O  O43  1  0.46150000  0.15050000  0.87040000  1.0 -0.549210237
O  O44  1  0.28010000  0.59110000  0.12960000  1.0 -0.549210237
