# DDEC6 charges by PACMAN v1.1 (https://github.com/mtap-research/PACMAN-charge/)
data_AGUBUA_FSR_pacman
_symmetry_space_group_name_H-M   'P 1'
_cell_length_a   10.08900000
_cell_length_b   13.98800000
_cell_length_c   14.78900000
_cell_angle_alpha   90.00000000
_cell_angle_beta   90.00000000
_cell_angle_gamma   90.00000000
_symmetry_Int_Tables_number   1
_chemical_formula_structural   Zn3P6(HO6)2
_chemical_formula_sum   'Zn12 P24 H8 O48'
_cell_volume   2087.09661935
_cell_formula_units_Z   4
loop_
 _symmetry_equiv_pos_site_id
 _symmetry_equiv_pos_as_xyz
  1  'x, y, z'
loop_
 _atom_site_type_symbol
 _atom_site_label
 _atom_site_symmetry_multiplicity
 _atom_site_fract_x
 _atom_site_fract_y
 _atom_site_fract_z
 _atom_site_occupancy
 _atom_site_charge
Zn  Zn1  1  0.04048000  0.10600000  0.41273000  1.0 1.0005521564
Zn  Zn2  1  0.45952000  0.60600000  0.08727000  1.0 1.0005521564
Zn  Zn3  1  0.95952000  0.39400000  0.41273000  1.0 1.0005521564
Zn  Zn4  1  0.54048000  0.89400000  0.08727000  1.0 1.0005521564
Zn  Zn5  1  0.95952000  0.89400000  0.58727000  1.0 1.0005521564
Zn  Zn6  1  0.54048000  0.39400000  0.91273000  1.0 1.0005521564
Zn  Zn7  1  0.04048000  0.60600000  0.58727000  1.0 1.0005521564
Zn  Zn8  1  0.45952000  0.10600000  0.91273000  1.0 1.0005521564
Zn  Zn9  1  0.00000000  0.75000000  0.21703000  1.0 0.9910727007
Zn  Zn10  1  0.50000000  0.25000000  0.28297000  1.0 0.9910727007
Zn  Zn11  1  0.00000000  0.25000000  0.78297000  1.0 0.9910727007
Zn  Zn12  1  0.50000000  0.75000000  0.71703000  1.0 0.9910727007
P  P1  1  0.01889000  0.88962000  0.37686000  1.0 1.1242214178
P  P2  1  0.48111000  0.38962000  0.12314000  1.0 1.1242214178
P  P3  1  0.98111000  0.61038000  0.37686000  1.0 1.1252188248
P  P4  1  0.51889000  0.11038000  0.12314000  1.0 1.1242214178
P  P5  1  0.98111000  0.11038000  0.62314000  1.0 1.1242214178
P  P6  1  0.51889000  0.61038000  0.87686000  1.0 1.1242214178
P  P7  1  0.01889000  0.38962000  0.62314000  1.0 1.1242214178
P  P8  1  0.48111000  0.88962000  0.87686000  1.0 1.1242214178
P  P9  1  0.26875000  0.78128000  0.10697000  1.0 0.317740695
P  P10  1  0.23125000  0.28128000  0.39303000  1.0 0.3281383081
P  P11  1  0.73125000  0.71872000  0.10697000  1.0 0.317740695
P  P12  1  0.76875000  0.21872000  0.39303000  1.0 0.3281383081
P  P13  1  0.73125000  0.21872000  0.89303000  1.0 0.3281383081
P  P14  1  0.76875000  0.71872000  0.60697000  1.0 0.317740695
P  P15  1  0.26875000  0.28128000  0.89303000  1.0 0.3281383081
P  P16  1  0.23125000  0.78128000  0.60697000  1.0 0.317740695
P  P17  1  0.20500000  0.28610000  0.33250000  1.0 0.3043342693
P  P18  1  0.29500000  0.78610000  0.16750000  1.0 0.3056322498
P  P19  1  0.79500000  0.21390000  0.33250000  1.0 0.3056322498
P  P20  1  0.70500000  0.71390000  0.16750000  1.0 0.317740695
P  P21  1  0.79500000  0.71390000  0.66750000  1.0 0.317740695
P  P22  1  0.70500000  0.21390000  0.83250000  1.0 0.3056322498
P  P23  1  0.20500000  0.78610000  0.66750000  1.0 0.3056322498
P  P24  1  0.29500000  0.28610000  0.83250000  1.0 0.3043342693
H  H1  1  0.11700000  0.83300000  0.39300000  1.0 -0.2259514765
H  H2  1  0.38300000  0.33300000  0.10700000  1.0 -0.2259514765
H  H3  1  0.88300000  0.66700000  0.39300000  1.0 -0.2259514765
H  H4  1  0.61700000  0.16700000  0.10700000  1.0 -0.2113969164
H  H5  1  0.88300000  0.16700000  0.60700000  1.0 -0.2113969164
H  H6  1  0.61700000  0.66700000  0.89300000  1.0 -0.2259514765
H  H7  1  0.11700000  0.33300000  0.60700000  1.0 -0.2259514765
H  H8  1  0.38300000  0.83300000  0.89300000  1.0 -0.2259514765
O  O1  1  0.08620000  0.98460000  0.35680000  1.0 -0.54776883
O  O2  1  0.41380000  0.48460000  0.14320000  1.0 -0.54776883
O  O3  1  0.91380000  0.51540000  0.35680000  1.0 -0.54776883
O  O4  1  0.58620000  0.01540000  0.14320000  1.0 -0.54776883
O  O5  1  0.91380000  0.01540000  0.64320000  1.0 -0.54776883
O  O6  1  0.58620000  0.51540000  0.85680000  1.0 -0.54776883
O  O7  1  0.08620000  0.48460000  0.64320000  1.0 -0.54776883
O  O8  1  0.41380000  0.98460000  0.85680000  1.0 -0.54776883
O  O9  1  0.94100000  0.85370000  0.29560000  1.0 -0.6066028016
O  O10  1  0.55900000  0.35370000  0.20440000  1.0 -0.6026350992
O  O11  1  0.05900000  0.64630000  0.29560000  1.0 -0.6026350992
O  O12  1  0.44100000  0.14630000  0.20440000  1.0 -0.6066028016
O  O13  1  0.05900000  0.14630000  0.70440000  1.0 -0.6066028016
O  O14  1  0.44100000  0.64630000  0.79560000  1.0 -0.6026350992
O  O15  1  0.94100000  0.35370000  0.70440000  1.0 -0.6026350992
O  O16  1  0.55900000  0.85370000  0.79560000  1.0 -0.6066028016
O  O17  1  0.93110000  0.89450000  0.45910000  1.0 -0.6515309574
O  O18  1  0.56890000  0.39450000  0.04090000  1.0 -0.6515309574
O  O19  1  0.06890000  0.60550000  0.45910000  1.0 -0.6515309574
O  O20  1  0.43110000  0.10550000  0.04090000  1.0 -0.6515309574
O  O21  1  0.06890000  0.10550000  0.54090000  1.0 -0.6515309574
O  O22  1  0.43110000  0.60550000  0.95910000  1.0 -0.6515309574
O  O23  1  0.93110000  0.39450000  0.54090000  1.0 -0.6515309574
O  O24  1  0.56890000  0.89450000  0.95910000  1.0 -0.6515309574
O  O25  1  0.33700000  0.69180000  0.14510000  1.0 -0.4225615734
O  O26  1  0.16300000  0.19180000  0.35490000  1.0 -0.4225615734
O  O27  1  0.66300000  0.80820000  0.14510000  1.0 -0.4225615734
O  O28  1  0.83700000  0.30820000  0.35490000  1.0 -0.4225615734
O  O29  1  0.66300000  0.30820000  0.85490000  1.0 -0.4225615734
O  O30  1  0.83700000  0.80820000  0.64510000  1.0 -0.4225615734
O  O31  1  0.33700000  0.19180000  0.85490000  1.0 -0.4225615734
O  O32  1  0.16300000  0.69180000  0.64510000  1.0 -0.4225615734
O  O33  1  0.14220000  0.80300000  0.15020000  1.0 -0.4012034532
O  O34  1  0.35780000  0.30300000  0.34980000  1.0 -0.4012034532
O  O35  1  0.85780000  0.69700000  0.15020000  1.0 -0.4012034532
O  O36  1  0.64220000  0.19700000  0.34980000  1.0 -0.4052747624
O  O37  1  0.85780000  0.19700000  0.84980000  1.0 -0.4012034532
O  O38  1  0.64220000  0.69700000  0.65020000  1.0 -0.4012034532
O  O39  1  0.14220000  0.30300000  0.84980000  1.0 -0.4012034532
O  O40  1  0.35780000  0.80300000  0.65020000  1.0 -0.4012034532
O  O41  1  0.35550000  0.87000000  0.11370000  1.0 -0.4012034532
O  O42  1  0.14450000  0.37000000  0.38630000  1.0 -0.4012034532
O  O43  1  0.64450000  0.63000000  0.11370000  1.0 -0.4012034532
O  O44  1  0.85550000  0.13000000  0.38630000  1.0 -0.4012034532
O  O45  1  0.64450000  0.13000000  0.88630000  1.0 -0.4012034532
O  O46  1  0.85550000  0.63000000  0.61370000  1.0 -0.4012034532
O  O47  1  0.35550000  0.37000000  0.88630000  1.0 -0.4012034532
O  O48  1  0.14450000  0.87000000  0.61370000  1.0 -0.4012034532
