# DDEC6 charges by PACMAN v1.1 (https://github.com/mtap-research/PACMAN-charge/)
data_AGUSON_ASR_pacman
_symmetry_space_group_name_H-M   'P 1'
_cell_length_a   11.79990000
_cell_length_b   11.85150000
_cell_length_c   14.10370000
_cell_angle_alpha   99.02830000
_cell_angle_beta   112.39100000
_cell_angle_gamma   114.63400000
_symmetry_Int_Tables_number   1
_chemical_formula_structural   MnSi2H32C22N4O5
_chemical_formula_sum   'Mn2 Si4 H64 C44 N8 O10'
_cell_volume   1536.28582835
_cell_formula_units_Z   2
loop_
 _symmetry_equiv_pos_site_id
 _symmetry_equiv_pos_as_xyz
  1  'x, y, z'
loop_
 _atom_site_type_symbol
 _atom_site_label
 _atom_site_symmetry_multiplicity
 _atom_site_fract_x
 _atom_site_fract_y
 _atom_site_fract_z
 _atom_site_occupancy
 _atom_site_charge
Mn  Mn1  1  0.54779000  0.90961000  0.10505000  1.0 0.8432011103
Mn  Mn2  1  0.45221000  0.09039000  0.89495000  1.0 0.8432011103
Si  Si1  1  0.79563000  0.89653000  0.59298000  1.0 1.1323083138
Si  Si2  1  0.79537000  0.68130000  0.70191000  1.0 1.1369300579
Si  Si3  1  0.20437000  0.10347000  0.40702000  1.0 1.1323083138
Si  Si4  1  0.20463000  0.31870000  0.29809000  1.0 1.1369300579
H  H1  1  0.73465000  0.68313000  0.26843000  1.0 0.1202994278
H  H2  1  0.57170000  0.57506000  0.21733000  1.0 0.1202994278
H  H3  1  0.56637000  0.68820000  0.36676000  1.0 0.1003883501
H  H4  1  0.68127000  0.64729000  0.40962000  1.0 0.1003883501
H  H5  1  0.74900000  0.90903000  0.41815000  1.0 0.1454161575
H  H6  1  0.86461000  0.86874000  0.45880000  1.0 0.1454161575
H  H7  1  0.95686000  0.09144000  0.75499000  1.0 0.1782830288
H  H8  1  0.93235000  0.13117000  0.65115000  1.0 0.1690510564
H  H9  1  0.03564000  0.07686000  0.69028000  1.0 0.1854669547
H  H10  1  0.54915000  0.79097000  0.53751000  1.0 0.1782830288
H  H11  1  0.60961000  0.94198000  0.55260000  1.0 0.1690510564
H  H12  1  0.63900000  0.90197000  0.65643000  1.0 0.1690510564
H  H13  1  0.65574000  0.49139000  0.53624000  1.0 0.1782830288
H  H14  1  0.71911000  0.45245000  0.63647000  1.0 0.1690510564
H  H15  1  0.81639000  0.52934000  0.59025000  1.0 0.1644340848
H  H16  1  0.67345000  0.74485000  0.77655000  1.0 0.1690510564
H  H17  1  0.63010000  0.59694000  0.76466000  1.0 0.1690510564
H  H18  1  0.56160000  0.62795000  0.66054000  1.0 0.1782830288
H  H19  1  0.94402000  0.67807000  0.86924000  1.0 0.1454161575
H  H20  1  0.03549000  0.74272000  0.81529000  1.0 0.1414452886
H  H21  1  0.95177000  0.88144000  0.92940000  1.0 0.0926451306
H  H22  1  0.05114000  0.94539000  0.88082000  1.0 0.1101251041
H  H23  1  0.18078000  0.00673000  0.07578000  1.0 0.1314826007
H  H24  1  0.13351000  0.85689000  0.05629000  1.0 0.1314826007
H  H25  1  0.54717000  0.06623000  0.31243000  1.0 0.1202994278
H  H26  1  0.69982000  0.22812000  0.48922000  1.0 0.1414452886
H  H27  1  0.03240000  0.27630000  0.44681000  1.0 0.1454161575
H  H28  1  0.87097000  0.11050000  0.27415000  1.0 0.1202994278
H  H29  1  0.05671000  0.50796000  0.78950000  1.0 0.1314826007
H  H30  1  0.22860000  0.67206000  0.96219000  1.0 0.1202994278
H  H31  1  0.52484000  0.77301000  0.87944000  1.0 0.1101251041
H  H32  1  0.36178000  0.61429000  0.70289000  1.0 0.1414452886
H  H33  1  0.26535000  0.31687000  0.73157000  1.0 0.1202994278
H  H34  1  0.42830000  0.42494000  0.78267000  1.0 0.1202994278
H  H35  1  0.43363000  0.31180000  0.63324000  1.0 0.1003883501
H  H36  1  0.31873000  0.35271000  0.59038000  1.0 0.1003883501
H  H37  1  0.25100000  0.09097000  0.58185000  1.0 0.1454161575
H  H38  1  0.13539000  0.13126000  0.54120000  1.0 0.1454161575
H  H39  1  0.04314000  0.90856000  0.24501000  1.0 0.1782830288
H  H40  1  0.06765000  0.86883000  0.34885000  1.0 0.1690510564
H  H41  1  0.96436000  0.92314000  0.30972000  1.0 0.1854669547
H  H42  1  0.45085000  0.20903000  0.46249000  1.0 0.1782830288
H  H43  1  0.39039000  0.05802000  0.44740000  1.0 0.1690510564
H  H44  1  0.36100000  0.09803000  0.34357000  1.0 0.1690510564
H  H45  1  0.34426000  0.50861000  0.46376000  1.0 0.1782830288
H  H46  1  0.28089000  0.54755000  0.36353000  1.0 0.1690510564
H  H47  1  0.18361000  0.47066000  0.40975000  1.0 0.1644340848
H  H48  1  0.32655000  0.25515000  0.22345000  1.0 0.1690510564
H  H49  1  0.36990000  0.40306000  0.23534000  1.0 0.1690510564
H  H50  1  0.43840000  0.37205000  0.33946000  1.0 0.1782830288
H  H51  1  0.05598000  0.32193000  0.13076000  1.0 0.1454161575
H  H52  1  0.96451000  0.25728000  0.18471000  1.0 0.1414452886
H  H53  1  0.04823000  0.11856000  0.07060000  1.0 0.0926451306
H  H54  1  0.94886000  0.05461000  0.11918000  1.0 0.1101251041
H  H55  1  0.81922000  0.99327000  0.92422000  1.0 0.1314826007
H  H56  1  0.86649000  0.14311000  0.94371000  1.0 0.1314826007
H  H57  1  0.45283000  0.93377000  0.68757000  1.0 0.1202994278
H  H58  1  0.30018000  0.77188000  0.51078000  1.0 0.1414452886
H  H59  1  0.96760000  0.72370000  0.55319000  1.0 0.1454161575
H  H60  1  0.12903000  0.88950000  0.72585000  1.0 0.1202994278
H  H61  1  0.94329000  0.49204000  0.21050000  1.0 0.1314826007
H  H62  1  0.77140000  0.32794000  0.03781000  1.0 0.1202994278
H  H63  1  0.47516000  0.22699000  0.12056000  1.0 0.1101251041
H  H64  1  0.63822000  0.38571000  0.29711000  1.0 0.1414452886
C  C1  1  0.60290000  0.75150000  0.19930000  1.0 0.6051477885
C  C2  1  0.64400000  0.66920000  0.26050000  1.0 -0.3396129513
C  C3  1  0.65820000  0.70520000  0.37520000  1.0 -0.0783807764
C  C4  1  0.77330000  0.85130000  0.45200000  1.0 -0.563073725
C  C5  1  0.94850000  0.06990000  0.68320000  1.0 -0.7857485319
C  C6  1  0.62810000  0.88100000  0.58380000  1.0 -0.8085752631
C  C7  1  0.73990000  0.51900000  0.60440000  1.0 -0.8085752631
C  C8  1  0.64720000  0.66020000  0.72920000  1.0 -0.804760983
C  C9  1  0.96350000  0.74150000  0.83320000  1.0 -0.563073725
C  C10  1  0.02560000  0.88080000  0.91490000  1.0 -0.0783807764
C  C11  1  0.15820000  0.92500000  0.02520000  1.0 -0.3501396829
C  C12  1  0.29130000  0.94950000  0.02020000  1.0 0.6255104935
C  C13  1  0.64580000  0.10910000  0.34010000  1.0 0.0926451306
C  C14  1  0.73650000  0.20680000  0.44610000  1.0 -0.1999286728
C  C15  1  0.88240000  0.27110000  0.48540000  1.0 0.1690510564
C  C16  1  0.93420000  0.23490000  0.42100000  1.0 -0.1999286728
C  C17  1  0.83650000  0.13590000  0.31760000  1.0 0.0807698911
C  C18  1  0.19120000  0.54440000  0.72700000  1.0 0.1782830288
C  C19  1  0.15100000  0.56130000  0.80560000  1.0 -0.1999286728
C  C20  1  0.25520000  0.66000000  0.90900000  1.0 0.0807698911
C  C21  1  0.42930000  0.71990000  0.86070000  1.0 0.0926451306
C  C22  1  0.33230000  0.62430000  0.75450000  1.0 -0.1999286728
C  C23  1  0.39710000  0.24850000  0.80070000  1.0 0.6051477885
C  C24  1  0.35600000  0.33080000  0.73950000  1.0 -0.3396129513
C  C25  1  0.34180000  0.29480000  0.62480000  1.0 -0.0783807764
C  C26  1  0.22670000  0.14870000  0.54800000  1.0 -0.563073725
C  C27  1  0.05150000  0.93010000  0.31680000  1.0 -0.7857485319
C  C28  1  0.37190000  0.11900000  0.41620000  1.0 -0.8085752631
C  C29  1  0.26010000  0.48100000  0.39560000  1.0 -0.8085752631
C  C30  1  0.35280000  0.33980000  0.27080000  1.0 -0.804760983
C  C31  1  0.03650000  0.25850000  0.16680000  1.0 -0.563073725
C  C32  1  0.97440000  0.11920000  0.08510000  1.0 -0.0783807764
C  C33  1  0.84180000  0.07500000  0.97480000  1.0 -0.3501396829
C  C34  1  0.70870000  0.05050000  0.97980000  1.0 0.6255104935
C  C35  1  0.35420000  0.89090000  0.65990000  1.0 0.0926451306
C  C36  1  0.26350000  0.79320000  0.55390000  1.0 -0.1999286728
C  C37  1  0.11760000  0.72890000  0.51460000  1.0 0.1690510564
C  C38  1  0.06580000  0.76510000  0.57900000  1.0 -0.1999286728
C  C39  1  0.16350000  0.86410000  0.68240000  1.0 0.0807698911
C  C40  1  0.80880000  0.45560000  0.27300000  1.0 0.1782830288
C  C41  1  0.84900000  0.43870000  0.19440000  1.0 -0.1999286728
C  C42  1  0.74480000  0.34000000  0.09100000  1.0 0.0807698911
C  C43  1  0.57070000  0.28010000  0.13930000  1.0 0.0926451306
C  C44  1  0.66770000  0.37570000  0.24550000  1.0 -0.1999286728
N  N1  1  0.69410000  0.07390000  0.27620000  1.0 -0.2315530347
N  N2  1  0.97350000  0.37210000  0.59570000  1.0 -0.0906548927
N  N3  1  0.09740000  0.44610000  0.61640000  1.0 -0.110892264
N  N4  1  0.39280000  0.73950000  0.93690000  1.0 -0.2315530347
N  N5  1  0.30590000  0.92610000  0.72380000  1.0 -0.2315530347
N  N6  1  0.02650000  0.62790000  0.40430000  1.0 -0.0906548927
N  N7  1  0.90260000  0.55390000  0.38360000  1.0 -0.110892264
N  N8  1  0.60720000  0.26050000  0.06310000  1.0 -0.2315530347
O  O1  1  0.67720000  0.81470000  0.16020000  1.0 -0.5535005832
O  O2  1  0.49563000  0.75963000  0.18923000  1.0 -0.5664217377
O  O3  1  0.30570000  0.97790000  0.94180000  1.0 -0.563073725
O  O4  1  0.38357000  0.94297000  0.09777000  1.0 -0.5764569247
O  O5  1  0.82787000  0.79217000  0.64477000  1.0 -0.7260762954
O  O6  1  0.32280000  0.18530000  0.83980000  1.0 -0.5535005832
O  O7  1  0.50437000  0.24037000  0.81077000  1.0 -0.5664217377
O  O8  1  0.69430000  0.02210000  0.05820000  1.0 -0.563073725
O  O9  1  0.61643000  0.05703000  0.90223000  1.0 -0.5764569247
O  O10  1  0.17213000  0.20783000  0.35523000  1.0 -0.7260762954
