# DDEC6 charges by PACMAN v1.1 (https://github.com/mtap-research/PACMAN-charge/)
data_AHEBAS_FSR_pacman
_symmetry_space_group_name_H-M   'P 1'
_cell_length_a   12.12720000
_cell_length_b   12.12720000
_cell_length_c   19.50250000
_cell_angle_alpha   83.72150000
_cell_angle_beta   96.27850000
_cell_angle_gamma   118.02600000
_symmetry_Int_Tables_number   1
_chemical_formula_structural   Cu3H30C38N4O15
_chemical_formula_sum   'Cu6 H60 C76 N8 O30'
_cell_volume   2511.18471317
_cell_formula_units_Z   2
loop_
 _symmetry_equiv_pos_site_id
 _symmetry_equiv_pos_as_xyz
  1  'x, y, z'
loop_
 _atom_site_type_symbol
 _atom_site_label
 _atom_site_symmetry_multiplicity
 _atom_site_fract_x
 _atom_site_fract_y
 _atom_site_fract_z
 _atom_site_occupancy
 _atom_site_charge
Cu  Cu1  1  0.46019000  0.06575000  0.81207000  1.0 0.8684330174
Cu  Cu2  1  0.06575000  0.46019000  0.18793000  1.0 0.8684330174
Cu  Cu3  1  0.23695000  0.01833000  0.85003000  1.0 0.7699636408
Cu  Cu4  1  0.01833000  0.23695000  0.14997000  1.0 0.7699636408
Cu  Cu5  1  0.64443000  0.68435000  0.56293000  1.0 0.7753617951
Cu  Cu6  1  0.68435000  0.64443000  0.43707000  1.0 0.7753617951
H  H1  1  0.35600000  0.87260000  0.62370000  1.0 0.1199465026
H  H2  1  0.87260000  0.35600000  0.37630000  1.0 0.1199465026
H  H3  1  0.24590000  0.38190000  0.97330000  1.0 0.1280674291
H  H4  1  0.38190000  0.24590000  0.02670000  1.0 0.1280674291
H  H5  1  0.49880000  0.44460000  0.75790000  1.0 0.1094696327
H  H6  1  0.44460000  0.49880000  0.24210000  1.0 0.1094696327
H  H7  1  0.05520000  0.69040000  0.49770000  1.0 0.1199465026
H  H8  1  0.69040000  0.05520000  0.50230000  1.0 0.1199465026
H  H9  1  0.02460000  0.84760000  0.66010000  1.0 0.1380192992
H  H10  1  0.84760000  0.02460000  0.33990000  1.0 0.1380192992
H  H11  1  0.38180000  0.67780000  0.83760000  1.0 0.1094696327
H  H12  1  0.67780000  0.38180000  0.16240000  1.0 0.1094696327
H  H13  1  0.18570000  0.67430000  0.99170000  1.0 0.1380192992
H  H14  1  0.67430000  0.18570000  0.00830000  1.0 0.1380192992
H  H15  1  0.32490000  0.66630000  0.39650000  1.0 0.1199465026
H  H16  1  0.66630000  0.32490000  0.60350000  1.0 0.1199465026
H  H17  1  0.52780000  0.82240000  0.62090000  1.0 0.1094696327
H  H18  1  0.82240000  0.52780000  0.37910000  1.0 0.1094696327
H  H19  1  0.23580000  0.52160000  0.76150000  1.0 0.1094696327
H  H20  1  0.52160000  0.23580000  0.23850000  1.0 0.1094696327
H  H21  1  0.16240000  0.37400000  0.76130000  1.0 0.1199465026
H  H22  1  0.37400000  0.16240000  0.23870000  1.0 0.1199465026
H  H23  1  0.13320000  0.51400000  0.55990000  1.0 0.1024864801
H  H24  1  0.51400000  0.13320000  0.44010000  1.0 0.1024864801
H  H25  1  0.06140000  0.51660000  0.48750000  1.0 0.1094696327
H  H26  1  0.51660000  0.06140000  0.51250000  1.0 0.1094696327
H  H27  1  0.59680000  0.83160000  0.82600000  1.0 0.1199465026
H  H28  1  0.83160000  0.59680000  0.17400000  1.0 0.1199465026
H  H29  1  0.70530000  0.64790000  0.71540000  1.0 0.1199465026
H  H30  1  0.64790000  0.70530000  0.28460000  1.0 0.1199465026
H  H31  1  0.29830000  0.30470000  0.66870000  1.0 0.1280674291
H  H32  1  0.30470000  0.29830000  0.33130000  1.0 0.1280674291
H  H33  1  0.41560000  0.43280000  0.65010000  1.0 0.1280674291
H  H34  1  0.43280000  0.41560000  0.34990000  1.0 0.1280674291
H  H35  1  0.16540000  0.47620000  0.38290000  1.0 0.1280674291
H  H36  1  0.47620000  0.16540000  0.61710000  1.0 0.1280674291
H  H37  1  0.26990000  0.43510000  0.40770000  1.0 0.1199465026
H  H38  1  0.43510000  0.26990000  0.59230000  1.0 0.1199465026
H  H39  1  0.51300000  0.89040000  0.72490000  1.0 0.1380192992
H  H40  1  0.89040000  0.51300000  0.27510000  1.0 0.1380192992
H  H41  1  0.15140000  0.18340000  0.90040000  1.0 0.1024864801
H  H42  1  0.18340000  0.15140000  0.09960000  1.0 0.1024864801
H  H43  1  0.21370000  0.39750000  0.52280000  1.0 0.1094696327
H  H44  1  0.39750000  0.21370000  0.47720000  1.0 0.1094696327
H  H45  1  0.08180000  0.34180000  0.48070000  1.0 0.1094696327
H  H46  1  0.34180000  0.08180000  0.51930000  1.0 0.1094696327
H  H47  1  0.98550000  0.19410000  0.94290000  1.0 0.1380192992
H  H48  1  0.19410000  0.98550000  0.05710000  1.0 0.1380192992
H  H49  1  0.68640000  0.70140000  0.82180000  1.0 0.1280674291
H  H50  1  0.70140000  0.68640000  0.17820000  1.0 0.1280674291
H  H51  1  0.95160000  0.82740000  0.87520000  1.0 0.1094696327
H  H52  1  0.82740000  0.95160000  0.12480000  1.0 0.1094696327
H  H53  1  0.78630000  0.82570000  0.93030000  1.0 0.1280674291
H  H54  1  0.82570000  0.78630000  0.06970000  1.0 0.1280674291
H  H55  1  0.32300000  0.54140000  0.66550000  1.0 0.1199465026
H  H56  1  0.54140000  0.32300000  0.33450000  1.0 0.1199465026
H  H57  1  0.20050000  0.41590000  0.65160000  1.0 0.1199465026
H  H58  1  0.41590000  0.20050000  0.34840000  1.0 0.1199465026
H  H59  1  0.79150000  0.01230000  0.94620000  1.0 0.1280674291
H  H60  1  0.01230000  0.79150000  0.05380000  1.0 0.1280674291
C  C1  1  0.38380000  0.25740000  0.78400000  1.0 0.570498217
C  C2  1  0.25740000  0.38380000  0.21600000  1.0 0.570498217
C  C3  1  0.20840000  0.52160000  0.99230000  1.0 -0.0011746367
C  C4  1  0.52160000  0.20840000  0.00770000  1.0 -0.0011746367
C  C5  1  0.88790000  0.72970000  0.54940000  1.0 0.5785320886
C  C6  1  0.72970000  0.88790000  0.45060000  1.0 0.5785320886
C  C7  1  0.27060000  0.84260000  0.61260000  1.0 -0.1211395176
C  C8  1  0.84260000  0.27060000  0.38740000  1.0 -0.1211395176
C  C9  1  0.31870000  0.51990000  0.89700000  1.0 -0.0171447004
C  C10  1  0.51990000  0.31870000  0.10300000  1.0 -0.0171447004
C  C11  1  0.44260000  0.62080000  0.46550000  1.0 0.5785320886
C  C12  1  0.62080000  0.44260000  0.53450000  1.0 0.5785320886
C  C13  1  0.25580000  0.46080000  0.95710000  1.0 -0.1082157355
C  C14  1  0.46080000  0.25580000  0.04290000  1.0 -0.1082157355
C  C15  1  0.37770000  0.45970000  0.86160000  1.0 0.3951660582
C  C16  1  0.45970000  0.37770000  0.13840000  1.0 0.3951660582
C  C17  1  0.14250000  0.45530000  0.05670000  1.0 0.570498217
C  C18  1  0.45530000  0.14250000  0.94330000  1.0 0.570498217
C  C19  1  0.40850000  0.38870000  0.75660000  1.0 -0.0290535762
C  C20  1  0.38870000  0.40850000  0.24340000  1.0 -0.0290535762
C  C21  1  0.21560000  0.77200000  0.55510000  1.0 -0.0103827313
C  C22  1  0.77200000  0.21560000  0.44490000  1.0 -0.0103827313
C  C23  1  0.09230000  0.73650000  0.53640000  1.0 -0.1211395176
C  C24  1  0.73650000  0.09230000  0.46360000  1.0 -0.1211395176
C  C25  1  0.07300000  0.83060000  0.63330000  1.0 -0.1016871916
C  C26  1  0.83060000  0.07300000  0.36670000  1.0 -0.1016871916
C  C27  1  0.25900000  0.94360000  0.71740000  1.0 0.5517511555
C  C28  1  0.94360000  0.25900000  0.28260000  1.0 0.5517511555
C  C29  1  0.28650000  0.69850000  0.90940000  1.0 -0.0011746367
C  C30  1  0.69850000  0.28650000  0.09060000  1.0 0.0004344357
C  C31  1  0.19950000  0.86930000  0.65390000  1.0 -0.0103827313
C  C32  1  0.86930000  0.19950000  0.34610000  1.0 -0.0103827313
C  C33  1  0.33570000  0.63690000  0.87590000  1.0 -0.1444436721
C  C34  1  0.63690000  0.33570000  0.12410000  1.0 -0.1444436721
C  C35  1  0.29600000  0.74960000  0.50960000  1.0 0.4151118585
C  C36  1  0.74960000  0.29600000  0.49040000  1.0 0.4151118585
C  C37  1  0.30670000  0.82690000  0.88200000  1.0 0.5649401733
C  C38  1  0.82690000  0.30670000  0.11800000  1.0 0.5649401733
C  C39  1  0.22080000  0.63660000  0.96860000  1.0 -0.1016871916
C  C40  1  0.63660000  0.22080000  0.03140000  1.0 -0.1016871916
C  C41  1  0.31470000  0.60970000  0.43790000  1.0 -0.0290535762
C  C42  1  0.60970000  0.31470000  0.56210000  1.0 -0.0290535762
C  C43  1  0.01960000  0.76800000  0.57450000  1.0 -0.0171447004
C  C44  1  0.76800000  0.01960000  0.42550000  1.0 -0.0171447004
C  C45  1  0.56130000  0.79910000  0.66170000  1.0 0.0920182902
C  C46  1  0.79910000  0.56130000  0.33830000  1.0 0.0920182902
C  C47  1  0.24150000  0.44730000  0.75270000  1.0 -0.1082157355
C  C48  1  0.44730000  0.24150000  0.24730000  1.0 -0.1082157355
C  C49  1  0.13790000  0.51950000  0.51020000  1.0 -0.1016871916
C  C50  1  0.51950000  0.13790000  0.48980000  1.0 -0.1016871916
C  C51  1  0.60090000  0.80450000  0.78400000  1.0 -0.0290535762
C  C52  1  0.80450000  0.60090000  0.21600000  1.0 -0.0290535762
C  C53  1  0.66420000  0.69560000  0.71760000  1.0 0.0784430989
C  C54  1  0.69560000  0.66420000  0.28240000  1.0 0.0784430989
C  C55  1  0.35040000  0.38960000  0.68230000  1.0 -0.1957232765
C  C56  1  0.38960000  0.35040000  0.31770000  1.0 -0.1957232765
C  C57  1  0.22540000  0.47780000  0.42050000  1.0 -0.1913971714
C  C58  1  0.47780000  0.22540000  0.57950000  1.0 -0.1913971714
C  C59  1  0.55170000  0.84010000  0.72410000  1.0 -0.1320129595
C  C60  1  0.84010000  0.55170000  0.27590000  1.0 -0.1320129595
C  C61  1  0.07560000  0.11080000  0.90380000  1.0 0.0920182902
C  C62  1  0.11080000  0.07560000  0.09620000  1.0 0.0920182902
C  C63  1  0.15990000  0.41710000  0.48870000  1.0 -0.1594337075
C  C64  1  0.41710000  0.15990000  0.51130000  1.0 -0.1594337075
C  C65  1  0.97590000  0.11870000  0.92940000  1.0 -0.1320129595
C  C66  1  0.11870000  0.97590000  0.07060000  1.0 -0.1320129595
C  C67  1  0.65570000  0.72930000  0.78150000  1.0 -0.1532936207
C  C68  1  0.72930000  0.65570000  0.21850000  1.0 -0.1532936207
C  C69  1  0.96040000  0.90140000  0.89030000  1.0 0.0920182902
C  C70  1  0.90140000  0.96040000  0.10970000  1.0 0.0920182902
C  C71  1  0.85670000  0.90090000  0.92040000  1.0 -0.1594337075
C  C72  1  0.90090000  0.85670000  0.07960000  1.0 -0.1594337075
C  C73  1  0.27540000  0.45460000  0.68200000  1.0 -0.1665763966
C  C74  1  0.45460000  0.27540000  0.31800000  1.0 -0.1665763966
C  C75  1  0.86220000  0.00980000  0.93400000  1.0 -0.0362457409
C  C76  1  0.00980000  0.86220000  0.06600000  1.0 -0.0362457409
N  N1  1  0.61610000  0.72830000  0.65900000  1.0 -0.2203593961
N  N2  1  0.72830000  0.61610000  0.34100000  1.0 -0.2203593961
N  N3  1  0.24790000  0.63330000  0.48760000  1.0 -0.1211395176
N  N4  1  0.63330000  0.24790000  0.51240000  1.0 -0.1211395176
N  N5  1  0.34720000  0.43840000  0.79600000  1.0 -0.1082157355
N  N6  1  0.43840000  0.34720000  0.20400000  1.0 -0.1082157355
N  N7  1  0.06800000  0.00500000  0.88390000  1.0 -0.2387797049
N  N8  1  0.00500000  0.06800000  0.11610000  1.0 -0.2387797049
O  O1  1  0.82120000  0.74340000  0.59050000  1.0 -0.5098339132
O  O2  1  0.74340000  0.82120000  0.40950000  1.0 -0.5098339132
O  O3  1  0.51010000  0.62350000  0.42080000  1.0 -0.5288754316
O  O4  1  0.62350000  0.51010000  0.57920000  1.0 -0.5288754316
O  O5  1  0.27810000  0.18430000  0.80450000  1.0 -0.5020712228
O  O6  1  0.18430000  0.27810000  0.19550000  1.0 -0.5020712228
O  O7  1  0.18680000  0.94080000  0.75920000  1.0 -0.5098339132
O  O8  1  0.94080000  0.18680000  0.24080000  1.0 -0.5098339132
O  O9  1  0.37600000  0.99400000  0.72520000  1.0 -0.5098339132
O  O10  1  0.99400000  0.37600000  0.27480000  1.0 -0.5098339132
O  O11  1  0.47040000  0.62620000  0.53050000  1.0 -0.5288754316
O  O12  1  0.62620000  0.47040000  0.46950000  1.0 -0.5288754316
O  O13  1  0.84932000  0.68768000  0.48980000  1.0 -0.5288754316
O  O14  1  0.68768000  0.84932000  0.51020000  1.0 -0.5288754316
O  O15  1  0.10369000  0.34011000  0.06770000  1.0 -0.5216192714
O  O16  1  0.34011000  0.10369000  0.93230000  1.0 -0.5216192714
O  O17  1  0.22350000  0.85890000  0.89200000  1.0 -0.5098339132
O  O18  1  0.85890000  0.22350000  0.10800000  1.0 -0.5098339132
O  O19  1  0.47100000  0.23020000  0.77840000  1.0 -0.5020712228
O  O20  1  0.23020000  0.47100000  0.22160000  1.0 -0.5020712228
O  O21  1  0.40550000  0.89310000  0.85120000  1.0 -0.5216192714
O  O22  1  0.89310000  0.40550000  0.14880000  1.0 -0.5216192714
O  O23  1  0.65030000  0.12050000  0.78950000  1.0 -0.4019046537
O  O24  1  0.12050000  0.65030000  0.21050000  1.0 -0.4019046537
O  O25  1  0.12790000  0.52530000  0.09700000  1.0 -0.5020712228
O  O26  1  0.52530000  0.12790000  0.90300000  1.0 -0.5020712228
O  O27  1  0.39680000  0.83560000  0.49360000  1.0 -0.4703185967
O  O28  1  0.83560000  0.39680000  0.50640000  1.0 -0.4703185967
O  O29  1  0.45840000  0.43260000  0.89430000  1.0 -0.4878466389
O  O30  1  0.43260000  0.45840000  0.10570000  1.0 -0.4878466389
