# DDEC6 charges by PACMAN v1.1 (https://github.com/mtap-research/PACMAN-charge/)
data_AHEQAH_ASR_pacman
_symmetry_space_group_name_H-M   'P 1'
_cell_length_a   20.59040000
_cell_length_b   20.59040000
_cell_length_c   20.59040000
_cell_angle_alpha   157.53100000
_cell_angle_beta   117.37100000
_cell_angle_gamma   67.42790000
_symmetry_Int_Tables_number   1
_chemical_formula_structural   HoH15(C11O2)3
_chemical_formula_sum   'Ho2 H30 C66 O12'
_cell_volume   2941.10196965
_cell_formula_units_Z   2
loop_
 _symmetry_equiv_pos_site_id
 _symmetry_equiv_pos_as_xyz
  1  'x, y, z'
loop_
 _atom_site_type_symbol
 _atom_site_label
 _atom_site_symmetry_multiplicity
 _atom_site_fract_x
 _atom_site_fract_y
 _atom_site_fract_z
 _atom_site_occupancy
 _atom_site_charge
Ho  Ho1  1  0.98370000  0.11670000  0.63300000  1.0 1.9563426189
Ho  Ho2  1  0.01630000  0.64930000  0.13300000  1.0 1.9563426189
H  H1  1  0.87930000  0.88670000  0.50740000  1.0 0.0983541317
H  H2  1  0.12070000  0.62810000  0.00740000  1.0 0.0983541317
H  H3  1  0.81100000  0.81330000  0.50230000  1.0 0.1204015004
H  H4  1  0.18900000  0.69130000  0.00230000  1.0 0.1204015004
H  H5  1  0.81310000  0.31030000  0.99720000  1.0 0.1204015004
H  H6  1  0.18690000  0.18410000  0.49720000  1.0 0.1204015004
H  H7  1  0.88140000  0.38370000  0.00230000  1.0 0.1204015004
H  H8  1  0.11860000  0.12090000  0.50230000  1.0 0.1146499254
H  H9  1  0.77580000  0.40340000  0.31820000  1.0 0.1265735564
H  H10  1  0.22420000  0.54240000  0.62760000  1.0 0.1265735564
H  H11  1  0.58520000  0.40340000  0.12760000  1.0 0.1265735564
H  H12  1  0.41480000  0.54240000  0.81820000  1.0 0.1265735564
H  H13  1  0.58030000  0.26070000  0.18040000  1.0 0.1204015004
H  H14  1  0.41970000  0.60010000  0.68040000  1.0 0.1204015004
H  H15  1  0.76610000  0.06290000  0.23800000  1.0 0.1204015004
H  H16  1  0.23390000  0.47190000  0.29680000  1.0 0.1204015004
H  H17  1  0.32490000  0.06290000  0.79680000  1.0 0.1204015004
H  H18  1  0.67510000  0.47190000  0.73800000  1.0 0.1204015004
H  H19  1  0.82160000  0.07490000  0.37710000  1.0 0.0983541317
H  H20  1  0.17840000  0.55550000  0.25330000  1.0 0.0983541317
H  H21  1  0.19780000  0.07490000  0.75330000  1.0 0.0983541317
H  H22  1  0.80220000  0.55550000  0.87710000  1.0 0.0983541317
H  H23  1  0.85400000  0.59270000  0.85950000  1.0 0.0983541317
H  H24  1  0.14600000  0.00550000  0.73870000  1.0 0.0983541317
H  H25  1  0.23320000  0.59270000  0.23870000  1.0 0.0983541317
H  H26  1  0.76680000  0.00550000  0.35950000  1.0 0.0983541317
H  H27  1  0.79850000  0.58080000  0.72050000  1.0 0.1265735564
H  H28  1  0.20150000  0.92200000  0.78230000  1.0 0.1265735564
H  H29  1  0.36030000  0.58080000  0.28230000  1.0 0.1265735564
H  H30  1  0.63970000  0.92200000  0.22050000  1.0 0.1265735564
C  C1  1  0.92860000  0.69760000  0.26900000  1.0 0.6214739195
C  C2  1  0.07140000  0.34040000  0.76900000  1.0 0.6214739195
C  C3  1  0.88680000  0.64180000  0.25500000  1.0 -0.0610374827
C  C4  1  0.11320000  0.36820000  0.75500000  1.0 -0.0610374827
C  C5  1  0.86590000  0.76990000  0.40400000  1.0 -0.1111081255
C  C6  1  0.13410000  0.53810000  0.90400000  1.0 -0.1111081255
C  C7  1  0.82530000  0.72630000  0.40100000  1.0 -0.1523470693
C  C8  1  0.17470000  0.57570000  0.90100000  1.0 -0.1523470693
C  C9  1  0.80560000  0.55460000  0.24900000  1.0 0.1478727869
C  C10  1  0.19440000  0.44340000  0.74900000  1.0 0.1478727869
C  C11  1  0.82650000  0.42750000  0.10100000  1.0 -0.1557210125
C  C12  1  0.17350000  0.27450000  0.60100000  1.0 -0.1557210125
C  C13  1  0.86710000  0.47110000  0.10400000  1.0 -0.1037163385
C  C14  1  0.13290000  0.23690000  0.60400000  1.0 -0.1037163385
C  C15  1  0.76300000  0.50543000  0.24243000  1.0 -0.1212846138
C  C16  1  0.23700000  0.47943000  0.74243000  1.0 -0.1212846138
C  C17  1  0.72670000  0.46370000  0.23700000  1.0 -0.0840849541
C  C18  1  0.27330000  0.51030000  0.73700000  1.0 -0.0840849541
C  C19  1  0.68520000  0.41020000  0.22500000  1.0 0.1404770426
C  C20  1  0.31480000  0.53980000  0.72500000  1.0 0.1404770426
C  C21  1  0.72370000  0.37820000  0.26950000  1.0 -0.2004678362
C  C22  1  0.27630000  0.54580000  0.65450000  1.0 -0.2004678362
C  C23  1  0.60870000  0.37820000  0.15450000  1.0 -0.2004678362
C  C24  1  0.39130000  0.54580000  0.76950000  1.0 -0.2004678362
C  C25  1  0.68500000  0.30890000  0.24210000  1.0 0.1265735564
C  C26  1  0.31500000  0.55710000  0.62390000  1.0 0.1265735564
C  C27  1  0.56680000  0.30890000  0.12390000  1.0 0.1265735564
C  C28  1  0.43320000  0.55710000  0.74210000  1.0 0.1265735564
C  C29  1  0.60800000  0.29000000  0.18200000  1.0 -0.1684719138
C  C30  1  0.39200000  0.57400000  0.68200000  1.0 -0.1684719138
C  C31  1  0.71620000  0.30590000  0.31230000  1.0 -0.1037163385
C  C32  1  0.28380000  0.59610000  0.58970000  1.0 -0.1037163385
C  C33  1  0.49360000  0.30590000  0.08970000  1.0 -0.1111081255
C  C34  1  0.50640000  0.59610000  0.81230000  1.0 -0.1037163385
C  C35  1  0.74560000  0.31420000  0.38740000  1.0 -0.1212846138
C  C36  1  0.25440000  0.64180000  0.56860000  1.0 -0.1212846138
C  C37  1  0.42680000  0.31420000  0.06860000  1.0 -0.1331761078
C  C38  1  0.57320000  0.64180000  0.88740000  1.0 -0.1212846138
C  C39  1  0.77700000  0.32080000  0.46620000  1.0 0.1204015004
C  C40  1  0.22300000  0.68920000  0.54380000  1.0 0.1204015004
C  C41  1  0.35460000  0.32080000  0.04380000  1.0 0.1204015004
C  C42  1  0.64540000  0.68920000  0.96620000  1.0 0.1204015004
C  C43  1  0.78410000  0.17010000  0.36400000  1.0 -0.1331761078
C  C44  1  0.21590000  0.57990000  0.38600000  1.0 -0.1331761078
C  C45  1  0.30610000  0.17010000  0.88600000  1.0 -0.1331761078
C  C46  1  0.69390000  0.57990000  0.86400000  1.0 -0.1331761078
C  C47  1  0.81680000  0.17780000  0.44700000  1.0 -0.1424452327
C  C48  1  0.18320000  0.63020000  0.36100000  1.0 -0.1424452327
C  C49  1  0.23080000  0.17780000  0.86100000  1.0 -0.1424452327
C  C50  1  0.76920000  0.63020000  0.94700000  1.0 -0.1424452327
C  C51  1  0.84310000  0.33530000  0.63180000  1.0 -0.0071672451
C  C52  1  0.15690000  0.78870000  0.49220000  1.0 -0.0071672451
C  C53  1  0.20350000  0.33530000  0.99220000  1.0 -0.0071672451
C  C54  1  0.79650000  0.78870000  0.13180000  1.0 -0.0071672451
C  C55  1  0.83600000  0.48500000  0.73300000  1.0 -0.1424452327
C  C56  1  0.16400000  0.89700000  0.64900000  1.0 -0.1424452327
C  C57  1  0.25200000  0.48500000  0.14900000  1.0 -0.1424452327
C  C58  1  0.74800000  0.89700000  0.23300000  1.0 -0.1424452327
C  C59  1  0.80330000  0.47830000  0.65100000  1.0 -0.1331761078
C  C60  1  0.19670000  0.84770000  0.67500000  1.0 -0.1331761078
C  C61  1  0.32730000  0.47830000  0.17500000  1.0 -0.1331761078
C  C62  1  0.67270000  0.84770000  0.15100000  1.0 -0.1331761078
C  C63  1  0.89180000  0.40580000  0.77400000  1.0 0.5519722216
C  C64  1  0.10820000  0.88220000  0.51400000  1.0 0.5519722216
C  C65  1  0.13180000  0.40580000  0.01400000  1.0 0.5519722216
C  C66  1  0.86820000  0.88220000  0.27400000  1.0 0.5519722216
O  O1  1  0.94630000  0.86230000  0.41600000  1.0 -0.6232986041
O  O2  1  0.05370000  0.46970000  0.91600000  1.0 -0.6232986041
O  O3  1  0.94710000  0.57910000  0.13200000  1.0 -0.4836158343
O  O4  1  0.05290000  0.18490000  0.63200000  1.0 -0.4836158343
O  O5  1  0.90250000  0.52520000  0.92330000  1.0 -0.4687112905
O  O6  1  0.09750000  0.02080000  0.62270000  1.0 -0.4687112905
O  O7  1  0.10190000  0.52520000  0.12270000  1.0 -0.4687112905
O  O8  1  0.89810000  0.02080000  0.42330000  1.0 -0.4687112905
O  O9  1  0.95340000  0.29340000  0.71600000  1.0 -0.6010757126
O  O10  1  0.04660000  0.76260000  0.34000000  1.0 -0.6010757126
O  O11  1  0.07740000  0.29340000  0.84000000  1.0 -0.6010757126
O  O12  1  0.92260000  0.76260000  0.21600000  1.0 -0.6010757126
