# DDEC6 charges by PACMAN v1.1 (https://github.com/mtap-research/PACMAN-charge/)
data_AHINIP_ASR_pacman
_symmetry_space_group_name_H-M   'P 1'
_cell_length_a   10.59200000
_cell_length_b   22.30600000
_cell_length_c   13.12000000
_cell_angle_alpha   90.00000000
_cell_angle_beta   100.81300000
_cell_angle_gamma   90.00000000
_symmetry_Int_Tables_number   1
_chemical_formula_structural   ZnH26C28(N3O2)2
_chemical_formula_sum   'Zn4 H104 C112 N24 O16'
_cell_volume   3044.76096762
_cell_formula_units_Z   4
loop_
 _symmetry_equiv_pos_site_id
 _symmetry_equiv_pos_as_xyz
  1  'x, y, z'
loop_
 _atom_site_type_symbol
 _atom_site_label
 _atom_site_symmetry_multiplicity
 _atom_site_fract_x
 _atom_site_fract_y
 _atom_site_fract_z
 _atom_site_occupancy
 _atom_site_charge
Zn  Zn1  1  0.77725000  0.13841000  0.48448000  1.0 0.7471841957
Zn  Zn2  1  0.22275000  0.63841000  0.51552000  1.0 0.7471841957
Zn  Zn3  1  0.30466000  0.07078000  0.98770000  1.0 0.7075700547
Zn  Zn4  1  0.69534000  0.57078000  0.01230000  1.0 0.7075700547
H  H1  1  0.47600000  0.24080000  0.70580000  1.0 0.1211974833
H  H2  1  0.52400000  0.74080000  0.29420000  1.0 0.1211974833
H  H3  1  0.35830000  0.36300000  0.49150000  1.0 0.1403815714
H  H4  1  0.64170000  0.86300000  0.50850000  1.0 0.1403815714
H  H5  1  0.20810000  0.43050000  0.52060000  1.0 0.1403815714
H  H6  1  0.79190000  0.93050000  0.47940000  1.0 0.1403815714
H  H7  1  0.08010000  0.47370000  0.61850000  1.0 0.1289570804
H  H8  1  0.91990000  0.97370000  0.38150000  1.0 0.1289570804
H  H9  1  0.97720000  0.47230000  0.77220000  1.0 0.1403815714
H  H10  1  0.02280000  0.97230000  0.22780000  1.0 0.1403815714
H  H11  1  0.10110000  0.34930000  0.99240000  1.0 0.1289570804
H  H12  1  0.89890000  0.84930000  0.00760000  1.0 0.1289570804
H  H13  1  0.61560000  0.20800000  0.62320000  1.0 0.1211974833
H  H14  1  0.38440000  0.70800000  0.37680000  1.0 0.1211974833
H  H15  1  0.46580000  0.31180000  0.37810000  1.0 0.1403815714
H  H16  1  0.53420000  0.81180000  0.62190000  1.0 0.1403815714
H  H17  1  0.63250000  0.25050000  0.33200000  1.0 0.1403815714
H  H18  1  0.36750000  0.75050000  0.66800000  1.0 0.1403815714
H  H19  1  0.88040000  0.51430000  0.89400000  1.0 0.1211974833
H  H20  1  0.11960000  0.01430000  0.10600000  1.0 0.1211974833
H  H21  1  0.92140000  0.37110000  0.05980000  1.0 0.1403815714
H  H22  1  0.07860000  0.87110000  0.94020000  1.0 0.1403815714
H  H23  1  0.76750000  0.43800000  0.12340000  1.0 0.1403815714
H  H24  1  0.23250000  0.93800000  0.87660000  1.0 0.1403815714
H  H25  1  0.47870000  0.93780000  0.16070000  1.0 0.1211974833
H  H26  1  0.52130000  0.43780000  0.83930000  1.0 0.1289570804
H  H27  1  0.39720000  0.97640000  0.43490000  1.0 0.1485823875
H  H28  1  0.60280000  0.47640000  0.56510000  1.0 0.1485823875
H  H29  1  0.24000000  0.91200000  0.50960000  1.0 0.1289570804
H  H30  1  0.76000000  0.41200000  0.49040000  1.0 0.1289570804
H  H31  1  0.09460000  0.83610000  0.48430000  1.0 0.1403815714
H  H32  1  0.90540000  0.33610000  0.51570000  1.0 0.1289570804
H  H33  1  0.99160000  0.74970000  0.38170000  1.0 0.1403815714
H  H34  1  0.00840000  0.24970000  0.61830000  1.0 0.1403815714
H  H35  1  0.06980000  0.72030000  0.10330000  1.0 0.1289570804
H  H36  1  0.93020000  0.22030000  0.89670000  1.0 0.1289570804
H  H37  1  0.59670000  0.02460000  0.46840000  1.0 0.1289570804
H  H38  1  0.40330000  0.52460000  0.53160000  1.0 0.1289570804
H  H39  1  0.54250000  0.04000000  0.15960000  1.0 0.1289570804
H  H40  1  0.45750000  0.54000000  0.84040000  1.0 0.1289570804
H  H41  1  0.68800000  0.12010000  0.23870000  1.0 0.1485823875
H  H42  1  0.31200000  0.62010000  0.76130000  1.0 0.1485823875
H  H43  1  0.86610000  0.68470000  0.06580000  1.0 0.1289570804
H  H44  1  0.13390000  0.18470000  0.93420000  1.0 0.1289570804
H  H45  1  0.93770000  0.63830000  0.36010000  1.0 0.1485823875
H  H46  1  0.06230000  0.13830000  0.63990000  1.0 0.1485823875
H  H47  1  0.78430000  0.56840000  0.27130000  1.0 0.1403815714
H  H48  1  0.21570000  0.06840000  0.72870000  1.0 0.1403815714
H  H49  1  0.29370000  0.20520000  0.25970000  1.0 0.1002590998
H  H50  1  0.70630000  0.70520000  0.74030000  1.0 0.1002590998
H  H51  1  0.29630000  0.09120000  0.32940000  1.0 0.0896463807
H  H52  1  0.70370000  0.59120000  0.67060000  1.0 0.0896463807
H  H53  1  0.38040000  0.14660000  0.37600000  1.0 0.1002590998
H  H54  1  0.61960000  0.64660000  0.62400000  1.0 0.1002590998
H  H55  1  0.24230000  0.16430000  0.48130000  1.0 0.1002590998
H  H56  1  0.75770000  0.66430000  0.51870000  1.0 0.1002590998
H  H57  1  0.15560000  0.11070000  0.43160000  1.0 0.1002590998
H  H58  1  0.84440000  0.61070000  0.56840000  1.0 0.1002590998
H  H59  1  0.05640000  0.27830000  0.37330000  1.0 0.1211974833
H  H60  1  0.94360000  0.77830000  0.62670000  1.0 0.1211974833
H  H61  1  0.17250000  0.25890000  0.45960000  1.0 0.1115946892
H  H62  1  0.82750000  0.75890000  0.54040000  1.0 0.1115946892
H  H63  1  0.19230000  0.26810000  0.34520000  1.0 0.1115946892
H  H64  1  0.80770000  0.76810000  0.65480000  1.0 0.1115946892
H  H65  1  0.99950000  0.20930000  0.11220000  1.0 0.1211974833
H  H66  1  0.00050000  0.70930000  0.88780000  1.0 0.1211974833
H  H67  1  0.00280000  0.25490000  0.20350000  1.0 0.1289570804
H  H68  1  0.99720000  0.75490000  0.79650000  1.0 0.1289570804
H  H69  1  0.12220000  0.24860000  0.14950000  1.0 0.1211974833
H  H70  1  0.87780000  0.74860000  0.85050000  1.0 0.1211974833
H  H71  1  0.94330000  0.13160000  0.20960000  1.0 0.1289570804
H  H72  1  0.05670000  0.63160000  0.79040000  1.0 0.1289570804
H  H73  1  0.04160000  0.11880000  0.13670000  1.0 0.1115946892
H  H74  1  0.95840000  0.61880000  0.86330000  1.0 0.1115946892
H  H75  1  0.06330000  0.09090000  0.24830000  1.0 0.1115946892
H  H76  1  0.93670000  0.59090000  0.75170000  1.0 0.1115946892
H  H77  1  0.85470000  0.09000000  0.81660000  1.0 0.1115946892
H  H78  1  0.14530000  0.59000000  0.18340000  1.0 0.1115946892
H  H79  1  0.83230000  0.97220000  0.76300000  1.0 0.1002590998
H  H80  1  0.16770000  0.47220000  0.23700000  1.0 0.1002590998
H  H81  1  0.91310000  0.00030000  0.86520000  1.0 0.068691826
H  H82  1  0.08690000  0.50030000  0.13480000  1.0 0.068691826
H  H83  1  0.75760000  0.95800000  0.94340000  1.0 0.0823891158
H  H84  1  0.24240000  0.45800000  0.05660000  1.0 0.0823891158
H  H85  1  0.65650000  0.95610000  0.83870000  1.0 0.1002590998
H  H86  1  0.34350000  0.45610000  0.16130000  1.0 0.1002590998
H  H87  1  0.71180000  0.05850000  0.06310000  1.0 0.1211974833
H  H88  1  0.28820000  0.55850000  0.93690000  1.0 0.1211974833
H  H89  1  0.82350000  0.03100000  0.01480000  1.0 0.1115946892
H  H90  1  0.17650000  0.53100000  0.98520000  1.0 0.1115946892
H  H91  1  0.78260000  0.09800000  0.99240000  1.0 0.1289570804
H  H92  1  0.21740000  0.59800000  0.00760000  1.0 0.1289570804
H  H93  1  0.68260000  0.15550000  0.90870000  1.0 0.1289570804
H  H94  1  0.31740000  0.65550000  0.09130000  1.0 0.1289570804
H  H95  1  0.68640000  0.16990000  0.79240000  1.0 0.1211974833
H  H96  1  0.31360000  0.66990000  0.20760000  1.0 0.1211974833
H  H97  1  0.55480000  0.15660000  0.82610000  1.0 0.1289570804
H  H98  1  0.44520000  0.65660000  0.17390000  1.0 0.1289570804
H  H99  1  0.57420000  0.06530000  0.66430000  1.0 0.1211974833
H  H100  1  0.42580000  0.56530000  0.33570000  1.0 0.1211974833
H  H101  1  0.50990000  0.02660000  0.74030000  1.0 0.1211974833
H  H102  1  0.49010000  0.52660000  0.25970000  1.0 0.1211974833
H  H103  1  0.48440000  0.09580000  0.73140000  1.0 0.1211974833
H  H104  1  0.51560000  0.59580000  0.26860000  1.0 0.1211974833
C  C1  1  0.42530000  0.27420000  0.68450000  1.0 -0.0123174264
C  C2  1  0.57470000  0.77420000  0.31550000  1.0 -0.0123174264
C  C3  1  0.43290000  0.29880000  0.58920000  1.0 0.0896463807
C  C4  1  0.56710000  0.79880000  0.41080000  1.0 0.0896463807
C  C5  1  0.35660000  0.34630000  0.55620000  1.0 -0.2137114209
C  C6  1  0.64340000  0.84630000  0.44380000  1.0 -0.2137114209
C  C7  1  0.27910000  0.36960000  0.61520000  1.0 0.0603903543
C  C8  1  0.72090000  0.86960000  0.38480000  1.0 0.0603903543
C  C9  1  0.20640000  0.41420000  0.58550000  1.0 -0.1495382254
C  C10  1  0.79360000  0.91420000  0.41450000  1.0 -0.1495382254
C  C11  1  0.12600000  0.43960000  0.64360000  1.0 -0.1599657003
C  C12  1  0.87400000  0.93960000  0.35640000  1.0 -0.1599657003
C  C13  1  0.11000000  0.41550000  0.74150000  1.0 0.068691826
C  C14  1  0.89000000  0.91550000  0.25850000  1.0 0.068691826
C  C15  1  0.02810000  0.43940000  0.79630000  1.0 -0.1977782388
C  C16  1  0.97190000  0.93940000  0.20370000  1.0 -0.1977782388
C  C17  1  0.02270000  0.41270000  0.89120000  1.0 0.1002590998
C  C18  1  0.97730000  0.91270000  0.10880000  1.0 0.1002590998
C  C19  1  0.10530000  0.36610000  0.92820000  1.0 -0.0276620731
C  C20  1  0.89470000  0.86610000  0.07180000  1.0 -0.0276620731
C  C21  1  0.18960000  0.37030000  0.77330000  1.0 0.1002590998
C  C22  1  0.81040000  0.87030000  0.22670000  1.0 0.1002590998
C  C23  1  0.27420000  0.34470000  0.70790000  1.0 0.068691826
C  C24  1  0.72580000  0.84470000  0.29210000  1.0 0.068691826
C  C25  1  0.60130000  0.22590000  0.55800000  1.0 0.0095172504
C  C26  1  0.39870000  0.72590000  0.44200000  1.0 0.0095172504
C  C27  1  0.51710000  0.28470000  0.42100000  1.0 -0.0981239927
C  C28  1  0.48290000  0.78470000  0.57900000  1.0 -0.0981239927
C  C29  1  0.60760000  0.24970000  0.39630000  1.0 -0.0276620731
C  C30  1  0.39240000  0.74970000  0.60370000  1.0 -0.0276620731
C  C31  1  0.87080000  0.48640000  0.94460000  1.0 0.1211974833
C  C32  1  0.12920000  0.98640000  0.05540000  1.0 0.1211974833
C  C33  1  0.89590000  0.40870000  0.03280000  1.0 -0.0569770884
C  C34  1  0.10410000  0.90870000  0.96720000  1.0 -0.0569770884
C  C35  1  0.80860000  0.44560000  0.06810000  1.0 -0.0123174264
C  C36  1  0.19140000  0.94560000  0.93190000  1.0 -0.0123174264
C  C37  1  0.43190000  0.92900000  0.21210000  1.0 -0.0400447425
C  C38  1  0.56810000  0.42900000  0.78790000  1.0 -0.0400447425
C  C39  1  0.44520000  0.96440000  0.30140000  1.0 0.1289570804
C  C40  1  0.55480000  0.46440000  0.69860000  1.0 0.1289570804
C  C41  1  0.38380000  0.95220000  0.37610000  1.0 -0.1977782388
C  C42  1  0.61620000  0.45220000  0.62390000  1.0 -0.1977782388
C  C43  1  0.29950000  0.90470000  0.37060000  1.0 0.0603903543
C  C44  1  0.70050000  0.40470000  0.62940000  1.0 0.0603903543
C  C45  1  0.22820000  0.89010000  0.44820000  1.0 -0.1495382254
C  C46  1  0.77180000  0.39010000  0.55180000  1.0 -0.1495382254
C  C47  1  0.14250000  0.84410000  0.43330000  1.0 -0.1336572979
C  C48  1  0.85750000  0.34410000  0.56670000  1.0 -0.1336572979
C  C49  1  0.12370000  0.80850000  0.34400000  1.0 0.0603903543
C  C50  1  0.87630000  0.30850000  0.65600000  1.0 0.0603903543
C  C51  1  0.03600000  0.76010000  0.32950000  1.0 -0.1895127267
C  C52  1  0.96400000  0.26010000  0.67050000  1.0 -0.1895127267
C  C53  1  0.01690000  0.72910000  0.23960000  1.0 0.1289570804
C  C54  1  0.98310000  0.22910000  0.76040000  1.0 0.1289570804
C  C55  1  0.08440000  0.74300000  0.16380000  1.0 -0.0400447425
C  C56  1  0.91560000  0.24300000  0.83620000  1.0 -0.0400447425
C  C57  1  0.18680000  0.82070000  0.26710000  1.0 0.0823891158
C  C58  1  0.81320000  0.32070000  0.73290000  1.0 0.0823891158
C  C59  1  0.28090000  0.87090000  0.27830000  1.0 0.1211974833
C  C60  1  0.71910000  0.37090000  0.72170000  1.0 0.1211974833
C  C61  1  0.60420000  0.03700000  0.40210000  1.0 0.0603903543
C  C62  1  0.39580000  0.53700000  0.59790000  1.0 0.0548100706
C  C63  1  0.57220000  0.04590000  0.23020000  1.0 -0.0794926238
C  C64  1  0.42780000  0.54590000  0.76980000  1.0 -0.0794926238
C  C65  1  0.65350000  0.08980000  0.27390000  1.0 -0.0276620731
C  C66  1  0.34650000  0.58980000  0.72610000  1.0 -0.0276620731
C  C67  1  0.86530000  0.66400000  0.12710000  1.0 0.0823891158
C  C68  1  0.13470000  0.16400000  0.87290000  1.0 0.0896463807
C  C69  1  0.90450000  0.63890000  0.28930000  1.0 -0.0794926238
C  C70  1  0.09550000  0.13890000  0.71070000  1.0 -0.0794926238
C  C71  1  0.82060000  0.60010000  0.24080000  1.0 -0.052777103
C  C72  1  0.17940000  0.10010000  0.75920000  1.0 -0.052777103
C  C73  1  0.96430000  0.18060000  0.39030000  1.0 0.5524027731
C  C74  1  0.03570000  0.68060000  0.60970000  1.0 0.5524027731
C  C75  1  0.10100000  0.19010000  0.36470000  1.0 0.04268312
C  C76  1  0.89900000  0.69010000  0.63530000  1.0 0.04268312
C  C77  1  0.10760000  0.17880000  0.24890000  1.0 0.2112731348
C  C78  1  0.89240000  0.67880000  0.75110000  1.0 0.2112731348
C  C79  1  0.24910000  0.16650000  0.25330000  1.0 -0.1495382254
C  C80  1  0.75090000  0.66650000  0.74670000  1.0 -0.1495382254
C  C81  1  0.29450000  0.13370000  0.34420000  1.0 -0.1895127267
C  C82  1  0.70550000  0.63370000  0.65580000  1.0 -0.1895127267
C  C83  1  0.19730000  0.14740000  0.41630000  1.0 -0.2137114209
C  C84  1  0.80270000  0.64740000  0.58370000  1.0 -0.2137114209
C  C85  1  0.13350000  0.25460000  0.38800000  1.0 -0.4340009008
C  C86  1  0.86650000  0.75460000  0.61200000  1.0 -0.4340009008
C  C87  1  0.05300000  0.22740000  0.17140000  1.0 -0.4340009008
C  C88  1  0.94700000  0.72740000  0.82860000  1.0 -0.4340009008
C  C89  1  0.03230000  0.12530000  0.20720000  1.0 -0.4621747498
C  C90  1  0.96770000  0.62530000  0.79280000  1.0 -0.4621747498
C  C91  1  0.53210000  0.03440000  0.93920000  1.0 0.4871887948
C  C92  1  0.46790000  0.53440000  0.06080000  1.0 0.4871887948
C  C93  1  0.65960000  0.03970000  0.91240000  1.0 0.0186627313
C  C94  1  0.34040000  0.53970000  0.08760000  1.0 0.0186627313
C  C95  1  0.66160000  0.07580000  0.81560000  1.0 0.2112731348
C  C96  1  0.33840000  0.57580000  0.18440000  1.0 0.2112731348
C  C97  1  0.79050000  0.06220000  0.77950000  1.0 -0.1895127267
C  C98  1  0.20950000  0.56220000  0.22050000  1.0 -0.1895127267
C  C99  1  0.82950000  0.99970000  0.81990000  1.0 -0.1687488397
C  C100  1  0.17050000  0.49970000  0.18010000  1.0 -0.1687488397
C  C101  1  0.72080000  0.98070000  0.88190000  1.0 -0.1895127267
C  C102  1  0.27920000  0.48070000  0.11810000  1.0 -0.1895127267
C  C103  1  0.75230000  0.05840000  0.00350000  1.0 -0.4419445012
C  C104  1  0.24770000  0.55840000  0.99650000  1.0 -0.4419445012
C  C105  1  0.64460000  0.14670000  0.83800000  1.0 -0.4536957358
C  C106  1  0.35540000  0.64670000  0.16200000  1.0 -0.4536957358
C  C107  1  0.54710000  0.06490000  0.73010000  1.0 -0.4685315405
C  C108  1  0.45290000  0.56490000  0.26990000  1.0 -0.4685315405
C  C109  1  0.78600000  0.07190000  0.66790000  1.0 0.5388056572
C  C110  1  0.21400000  0.57190000  0.33210000  1.0 0.5388056572
C  C111  1  0.27850000  0.13450000  0.15270000  1.0 0.5388056572
C  C112  1  0.72150000  0.63450000  0.84730000  1.0 0.5388056572
N  N1  1  0.35050000  0.29480000  0.74840000  1.0 -0.2282938872
N  N2  1  0.64950000  0.79480000  0.25160000  1.0 -0.2282938872
N  N3  1  0.19380000  0.34380000  0.87260000  1.0 -0.2484411326
N  N4  1  0.80620000  0.84380000  0.12740000  1.0 -0.2484411326
N  N5  1  0.51440000  0.27240000  0.52390000  1.0 0.0095172504
N  N6  1  0.48560000  0.77240000  0.47610000  1.0 0.0095172504
N  N7  1  0.66150000  0.21180000  0.47650000  1.0 -0.2868764911
N  N8  1  0.33850000  0.71180000  0.52350000  1.0 -0.2868764911
N  N9  1  0.93820000  0.43500000  0.95430000  1.0 0.0095172504
N  N10  1  0.06180000  0.93500000  0.04570000  1.0 0.0095172504
N  N11  1  0.79410000  0.49570000  0.00580000  1.0 -0.2728707407
N  N12  1  0.20590000  0.99570000  0.99420000  1.0 -0.2728707407
N  N13  1  0.34700000  0.88010000  0.20110000  1.0 -0.2484411326
N  N14  1  0.65300000  0.38010000  0.79890000  1.0 -0.2484411326
N  N15  1  0.17300000  0.78880000  0.17200000  1.0 -0.2728707407
N  N16  1  0.82700000  0.28880000  0.82800000  1.0 -0.2728707407
N  N17  1  0.54220000  0.01180000  0.30910000  1.0 0.0044181902
N  N18  1  0.45780000  0.51180000  0.69090000  1.0 0.0044181902
N  N19  1  0.67530000  0.08140000  0.37930000  1.0 -0.2574801062
N  N20  1  0.32470000  0.58140000  0.62070000  1.0 -0.2574801062
N  N21  1  0.93610000  0.68040000  0.22070000  1.0 0.0186627313
N  N22  1  0.06390000  0.18040000  0.77930000  1.0 0.0186627313
N  N23  1  0.79510000  0.61540000  0.13270000  1.0 -0.2845542048
N  N24  1  0.20490000  0.11540000  0.86730000  1.0 -0.2845542048
O  O1  1  0.95230000  0.15220000  0.46670000  1.0 -0.5234083746
O  O2  1  0.04770000  0.65220000  0.53330000  1.0 -0.5234083746
O  O3  1  0.86880000  0.20690000  0.33130000  1.0 -0.604956529
O  O4  1  0.13120000  0.70690000  0.66870000  1.0 -0.6096136783
O  O5  1  0.27950000  0.09010000  0.13320000  1.0 -0.3843068395
O  O6  1  0.72050000  0.59010000  0.86680000  1.0 -0.3861543153
O  O7  1  0.29240000  0.18410000  0.09060000  1.0 -0.6096136783
O  O8  1  0.70760000  0.68410000  0.90940000  1.0 -0.6096136783
O  O9  1  0.48350000  0.07170000  0.97830000  1.0 -0.349055237
O  O10  1  0.51650000  0.57170000  0.02170000  1.0 -0.349055237
O  O11  1  0.46270000  0.99260000  0.90520000  1.0 -0.4776181195
O  O12  1  0.53730000  0.49260000  0.09480000  1.0 -0.4776181195
O  O13  1  0.78430000  0.02980000  0.60910000  1.0 -0.5123737071
O  O14  1  0.21570000  0.52980000  0.39090000  1.0 -0.5123737071
O  O15  1  0.78090000  0.12270000  0.63070000  1.0 -0.498600385
O  O16  1  0.21910000  0.62270000  0.36930000  1.0 -0.498600385
