# DDEC6 charges by PACMAN v1.1 (https://github.com/mtap-research/PACMAN-charge/)
data_AHOJUC_ASR_pacman
_symmetry_space_group_name_H-M   'P 1'
_cell_length_a   9.24300000
_cell_length_b   8.81700000
_cell_length_c   9.68400000
_cell_angle_alpha   90.00000000
_cell_angle_beta   120.92000000
_cell_angle_gamma   90.00000000
_symmetry_Int_Tables_number   1
_chemical_formula_structural   V(PO3)2
_chemical_formula_sum   'V4 P8 O24'
_cell_volume   677.04564592
_cell_formula_units_Z   4
loop_
 _symmetry_equiv_pos_site_id
 _symmetry_equiv_pos_as_xyz
  1  'x, y, z'
loop_
 _atom_site_type_symbol
 _atom_site_label
 _atom_site_symmetry_multiplicity
 _atom_site_fract_x
 _atom_site_fract_y
 _atom_site_fract_z
 _atom_site_occupancy
 _atom_site_charge
V  V1  1  0.00000000  0.39270000  0.25000000  1.0 1.7915535768
V  V2  1  0.00000000  0.60730000  0.75000000  1.0 1.7964942455
V  V3  1  0.50000000  0.11040000  0.25000000  1.0 1.7915535768
V  V4  1  0.50000000  0.88960000  0.75000000  1.0 1.7915535768
P  P1  1  0.74240000  0.10170000  0.07350000  1.0 1.5658215761
P  P2  1  0.25760000  0.10170000  0.42650000  1.0 1.5658215761
P  P3  1  0.25760000  0.89830000  0.92650000  1.0 1.5658215761
P  P4  1  0.74240000  0.89830000  0.57350000  1.0 1.563460509
P  P5  1  0.83260000  0.33290000  0.47280000  1.0 1.5658215761
P  P6  1  0.16740000  0.33290000  0.02720000  1.0 1.563460509
P  P7  1  0.16740000  0.66710000  0.52720000  1.0 1.563460509
P  P8  1  0.83260000  0.66710000  0.97280000  1.0 1.5658215761
O  O1  1  0.86400000  0.39900000  0.34500000  1.0 -0.8062855453
O  O2  1  0.13600000  0.39900000  0.15500000  1.0 -0.8062855453
O  O3  1  0.13600000  0.60100000  0.65500000  1.0 -0.8062855453
O  O4  1  0.86400000  0.60100000  0.84500000  1.0 -0.8062855453
O  O5  1  0.65400000  0.25700000  0.41000000  1.0 -0.8302456066
O  O6  1  0.34600000  0.25700000  0.09000000  1.0 -0.8302456066
O  O7  1  0.34600000  0.74300000  0.59000000  1.0 -0.8302456066
O  O8  1  0.65400000  0.74300000  0.91000000  1.0 -0.8302456066
O  O9  1  0.84800000  0.44800000  0.60500000  1.0 -0.7876441777
O  O10  1  0.15200000  0.44800000  0.89500000  1.0 -0.7876441777
O  O11  1  0.15200000  0.55200000  0.39500000  1.0 -0.7876441777
O  O12  1  0.84800000  0.55200000  0.10500000  1.0 -0.7876441777
O  O13  1  0.64400000  0.05800000  0.89600000  1.0 -0.8238160611
O  O14  1  0.35600000  0.05800000  0.60400000  1.0 -0.8238160611
O  O15  1  0.35600000  0.94200000  0.10400000  1.0 -0.8238160611
O  O16  1  0.64400000  0.94200000  0.39600000  1.0 -0.8238160611
O  O17  1  0.86300000  0.23200000  0.10500000  1.0 -0.8444240988
O  O18  1  0.13700000  0.23200000  0.39500000  1.0 -0.8444240988
O  O19  1  0.13700000  0.76800000  0.89500000  1.0 -0.8444240988
O  O20  1  0.86300000  0.76800000  0.60500000  1.0 -0.8444240988
O  O21  1  0.63100000  0.11500000  0.13900000  1.0 -0.8302456066
O  O22  1  0.36900000  0.11500000  0.36100000  1.0 -0.8302456066
O  O23  1  0.36900000  0.88500000  0.86100000  1.0 -0.8302456066
O  O24  1  0.63100000  0.88500000  0.63900000  1.0 -0.8302456066
