# DDEC6 charges by PACMAN v1.1 (https://github.com/mtap-research/PACMAN-charge/)
data_AHOKAJ_FSR_pacman
_symmetry_space_group_name_H-M   'P 1'
_cell_length_a   9.24700000
_cell_length_b   8.82400000
_cell_length_c   9.69300000
_cell_angle_alpha   90.00000000
_cell_angle_beta   120.72000000
_cell_angle_gamma   90.00000000
_symmetry_Int_Tables_number   1
_chemical_formula_structural   Fe(PO3)2
_chemical_formula_sum   'Fe4 P8 O24'
_cell_volume   679.92085916
_cell_formula_units_Z   4
loop_
 _symmetry_equiv_pos_site_id
 _symmetry_equiv_pos_as_xyz
  1  'x, y, z'
loop_
 _atom_site_type_symbol
 _atom_site_label
 _atom_site_symmetry_multiplicity
 _atom_site_fract_x
 _atom_site_fract_y
 _atom_site_fract_z
 _atom_site_occupancy
 _atom_site_charge
Fe  Fe1  1  0.00000000  0.39040000  0.25000000  1.0 1.4361820271
Fe  Fe2  1  0.00000000  0.60960000  0.75000000  1.0 1.4304721405
Fe  Fe3  1  0.50000000  0.11230000  0.25000000  1.0 1.5112995555
Fe  Fe4  1  0.50000000  0.88770000  0.75000000  1.0 1.5112995555
P  P1  1  0.73680000  0.10250000  0.06850000  1.0 1.588457351
P  P2  1  0.26320000  0.10250000  0.43150000  1.0 1.588457351
P  P3  1  0.26320000  0.89750000  0.93150000  1.0 1.588457351
P  P4  1  0.73680000  0.89750000  0.56850000  1.0 1.588457351
P  P5  1  0.83530000  0.33240000  0.47310000  1.0 1.5812504639
P  P6  1  0.16470000  0.33240000  0.02690000  1.0 1.5812504639
P  P7  1  0.16470000  0.66760000  0.52690000  1.0 1.5812504639
P  P8  1  0.83530000  0.66760000  0.97310000  1.0 1.5812504639
O  O1  1  0.85700000  0.40400000  0.34200000  1.0 -0.750152501
O  O2  1  0.14300000  0.40400000  0.15800000  1.0 -0.750152501
O  O3  1  0.14300000  0.59600000  0.65800000  1.0 -0.750152501
O  O4  1  0.85700000  0.59600000  0.84200000  1.0 -0.750152501
O  O5  1  0.66800000  0.26500000  0.41400000  1.0 -0.7774645935
O  O6  1  0.33200000  0.26500000  0.08600000  1.0 -0.7774645935
O  O7  1  0.33200000  0.73500000  0.58600000  1.0 -0.7774645935
O  O8  1  0.66800000  0.73500000  0.91400000  1.0 -0.7774645935
O  O9  1  0.85100000  0.44400000  0.60500000  1.0 -0.750152501
O  O10  1  0.14900000  0.44400000  0.89500000  1.0 -0.750152501
O  O11  1  0.14900000  0.55600000  0.39500000  1.0 -0.750152501
O  O12  1  0.85100000  0.55600000  0.10500000  1.0 -0.750152501
O  O13  1  0.65300000  0.05900000  0.89300000  1.0 -0.7862532089
O  O14  1  0.34700000  0.05900000  0.60700000  1.0 -0.7862532089
O  O15  1  0.34700000  0.94100000  0.10700000  1.0 -0.7862532089
O  O16  1  0.65300000  0.94100000  0.39300000  1.0 -0.7862532089
O  O17  1  0.86200000  0.23000000  0.09900000  1.0 -0.8060734222
O  O18  1  0.13800000  0.23000000  0.40100000  1.0 -0.8060734222
O  O19  1  0.13800000  0.77000000  0.90100000  1.0 -0.8060734222
O  O20  1  0.86200000  0.77000000  0.59900000  1.0 -0.8060734222
O  O21  1  0.62600000  0.11800000  0.13200000  1.0 -0.771924908
O  O22  1  0.37400000  0.11800000  0.36800000  1.0 -0.771924908
O  O23  1  0.37400000  0.88200000  0.86800000  1.0 -0.771924908
O  O24  1  0.62600000  0.88200000  0.63200000  1.0 -0.771924908
