# DDEC6 charges by PACMAN v1.1 (https://github.com/mtap-research/PACMAN-charge/)
data_AHOKIR_FSR_pacman
_symmetry_space_group_name_H-M   'P 1'
_cell_length_a   10.55610000
_cell_length_b   10.55610000
_cell_length_c   4.39960000
_cell_angle_alpha   88.69170000
_cell_angle_beta   91.30830000
_cell_angle_gamma   143.15900000
_symmetry_Int_Tables_number   1
_chemical_formula_structural   CuPC2O5
_chemical_formula_sum   'Cu2 P2 C4 O10'
_cell_volume   293.86876937
_cell_formula_units_Z   2
loop_
 _symmetry_equiv_pos_site_id
 _symmetry_equiv_pos_as_xyz
  1  'x, y, z'
loop_
 _atom_site_type_symbol
 _atom_site_label
 _atom_site_symmetry_multiplicity
 _atom_site_fract_x
 _atom_site_fract_y
 _atom_site_fract_z
 _atom_site_occupancy
 _atom_site_charge
Cu  Cu1  1  0.50000000  0.00000000  0.00000000  1.0 0.9516220416
Cu  Cu2  1  0.00000000  0.50000000  0.00000000  1.0 0.9516220416
P  P1  1  0.32500000  0.67500000  0.52120000  1.0 1.2467437113
P  P2  1  0.67500000  0.32500000  0.47880000  1.0 1.2467437113
C  C1  1  0.40390000  0.59610000  0.33300000  1.0 -0.458650363
C  C2  1  0.59610000  0.40390000  0.66700000  1.0 -0.458650363
C  C3  1  0.46310000  0.53690000  0.56200000  1.0 0.2181131492
C  C4  1  0.53690000  0.46310000  0.43800000  1.0 0.2181131492
O  O1  1  0.51450000  0.87750000  0.69920000  1.0 -0.725814802
O  O2  1  0.87750000  0.51450000  0.30080000  1.0 -0.725814802
O  O3  1  0.48550000  0.12250000  0.30080000  1.0 -0.725814802
O  O4  1  0.12250000  0.48550000  0.69920000  1.0 -0.725814802
O  O5  1  0.27230000  0.72770000  0.25300000  1.0 -0.7796829616
O  O6  1  0.72770000  0.27230000  0.74700000  1.0 -0.7796829616
O  O7  1  0.78540000  0.13860000  0.24600000  1.0 0.1367420132
O  O8  1  0.13860000  0.78540000  0.75400000  1.0 0.1367420132
O  O9  1  0.21460000  0.86140000  0.75400000  1.0 0.1367420132
O  O10  1  0.86140000  0.21460000  0.24600000  1.0 0.1367420132
