# DDEC6 charges by PACMAN v1.1 (https://github.com/mtap-research/PACMAN-charge/)
data_AHOKOX_ASR_pacman
_symmetry_space_group_name_H-M   'P 1'
_cell_length_a   4.35290000
_cell_length_b   6.76330000
_cell_length_c   22.37730000
_cell_angle_alpha   90.00000000
_cell_angle_beta   90.00000000
_cell_angle_gamma   90.00000000
_symmetry_Int_Tables_number   1
_chemical_formula_structural   Cu2P2C5O6
_chemical_formula_sum   'Cu4 P4 C10 O12'
_cell_volume   658.78700868
_cell_formula_units_Z   2
loop_
 _symmetry_equiv_pos_site_id
 _symmetry_equiv_pos_as_xyz
  1  'x, y, z'
loop_
 _atom_site_type_symbol
 _atom_site_label
 _atom_site_symmetry_multiplicity
 _atom_site_fract_x
 _atom_site_fract_y
 _atom_site_fract_z
 _atom_site_occupancy
 _atom_site_charge
Cu  Cu1  1  0.00000000  0.25000000  0.75000000  1.0 1.0392186607
Cu  Cu2  1  0.00000000  0.75000000  0.25000000  1.0 1.0392186607
Cu  Cu3  1  0.00000000  0.25000000  0.25000000  1.0 1.0392186607
Cu  Cu4  1  0.00000000  0.75000000  0.75000000  1.0 1.0392186607
P  P1  1  0.50010000  0.50000000  0.81660000  1.0 1.3053469028
P  P2  1  0.50010000  0.50000000  0.18340000  1.0 1.3053469028
P  P3  1  0.49990000  0.00000000  0.31660000  1.0 1.3045207824
P  P4  1  0.49990000  0.00000000  0.68340000  1.0 1.3045207824
C  C1  1  0.69200000  0.50000000  0.88880000  1.0 -0.3426238407
C  C2  1  0.69200000  0.50000000  0.11120000  1.0 -0.3426238407
C  C3  1  0.30800000  0.00000000  0.38880000  1.0 -0.3426238407
C  C4  1  0.30800000  0.00000000  0.61120000  1.0 -0.3426238407
C  C5  1  0.45600000  0.50000000  0.94320000  1.0 0.2088040824
C  C6  1  0.45600000  0.50000000  0.05680000  1.0 0.2088040824
C  C7  1  0.54400000  0.00000000  0.44320000  1.0 0.2088040824
C  C8  1  0.54400000  0.00000000  0.55680000  1.0 0.2088040824
C  C9  1  0.63400000  0.50000000  0.00000000  1.0 0.0054751605
C  C10  1  0.36600000  0.00000000  0.50000000  1.0 0.0040488338
O  O1  1  0.76320000  0.50000000  0.76860000  1.0 -0.7758748268
O  O2  1  0.76320000  0.50000000  0.23140000  1.0 -0.7758748268
O  O3  1  0.23680000  0.00000000  0.26860000  1.0 -0.7758748268
O  O4  1  0.23680000  0.00000000  0.73140000  1.0 -0.7758748268
O  O5  1  0.30950000  0.68630000  0.80960000  1.0 -0.7184194584
O  O6  1  0.30950000  0.31370000  0.19040000  1.0 -0.7184194584
O  O7  1  0.69050000  0.81370000  0.30960000  1.0 -0.7184194584
O  O8  1  0.69050000  0.18630000  0.69040000  1.0 -0.7184194584
O  O9  1  0.69050000  0.81370000  0.69040000  1.0 -0.7184194584
O  O10  1  0.69050000  0.18630000  0.30960000  1.0 -0.7184194584
O  O11  1  0.30950000  0.68630000  0.19040000  1.0 -0.7184194584
O  O12  1  0.30950000  0.31370000  0.80960000  1.0 -0.7184194584
