# DDEC6 charges by PACMAN v1.1 (https://github.com/mtap-research/PACMAN-charge/)
data_AHOMOB01_ASR_pacman
_symmetry_space_group_name_H-M   'P 1'
_cell_length_a   14.95030000
_cell_length_b   7.70480000
_cell_length_c   16.04470000
_cell_angle_alpha   90.00000000
_cell_angle_beta   107.58100000
_cell_angle_gamma   90.00000000
_symmetry_Int_Tables_number   1
_chemical_formula_structural   ZnH9C13N3O4
_chemical_formula_sum   'Zn4 H36 C52 N12 O16'
_cell_volume   1761.84751828
_cell_formula_units_Z   4
loop_
 _symmetry_equiv_pos_site_id
 _symmetry_equiv_pos_as_xyz
  1  'x, y, z'
loop_
 _atom_site_type_symbol
 _atom_site_label
 _atom_site_symmetry_multiplicity
 _atom_site_fract_x
 _atom_site_fract_y
 _atom_site_fract_z
 _atom_site_occupancy
 _atom_site_charge
Zn  Zn1  1  0.64294000  0.00455000  0.81282000  1.0 0.7751692771
Zn  Zn2  1  0.35706000  0.50455000  0.68718000  1.0 0.7751692771
Zn  Zn3  1  0.35706000  0.99545000  0.18718000  1.0 0.7751692771
Zn  Zn4  1  0.64294000  0.49545000  0.31282000  1.0 0.7751692771
H  H1  1  0.49800000  0.04150000  0.85790000  1.0 0.3158150552
H  H2  1  0.49130000  0.16320000  0.78810000  1.0 0.310884708
H  H3  1  0.76610000  0.06660000  0.99650000  1.0 0.1204602434
H  H4  1  0.55620000  0.12290000  0.00720000  1.0 0.140318934
H  H5  1  0.57790000  0.43370000  0.81350000  1.0 0.140318934
H  H6  1  0.76930000  0.26890000  0.77990000  1.0 0.1204602434
H  H7  1  0.89610000  0.43590000  0.84970000  1.0 0.140318934
H  H8  1  0.89960000  0.21300000  0.06930000  1.0 0.1493103294
H  H9  1  0.64710000  0.61350000  0.05930000  1.0 0.1274219765
H  H10  1  0.50200000  0.54150000  0.64210000  1.0 0.3158150552
H  H11  1  0.50870000  0.66320000  0.71190000  1.0 0.310884708
H  H12  1  0.23390000  0.56660000  0.50350000  1.0 0.1204602434
H  H13  1  0.44380000  0.62290000  0.49280000  1.0 0.140318934
H  H14  1  0.42210000  0.93370000  0.68650000  1.0 0.140318934
H  H15  1  0.23070000  0.76890000  0.72010000  1.0 0.1204602434
H  H16  1  0.10390000  0.93590000  0.65030000  1.0 0.140318934
H  H17  1  0.10040000  0.71300000  0.43070000  1.0 0.1493103294
H  H18  1  0.35290000  0.11350000  0.44070000  1.0 0.1274219765
H  H19  1  0.50200000  0.95850000  0.14210000  1.0 0.3158150552
H  H20  1  0.50870000  0.83680000  0.21190000  1.0 0.310884708
H  H21  1  0.23390000  0.93340000  0.00350000  1.0 0.1204602434
H  H22  1  0.44380000  0.87710000  0.99280000  1.0 0.140318934
H  H23  1  0.42210000  0.56630000  0.18650000  1.0 0.140318934
H  H24  1  0.23070000  0.73110000  0.22010000  1.0 0.1204602434
H  H25  1  0.10390000  0.56410000  0.15030000  1.0 0.140318934
H  H26  1  0.10040000  0.78700000  0.93070000  1.0 0.1493103294
H  H27  1  0.35290000  0.38650000  0.94070000  1.0 0.1274219765
H  H28  1  0.49800000  0.45850000  0.35790000  1.0 0.3158150552
H  H29  1  0.49130000  0.33680000  0.28810000  1.0 0.310884708
H  H30  1  0.76610000  0.43340000  0.49650000  1.0 0.1204602434
H  H31  1  0.55620000  0.37710000  0.50720000  1.0 0.140318934
H  H32  1  0.57790000  0.06630000  0.31350000  1.0 0.140318934
H  H33  1  0.76930000  0.23110000  0.27990000  1.0 0.1204602434
H  H34  1  0.89610000  0.06410000  0.34970000  1.0 0.140318934
H  H35  1  0.89960000  0.28700000  0.56930000  1.0 0.1493103294
H  H36  1  0.64710000  0.88650000  0.55930000  1.0 0.1274219765
C  C1  1  0.79550000  0.13490000  0.96480000  1.0 0.0893280445
C  C2  1  0.55960000  0.25810000  0.90063000  1.0 0.2473832606
C  C3  1  0.57070000  0.23050000  0.98837000  1.0 -0.1992581101
C  C4  1  0.58320000  0.41720000  0.87220000  1.0 -0.2110239123
C  C5  1  0.61130000  0.33750000  0.14321000  1.0 0.5476198732
C  C6  1  0.60350000  0.36430000  0.04874000  1.0 -0.0184832127
C  C7  1  0.79660000  0.25430000  0.83970000  1.0 0.0841643451
C  C8  1  0.87220000  0.35690000  0.88140000  1.0 -0.1992581101
C  C9  1  0.91030000  0.34240000  0.96630000  1.0 0.1595691009
C  C10  1  0.87300000  0.22850000  0.00940000  1.0 -0.2110239123
C  C11  1  0.63420000  0.72810000  0.90151000  1.0 0.5449604629
C  C12  1  0.61460000  0.55140000  0.93135000  1.0 -0.007691769
C  C13  1  0.62520000  0.52390000  0.01951000  1.0 -0.1308769496
C  C14  1  0.20450000  0.63490000  0.53520000  1.0 0.0893280445
C  C15  1  0.44040000  0.75810000  0.59937000  1.0 0.2473832606
C  C16  1  0.42930000  0.73050000  0.51163000  1.0 -0.1992581101
C  C17  1  0.41680000  0.91720000  0.62780000  1.0 -0.2110239123
C  C18  1  0.38870000  0.83750000  0.35679000  1.0 0.5476198732
C  C19  1  0.39650000  0.86430000  0.45126000  1.0 -0.0184832127
C  C20  1  0.20340000  0.75430000  0.66030000  1.0 0.0841643451
C  C21  1  0.12780000  0.85690000  0.61860000  1.0 -0.1992581101
C  C22  1  0.08970000  0.84240000  0.53370000  1.0 0.1595691009
C  C23  1  0.12700000  0.72850000  0.49060000  1.0 -0.2110239123
C  C24  1  0.36580000  0.22810000  0.59849000  1.0 0.5449604629
C  C25  1  0.38540000  0.05140000  0.56865000  1.0 -0.007691769
C  C26  1  0.37480000  0.02390000  0.48049000  1.0 -0.1308769496
C  C27  1  0.20450000  0.86510000  0.03520000  1.0 0.0893280445
C  C28  1  0.44040000  0.74190000  0.09937000  1.0 0.2473832606
C  C29  1  0.42930000  0.76950000  0.01163000  1.0 -0.1992581101
C  C30  1  0.41680000  0.58280000  0.12780000  1.0 -0.2110239123
C  C31  1  0.38870000  0.66250000  0.85679000  1.0 0.5476198732
C  C32  1  0.39650000  0.63570000  0.95126000  1.0 -0.0184832127
C  C33  1  0.20340000  0.74570000  0.16030000  1.0 0.0841643451
C  C34  1  0.12780000  0.64310000  0.11860000  1.0 -0.1992581101
C  C35  1  0.08970000  0.65760000  0.03370000  1.0 0.1595691009
C  C36  1  0.12700000  0.77150000  0.99060000  1.0 -0.2110239123
C  C37  1  0.36580000  0.27190000  0.09849000  1.0 0.5449604629
C  C38  1  0.38540000  0.44860000  0.06865000  1.0 -0.007691769
C  C39  1  0.37480000  0.47610000  0.98049000  1.0 -0.1308769496
C  C40  1  0.79550000  0.36510000  0.46480000  1.0 0.0893280445
C  C41  1  0.55960000  0.24190000  0.40063000  1.0 0.2473832606
C  C42  1  0.57070000  0.26950000  0.48837000  1.0 -0.1992581101
C  C43  1  0.58320000  0.08280000  0.37220000  1.0 -0.2110239123
C  C44  1  0.61130000  0.16250000  0.64321000  1.0 0.5476198732
C  C45  1  0.60350000  0.13570000  0.54874000  1.0 -0.0184832127
C  C46  1  0.79660000  0.24570000  0.33970000  1.0 0.0841643451
C  C47  1  0.87220000  0.14310000  0.38140000  1.0 -0.1992581101
C  C48  1  0.91030000  0.15760000  0.46630000  1.0 0.1595691009
C  C49  1  0.87300000  0.27150000  0.50940000  1.0 -0.2110239123
C  C50  1  0.63420000  0.77190000  0.40151000  1.0 0.5449604629
C  C51  1  0.61460000  0.94860000  0.43135000  1.0 -0.007691769
C  C52  1  0.62520000  0.97610000  0.51951000  1.0 -0.1308769496
N  N1  1  0.52959000  0.12050000  0.83763000  1.0 -0.5763105215
N  N2  1  0.76110000  0.13720000  0.87973000  1.0 -0.2186406092
N  N3  1  0.98850000  0.44540000  0.01940000  1.0 -0.068712561
N  N4  1  0.47041000  0.62050000  0.66237000  1.0 -0.5763105215
N  N5  1  0.23890000  0.63720000  0.62027000  1.0 -0.2186406092
N  N6  1  0.01150000  0.94540000  0.48060000  1.0 -0.068712561
N  N7  1  0.47041000  0.87950000  0.16237000  1.0 -0.5763105215
N  N8  1  0.23890000  0.86280000  0.12027000  1.0 -0.2186406092
N  N9  1  0.01150000  0.55460000  0.98060000  1.0 -0.068712561
N  N10  1  0.52959000  0.37950000  0.33763000  1.0 -0.5763105215
N  N11  1  0.76110000  0.36280000  0.37973000  1.0 -0.2186406092
N  N12  1  0.98850000  0.05460000  0.51940000  1.0 -0.068712561
O  O1  1  0.64269000  0.47030000  0.19237000  1.0 -0.5623060824
O  O2  1  0.58914000  0.19870000  0.16891000  1.0 -0.5395169841
O  O3  1  0.62522000  0.74950000  0.82014000  1.0 -0.5395169841
O  O4  1  0.65660000  0.84730000  0.95442000  1.0 -0.5308840038
O  O5  1  0.35731000  0.97030000  0.30763000  1.0 -0.5623060824
O  O6  1  0.41086000  0.69870000  0.33109000  1.0 -0.5395169841
O  O7  1  0.37478000  0.24950000  0.67986000  1.0 -0.5395169841
O  O8  1  0.34340000  0.34730000  0.54558000  1.0 -0.5308840038
O  O9  1  0.35731000  0.52970000  0.80763000  1.0 -0.5623060824
O  O10  1  0.41086000  0.80130000  0.83109000  1.0 -0.5395169841
O  O11  1  0.37478000  0.25050000  0.17986000  1.0 -0.5395169841
O  O12  1  0.34340000  0.15270000  0.04558000  1.0 -0.5308840038
O  O13  1  0.64269000  0.02970000  0.69237000  1.0 -0.5623060824
O  O14  1  0.58914000  0.30130000  0.66891000  1.0 -0.5395169841
O  O15  1  0.62522000  0.75050000  0.32014000  1.0 -0.5395169841
O  O16  1  0.65660000  0.65270000  0.45442000  1.0 -0.5308840038
