# DDEC6 charges by PACMAN v1.1 (https://github.com/mtap-research/PACMAN-charge/)
data_AJECUQ_FSR_pacman
_symmetry_space_group_name_H-M   'P 1'
_cell_length_a   15.05160000
_cell_length_b   15.05160000
_cell_length_c   15.05160000
_cell_angle_alpha   117.72300000
_cell_angle_beta   117.72300000
_cell_angle_gamma   117.72300000
_symmetry_Int_Tables_number   1
_chemical_formula_structural   CoH7C5IO4
_chemical_formula_sum   'Co6 H42 C30 I6 O24'
_cell_volume   1318.14995901
_cell_formula_units_Z   6
loop_
 _symmetry_equiv_pos_site_id
 _symmetry_equiv_pos_as_xyz
  1  'x, y, z'
loop_
 _atom_site_type_symbol
 _atom_site_label
 _atom_site_symmetry_multiplicity
 _atom_site_fract_x
 _atom_site_fract_y
 _atom_site_fract_z
 _atom_site_occupancy
 _atom_site_charge
Co  Co1  1  0.65939000  0.93001000  0.23560000  1.0 0.9119042322
Co  Co2  1  0.93001000  0.23560000  0.65939000  1.0 0.9119042322
Co  Co3  1  0.23560000  0.65939000  0.93001000  1.0 0.9119042322
Co  Co4  1  0.93001000  0.65939000  0.23560000  1.0 0.9119042322
Co  Co5  1  0.23560000  0.93001000  0.65939000  1.0 0.9119042322
Co  Co6  1  0.65939000  0.23560000  0.93001000  1.0 0.9119042322
H  H1  1  0.71178000  0.65048000  0.22911000  1.0 0.0835084762
H  H2  1  0.74790000  0.67712000  0.40290000  1.0 0.059542226
H  H3  1  0.82788000  0.85859000  0.53109000  1.0 0.0442672275
H  H4  1  0.59225000  0.63233000  0.30460000  1.0 0.0442672275
H  H5  1  0.74100000  0.96700000  0.12300000  1.0 0.1559378221
H  H6  1  0.95800000  0.18700000  0.34600000  1.0 0.2303192009
H  H7  1  0.65048000  0.22911000  0.71178000  1.0 0.0835084762
H  H8  1  0.67712000  0.40290000  0.74790000  1.0 0.059542226
H  H9  1  0.85859000  0.53109000  0.82788000  1.0 0.0442672275
H  H10  1  0.63233000  0.30460000  0.59225000  1.0 0.0442672275
H  H11  1  0.96700000  0.12300000  0.74100000  1.0 0.1549912557
H  H12  1  0.18700000  0.34600000  0.95800000  1.0 0.2303192009
H  H13  1  0.22911000  0.71178000  0.65048000  1.0 0.0835084762
H  H14  1  0.40290000  0.74790000  0.67712000  1.0 0.059542226
H  H15  1  0.53109000  0.82788000  0.85859000  1.0 0.0442672275
H  H16  1  0.30460000  0.59225000  0.63233000  1.0 0.0442672275
H  H17  1  0.12300000  0.74100000  0.96700000  1.0 0.1559378221
H  H18  1  0.34600000  0.95800000  0.18700000  1.0 0.2303192009
H  H19  1  0.65048000  0.71178000  0.22911000  1.0 0.0835084762
H  H20  1  0.67712000  0.74790000  0.40290000  1.0 0.059542226
H  H21  1  0.85859000  0.82788000  0.53109000  1.0 0.0442672275
H  H22  1  0.63233000  0.59225000  0.30460000  1.0 0.0442672275
H  H23  1  0.96700000  0.74100000  0.12300000  1.0 0.1549912557
H  H24  1  0.18700000  0.95800000  0.34600000  1.0 0.2303192009
H  H25  1  0.22911000  0.65048000  0.71178000  1.0 0.0835084762
H  H26  1  0.40290000  0.67712000  0.74790000  1.0 0.059542226
H  H27  1  0.53109000  0.85859000  0.82788000  1.0 0.0442672275
H  H28  1  0.30460000  0.63233000  0.59225000  1.0 0.0442672275
H  H29  1  0.12300000  0.96700000  0.74100000  1.0 0.1559378221
H  H30  1  0.34600000  0.18700000  0.95800000  1.0 0.2303192009
H  H31  1  0.71178000  0.22911000  0.65048000  1.0 0.0835084762
H  H32  1  0.74790000  0.40290000  0.67712000  1.0 0.059542226
H  H33  1  0.82788000  0.53109000  0.85859000  1.0 0.0442672275
H  H34  1  0.59225000  0.30460000  0.63233000  1.0 0.0442672275
H  H35  1  0.74100000  0.12300000  0.96700000  1.0 0.1559378221
H  H36  1  0.95800000  0.34600000  0.18700000  1.0 0.2303192009
H  H37  1  0.49205000  0.49205000  0.91257000  1.0 0.1223644629
H  H38  1  0.82815000  0.82815000  0.36497000  1.0 0.059542226
H  H39  1  0.49205000  0.91257000  0.49205000  1.0 0.1223644629
H  H40  1  0.82815000  0.36497000  0.82815000  1.0 0.059542226
H  H41  1  0.91257000  0.49205000  0.49205000  1.0 0.1223644629
H  H42  1  0.36497000  0.82815000  0.82815000  1.0 0.059542226
C  C1  1  0.30150000  0.48650000  0.84600000  1.0 0.5588857397
C  C2  1  0.21480000  0.30960000  0.72560000  1.0 -0.2267148331
C  C3  1  0.00820000  0.10530000  0.55450000  1.0 0.2861424649
C  C4  1  0.48650000  0.84600000  0.30150000  1.0 0.5588857397
C  C5  1  0.30960000  0.72560000  0.21480000  1.0 -0.2267148331
C  C6  1  0.10530000  0.55450000  0.00820000  1.0 0.2861424649
C  C7  1  0.84600000  0.30150000  0.48650000  1.0 0.5588857397
C  C8  1  0.72560000  0.21480000  0.30960000  1.0 -0.2267148331
C  C9  1  0.55450000  0.00820000  0.10530000  1.0 0.2861424649
C  C10  1  0.48650000  0.30150000  0.84600000  1.0 0.5588857397
C  C11  1  0.30960000  0.21480000  0.72560000  1.0 -0.2267148331
C  C12  1  0.10530000  0.00820000  0.55450000  1.0 0.2861424649
C  C13  1  0.84600000  0.48650000  0.30150000  1.0 0.5588857397
C  C14  1  0.72560000  0.30960000  0.21480000  1.0 -0.2267148331
C  C15  1  0.55450000  0.10530000  0.00820000  1.0 0.2861424649
C  C16  1  0.30150000  0.84600000  0.48650000  1.0 0.5588857397
C  C17  1  0.21480000  0.72560000  0.30960000  1.0 -0.2267148331
C  C18  1  0.00820000  0.55450000  0.10530000  1.0 0.2861424649
C  C19  1  0.35820000  0.35820000  0.80360000  1.0 -0.0867991135
C  C20  1  0.96120000  0.96120000  0.47560000  1.0 -0.1785031294
C  C21  1  0.74990000  0.74990000  0.31620000  1.0 -0.1244823794
C  C22  1  0.73160000  0.73160000  0.40080000  1.0 -0.2386417672
C  C23  1  0.35820000  0.80360000  0.35820000  1.0 -0.0867991135
C  C24  1  0.96120000  0.47560000  0.96120000  1.0 -0.1785031294
C  C25  1  0.74990000  0.31620000  0.74990000  1.0 -0.1244823794
C  C26  1  0.73160000  0.40080000  0.73160000  1.0 -0.2386417672
C  C27  1  0.80360000  0.35820000  0.35820000  1.0 -0.0867991135
C  C28  1  0.47560000  0.96120000  0.96120000  1.0 -0.1785031294
C  C29  1  0.31620000  0.74990000  0.74990000  1.0 -0.1244823794
C  C30  1  0.40080000  0.73160000  0.73160000  1.0 -0.2386417672
I  I1  1  0.92228000  0.12373000  0.29799000  1.0 0.0835084762
I  I2  1  0.12373000  0.29799000  0.92228000  1.0 0.0835084762
I  I3  1  0.29799000  0.92228000  0.12373000  1.0 0.0835084762
I  I4  1  0.12373000  0.92228000  0.29799000  1.0 0.0835084762
I  I5  1  0.29799000  0.12373000  0.92228000  1.0 0.0835084762
I  I6  1  0.92228000  0.29799000  0.12373000  1.0 0.0835084762
O  O1  1  0.18200000  0.45730000  0.79670000  1.0 -0.5912851727
O  O2  1  0.48250000  0.65590000  0.99060000  1.0 -0.5123546755
O  O3  1  0.86920000  0.05120000  0.47760000  1.0 -0.5749472514
O  O4  1  0.82768000  0.06569000  0.25651000  1.0 -0.3292764858
O  O5  1  0.45730000  0.79670000  0.18200000  1.0 -0.5912851727
O  O6  1  0.65590000  0.99060000  0.48250000  1.0 -0.5123546755
O  O7  1  0.05120000  0.47760000  0.86920000  1.0 -0.5757230655
O  O8  1  0.06569000  0.25651000  0.82768000  1.0 -0.3292764858
O  O9  1  0.79670000  0.18200000  0.45730000  1.0 -0.5912851727
O  O10  1  0.99060000  0.48250000  0.65590000  1.0 -0.5123546755
O  O11  1  0.47760000  0.86920000  0.05120000  1.0 -0.5749472514
O  O12  1  0.25651000  0.82768000  0.06569000  1.0 -0.3292764858
O  O13  1  0.45730000  0.18200000  0.79670000  1.0 -0.5912851727
O  O14  1  0.65590000  0.48250000  0.99060000  1.0 -0.5123546755
O  O15  1  0.05120000  0.86920000  0.47760000  1.0 -0.5749472514
O  O16  1  0.06569000  0.82768000  0.25651000  1.0 -0.3292764858
O  O17  1  0.79670000  0.45730000  0.18200000  1.0 -0.5912851727
O  O18  1  0.99060000  0.65590000  0.48250000  1.0 -0.5123546755
O  O19  1  0.47760000  0.05120000  0.86920000  1.0 -0.5749472514
O  O20  1  0.25651000  0.06569000  0.82768000  1.0 -0.3292764858
O  O21  1  0.18200000  0.79670000  0.45730000  1.0 -0.5912851727
O  O22  1  0.48250000  0.99060000  0.65590000  1.0 -0.5123546755
O  O23  1  0.86920000  0.47760000  0.05120000  1.0 -0.5749472514
O  O24  1  0.82768000  0.25651000  0.06569000  1.0 -0.3292764858
