# DDEC6 charges by PACMAN v1.1 (https://github.com/mtap-research/PACMAN-charge/)
data_AJECOK_ASR_pacman
_symmetry_space_group_name_H-M   'P 1'
_cell_length_a   15.06150000
_cell_length_b   15.06150000
_cell_length_c   15.06150000
_cell_angle_alpha   117.70200000
_cell_angle_beta   117.70200000
_cell_angle_gamma   117.70200000
_symmetry_Int_Tables_number   1
_chemical_formula_structural   Co2H12C9(IO4)2
_chemical_formula_sum   'Co6 H36 C27 I6 O24'
_cell_volume   1326.60144585
_cell_formula_units_Z   3
loop_
 _symmetry_equiv_pos_site_id
 _symmetry_equiv_pos_as_xyz
  1  'x, y, z'
loop_
 _atom_site_type_symbol
 _atom_site_label
 _atom_site_symmetry_multiplicity
 _atom_site_fract_x
 _atom_site_fract_y
 _atom_site_fract_z
 _atom_site_occupancy
 _atom_site_charge
Co  Co1  1  0.33460000  0.05831000  0.75819000  1.0 0.9010152184
Co  Co2  1  0.05831000  0.75819000  0.33460000  1.0 0.9010152184
Co  Co3  1  0.75819000  0.33460000  0.05831000  1.0 0.9010152184
Co  Co4  1  0.33460000  0.75819000  0.05831000  1.0 0.9010152184
Co  Co5  1  0.05831000  0.33460000  0.75819000  1.0 0.9010152184
Co  Co6  1  0.75819000  0.05831000  0.33460000  1.0 0.9010152184
H  H1  1  0.14080000  0.96000000  0.77520000  1.0 0.2259233581
H  H2  1  0.98940000  0.76000000  0.56560000  1.0 0.2217717034
H  H3  1  0.34509000  0.30726000  0.80608000  1.0 0.0402312955
H  H4  1  0.24736000  0.21437000  0.62174000  1.0 0.0207339817
H  H5  1  0.24632000  0.31723000  0.72018000  1.0 0.057170057
H  H6  1  0.96000000  0.77520000  0.14080000  1.0 0.2259233581
H  H7  1  0.76000000  0.56560000  0.98940000  1.0 0.2217717034
H  H8  1  0.30726000  0.80608000  0.34509000  1.0 0.0402312955
H  H9  1  0.21437000  0.62174000  0.24736000  1.0 0.0207339817
H  H10  1  0.31723000  0.72018000  0.24632000  1.0 0.057170057
H  H11  1  0.77520000  0.14080000  0.96000000  1.0 0.2259233581
H  H12  1  0.56560000  0.98940000  0.76000000  1.0 0.2217717034
H  H13  1  0.80608000  0.34509000  0.30726000  1.0 0.0402312955
H  H14  1  0.62174000  0.24736000  0.21437000  1.0 0.0207339817
H  H15  1  0.72018000  0.24632000  0.31723000  1.0 0.057170057
H  H16  1  0.14080000  0.77520000  0.96000000  1.0 0.2259233581
H  H17  1  0.98940000  0.56560000  0.76000000  1.0 0.2217717034
H  H18  1  0.34509000  0.80608000  0.30726000  1.0 0.0402312955
H  H19  1  0.24736000  0.62174000  0.21437000  1.0 0.0207339817
H  H20  1  0.24632000  0.72018000  0.31723000  1.0 0.057170057
H  H21  1  0.96000000  0.14080000  0.77520000  1.0 0.2259233581
H  H22  1  0.76000000  0.98940000  0.56560000  1.0 0.2217717034
H  H23  1  0.30726000  0.34509000  0.80608000  1.0 0.0402312955
H  H24  1  0.21437000  0.24736000  0.62174000  1.0 0.0207339817
H  H25  1  0.31723000  0.24632000  0.72018000  1.0 0.057170057
H  H26  1  0.77520000  0.96000000  0.14080000  1.0 0.2259233581
H  H27  1  0.56560000  0.76000000  0.98940000  1.0 0.2217717034
H  H28  1  0.80608000  0.30726000  0.34509000  1.0 0.0402312955
H  H29  1  0.62174000  0.21437000  0.24736000  1.0 0.0207339817
H  H30  1  0.72018000  0.31723000  0.24632000  1.0 0.057170057
H  H31  1  0.10200000  0.10200000  0.54600000  1.0 0.0207339817
H  H32  1  0.49475000  0.49475000  0.07774000  1.0 0.136662097
H  H33  1  0.10200000  0.54600000  0.10200000  1.0 0.0207339817
H  H34  1  0.49475000  0.07774000  0.49475000  1.0 0.136662097
H  H35  1  0.54600000  0.10200000  0.10200000  1.0 0.0207339817
H  H36  1  0.07774000  0.49475000  0.49475000  1.0 0.136662097
C  C1  1  0.68650000  0.49810000  0.14640000  1.0 0.5279978675
C  C2  1  0.76710000  0.67290000  0.26600000  1.0 -0.2227280724
C  C3  1  0.97640000  0.87770000  0.43990000  1.0 0.2824241382
C  C4  1  0.49810000  0.14640000  0.68650000  1.0 0.5279978675
C  C5  1  0.67290000  0.26600000  0.76710000  1.0 -0.2227280724
C  C6  1  0.87770000  0.43990000  0.97640000  1.0 0.2824241382
C  C7  1  0.14640000  0.68650000  0.49810000  1.0 0.5279978675
C  C8  1  0.26600000  0.76710000  0.67290000  1.0 -0.2227280724
C  C9  1  0.43990000  0.97640000  0.87770000  1.0 0.2824241382
C  C10  1  0.68650000  0.14640000  0.49810000  1.0 0.5279978675
C  C11  1  0.76710000  0.26600000  0.67290000  1.0 -0.2227280724
C  C12  1  0.97640000  0.43990000  0.87770000  1.0 0.2824241382
C  C13  1  0.49810000  0.68650000  0.14640000  1.0 0.5279978675
C  C14  1  0.67290000  0.76710000  0.26600000  1.0 -0.2227280724
C  C15  1  0.87770000  0.97640000  0.43990000  1.0 0.2824241382
C  C16  1  0.14640000  0.49810000  0.68650000  1.0 0.5279978675
C  C17  1  0.26600000  0.67290000  0.76710000  1.0 -0.2227280724
C  C18  1  0.43990000  0.87770000  0.97640000  1.0 0.2824241382
C  C19  1  0.03345000  0.03345000  0.53610000  1.0 -0.1505158978
C  C20  1  0.62905000  0.62905000  0.18990000  1.0 -0.0831255776
C  C21  1  0.22660000  0.22660000  0.67480000  1.0 -0.2438779759
C  C22  1  0.03345000  0.53610000  0.03345000  1.0 -0.1505158978
C  C23  1  0.62905000  0.18990000  0.62905000  1.0 -0.0831255776
C  C24  1  0.22660000  0.67480000  0.22660000  1.0 -0.2438779759
C  C25  1  0.53610000  0.03345000  0.03345000  1.0 -0.1505158978
C  C26  1  0.18990000  0.62905000  0.62905000  1.0 -0.0831255776
C  C27  1  0.67480000  0.22660000  0.22660000  1.0 -0.2438779759
I  I1  1  0.07890000  0.85120000  0.70020000  1.0 0.0402312955
I  I2  1  0.85120000  0.70020000  0.07890000  1.0 0.0402312955
I  I3  1  0.70020000  0.07890000  0.85120000  1.0 0.0402312955
I  I4  1  0.07890000  0.70020000  0.85120000  1.0 0.0402312955
I  I5  1  0.85120000  0.07890000  0.70020000  1.0 0.0402312955
I  I6  1  0.70020000  0.85120000  0.07890000  1.0 0.0402312955
O  O1  1  0.13133000  0.88973000  0.70503000  1.0 -0.3020855722
O  O2  1  0.50610000  0.32650000  0.00130000  1.0 -0.5128362415
O  O3  1  0.80530000  0.53070000  0.19480000  1.0 -0.5776496368
O  O4  1  0.11480000  0.93470000  0.51720000  1.0 -0.542137706
O  O5  1  0.88973000  0.70503000  0.13133000  1.0 -0.3020855722
O  O6  1  0.32650000  0.00130000  0.50610000  1.0 -0.5128362415
O  O7  1  0.53070000  0.19480000  0.80530000  1.0 -0.5776496368
O  O8  1  0.93470000  0.51720000  0.11480000  1.0 -0.542137706
O  O9  1  0.70503000  0.13133000  0.88973000  1.0 -0.3020855722
O  O10  1  0.00130000  0.50610000  0.32650000  1.0 -0.5128362415
O  O11  1  0.19480000  0.80530000  0.53070000  1.0 -0.5776496368
O  O12  1  0.51720000  0.11480000  0.93470000  1.0 -0.542137706
O  O13  1  0.13133000  0.70503000  0.88973000  1.0 -0.3020855722
O  O14  1  0.50610000  0.00130000  0.32650000  1.0 -0.5128362415
O  O15  1  0.80530000  0.19480000  0.53070000  1.0 -0.5776496368
O  O16  1  0.11480000  0.51720000  0.93470000  1.0 -0.542137706
O  O17  1  0.88973000  0.13133000  0.70503000  1.0 -0.3020855722
O  O18  1  0.32650000  0.50610000  0.00130000  1.0 -0.5128362415
O  O19  1  0.53070000  0.80530000  0.19480000  1.0 -0.5776496368
O  O20  1  0.93470000  0.11480000  0.51720000  1.0 -0.542137706
O  O21  1  0.70503000  0.88973000  0.13133000  1.0 -0.3020855722
O  O22  1  0.00130000  0.32650000  0.50610000  1.0 -0.5128362415
O  O23  1  0.19480000  0.53070000  0.80530000  1.0 -0.5776496368
O  O24  1  0.51720000  0.93470000  0.11480000  1.0 -0.542137706
