# DDEC6 charges by PACMAN v1.1 (https://github.com/mtap-research/PACMAN-charge/)
data_AJEDEB_ASR_pacman
_symmetry_space_group_name_H-M   'P 1'
_cell_length_a   15.11600000
_cell_length_b   15.11600000
_cell_length_c   15.11600000
_cell_angle_alpha   117.76600000
_cell_angle_beta   117.76600000
_cell_angle_gamma   117.76600000
_symmetry_Int_Tables_number   1
_chemical_formula_structural   Co2H11C10O7
_chemical_formula_sum   'Co6 H33 C30 O21'
_cell_volume   1322.93946015
_cell_formula_units_Z   3
loop_
 _symmetry_equiv_pos_site_id
 _symmetry_equiv_pos_as_xyz
  1  'x, y, z'
loop_
 _atom_site_type_symbol
 _atom_site_label
 _atom_site_symmetry_multiplicity
 _atom_site_fract_x
 _atom_site_fract_y
 _atom_site_fract_z
 _atom_site_occupancy
 _atom_site_charge
Co  Co1  1  0.26313000  0.98958000  0.56546000  1.0 0.9030051061
Co  Co2  1  0.98958000  0.56546000  0.26313000  1.0 0.9056719818
Co  Co3  1  0.56546000  0.26313000  0.98958000  1.0 0.9030051061
Co  Co4  1  0.56546000  0.98958000  0.26313000  1.0 0.9030051061
Co  Co5  1  0.26313000  0.56546000  0.98958000  1.0 0.9030051061
Co  Co6  1  0.98958000  0.26313000  0.56546000  1.0 0.9056719818
H  H1  1  0.99500000  0.94200000  0.64300000  1.0 0.2023439039
H  H2  1  0.04292000  0.98135000  0.55133000  1.0 0.0993916569
H  H3  1  0.06306000  0.99200000  0.58640000  1.0 0.0693094684
H  H4  1  0.97532000  0.01688000  0.51569000  1.0 0.0139568155
H  H5  1  0.05705000  0.08655000  0.68600000  1.0 -0.0033657512
H  H6  1  0.94200000  0.64300000  0.99500000  1.0 0.2023439039
H  H7  1  0.98135000  0.55133000  0.04292000  1.0 0.0993916569
H  H8  1  0.99200000  0.58640000  0.06306000  1.0 0.0693094684
H  H9  1  0.01688000  0.51569000  0.97532000  1.0 0.0150098649
H  H10  1  0.08655000  0.68600000  0.05705000  1.0 -0.0074284574
H  H11  1  0.64300000  0.99500000  0.94200000  1.0 0.2023439039
H  H12  1  0.55133000  0.04292000  0.98135000  1.0 0.0993916569
H  H13  1  0.58640000  0.06306000  0.99200000  1.0 0.0693094684
H  H14  1  0.51569000  0.97532000  0.01688000  1.0 0.0139568155
H  H15  1  0.68600000  0.05705000  0.08655000  1.0 -0.0033657512
H  H16  1  0.64300000  0.94200000  0.99500000  1.0 0.2023439039
H  H17  1  0.55133000  0.98135000  0.04292000  1.0 0.0993916569
H  H18  1  0.58640000  0.99200000  0.06306000  1.0 0.0693094684
H  H19  1  0.51569000  0.01688000  0.97532000  1.0 0.0139568155
H  H20  1  0.68600000  0.08655000  0.05705000  1.0 -0.0033657512
H  H21  1  0.99500000  0.64300000  0.94200000  1.0 0.2023439039
H  H22  1  0.04292000  0.55133000  0.98135000  1.0 0.0993916569
H  H23  1  0.06306000  0.58640000  0.99200000  1.0 0.0693094684
H  H24  1  0.97532000  0.51569000  0.01688000  1.0 0.0139568155
H  H25  1  0.05705000  0.68600000  0.08655000  1.0 -0.0074284574
H  H26  1  0.94200000  0.99500000  0.64300000  1.0 0.2023439039
H  H27  1  0.98135000  0.04292000  0.55133000  1.0 0.0993916569
H  H28  1  0.99200000  0.06306000  0.58640000  1.0 0.0693094684
H  H29  1  0.01688000  0.97532000  0.51569000  1.0 0.0139568155
H  H30  1  0.08655000  0.05705000  0.68600000  1.0 -0.0033657512
H  H31  1  0.82762000  0.82762000  0.25039000  1.0 0.2023439039
H  H32  1  0.82762000  0.25039000  0.82762000  1.0 0.2023439039
H  H33  1  0.25039000  0.82762000  0.82762000  1.0 0.2023439039
C  C1  1  0.81620000  0.62880000  0.17290000  1.0 0.433997018
C  C2  1  0.64400000  0.54950000  0.05840000  1.0 -0.2166914663
C  C3  1  0.43570000  0.34030000  0.88220000  1.0 0.2262095639
C  C4  1  0.62880000  0.17290000  0.81620000  1.0 0.433997018
C  C5  1  0.54950000  0.05840000  0.64400000  1.0 -0.2142682365
C  C6  1  0.34030000  0.88220000  0.43570000  1.0 0.2262095639
C  C7  1  0.17290000  0.81620000  0.62880000  1.0 0.4354919025
C  C8  1  0.05840000  0.64400000  0.54950000  1.0 -0.2142682365
C  C9  1  0.88220000  0.43570000  0.34030000  1.0 0.2262095639
C  C10  1  0.17290000  0.62880000  0.81620000  1.0 0.433997018
C  C11  1  0.05840000  0.54950000  0.64400000  1.0 -0.2142682365
C  C12  1  0.88220000  0.34030000  0.43570000  1.0 0.2262095639
C  C13  1  0.81620000  0.17290000  0.62880000  1.0 0.433997018
C  C14  1  0.64400000  0.05840000  0.54950000  1.0 -0.2142682365
C  C15  1  0.43570000  0.88220000  0.34030000  1.0 0.2262095639
C  C16  1  0.62880000  0.81620000  0.17290000  1.0 0.4354919025
C  C17  1  0.54950000  0.64400000  0.05840000  1.0 -0.2142682365
C  C18  1  0.34030000  0.43570000  0.88220000  1.0 0.2262095639
C  C19  1  0.28980000  0.28980000  0.79720000  1.0 -0.0243611921
C  C20  1  0.69050000  0.69050000  0.13640000  1.0 -0.0074284574
C  C21  1  0.07760000  0.07760000  0.63180000  1.0 -0.1609097169
C  C22  1  0.08130000  0.08130000  0.63940000  1.0 -0.1609097169
C  C23  1  0.28980000  0.79720000  0.28980000  1.0 -0.0276974349
C  C24  1  0.69050000  0.13640000  0.69050000  1.0 -0.0074284574
C  C25  1  0.07760000  0.63180000  0.07760000  1.0 -0.1609097169
C  C26  1  0.08130000  0.63940000  0.08130000  1.0 -0.1609097169
C  C27  1  0.79720000  0.28980000  0.28980000  1.0 -0.0243611921
C  C28  1  0.13640000  0.69050000  0.69050000  1.0 -0.0074284574
C  C29  1  0.63180000  0.07760000  0.07760000  1.0 -0.1609097169
C  C30  1  0.63940000  0.08130000  0.08130000  1.0 -0.1609097169
O  O1  1  0.99269000  0.81681000  0.32290000  1.0 -0.5312038284
O  O2  1  0.78694000  0.51146000  0.12330000  1.0 -0.5397650323
O  O3  1  0.37686000  0.19507000  0.80127000  1.0 -0.4938758435
O  O4  1  0.81681000  0.32290000  0.99269000  1.0 -0.5312038284
O  O5  1  0.51146000  0.12330000  0.78694000  1.0 -0.5397650323
O  O6  1  0.19507000  0.80127000  0.37686000  1.0 -0.4938758435
O  O7  1  0.32290000  0.99269000  0.81681000  1.0 -0.5312038284
O  O8  1  0.12330000  0.78694000  0.51146000  1.0 -0.5397650323
O  O9  1  0.80127000  0.37686000  0.19507000  1.0 -0.4938758435
O  O10  1  0.32290000  0.81681000  0.99269000  1.0 -0.5312038284
O  O11  1  0.12330000  0.51146000  0.78694000  1.0 -0.5397650323
O  O12  1  0.80127000  0.19507000  0.37686000  1.0 -0.4938758435
O  O13  1  0.99269000  0.32290000  0.81681000  1.0 -0.5312038284
O  O14  1  0.78694000  0.12330000  0.51146000  1.0 -0.5397650323
O  O15  1  0.37686000  0.80127000  0.19507000  1.0 -0.4938758435
O  O16  1  0.81681000  0.99269000  0.32290000  1.0 -0.5312038284
O  O17  1  0.51146000  0.78694000  0.12330000  1.0 -0.5397650323
O  O18  1  0.19507000  0.37686000  0.80127000  1.0 -0.4938758435
O  O19  1  0.05740000  0.05740000  0.71420000  1.0 -0.1787017307
O  O20  1  0.05740000  0.71420000  0.05740000  1.0 -0.1787017307
O  O21  1  0.71420000  0.05740000  0.05740000  1.0 -0.1787017307
