# DDEC6 charges by PACMAN v1.1 (https://github.com/mtap-research/PACMAN-charge/)
data_AJEDAX_ASR_pacman
_symmetry_space_group_name_H-M   'P 1'
_cell_length_a   15.08020000
_cell_length_b   15.08020000
_cell_length_c   15.08020000
_cell_angle_alpha   117.72400000
_cell_angle_beta   117.72400000
_cell_angle_gamma   117.72400000
_symmetry_Int_Tables_number   1
_chemical_formula_structural   Co2H8C11(IO3)2
_chemical_formula_sum   'Co6 H24 C33 I6 O18'
_cell_volume   1325.39790772
_cell_formula_units_Z   3
loop_
 _symmetry_equiv_pos_site_id
 _symmetry_equiv_pos_as_xyz
  1  'x, y, z'
loop_
 _atom_site_type_symbol
 _atom_site_label
 _atom_site_symmetry_multiplicity
 _atom_site_fract_x
 _atom_site_fract_y
 _atom_site_fract_z
 _atom_site_occupancy
 _atom_site_charge
Co  Co1  1  0.13475000  0.71202000  0.44333000  1.0 0.9463095093
Co  Co2  1  0.13493000  0.44374000  0.71233000  1.0 0.9821325564
Co  Co3  1  0.71202000  0.44333000  0.13475000  1.0 0.9463095093
Co  Co4  1  0.44374000  0.71233000  0.13493000  1.0 0.9821325564
Co  Co5  1  0.44333000  0.13475000  0.71202000  1.0 0.9463095093
Co  Co6  1  0.71233000  0.13493000  0.44374000  1.0 0.9821325564
H  H1  1  0.43543000  0.87646000  0.87574000  1.0 0.1466124417
H  H2  1  0.14219000  0.65569000  0.71886000  1.0 0.1197787138
H  H3  1  0.14419000  0.72155000  0.66188000  1.0 0.1128680035
H  H4  1  0.95241000  0.60217000  0.67827000  1.0 0.1197787138
H  H5  1  0.82525000  0.52023000  0.49536000  1.0 0.1128680035
H  H6  1  0.09616000  0.87039000  0.85486000  1.0 0.1405308062
H  H7  1  0.21840000  0.92706000  0.85903000  1.0 0.1257521758
H  H8  1  0.01786000  0.81429000  0.69358000  1.0 0.1405308062
H  H9  1  0.87646000  0.87574000  0.43543000  1.0 0.1466124417
H  H10  1  0.65569000  0.71886000  0.14219000  1.0 0.1197787138
H  H11  1  0.72155000  0.66188000  0.14419000  1.0 0.1128680035
H  H12  1  0.60217000  0.67827000  0.95241000  1.0 0.1197787138
H  H13  1  0.52023000  0.49536000  0.82525000  1.0 0.1128680035
H  H14  1  0.87039000  0.85486000  0.09616000  1.0 0.1466124417
H  H15  1  0.92706000  0.85903000  0.21840000  1.0 0.1257521758
H  H16  1  0.81429000  0.69358000  0.01786000  1.0 0.1405308062
H  H17  1  0.87574000  0.43543000  0.87646000  1.0 0.1466124417
H  H18  1  0.71886000  0.14219000  0.65569000  1.0 0.1197787138
H  H19  1  0.66188000  0.14419000  0.72155000  1.0 0.1128680035
H  H20  1  0.67827000  0.95241000  0.60217000  1.0 0.1197787138
H  H21  1  0.49536000  0.82525000  0.52023000  1.0 0.1128680035
H  H22  1  0.85486000  0.09616000  0.87039000  1.0 0.1405308062
H  H23  1  0.85903000  0.21840000  0.92706000  1.0 0.1257521758
H  H24  1  0.69358000  0.01786000  0.81429000  1.0 0.1405308062
C  C1  1  0.52400000  0.07240000  0.88560000  1.0 0.6415293241
C  C2  1  0.63530000  0.15560000  0.06310000  1.0 -0.1099444291
C  C3  1  0.55120000  0.01230000  0.01150000  1.0 -0.0487959882
C  C4  1  0.63300000  0.06330000  0.15470000  1.0 -0.1099444291
C  C5  1  0.81010000  0.26630000  0.36260000  1.0 0.3293859486
C  C6  1  0.89560000  0.41390000  0.41270000  1.0 -0.0739983296
C  C7  1  0.81240000  0.36300000  0.26660000  1.0 0.3092358136
C  C8  1  0.52550000  0.88820000  0.07430000  1.0 0.6519188309
C  C9  1  0.05720000  0.62060000  0.62220000  1.0 -0.155959271
C  C10  1  0.96200000  0.62800000  0.63200000  1.0 -0.0897734216
C  C11  1  0.08890000  0.83210000  0.77500000  1.0 -0.3166619516
C  C12  1  0.07240000  0.88560000  0.52400000  1.0 0.6415293241
C  C13  1  0.15560000  0.06310000  0.63530000  1.0 -0.1099444291
C  C14  1  0.01230000  0.01150000  0.55120000  1.0 -0.0487959882
C  C15  1  0.06330000  0.15470000  0.63300000  1.0 -0.1152200228
C  C16  1  0.26630000  0.36260000  0.81010000  1.0 0.3293859486
C  C17  1  0.41390000  0.41270000  0.89560000  1.0 -0.0756437345
C  C18  1  0.36300000  0.26660000  0.81240000  1.0 0.3092358136
C  C19  1  0.88820000  0.07430000  0.52550000  1.0 0.6519188309
C  C20  1  0.62060000  0.62220000  0.05720000  1.0 -0.155959271
C  C21  1  0.62800000  0.63200000  0.96200000  1.0 -0.0897734216
C  C22  1  0.83210000  0.77500000  0.08890000  1.0 -0.3166619516
C  C23  1  0.88560000  0.52400000  0.07240000  1.0 0.6415293241
C  C24  1  0.06310000  0.63530000  0.15560000  1.0 -0.1099444291
C  C25  1  0.01150000  0.55120000  0.01230000  1.0 -0.0487959882
C  C26  1  0.15470000  0.63300000  0.06330000  1.0 -0.1099444291
C  C27  1  0.36260000  0.81010000  0.26630000  1.0 0.3293859486
C  C28  1  0.41270000  0.89560000  0.41390000  1.0 -0.0756437345
C  C29  1  0.26660000  0.81240000  0.36300000  1.0 0.3092358136
C  C30  1  0.07430000  0.52550000  0.88820000  1.0 0.6519188309
C  C31  1  0.62220000  0.05720000  0.62060000  1.0 -0.155959271
C  C32  1  0.63200000  0.96200000  0.62800000  1.0 -0.0897734216
C  C33  1  0.77500000  0.08890000  0.83210000  1.0 -0.3166619516
I  I1  1  0.07970000  0.45400000  0.26710000  1.0 -0.4030888752
I  I2  1  0.07988000  0.26700000  0.45452000  1.0 -0.4836911635
I  I3  1  0.45400000  0.26710000  0.07970000  1.0 -0.4030888752
I  I4  1  0.26700000  0.45452000  0.07988000  1.0 -0.4836911635
I  I5  1  0.26710000  0.07970000  0.45400000  1.0 -0.4030888752
I  I6  1  0.45452000  0.07988000  0.26700000  1.0 -0.4836911635
O  O1  1  0.37510000  0.88990000  0.71330000  1.0 -0.4597392356
O  O2  1  0.57240000  0.18940000  0.91460000  1.0 -0.5334980762
O  O3  1  0.88980000  0.50310000  0.32030000  1.0 -0.5334980762
O  O4  1  0.88800000  0.31640000  0.50010000  1.0 -0.5380594905
O  O5  1  0.57300000  0.91460000  0.18910000  1.0 -0.5380594905
O  O6  1  0.37640000  0.71340000  0.88970000  1.0 -0.4836911635
O  O7  1  0.88990000  0.71330000  0.37510000  1.0 -0.4597392356
O  O8  1  0.18940000  0.91460000  0.57240000  1.0 -0.5334980762
O  O9  1  0.50310000  0.32030000  0.88980000  1.0 -0.5334980762
O  O10  1  0.31640000  0.50010000  0.88800000  1.0 -0.5380594905
O  O11  1  0.91460000  0.18910000  0.57300000  1.0 -0.5380594905
O  O12  1  0.71340000  0.88970000  0.37640000  1.0 -0.4836911635
O  O13  1  0.71330000  0.37510000  0.88990000  1.0 -0.4597392356
O  O14  1  0.91460000  0.57240000  0.18940000  1.0 -0.5334980762
O  O15  1  0.32030000  0.88980000  0.50310000  1.0 -0.5334980762
O  O16  1  0.50010000  0.88800000  0.31640000  1.0 -0.5380594905
O  O17  1  0.18910000  0.57300000  0.91460000  1.0 -0.5380594905
O  O18  1  0.88970000  0.37640000  0.71340000  1.0 -0.4836911635
