# DDEC6 charges by PACMAN v1.1 (https://github.com/mtap-research/PACMAN-charge/)
data_AJISAQ_ASR_pacman
_symmetry_space_group_name_H-M   'P 1'
_cell_length_a   7.79690000
_cell_length_b   20.21500000
_cell_length_c   8.24560000
_cell_angle_alpha   90.00000000
_cell_angle_beta   114.81000000
_cell_angle_gamma   90.00000000
_symmetry_Int_Tables_number   1
_chemical_formula_structural   CuH14C20(NO)4
_chemical_formula_sum   'Cu2 H28 C40 N8 O8'
_cell_volume   1179.67491590
_cell_formula_units_Z   2
loop_
 _symmetry_equiv_pos_site_id
 _symmetry_equiv_pos_as_xyz
  1  'x, y, z'
loop_
 _atom_site_type_symbol
 _atom_site_label
 _atom_site_symmetry_multiplicity
 _atom_site_fract_x
 _atom_site_fract_y
 _atom_site_fract_z
 _atom_site_occupancy
 _atom_site_charge
Cu  Cu1  1  0.50000000  0.50000000  0.50000000  1.0 0.7507334671
Cu  Cu2  1  0.50000000  0.00000000  0.50000000  1.0 0.7507334671
H  H1  1  0.78530000  0.34910000  0.92120000  1.0 0.1130297615
H  H2  1  0.84060000  0.39590000  0.57530000  1.0 0.1294247932
H  H3  1  0.63890000  0.53060000  0.20090000  1.0 0.1130297615
H  H4  1  0.02740000  0.39110000  0.40130000  1.0 0.1383609122
H  H5  1  0.14810000  0.42120000  0.21570000  1.0 0.1383609122
H  H6  1  0.72940000  0.55010000  0.98580000  1.0 0.1294247932
H  H7  1  0.21470000  0.84910000  0.07880000  1.0 0.1130297615
H  H8  1  0.15940000  0.89590000  0.42470000  1.0 0.1294247932
H  H9  1  0.36110000  0.03060000  0.79910000  1.0 0.1130297615
H  H10  1  0.97260000  0.89110000  0.59870000  1.0 0.1383609122
H  H11  1  0.85190000  0.92120000  0.78430000  1.0 0.1383609122
H  H12  1  0.27060000  0.05010000  0.01420000  1.0 0.1294247932
H  H13  1  0.21470000  0.65090000  0.07880000  1.0 0.1130297615
H  H14  1  0.15940000  0.60410000  0.42470000  1.0 0.1294247932
H  H15  1  0.36110000  0.46940000  0.79910000  1.0 0.1130297615
H  H16  1  0.97260000  0.60890000  0.59870000  1.0 0.1383609122
H  H17  1  0.85190000  0.57880000  0.78430000  1.0 0.1383609122
H  H18  1  0.27060000  0.44990000  0.01420000  1.0 0.1294247932
H  H19  1  0.78530000  0.15090000  0.92120000  1.0 0.1130297615
H  H20  1  0.84060000  0.10410000  0.57530000  1.0 0.1294247932
H  H21  1  0.63890000  0.96940000  0.20090000  1.0 0.1130297615
H  H22  1  0.02740000  0.10890000  0.40130000  1.0 0.1383609122
H  H23  1  0.14810000  0.07880000  0.21570000  1.0 0.1383609122
H  H24  1  0.72940000  0.94990000  0.98580000  1.0 0.1294247932
H  H25  1  0.40880000  0.25000000  0.50400000  1.0 0.1294247932
H  H26  1  0.91000000  0.25000000  0.05870000  1.0 0.1205677188
H  H27  1  0.59120000  0.75000000  0.49600000  1.0 0.1294247932
H  H28  1  0.09000000  0.75000000  0.94130000  1.0 0.1205677188
C  C1  1  0.49970000  0.37300000  0.59980000  1.0 0.5398525319
C  C2  1  0.58290000  0.30980000  0.69780000  1.0 -0.0268668497
C  C3  1  0.73410000  0.30940000  0.86470000  1.0 -0.1041081378
C  C4  1  0.82250000  0.42230000  0.47700000  1.0 -0.0268668497
C  C5  1  0.71070000  0.49620000  0.27190000  1.0 0.0971568025
C  C6  1  0.92650000  0.41940000  0.38160000  1.0 -0.0863512733
C  C7  1  0.08810000  0.45320000  0.12910000  1.0 -0.1545304784
C  C8  1  0.92760000  0.48350000  0.12160000  1.0 0.1526674649
C  C9  1  0.83910000  0.52990000  0.99220000  1.0 -0.161493791
C  C10  1  0.50030000  0.87300000  0.40020000  1.0 0.5398525319
C  C11  1  0.41710000  0.80980000  0.30220000  1.0 -0.0268668497
C  C12  1  0.26590000  0.80940000  0.13530000  1.0 -0.1041081378
C  C13  1  0.17750000  0.92230000  0.52300000  1.0 -0.0268668497
C  C14  1  0.28930000  0.99620000  0.72810000  1.0 0.0971568025
C  C15  1  0.07350000  0.91940000  0.61840000  1.0 -0.0863512733
C  C16  1  0.91190000  0.95320000  0.87090000  1.0 -0.1545304784
C  C17  1  0.07240000  0.98350000  0.87840000  1.0 0.1526674649
C  C18  1  0.16090000  0.02990000  0.00780000  1.0 -0.161493791
C  C19  1  0.50030000  0.62700000  0.40020000  1.0 0.5398525319
C  C20  1  0.41710000  0.69020000  0.30220000  1.0 -0.0268668497
C  C21  1  0.26590000  0.69060000  0.13530000  1.0 -0.1041081378
C  C22  1  0.17750000  0.57770000  0.52300000  1.0 -0.0268668497
C  C23  1  0.28930000  0.50380000  0.72810000  1.0 0.0971568025
C  C24  1  0.07350000  0.58060000  0.61840000  1.0 -0.0863512733
C  C25  1  0.91190000  0.54680000  0.87090000  1.0 -0.1545304784
C  C26  1  0.07240000  0.51650000  0.87840000  1.0 0.1526674649
C  C27  1  0.16090000  0.47010000  0.00780000  1.0 -0.161493791
C  C28  1  0.49970000  0.12700000  0.59980000  1.0 0.5398525319
C  C29  1  0.58290000  0.19020000  0.69780000  1.0 -0.0268668497
C  C30  1  0.73410000  0.19060000  0.86470000  1.0 -0.1041081378
C  C31  1  0.82250000  0.07770000  0.47700000  1.0 -0.0268668497
C  C32  1  0.71070000  0.00380000  0.27190000  1.0 0.0971568025
C  C33  1  0.92650000  0.08060000  0.38160000  1.0 -0.0863512733
C  C34  1  0.08810000  0.04680000  0.12910000  1.0 -0.1545304784
C  C35  1  0.92760000  0.01650000  0.12160000  1.0 0.1526674649
C  C36  1  0.83910000  0.97010000  0.99220000  1.0 -0.161493791
C  C37  1  0.50970000  0.25000000  0.61630000  1.0 -0.1073431891
C  C38  1  0.80860000  0.25000000  0.94680000  1.0 -0.1073431891
C  C39  1  0.49030000  0.75000000  0.38370000  1.0 -0.1073431891
C  C40  1  0.19140000  0.75000000  0.05320000  1.0 -0.1073431891
N  N1  1  0.68530000  0.47030000  0.40720000  1.0 -0.2847945594
N  N2  1  0.85440000  0.46630000  0.24960000  1.0 0.0096646997
N  N3  1  0.31470000  0.97030000  0.59280000  1.0 -0.2847945594
N  N4  1  0.14560000  0.96630000  0.75040000  1.0 0.0096646997
N  N5  1  0.31470000  0.52970000  0.59280000  1.0 -0.2847945594
N  N6  1  0.14560000  0.53370000  0.75040000  1.0 0.0096646997
N  N7  1  0.68530000  0.02970000  0.40720000  1.0 -0.2847945594
N  N8  1  0.85440000  0.03370000  0.24960000  1.0 0.0096646997
O  O1  1  0.58230000  0.42690000  0.67350000  1.0 -0.5489753761
O  O2  1  0.36180000  0.37020000  0.45400000  1.0 -0.5600049176
O  O3  1  0.41770000  0.92690000  0.32650000  1.0 -0.5489753761
O  O4  1  0.63820000  0.87020000  0.54600000  1.0 -0.5600049176
O  O5  1  0.41770000  0.57310000  0.32650000  1.0 -0.5489753761
O  O6  1  0.63820000  0.62980000  0.54600000  1.0 -0.5600049176
O  O7  1  0.58230000  0.07310000  0.67350000  1.0 -0.5489753761
O  O8  1  0.36180000  0.12980000  0.45400000  1.0 -0.5600049176
