# DDEC6 charges by PACMAN v1.1 (https://github.com/mtap-research/PACMAN-charge/)
data_AJOCOU_ion_pacman
_symmetry_space_group_name_H-M   'P 1'
_cell_length_a   19.42610000
_cell_length_b   19.42610000
_cell_length_c   23.41800000
_cell_angle_alpha   59.43440000
_cell_angle_beta   120.56600000
_cell_angle_gamma   156.90800000
_symmetry_Int_Tables_number   1
_chemical_formula_structural   La3H38C28N28(ClO2)4
_chemical_formula_sum   'La6 H76 C56 N56 Cl8 O16'
_cell_volume   2962.64944433
_cell_formula_units_Z   2
loop_
 _symmetry_equiv_pos_site_id
 _symmetry_equiv_pos_as_xyz
  1  'x, y, z'
loop_
 _atom_site_type_symbol
 _atom_site_label
 _atom_site_symmetry_multiplicity
 _atom_site_fract_x
 _atom_site_fract_y
 _atom_site_fract_z
 _atom_site_occupancy
 _atom_site_charge
La  La1  1  0.21831000  0.87163000  0.14169000  1.0 1.8362913006
La  La2  1  0.87163000  0.21831000  0.35831000  1.0 1.8362913006
La  La3  1  0.78169000  0.12837000  0.85831000  1.0 1.8362913006
La  La4  1  0.12837000  0.78169000  0.64169000  1.0 1.8362913006
La  La5  1  0.49515000  0.49515000  0.25000000  1.0 1.9438241594
La  La6  1  0.50485000  0.50485000  0.75000000  1.0 1.9438241594
H  H1  1  0.47900000  0.24700000  0.11700000  1.0 0.3379531824
H  H2  1  0.49300000  0.24500000  0.06800000  1.0 0.329028266
H  H3  1  0.84900000  0.60100000  0.06500000  1.0 0.329028266
H  H4  1  0.84500000  0.60700000  0.11700000  1.0 0.329028266
H  H5  1  0.31700000  0.22300000  0.20000000  1.0 0.329028266
H  H6  1  0.47900000  0.37900000  0.18200000  1.0 0.3248322182
H  H7  1  0.63660000  0.49940000  0.40000000  1.0 0.3379531824
H  H8  1  0.77900000  0.66300000  0.37000000  1.0 0.3248322182
H  H9  1  0.24700000  0.47900000  0.38300000  1.0 0.3379531824
H  H10  1  0.24500000  0.49300000  0.43200000  1.0 0.329028266
H  H11  1  0.60100000  0.84900000  0.43500000  1.0 0.329028266
H  H12  1  0.60700000  0.84500000  0.38300000  1.0 0.329028266
H  H13  1  0.22300000  0.31700000  0.30000000  1.0 0.329028266
H  H14  1  0.37900000  0.47900000  0.31800000  1.0 0.3248322182
H  H15  1  0.49940000  0.63660000  0.10000000  1.0 0.3379531824
H  H16  1  0.66300000  0.77900000  0.13000000  1.0 0.3248322182
H  H17  1  0.52100000  0.75300000  0.88300000  1.0 0.3379531824
H  H18  1  0.50700000  0.75500000  0.93200000  1.0 0.329028266
H  H19  1  0.15100000  0.39900000  0.93500000  1.0 0.329028266
H  H20  1  0.15500000  0.39300000  0.88300000  1.0 0.329028266
H  H21  1  0.68300000  0.77700000  0.80000000  1.0 0.329028266
H  H22  1  0.52100000  0.62100000  0.81800000  1.0 0.3248322182
H  H23  1  0.36340000  0.50060000  0.60000000  1.0 0.3379531824
H  H24  1  0.22100000  0.33700000  0.63000000  1.0 0.3248322182
H  H25  1  0.75300000  0.52100000  0.61700000  1.0 0.3379531824
H  H26  1  0.75500000  0.50700000  0.56800000  1.0 0.329028266
H  H27  1  0.39900000  0.15100000  0.56500000  1.0 0.329028266
H  H28  1  0.39300000  0.15500000  0.61700000  1.0 0.329028266
H  H29  1  0.77700000  0.68300000  0.70000000  1.0 0.329028266
H  H30  1  0.62100000  0.52100000  0.68200000  1.0 0.3248322182
H  H31  1  0.50060000  0.36340000  0.90000000  1.0 0.3379531824
H  H32  1  0.33700000  0.22100000  0.87000000  1.0 0.3248322182
H  H33  1  0.17050000  0.50620000  0.53877000  1.0 0.132758873
H  H34  1  0.15107000  0.45225000  0.72121000  1.0 0.1474705604
H  H35  1  0.85645000  0.23339000  0.65854000  1.0 0.1474705604
H  H36  1  0.86318000  0.29292000  0.48202000  1.0 0.1577728563
H  H37  1  0.74452000  0.20226000  0.52574000  1.0 0.1474705604
H  H38  1  0.74425000  0.11615000  0.53182000  1.0 0.1577728563
H  H39  1  0.64768000  0.92938000  0.67093000  1.0 0.1381393098
H  H40  1  0.48905000  0.80389000  0.70071000  1.0 0.1474705604
H  H41  1  0.50317000  0.86765000  0.62221000  1.0 0.132758873
H  H42  1  0.45338000  0.70500000  0.61662000  1.0 0.1158444681
H  H43  1  0.42757000  0.63411000  0.69427000  1.0 0.1093700961
H  H44  1  0.50620000  0.17050000  0.96123000  1.0 0.132758873
H  H45  1  0.45225000  0.15107000  0.77879000  1.0 0.1474705604
H  H46  1  0.23339000  0.85645000  0.84146000  1.0 0.1474705604
H  H47  1  0.29292000  0.86318000  0.01798000  1.0 0.1577728563
H  H48  1  0.20226000  0.74452000  0.97426000  1.0 0.1474705604
H  H49  1  0.11615000  0.74425000  0.96818000  1.0 0.1577728563
H  H50  1  0.92938000  0.64768000  0.82907000  1.0 0.1381393098
H  H51  1  0.80389000  0.48905000  0.79929000  1.0 0.1474705604
H  H52  1  0.86765000  0.50317000  0.87779000  1.0 0.132758873
H  H53  1  0.70500000  0.45338000  0.88338000  1.0 0.1158444681
H  H54  1  0.63411000  0.42757000  0.80573000  1.0 0.1093700961
H  H55  1  0.82950000  0.49380000  0.46123000  1.0 0.132758873
H  H56  1  0.84893000  0.54775000  0.27879000  1.0 0.1474705604
H  H57  1  0.14355000  0.76661000  0.34146000  1.0 0.1474705604
H  H58  1  0.13682000  0.70708000  0.51798000  1.0 0.1577728563
H  H59  1  0.25548000  0.79774000  0.47426000  1.0 0.1474705604
H  H60  1  0.25575000  0.88385000  0.46818000  1.0 0.1577728563
H  H61  1  0.35232000  0.07062000  0.32907000  1.0 0.1381393098
H  H62  1  0.51095000  0.19611000  0.29929000  1.0 0.1474705604
H  H63  1  0.49683000  0.13235000  0.37779000  1.0 0.132758873
H  H64  1  0.54662000  0.29500000  0.38338000  1.0 0.1158444681
H  H65  1  0.57243000  0.36589000  0.30573000  1.0 0.1093700961
H  H66  1  0.49380000  0.82950000  0.03877000  1.0 0.132758873
H  H67  1  0.54775000  0.84893000  0.22121000  1.0 0.1474705604
H  H68  1  0.76661000  0.14355000  0.15854000  1.0 0.1474705604
H  H69  1  0.70708000  0.13682000  0.98202000  1.0 0.1577728563
H  H70  1  0.79774000  0.25548000  0.02574000  1.0 0.1474705604
H  H71  1  0.88385000  0.25575000  0.03182000  1.0 0.1577728563
H  H72  1  0.07062000  0.35232000  0.17093000  1.0 0.1381393098
H  H73  1  0.19611000  0.51095000  0.20071000  1.0 0.1474705604
H  H74  1  0.13235000  0.49683000  0.12221000  1.0 0.132758873
H  H75  1  0.29500000  0.54662000  0.11662000  1.0 0.1158444681
H  H76  1  0.36589000  0.57243000  0.19427000  1.0 0.1093700961
C  C1  1  0.46659000  0.90281000  0.24460000  1.0 0.4879570254
C  C2  1  0.17813000  0.61407000  0.24280000  1.0 0.4879570254
C  C3  1  0.10650000  0.91610000  0.19640000  1.0 0.4721419213
C  C4  1  0.92490000  0.82330000  0.22000000  1.0 0.4836670147
C  C5  1  0.62294000  0.18686000  0.09690000  1.0 0.4523054981
C  C6  1  0.91091000  0.47549000  0.09450000  1.0 0.4721419213
C  C7  1  0.13250000  0.92330000  0.95350000  1.0 0.4721419213
C  C8  1  0.94540000  0.82760000  0.85550000  1.0 0.4836670147
C  C9  1  0.90281000  0.46659000  0.25540000  1.0 0.4879570254
C  C10  1  0.61407000  0.17813000  0.25720000  1.0 0.4879570254
C  C11  1  0.91610000  0.10650000  0.30360000  1.0 0.4721419213
C  C12  1  0.82330000  0.92490000  0.28000000  1.0 0.4836670147
C  C13  1  0.18686000  0.62294000  0.40310000  1.0 0.4523054981
C  C14  1  0.47549000  0.91091000  0.40550000  1.0 0.4721419213
C  C15  1  0.92330000  0.13250000  0.54650000  1.0 0.4721419213
C  C16  1  0.82760000  0.94540000  0.64450000  1.0 0.4836670147
C  C17  1  0.53341000  0.09719000  0.75540000  1.0 0.4879570254
C  C18  1  0.82187000  0.38593000  0.75720000  1.0 0.4879570254
C  C19  1  0.89350000  0.08390000  0.80360000  1.0 0.4721419213
C  C20  1  0.07510000  0.17670000  0.78000000  1.0 0.4836670147
C  C21  1  0.37706000  0.81314000  0.90310000  1.0 0.4523054981
C  C22  1  0.08909000  0.52451000  0.90550000  1.0 0.4721419213
C  C23  1  0.86750000  0.07670000  0.04650000  1.0 0.4721419213
C  C24  1  0.05460000  0.17240000  0.14450000  1.0 0.4836670147
C  C25  1  0.09719000  0.53341000  0.74460000  1.0 0.4879570254
C  C26  1  0.38593000  0.82187000  0.74280000  1.0 0.4879570254
C  C27  1  0.08390000  0.89350000  0.69640000  1.0 0.4721419213
C  C28  1  0.17670000  0.07510000  0.72000000  1.0 0.4836670147
C  C29  1  0.81314000  0.37706000  0.59690000  1.0 0.4523054981
C  C30  1  0.52451000  0.08909000  0.59450000  1.0 0.4721419213
C  C31  1  0.07670000  0.86750000  0.45350000  1.0 0.4721419213
C  C32  1  0.17240000  0.05460000  0.35550000  1.0 0.4836670147
C  C33  1  0.12800000  0.46400000  0.57670000  1.0 0.0675770589
C  C34  1  0.11670000  0.43430000  0.67630000  1.0 -0.0557655371
C  C35  1  0.95690000  0.31550000  0.64260000  1.0 -0.0929538957
C  C36  1  0.81690000  0.22750000  0.52520000  1.0 -0.3399467817
C  C37  1  0.52260000  0.83220000  0.66250000  1.0 -0.381339585
C  C38  1  0.41230000  0.67310000  0.65270000  1.0 -0.0654523349
C  C39  1  0.46400000  0.12800000  0.92330000  1.0 0.0675770589
C  C40  1  0.43430000  0.11670000  0.82370000  1.0 -0.0557655371
C  C41  1  0.31550000  0.95690000  0.85740000  1.0 -0.0929538957
C  C42  1  0.22750000  0.81690000  0.97480000  1.0 -0.3399467817
C  C43  1  0.83220000  0.52260000  0.83750000  1.0 -0.381339585
C  C44  1  0.67310000  0.41230000  0.84730000  1.0 -0.0654523349
C  C45  1  0.87200000  0.53600000  0.42330000  1.0 0.0675770589
C  C46  1  0.88330000  0.56570000  0.32370000  1.0 -0.0557655371
C  C47  1  0.04310000  0.68450000  0.35740000  1.0 -0.0929538957
C  C48  1  0.18310000  0.77250000  0.47480000  1.0 -0.3399467817
C  C49  1  0.47740000  0.16780000  0.33750000  1.0 -0.381339585
C  C50  1  0.58770000  0.32690000  0.34730000  1.0 -0.0654523349
C  C51  1  0.53600000  0.87200000  0.07670000  1.0 0.0675770589
C  C52  1  0.56570000  0.88330000  0.17630000  1.0 -0.0557655371
C  C53  1  0.68450000  0.04310000  0.14260000  1.0 -0.0929538957
C  C54  1  0.77250000  0.18310000  0.02520000  1.0 -0.3399467817
C  C55  1  0.16780000  0.47740000  0.16250000  1.0 -0.381339585
C  C56  1  0.32690000  0.58770000  0.15270000  1.0 -0.0654523349
N  N1  1  0.30258000  0.77982000  0.22070000  1.0 -0.4315043218
N  N2  1  0.61484000  0.01876000  0.26380000  1.0 -0.5596994415
N  N3  1  0.05960000  0.46500000  0.25930000  1.0 -0.5527296689
N  N4  1  0.15130000  0.90990000  0.18490000  1.0 -0.5089625246
N  N5  1  0.07996000  0.95064000  0.20780000  1.0 -0.3692656583
N  N6  1  0.79482000  0.72318000  0.23090000  1.0 -0.5596994415
N  N7  1  0.47887000  0.06193000  0.10380000  1.0 -0.5527296689
N  N8  1  0.77960000  0.31660000  0.08620000  1.0 -0.381339585
N  N9  1  0.03618000  0.62122000  0.10080000  1.0 -0.5596994415
N  N10  1  0.17467000  0.91693000  0.00830000  1.0 -0.5089625246
N  N11  1  0.10580000  0.95280000  0.88960000  1.0 -0.3946144408
N  N12  1  0.81315000  0.72845000  0.82270000  1.0 -0.5250013
N  N13  1  0.77982000  0.30258000  0.27930000  1.0 -0.4315043218
N  N14  1  0.01876000  0.61484000  0.23620000  1.0 -0.5596994415
N  N15  1  0.46500000  0.05960000  0.24070000  1.0 -0.5527296689
N  N16  1  0.90990000  0.15130000  0.31510000  1.0 -0.5089625246
N  N17  1  0.95064000  0.07996000  0.29220000  1.0 -0.3692656583
N  N18  1  0.72318000  0.79482000  0.26910000  1.0 -0.5596994415
N  N19  1  0.06193000  0.47887000  0.39620000  1.0 -0.5527296689
N  N20  1  0.31660000  0.77960000  0.41380000  1.0 -0.381339585
N  N21  1  0.62122000  0.03618000  0.39920000  1.0 -0.5596994415
N  N22  1  0.91693000  0.17467000  0.49170000  1.0 -0.5089625246
N  N23  1  0.95280000  0.10580000  0.61040000  1.0 -0.3946144408
N  N24  1  0.72845000  0.81315000  0.67730000  1.0 -0.5250013
N  N25  1  0.69742000  0.22018000  0.77930000  1.0 -0.4315043218
N  N26  1  0.38516000  0.98124000  0.73620000  1.0 -0.5596994415
N  N27  1  0.94040000  0.53500000  0.74070000  1.0 -0.5527296689
N  N28  1  0.84870000  0.09010000  0.81510000  1.0 -0.5089625246
N  N29  1  0.92004000  0.04936000  0.79220000  1.0 -0.3692656583
N  N30  1  0.20518000  0.27682000  0.76910000  1.0 -0.5596994415
N  N31  1  0.52113000  0.93807000  0.89620000  1.0 -0.5596994415
N  N32  1  0.22040000  0.68340000  0.91380000  1.0 -0.381339585
N  N33  1  0.96382000  0.37878000  0.89920000  1.0 -0.5596994415
N  N34  1  0.82533000  0.08307000  0.99170000  1.0 -0.5089625246
N  N35  1  0.89420000  0.04720000  0.11040000  1.0 -0.3946144408
N  N36  1  0.18685000  0.27155000  0.17730000  1.0 -0.52415855
N  N37  1  0.22018000  0.69742000  0.72070000  1.0 -0.4315043218
N  N38  1  0.98124000  0.38516000  0.76380000  1.0 -0.5596994415
N  N39  1  0.53500000  0.94040000  0.75930000  1.0 -0.5527296689
N  N40  1  0.09010000  0.84870000  0.68490000  1.0 -0.5089625246
N  N41  1  0.04936000  0.92004000  0.70780000  1.0 -0.3692656583
N  N42  1  0.27682000  0.20518000  0.73090000  1.0 -0.5596994415
N  N43  1  0.93807000  0.52113000  0.60380000  1.0 -0.5596994415
N  N44  1  0.68340000  0.22040000  0.58620000  1.0 -0.381339585
N  N45  1  0.37878000  0.96382000  0.60080000  1.0 -0.5596994415
N  N46  1  0.08307000  0.82533000  0.50830000  1.0 -0.5089625246
N  N47  1  0.04720000  0.89420000  0.38960000  1.0 -0.3946144408
N  N48  1  0.27155000  0.18685000  0.32270000  1.0 -0.52415855
N  N49  1  0.96558000  0.33482000  0.57930000  1.0 0.1093700961
N  N50  1  0.22271000  0.52589000  0.63530000  1.0 0.05651358
N  N51  1  0.33482000  0.96558000  0.92070000  1.0 0.1093700961
N  N52  1  0.52589000  0.22271000  0.86470000  1.0 0.05651358
N  N53  1  0.03442000  0.66518000  0.42070000  1.0 0.1093700961
N  N54  1  0.77729000  0.47411000  0.36470000  1.0 0.05651358
N  N55  1  0.66518000  0.03442000  0.07930000  1.0 0.1093700961
N  N56  1  0.47411000  0.77729000  0.13530000  1.0 0.05651358
Cl  Cl1  1  0.42418000  0.66438000  0.51057000  1.0 -0.5976687199
Cl  Cl2  1  0.45690000  0.64320000  0.33991000  1.0 -0.5731275207
Cl  Cl3  1  0.66438000  0.42418000  0.98943000  1.0 -0.5976687199
Cl  Cl4  1  0.64320000  0.45690000  0.16009000  1.0 -0.5731275207
Cl  Cl5  1  0.57582000  0.33562000  0.48943000  1.0 -0.5976687199
Cl  Cl6  1  0.54310000  0.35680000  0.66009000  1.0 -0.5731275207
Cl  Cl7  1  0.33562000  0.57582000  0.01057000  1.0 -0.5976687199
Cl  Cl8  1  0.35680000  0.54310000  0.83991000  1.0 -0.5731275207
O  O1  1  0.42221000  0.17019000  0.09820000  1.0 -0.7513669855
O  O2  1  0.92167000  0.67253000  0.09370000  1.0 -0.737939728
O  O3  1  0.41201000  0.33519000  0.19990000  1.0 -0.761265052
O  O4  1  0.66426000  0.56034000  0.36050000  1.0 -0.7655292279
O  O5  1  0.17019000  0.42221000  0.40180000  1.0 -0.7513669855
O  O6  1  0.67253000  0.92167000  0.40630000  1.0 -0.737939728
O  O7  1  0.33519000  0.41201000  0.30010000  1.0 -0.761265052
O  O8  1  0.56034000  0.66426000  0.13950000  1.0 -0.7655292279
O  O9  1  0.57779000  0.82981000  0.90180000  1.0 -0.7513669855
O  O10  1  0.07833000  0.32747000  0.90630000  1.0 -0.737939728
O  O11  1  0.58799000  0.66481000  0.80010000  1.0 -0.761265052
O  O12  1  0.33574000  0.43966000  0.63950000  1.0 -0.7655292279
O  O13  1  0.82981000  0.57779000  0.59820000  1.0 -0.7513669855
O  O14  1  0.32747000  0.07833000  0.59370000  1.0 -0.737939728
O  O15  1  0.66481000  0.58799000  0.69990000  1.0 -0.761265052
O  O16  1  0.43966000  0.33574000  0.86050000  1.0 -0.7655292279
