# DDEC6 charges by PACMAN v1.1 (https://github.com/mtap-research/PACMAN-charge/)
data_AKOBAF_ion_pacman
_symmetry_space_group_name_H-M   'P 1'
_cell_length_a   12.95080000
_cell_length_b   12.95080000
_cell_length_c   20.76600000
_cell_angle_alpha   62.72430000
_cell_angle_beta   117.27600000
_cell_angle_gamma   129.26400000
_symmetry_Int_Tables_number   1
_chemical_formula_structural   CdH36C40N8(ClO7)2
_chemical_formula_sum   'Cd2 H72 C80 N16 Cl4 O28'
_cell_volume   2324.05970562
_cell_formula_units_Z   2
loop_
 _symmetry_equiv_pos_site_id
 _symmetry_equiv_pos_as_xyz
  1  'x, y, z'
loop_
 _atom_site_type_symbol
 _atom_site_label
 _atom_site_symmetry_multiplicity
 _atom_site_fract_x
 _atom_site_fract_y
 _atom_site_fract_z
 _atom_site_occupancy
 _atom_site_charge
Cd  Cd1  1  0.78198000  0.78198000  0.75000000  1.0 0.7246310699
Cd  Cd2  1  0.21802000  0.21802000  0.25000000  1.0 0.7246310699
H  H1  1  0.26640000  0.46160000  0.59560000  1.0 0.2917602944
H  H2  1  0.46160000  0.26640000  0.90440000  1.0 0.2917602944
H  H3  1  0.73360000  0.53840000  0.40440000  1.0 0.2917602944
H  H4  1  0.53840000  0.73360000  0.09560000  1.0 0.2917602944
H  H5  1  0.49390000  0.62010000  0.63850000  1.0 0.1108677822
H  H6  1  0.62010000  0.49390000  0.86150000  1.0 0.1108677822
H  H7  1  0.50610000  0.37990000  0.36150000  1.0 0.1108677822
H  H8  1  0.37990000  0.50610000  0.13850000  1.0 0.1108677822
H  H9  1  0.76300000  0.51420000  0.75600000  1.0 0.1012498761
H  H10  1  0.51420000  0.76300000  0.74400000  1.0 0.1012498761
H  H11  1  0.23700000  0.48580000  0.24400000  1.0 0.1012498761
H  H12  1  0.48580000  0.23700000  0.25600000  1.0 0.1012498761
H  H13  1  0.59680000  0.28940000  0.75600000  1.0 0.1388260673
H  H14  1  0.28940000  0.59680000  0.74400000  1.0 0.1388260673
H  H15  1  0.40320000  0.71060000  0.24400000  1.0 0.1388260673
H  H16  1  0.71060000  0.40320000  0.25600000  1.0 0.1388260673
H  H17  1  0.36830000  0.22310000  0.69650000  1.0 0.1388260673
H  H18  1  0.22310000  0.36830000  0.80350000  1.0 0.1388260673
H  H19  1  0.63170000  0.77690000  0.30350000  1.0 0.1388260673
H  H20  1  0.77690000  0.63170000  0.19650000  1.0 0.1388260673
H  H21  1  0.95830000  0.19230000  0.57280000  1.0 0.1388260673
H  H22  1  0.19230000  0.95830000  0.92720000  1.0 0.1388260673
H  H23  1  0.04170000  0.80770000  0.42720000  1.0 0.1388260673
H  H24  1  0.80770000  0.04170000  0.07280000  1.0 0.1388260673
H  H25  1  0.98670000  0.23370000  0.64140000  1.0 0.1504912476
H  H26  1  0.23370000  0.98670000  0.85860000  1.0 0.1504912476
H  H27  1  0.01330000  0.76630000  0.35860000  1.0 0.1504912476
H  H28  1  0.76630000  0.01330000  0.14140000  1.0 0.1504912476
H  H29  1  0.05680000  0.46540000  0.62660000  1.0 0.1221942393
H  H30  1  0.46540000  0.05680000  0.87340000  1.0 0.1221942393
H  H31  1  0.94320000  0.53460000  0.37340000  1.0 0.1221942393
H  H32  1  0.53460000  0.94320000  0.12660000  1.0 0.1221942393
H  H33  1  0.96900000  0.35420000  0.45090000  1.0 0.1221942393
H  H34  1  0.35420000  0.96900000  0.04910000  1.0 0.1221942393
H  H35  1  0.03100000  0.64580000  0.54910000  1.0 0.1221942393
H  H36  1  0.64580000  0.03100000  0.95090000  1.0 0.1221942393
H  H37  1  0.67670000  0.18370000  0.64350000  1.0 0.2995045769
H  H38  1  0.18370000  0.67670000  0.85650000  1.0 0.2995045769
H  H39  1  0.32330000  0.81630000  0.35650000  1.0 0.2995045769
H  H40  1  0.81630000  0.32330000  0.14350000  1.0 0.2995045769
H  H41  1  0.70330000  0.00810000  0.69270000  1.0 0.1221942393
H  H42  1  0.00810000  0.70330000  0.80730000  1.0 0.1221942393
H  H43  1  0.29670000  0.99190000  0.30730000  1.0 0.1221942393
H  H44  1  0.99190000  0.29670000  0.19270000  1.0 0.1221942393
H  H45  1  0.69300000  0.84200000  0.57190000  1.0 0.1012498761
H  H46  1  0.84200000  0.69300000  0.92810000  1.0 0.1012498761
H  H47  1  0.30700000  0.15800000  0.42810000  1.0 0.1012498761
H  H48  1  0.15800000  0.30700000  0.07190000  1.0 0.1012498761
H  H49  1  0.66440000  0.99940000  0.46540000  1.0 0.1336864649
H  H50  1  0.99940000  0.66440000  0.03460000  1.0 0.1336864649
H  H51  1  0.33560000  0.00060000  0.53460000  1.0 0.1336864649
H  H52  1  0.00060000  0.33560000  0.96540000  1.0 0.1336864649
H  H53  1  0.65570000  0.16850000  0.47240000  1.0 0.1336864649
H  H54  1  0.16850000  0.65570000  0.02760000  1.0 0.1336864649
H  H55  1  0.34430000  0.83150000  0.52760000  1.0 0.1336864649
H  H56  1  0.83150000  0.34430000  0.97240000  1.0 0.1336864649
H  H57  1  0.77760000  0.47600000  0.59350000  1.0 0.1504912476
H  H58  1  0.47600000  0.77760000  0.90650000  1.0 0.1504912476
H  H59  1  0.22240000  0.52400000  0.40650000  1.0 0.1504912476
H  H60  1  0.52400000  0.22240000  0.09350000  1.0 0.1504912476
H  H61  1  0.66330000  0.34390000  0.63440000  1.0 0.1504912476
H  H62  1  0.34390000  0.66330000  0.86560000  1.0 0.1504912476
H  H63  1  0.33670000  0.65610000  0.36560000  1.0 0.1504912476
H  H64  1  0.65610000  0.33670000  0.13440000  1.0 0.1504912476
H  H65  1  0.73570000  0.65250000  0.53020000  1.0 0.1221942393
H  H66  1  0.65250000  0.73570000  0.96980000  1.0 0.1221942393
H  H67  1  0.26430000  0.34750000  0.46980000  1.0 0.1221942393
H  H68  1  0.34750000  0.26430000  0.03020000  1.0 0.1221942393
H  H69  1  0.59040000  0.73360000  0.46180000  1.0 0.1221942393
H  H70  1  0.73360000  0.59040000  0.03820000  1.0 0.1221942393
H  H71  1  0.40960000  0.26640000  0.53820000  1.0 0.1221942393
H  H72  1  0.26640000  0.40960000  0.96180000  1.0 0.1221942393
C  C1  1  0.40487000  0.41633000  0.66062000  1.0 0.1957362729
C  C2  1  0.41633000  0.40487000  0.83938000  1.0 0.1957362729
C  C3  1  0.59513000  0.58367000  0.33938000  1.0 0.1957362729
C  C4  1  0.58367000  0.59513000  0.16062000  1.0 0.1957362729
C  C5  1  0.51372000  0.55168000  0.66293000  1.0 -0.0291676962
C  C6  1  0.55168000  0.51372000  0.83707000  1.0 -0.0291676962
C  C7  1  0.48628000  0.44832000  0.33707000  1.0 -0.0291676962
C  C8  1  0.44832000  0.48628000  0.16293000  1.0 -0.0291676962
C  C9  1  0.67235000  0.48985000  0.73178000  1.0 0.0271514195
C  C10  1  0.48985000  0.67235000  0.76822000  1.0 0.0271514195
C  C11  1  0.32765000  0.51015000  0.26822000  1.0 0.0271514195
C  C12  1  0.51015000  0.32765000  0.23178000  1.0 0.0271514195
C  C13  1  0.57309000  0.35491000  0.73198000  1.0 -0.1204749028
C  C14  1  0.35491000  0.57309000  0.76802000  1.0 -0.1204749028
C  C15  1  0.42691000  0.64509000  0.26802000  1.0 -0.1204749028
C  C16  1  0.64509000  0.42691000  0.23198000  1.0 -0.1204749028
C  C17  1  0.43669000  0.31491000  0.69643000  1.0 -0.127221809
C  C18  1  0.31491000  0.43669000  0.80357000  1.0 -0.127221809
C  C19  1  0.56331000  0.68509000  0.30357000  1.0 -0.127221809
C  C20  1  0.68509000  0.56331000  0.19643000  1.0 -0.127221809
C  C21  1  0.02220000  0.26440000  0.59960000  1.0 -0.3978266803
C  C22  1  0.26440000  0.02220000  0.90040000  1.0 -0.3978266803
C  C23  1  0.97780000  0.73560000  0.40040000  1.0 -0.3978266803
C  C24  1  0.73560000  0.97780000  0.09960000  1.0 -0.3978266803
C  C25  1  0.01360000  0.38820000  0.54820000  1.0 0.1221942393
C  C26  1  0.38820000  0.01360000  0.95180000  1.0 0.1221942393
C  C27  1  0.98640000  0.61180000  0.45180000  1.0 0.1221942393
C  C28  1  0.61180000  0.98640000  0.04820000  1.0 0.1221942393
C  C29  1  0.03310000  0.47790000  0.57520000  1.0 -0.1496384802
C  C30  1  0.47790000  0.03310000  0.92480000  1.0 -0.1496384802
C  C31  1  0.96690000  0.52210000  0.42480000  1.0 -0.1496384802
C  C32  1  0.52210000  0.96690000  0.07520000  1.0 -0.1496384802
C  C33  1  0.98130000  0.41270000  0.47140000  1.0 -0.1496384802
C  C34  1  0.41270000  0.98130000  0.02860000  1.0 -0.1496384802
C  C35  1  0.01870000  0.58730000  0.52860000  1.0 -0.1496384802
C  C36  1  0.58730000  0.01870000  0.97140000  1.0 -0.1496384802
C  C37  1  0.15520000  0.26920000  0.63220000  1.0 0.541801295
C  C38  1  0.26920000  0.15520000  0.86780000  1.0 0.541801295
C  C39  1  0.84480000  0.73080000  0.36780000  1.0 0.541801295
C  C40  1  0.73080000  0.84480000  0.13220000  1.0 0.541801295
C  C41  1  0.67916000  0.10544000  0.58425000  1.0 0.1825180414
C  C42  1  0.10544000  0.67916000  0.91575000  1.0 0.1825180414
C  C43  1  0.32084000  0.89456000  0.41575000  1.0 0.1825180414
C  C44  1  0.89456000  0.32084000  0.08425000  1.0 0.1825180414
C  C45  1  0.69636000  0.00724000  0.64628000  1.0 -0.0443455924
C  C46  1  0.00724000  0.69636000  0.85372000  1.0 -0.0451933456
C  C47  1  0.30364000  0.99276000  0.35372000  1.0 -0.0443455924
C  C48  1  0.99276000  0.30364000  0.14628000  1.0 -0.0443455924
C  C49  1  0.69022000  0.90918000  0.57550000  1.0 0.0505680989
C  C50  1  0.90918000  0.69022000  0.92450000  1.0 0.0505680989
C  C51  1  0.30978000  0.09082000  0.42450000  1.0 0.0505680989
C  C52  1  0.09082000  0.30978000  0.07550000  1.0 0.0505680989
C  C53  1  0.67256000  0.00324000  0.51129000  1.0 -0.1204749028
C  C54  1  0.00324000  0.67256000  0.98871000  1.0 -0.1204749028
C  C55  1  0.32744000  0.99676000  0.48871000  1.0 -0.1204749028
C  C56  1  0.99676000  0.32744000  0.01129000  1.0 -0.1204749028
C  C57  1  0.66712000  0.10388000  0.51518000  1.0 -0.1204749028
C  C58  1  0.10388000  0.66712000  0.98482000  1.0 -0.1204749028
C  C59  1  0.33288000  0.89612000  0.48482000  1.0 -0.1204749028
C  C60  1  0.89612000  0.33288000  0.01518000  1.0 -0.1204749028
C  C61  1  0.68344000  0.39836000  0.58580000  1.0 -0.4109564088
C  C62  1  0.39836000  0.68344000  0.91420000  1.0 -0.4109564088
C  C63  1  0.31656000  0.60164000  0.41420000  1.0 -0.4109564088
C  C64  1  0.60164000  0.31656000  0.08580000  1.0 -0.4109564088
C  C65  1  0.58878000  0.45122000  0.54051000  1.0 0.1388260673
C  C66  1  0.45122000  0.58878000  0.95949000  1.0 0.1388260673
C  C67  1  0.41122000  0.54878000  0.45949000  1.0 0.1388260673
C  C68  1  0.54878000  0.41122000  0.04051000  1.0 0.1388260673
C  C69  1  0.64119000  0.59061000  0.51803000  1.0 -0.1563232851
C  C70  1  0.59061000  0.64119000  0.98197000  1.0 -0.1563232851
C  C71  1  0.35881000  0.40939000  0.48197000  1.0 -0.1563232851
C  C72  1  0.40939000  0.35881000  0.01803000  1.0 -0.1563232851
C  C73  1  0.55358000  0.63942000  0.47732000  1.0 -0.1496384802
C  C74  1  0.63942000  0.55358000  0.02268000  1.0 -0.1496384802
C  C75  1  0.44642000  0.36058000  0.52268000  1.0 -0.1496384802
C  C76  1  0.36058000  0.44642000  0.97732000  1.0 -0.1496384802
C  C77  1  0.67120000  0.31180000  0.54963000  1.0 0.541801295
C  C78  1  0.31180000  0.67120000  0.95037000  1.0 0.541801295
C  C79  1  0.32880000  0.68820000  0.45037000  1.0 0.541801295
C  C80  1  0.68820000  0.32880000  0.04963000  1.0 0.541801295
N  N1  1  0.64382000  0.58918000  0.69771000  1.0 -0.2363035691
N  N2  1  0.58918000  0.64382000  0.80229000  1.0 -0.2363035691
N  N3  1  0.35618000  0.41082000  0.30229000  1.0 -0.2363035691
N  N4  1  0.41082000  0.35618000  0.19771000  1.0 -0.2363035691
N  N5  1  0.27297000  0.39183000  0.62495000  1.0 -0.3516226236
N  N6  1  0.39183000  0.27297000  0.87505000  1.0 -0.3516226236
N  N7  1  0.72703000  0.60817000  0.37505000  1.0 -0.3516226236
N  N8  1  0.60817000  0.72703000  0.12495000  1.0 -0.3516226236
N  N9  1  0.70343000  0.91097000  0.64294000  1.0 -0.2228549694
N  N10  1  0.91097000  0.70343000  0.85706000  1.0 -0.2228549694
N  N11  1  0.29657000  0.08903000  0.35706000  1.0 -0.2228549694
N  N12  1  0.08903000  0.29657000  0.14294000  1.0 -0.2228549694
N  N13  1  0.67577000  0.19923000  0.59835000  1.0 -0.3661172402
N  N14  1  0.19923000  0.67577000  0.90165000  1.0 -0.3661172402
N  N15  1  0.32423000  0.80077000  0.40165000  1.0 -0.3661172402
N  N16  1  0.80077000  0.32423000  0.09835000  1.0 -0.3661172402
Cl  Cl1  1  0.05014000  0.62132000  0.21019000  1.0 1.1932305681
Cl  Cl2  1  0.62132000  0.05014000  0.28981000  1.0 1.1932305681
Cl  Cl3  1  0.94986000  0.37868000  0.78981000  1.0 1.1932305681
Cl  Cl4  1  0.37868000  0.94986000  0.71019000  1.0 1.1932305681
O  O1  1  0.15147000  0.16373000  0.66840000  1.0 -0.3789370445
O  O2  1  0.16373000  0.15147000  0.83160000  1.0 -0.3789370445
O  O3  1  0.84853000  0.83627000  0.33160000  1.0 -0.3789370445
O  O4  1  0.83627000  0.84853000  0.16840000  1.0 -0.3789370445
O  O5  1  0.95689000  0.89011000  0.69430000  1.0 -0.3516226236
O  O6  1  0.89011000  0.95689000  0.80570000  1.0 -0.3516226236
O  O7  1  0.04311000  0.10989000  0.30570000  1.0 -0.3516226236
O  O8  1  0.10989000  0.04311000  0.19430000  1.0 -0.3516226236
O  O9  1  0.66129000  0.34111000  0.48296000  1.0 -0.4820775998
O  O10  1  0.34111000  0.66129000  0.01704000  1.0 -0.4820775998
O  O11  1  0.33871000  0.65889000  0.51704000  1.0 -0.4820775998
O  O12  1  0.65889000  0.33871000  0.98296000  1.0 -0.4820775998
O  O13  1  0.94860000  0.63680000  0.15150000  1.0 -0.440292218
O  O14  1  0.14280000  0.65200000  0.18090000  1.0 -0.4109564088
O  O15  1  0.09460000  0.68120000  0.25980000  1.0 -0.3789370445
O  O16  1  0.00260000  0.48420000  0.24270000  1.0 -0.4109564088
O  O17  1  0.63680000  0.94860000  0.34850000  1.0 -0.440292218
O  O18  1  0.65200000  0.14280000  0.31910000  1.0 -0.4109564088
O  O19  1  0.68120000  0.09460000  0.24020000  1.0 -0.3789370445
O  O20  1  0.48420000  0.00260000  0.25730000  1.0 -0.4109564088
O  O21  1  0.05140000  0.36320000  0.84850000  1.0 -0.440292218
O  O22  1  0.85720000  0.34800000  0.81910000  1.0 -0.4109564088
O  O23  1  0.90540000  0.31880000  0.74020000  1.0 -0.3789370445
O  O24  1  0.99740000  0.51580000  0.75730000  1.0 -0.4109564088
O  O25  1  0.36320000  0.05140000  0.65150000  1.0 -0.440292218
O  O26  1  0.34800000  0.85720000  0.68090000  1.0 -0.4109564088
O  O27  1  0.31880000  0.90540000  0.75980000  1.0 -0.3789370445
O  O28  1  0.51580000  0.99740000  0.74270000  1.0 -0.4109564088
