# DDEC6 charges by PACMAN v1.1 (https://github.com/mtap-research/PACMAN-charge/)
data_AKOXIJ_ASR_pacman
_symmetry_space_group_name_H-M   'P 1'
_cell_length_a   19.82940000
_cell_length_b   19.82940000
_cell_length_c   12.68240000
_cell_angle_alpha   72.61810000
_cell_angle_beta   107.38200000
_cell_angle_gamma   101.22400000
_symmetry_Int_Tables_number   1
_chemical_formula_structural   Ni9H24C172(N13O28)2
_chemical_formula_sum   'Ni9 H24 C172 N26 O56'
_cell_volume   4511.21937654
_cell_formula_units_Z   1
loop_
 _symmetry_equiv_pos_site_id
 _symmetry_equiv_pos_as_xyz
  1  'x, y, z'
loop_
 _atom_site_type_symbol
 _atom_site_label
 _atom_site_symmetry_multiplicity
 _atom_site_fract_x
 _atom_site_fract_y
 _atom_site_fract_z
 _atom_site_occupancy
 _atom_site_charge
Ni  Ni1  1  0.21313000  0.78687000  0.84385000  1.0 0.7391524832
Ni  Ni2  1  0.78687000  0.21313000  0.15615000  1.0 0.7391524832
Ni  Ni3  1  0.22011000  0.77989000  0.57120000  1.0 0.6936936995
Ni  Ni4  1  0.77989000  0.22011000  0.42880000  1.0 0.6936936995
Ni  Ni5  1  0.68229000  0.80859000  0.93733000  1.0 0.6936936995
Ni  Ni6  1  0.80859000  0.68229000  0.06267000  1.0 0.6936936995
Ni  Ni7  1  0.31771000  0.19141000  0.06267000  1.0 0.6936936995
Ni  Ni8  1  0.19141000  0.31771000  0.93733000  1.0 0.6936936995
Ni  Ni9  1  0.50000000  0.50000000  0.50000000  1.0 0.4133035461
H  H1  1  0.43870000  0.81710000  0.96800000  1.0 0.1406076136
H  H2  1  0.81710000  0.43870000  0.03200000  1.0 0.1406076136
H  H3  1  0.56130000  0.18290000  0.03200000  1.0 0.1406076136
H  H4  1  0.18290000  0.56130000  0.96800000  1.0 0.1406076136
H  H5  1  0.56060000  0.82480000  0.02180000  1.0 0.1000361103
H  H6  1  0.82480000  0.56060000  0.97820000  1.0 0.1000361103
H  H7  1  0.43940000  0.17520000  0.97820000  1.0 0.1000361103
H  H8  1  0.17520000  0.43940000  0.02180000  1.0 0.1000361103
H  H9  1  0.56710000  0.82510000  0.71630000  1.0 0.1000361103
H  H10  1  0.82510000  0.56710000  0.28370000  1.0 0.1000361103
H  H11  1  0.43290000  0.17490000  0.28370000  1.0 0.1000361103
H  H12  1  0.17490000  0.43290000  0.71630000  1.0 0.1000361103
H  H13  1  0.44440000  0.81720000  0.65300000  1.0 0.1283879313
H  H14  1  0.81720000  0.44440000  0.34700000  1.0 0.1283879313
H  H15  1  0.55560000  0.18280000  0.34700000  1.0 0.1283879313
H  H16  1  0.18280000  0.55560000  0.65300000  1.0 0.1283879313
H  H17  1  0.38480000  0.61520000  0.58610000  1.0 0.117476068
H  H18  1  0.61520000  0.38480000  0.41390000  1.0 0.117476068
H  H19  1  0.32280000  0.67720000  0.64770000  1.0 0.1085978928
H  H20  1  0.67720000  0.32280000  0.35230000  1.0 0.1085978928
H  H21  1  0.22990000  0.77010000  0.33470000  1.0 0.1000361103
H  H22  1  0.77010000  0.22990000  0.66530000  1.0 0.1000361103
H  H23  1  0.29080000  0.70920000  0.26740000  1.0 0.1479294916
H  H24  1  0.70920000  0.29080000  0.73260000  1.0 0.1479294916
C  C1  1  0.68133000  0.68257000  0.14630000  1.0 0.5591746341
C  C2  1  0.68257000  0.68133000  0.85370000  1.0 0.5591746341
C  C3  1  0.31867000  0.31743000  0.85370000  1.0 0.5591746341
C  C4  1  0.31743000  0.31867000  0.14630000  1.0 0.5591746341
C  C5  1  0.34704000  0.80366000  0.76880000  1.0 0.5591746341
C  C6  1  0.80366000  0.34704000  0.23120000  1.0 0.5591746341
C  C7  1  0.65296000  0.19634000  0.23120000  1.0 0.5591746341
C  C8  1  0.19634000  0.65296000  0.76880000  1.0 0.5591746341
C  C9  1  0.42731000  0.81307000  0.80540000  1.0 0.0513994555
C  C10  1  0.81307000  0.42731000  0.19460000  1.0 0.0513994555
C  C11  1  0.57269000  0.18693000  0.19460000  1.0 0.0513994555
C  C12  1  0.18693000  0.57269000  0.80540000  1.0 0.0513994555
C  C13  1  0.46385000  0.81741000  0.91480000  1.0 -0.1421201159
C  C14  1  0.81741000  0.46385000  0.08520000  1.0 -0.1421201159
C  C15  1  0.53615000  0.18259000  0.08520000  1.0 -0.1421201159
C  C16  1  0.18259000  0.53615000  0.91480000  1.0 -0.1421201159
C  C17  1  0.53632000  0.82212000  0.94600000  1.0 0.0844364087
C  C18  1  0.82212000  0.53632000  0.05400000  1.0 0.0853582616
C  C19  1  0.46368000  0.17788000  0.05400000  1.0 0.0853582616
C  C20  1  0.17788000  0.46368000  0.94600000  1.0 0.0853582616
C  C21  1  0.54034000  0.82226000  0.76870000  1.0 0.0853582616
C  C22  1  0.82226000  0.54034000  0.23130000  1.0 0.0853582616
C  C23  1  0.45966000  0.17774000  0.23130000  1.0 0.0853582616
C  C24  1  0.17774000  0.45966000  0.76870000  1.0 0.0844364087
C  C25  1  0.46715000  0.81749000  0.73030000  1.0 -0.1593413383
C  C26  1  0.81749000  0.46715000  0.26970000  1.0 -0.1593413383
C  C27  1  0.53285000  0.18251000  0.26970000  1.0 -0.1593413383
C  C28  1  0.18251000  0.53285000  0.73030000  1.0 -0.1593413383
C  C29  1  0.38556000  0.61444000  0.37910000  1.0 0.5396370809
C  C30  1  0.61444000  0.38556000  0.62090000  1.0 0.5396370809
C  C31  1  0.34418000  0.65582000  0.41880000  1.0 0.0606132956
C  C32  1  0.65582000  0.34418000  0.58120000  1.0 0.0606132956
C  C33  1  0.35310000  0.64690000  0.53170000  1.0 -0.179239078
C  C34  1  0.64690000  0.35310000  0.46830000  1.0 -0.179239078
C  C35  1  0.31592000  0.68408000  0.56800000  1.0 0.0689245204
C  C36  1  0.68408000  0.31592000  0.43200000  1.0 0.0689245204
C  C37  1  0.26180000  0.73820000  0.38810000  1.0 0.1000361103
C  C38  1  0.73820000  0.26180000  0.61190000  1.0 0.1000361103
C  C39  1  0.29860000  0.70140000  0.34750000  1.0 -0.152249102
C  C40  1  0.70140000  0.29860000  0.65250000  1.0 -0.152249102
C  C41  1  0.90570000  0.75650000  0.92090000  1.0 0.2390940888
C  C42  1  0.75650000  0.90570000  0.07910000  1.0 0.2390940888
C  C43  1  0.09430000  0.24350000  0.07910000  1.0 0.2390940888
C  C44  1  0.24350000  0.09430000  0.92090000  1.0 0.2390940888
C  C45  1  0.97510000  0.76110000  0.89620000  1.0 0.0321798283
C  C46  1  0.76110000  0.97510000  0.10380000  1.0 0.0321798283
C  C47  1  0.02490000  0.23890000  0.10380000  1.0 0.0321798283
C  C48  1  0.23890000  0.02490000  0.89620000  1.0 0.0321798283
C  C49  1  0.01660000  0.70400000  0.94200000  1.0 -0.0881133121
C  C50  1  0.70400000  0.01660000  0.05800000  1.0 -0.0881133121
C  C51  1  0.98340000  0.29600000  0.05800000  1.0 -0.0881133121
C  C52  1  0.29600000  0.98340000  0.94200000  1.0 -0.0881133121
C  C53  1  0.08350000  0.71550000  0.92390000  1.0 0.200839547
C  C54  1  0.71550000  0.08350000  0.07610000  1.0 0.200839547
C  C55  1  0.91650000  0.28450000  0.07610000  1.0 0.200839547
C  C56  1  0.28450000  0.91650000  0.92390000  1.0 0.200839547
C  C57  1  0.06830000  0.82810000  0.81070000  1.0 0.1600755057
C  C58  1  0.82810000  0.06830000  0.18930000  1.0 0.1600755057
C  C59  1  0.93170000  0.17190000  0.18930000  1.0 0.1600755057
C  C60  1  0.17190000  0.93170000  0.81070000  1.0 0.1600755057
C  C61  1  0.00150000  0.82450000  0.82500000  1.0 -0.0326431081
C  C62  1  0.82450000  0.00150000  0.17500000  1.0 -0.0326431081
C  C63  1  0.99850000  0.17550000  0.17500000  1.0 -0.0326431081
C  C64  1  0.17550000  0.99850000  0.82500000  1.0 -0.0326431081
C  C65  1  0.63808000  0.63998000  0.22950000  1.0 0.0034793895
C  C66  1  0.63998000  0.63808000  0.77050000  1.0 0.0034793895
C  C67  1  0.36192000  0.36002000  0.77050000  1.0 0.0034793895
C  C68  1  0.36002000  0.36192000  0.22950000  1.0 0.0034793895
C  C69  1  0.56560000  0.64040000  0.20050000  1.0 0.0142524638
C  C70  1  0.64040000  0.56560000  0.79950000  1.0 0.0142524638
C  C71  1  0.43440000  0.35960000  0.79950000  1.0 0.0142524638
C  C72  1  0.35960000  0.43440000  0.20050000  1.0 0.0142524638
C  C73  1  0.52650000  0.59990000  0.27830000  1.0 0.0689245204
C  C74  1  0.59990000  0.52650000  0.72170000  1.0 0.0689245204
C  C75  1  0.47350000  0.40010000  0.72170000  1.0 0.0689245204
C  C76  1  0.40010000  0.47350000  0.27830000  1.0 0.0689245204
C  C77  1  0.23684000  0.93516000  0.47550000  1.0 0.25275699
C  C78  1  0.93516000  0.23684000  0.52450000  1.0 0.25275699
C  C79  1  0.76316000  0.06484000  0.52450000  1.0 0.25275699
C  C80  1  0.06484000  0.76316000  0.47550000  1.0 0.25275699
C  C81  1  0.26010000  0.99830000  0.38360000  1.0 0.0689245204
C  C82  1  0.99830000  0.26010000  0.61640000  1.0 0.0689245204
C  C83  1  0.73990000  0.00170000  0.61640000  1.0 0.0689245204
C  C84  1  0.00170000  0.73990000  0.38360000  1.0 0.0689245204
C  C85  1  0.24080000  0.06520000  0.36440000  1.0 -0.0983693166
C  C86  1  0.06520000  0.24080000  0.63560000  1.0 -0.0983693166
C  C87  1  0.75920000  0.93480000  0.63560000  1.0 -0.0983693166
C  C88  1  0.93480000  0.75920000  0.36440000  1.0 -0.0983693166
C  C89  1  0.25944000  0.11996000  0.27710000  1.0 0.1652578036
C  C90  1  0.11996000  0.25944000  0.72290000  1.0 0.1600755057
C  C91  1  0.74056000  0.88004000  0.72290000  1.0 0.1600755057
C  C92  1  0.88004000  0.74056000  0.27710000  1.0 0.1600755057
C  C93  1  0.31330000  0.04490000  0.22750000  1.0 0.0606132956
C  C94  1  0.04490000  0.31330000  0.77250000  1.0 0.0606132956
C  C95  1  0.68670000  0.95510000  0.77250000  1.0 0.0513994555
C  C96  1  0.95510000  0.68670000  0.22750000  1.0 0.0513994555
C  C97  1  0.29480000  0.97640000  0.34750000  1.0 -0.0613413391
C  C98  1  0.97640000  0.29480000  0.65250000  1.0 -0.0613413391
C  C99  1  0.70520000  0.02360000  0.65250000  1.0 -0.0613413391
C  C100  1  0.02360000  0.70520000  0.34750000  1.0 -0.0613413391
C  C101  1  0.62930000  0.56230000  0.40990000  1.0 0.0434013843
C  C102  1  0.56230000  0.62930000  0.59010000  1.0 0.0434013843
C  C103  1  0.37070000  0.43770000  0.59010000  1.0 0.0434013843
C  C104  1  0.43770000  0.37070000  0.40990000  1.0 0.0434013843
C  C105  1  0.67070000  0.59970000  0.33600000  1.0 -0.0014526192
C  C106  1  0.59970000  0.67070000  0.66400000  1.0 -0.0014526192
C  C107  1  0.32930000  0.40030000  0.66400000  1.0 -0.0014526192
C  C108  1  0.40030000  0.32930000  0.33600000  1.0 -0.0014526192
C  C109  1  0.05270000  0.76970000  0.79110000  1.0 0.2390940888
C  C110  1  0.76970000  0.05270000  0.20890000  1.0 0.2390940888
C  C111  1  0.94730000  0.23030000  0.20890000  1.0 0.2390940888
C  C112  1  0.23030000  0.94730000  0.79110000  1.0 0.2390940888
C  C113  1  0.99050000  0.74290000  0.84570000  1.0 0.0513994555
C  C114  1  0.74290000  0.99050000  0.15430000  1.0 0.0513994555
C  C115  1  0.00950000  0.25710000  0.15430000  1.0 0.0513994555
C  C116  1  0.25710000  0.00950000  0.84570000  1.0 0.0606132956
C  C117  1  0.92250000  0.76250000  0.78820000  1.0 -0.0493192666
C  C118  1  0.76250000  0.92250000  0.21180000  1.0 -0.0493192666
C  C119  1  0.07750000  0.23750000  0.21180000  1.0 -0.0493192666
C  C120  1  0.23750000  0.07750000  0.78820000  1.0 -0.0493192666
C  C121  1  0.87140000  0.74120000  0.84980000  1.0 0.200839547
C  C122  1  0.74120000  0.87140000  0.15020000  1.0 0.200839547
C  C123  1  0.12860000  0.25880000  0.15020000  1.0 0.200839547
C  C124  1  0.25880000  0.12860000  0.84980000  1.0 0.200839547
C  C125  1  0.94820000  0.68100000  0.00960000  1.0 0.1802085261
C  C126  1  0.68100000  0.94820000  0.99040000  1.0 0.1802085261
C  C127  1  0.05180000  0.31900000  0.99040000  1.0 0.1802085261
C  C128  1  0.31900000  0.05180000  0.00960000  1.0 0.1802085261
C  C129  1  0.00440000  0.70100000  0.95900000  1.0 -0.0881133121
C  C130  1  0.70100000  0.00440000  0.04100000  1.0 -0.0881133121
C  C131  1  0.99560000  0.29900000  0.04100000  1.0 -0.0881133121
C  C132  1  0.29900000  0.99560000  0.95900000  1.0 -0.0881133121
C  C133  1  0.23900000  0.08660000  0.21360000  1.0 0.2343761246
C  C134  1  0.08660000  0.23900000  0.78640000  1.0 0.2390940888
C  C135  1  0.76100000  0.91340000  0.78640000  1.0 0.2343761246
C  C136  1  0.91340000  0.76100000  0.21360000  1.0 0.2343761246
C  C137  1  0.23640000  0.01500000  0.30070000  1.0 0.0434013843
C  C138  1  0.01500000  0.23640000  0.69930000  1.0 0.0434013843
C  C139  1  0.76360000  0.98500000  0.69930000  1.0 0.0434013843
C  C140  1  0.98500000  0.76360000  0.30070000  1.0 0.0434013843
C  C141  1  0.17460000  0.98500000  0.33370000  1.0 -0.0983693166
C  C142  1  0.98500000  0.17460000  0.66630000  1.0 -0.0983693166
C  C143  1  0.82540000  0.01500000  0.66630000  1.0 -0.0983693166
C  C144  1  0.01500000  0.82540000  0.33370000  1.0 -0.0983693166
C  C145  1  0.17242000  0.91818000  0.40890000  1.0 0.0513994555
C  C146  1  0.91818000  0.17242000  0.59110000  1.0 0.0513994555
C  C147  1  0.82758000  0.08182000  0.59110000  1.0 0.0513994555
C  C148  1  0.08182000  0.82758000  0.40890000  1.0 0.0513994555
C  C149  1  0.28950000  0.91130000  0.42570000  1.0 0.1925681899
C  C150  1  0.91130000  0.28950000  0.57430000  1.0 0.1925681899
C  C151  1  0.71050000  0.08870000  0.57430000  1.0 0.1925681899
C  C152  1  0.08870000  0.71050000  0.42570000  1.0 0.1925681899
C  C153  1  0.29780000  0.98940000  0.31360000  1.0 -0.0841712137
C  C154  1  0.98940000  0.29780000  0.68640000  1.0 -0.0841712137
C  C155  1  0.70220000  0.01060000  0.68640000  1.0 -0.0841712137
C  C156  1  0.01060000  0.70220000  0.31360000  1.0 -0.0841712137
C  C157  1  0.55320000  0.62880000  0.33400000  1.0 0.0606132956
C  C158  1  0.62880000  0.55320000  0.66600000  1.0 0.0606132956
C  C159  1  0.44680000  0.37120000  0.66600000  1.0 0.0606132956
C  C160  1  0.37120000  0.44680000  0.33400000  1.0 0.0606132956
C  C161  1  0.58900000  0.66880000  0.25450000  1.0 -0.0014526192
C  C162  1  0.66880000  0.58900000  0.74550000  1.0 -0.0014526192
C  C163  1  0.41100000  0.33120000  0.74550000  1.0 -0.0014526192
C  C164  1  0.33120000  0.41100000  0.25450000  1.0 -0.0014526192
C  C165  1  0.60160000  0.53260000  0.35310000  1.0 0.0513994555
C  C166  1  0.53260000  0.60160000  0.64690000  1.0 0.0513994555
C  C167  1  0.39840000  0.46740000  0.64690000  1.0 0.0513994555
C  C168  1  0.46740000  0.39840000  0.35310000  1.0 0.0513994555
C  C169  1  0.64300000  0.57080000  0.27920000  1.0 -0.0060133557
C  C170  1  0.57080000  0.64300000  0.72080000  1.0 -0.0060133557
C  C171  1  0.35700000  0.42920000  0.72080000  1.0 -0.0060133557
C  C172  1  0.42920000  0.35700000  0.27920000  1.0 -0.0060133557
N  N1  1  0.57496000  0.82310000  0.87527000  1.0 -0.2215836351
N  N2  1  0.82310000  0.57496000  0.12473000  1.0 -0.2215836351
N  N3  1  0.42504000  0.17690000  0.12473000  1.0 -0.2215836351
N  N4  1  0.17690000  0.42504000  0.87527000  1.0 -0.2215836351
N  N5  1  0.27013000  0.72987000  0.49400000  1.0 -0.2273635645
N  N6  1  0.72987000  0.27013000  0.50600000  1.0 -0.2273635645
N  N7  1  0.11030000  0.76410000  0.86100000  1.0 -0.2767943596
N  N8  1  0.76410000  0.11030000  0.13900000  1.0 -0.2767943596
N  N9  1  0.88970000  0.23590000  0.13900000  1.0 -0.2767943596
N  N10  1  0.23590000  0.88970000  0.86100000  1.0 -0.2767943596
N  N11  1  0.55754000  0.56138000  0.38177000  1.0 -0.1593413383
N  N12  1  0.56138000  0.55754000  0.61823000  1.0 -0.152249102
N  N13  1  0.44246000  0.43862000  0.61823000  1.0 -0.1593413383
N  N14  1  0.43862000  0.44246000  0.38177000  1.0 -0.152249102
N  N15  1  0.29850000  0.11730000  0.20710000  1.0 -0.243819642
N  N16  1  0.11730000  0.29850000  0.79290000  1.0 -0.243819642
N  N17  1  0.70150000  0.88270000  0.79290000  1.0 -0.243819642
N  N18  1  0.88270000  0.70150000  0.20710000  1.0 -0.243819642
N  N19  1  0.87830000  0.70370000  0.95600000  1.0 -0.2767943596
N  N20  1  0.70370000  0.87830000  0.04400000  1.0 -0.2767943596
N  N21  1  0.12170000  0.29630000  0.04400000  1.0 -0.2767943596
N  N22  1  0.29630000  0.12170000  0.95600000  1.0 -0.2767943596
N  N23  1  0.22710000  0.88110000  0.46000000  1.0 -0.207295638
N  N24  1  0.88110000  0.22710000  0.54000000  1.0 -0.207295638
N  N25  1  0.77290000  0.11890000  0.54000000  1.0 -0.207295638
N  N26  1  0.11890000  0.77290000  0.46000000  1.0 -0.207295638
O  O1  1  0.17593000  0.82407000  0.66526000  1.0 0.1479294916
O  O2  1  0.82407000  0.17593000  0.33474000  1.0 0.1600755057
O  O3  1  0.78886000  0.78886000  0.00000000  1.0 0.1085978928
O  O4  1  0.21114000  0.21114000  0.00000000  1.0 0.1085978928
O  O5  1  0.31634000  0.79972000  0.84346000  1.0 -0.5095367511
O  O6  1  0.79972000  0.31634000  0.15654000  1.0 -0.5095367511
O  O7  1  0.68366000  0.20028000  0.15654000  1.0 -0.5095367511
O  O8  1  0.20028000  0.68366000  0.84346000  1.0 -0.5095367511
O  O9  1  0.31944000  0.80016000  0.66883000  1.0 -0.535964862
O  O10  1  0.80016000  0.31944000  0.33117000  1.0 -0.535964862
O  O11  1  0.68056000  0.19984000  0.33117000  1.0 -0.535964862
O  O12  1  0.19984000  0.68056000  0.66883000  1.0 -0.535964862
O  O13  1  0.42569000  0.57431000  0.44860000  1.0 -0.535964862
O  O14  1  0.57431000  0.42569000  0.55140000  1.0 -0.535964862
O  O15  1  0.37403000  0.62597000  0.27450000  1.0 -0.535964862
O  O16  1  0.62597000  0.37403000  0.72550000  1.0 -0.535964862
O  O17  1  0.65288000  0.73128000  0.06788000  1.0 -0.4905166146
O  O18  1  0.73128000  0.65288000  0.93212000  1.0 -0.4905166146
O  O19  1  0.34712000  0.26872000  0.93212000  1.0 -0.4905166146
O  O20  1  0.26872000  0.34712000  0.06788000  1.0 -0.4905166146
O  O21  1  0.74087000  0.66379000  0.16408000  1.0 -0.4905166146
O  O22  1  0.66379000  0.74087000  0.83592000  1.0 -0.4905166146
O  O23  1  0.25913000  0.33621000  0.83592000  1.0 -0.4905166146
O  O24  1  0.33621000  0.25913000  0.16408000  1.0 -0.4905166146
O  O25  1  0.87566000  0.81034000  0.88210000  1.0 -0.2508706589
O  O26  1  0.81034000  0.87566000  0.11790000  1.0 -0.2508706589
O  O27  1  0.12434000  0.18966000  0.11790000  1.0 -0.2577265759
O  O28  1  0.18966000  0.12434000  0.88210000  1.0 -0.2508706589
O  O29  1  0.88690000  0.69750000  0.98020000  1.0 -0.1746926834
O  O30  1  0.69750000  0.88690000  0.01980000  1.0 -0.1746926834
O  O31  1  0.11310000  0.30250000  0.01980000  1.0 -0.179239078
O  O32  1  0.30250000  0.11310000  0.98020000  1.0 -0.179239078
O  O33  1  0.21191000  0.94885000  0.54610000  1.0 -0.2577265759
O  O34  1  0.94885000  0.21191000  0.45390000  1.0 -0.2577265759
O  O35  1  0.78809000  0.05115000  0.45390000  1.0 -0.2577265759
O  O36  1  0.05115000  0.78809000  0.54610000  1.0 -0.2577265759
O  O37  1  0.24380000  0.87600000  0.46580000  1.0 -0.112282284
O  O38  1  0.87600000  0.24380000  0.53420000  1.0 -0.112282284
O  O39  1  0.75620000  0.12400000  0.53420000  1.0 -0.112282284
O  O40  1  0.12400000  0.75620000  0.46580000  1.0 -0.112282284
O  O41  1  0.04182000  0.79002000  0.68460000  1.0 -0.2722313558
O  O42  1  0.79002000  0.04182000  0.31540000  1.0 -0.2722313558
O  O43  1  0.95818000  0.20998000  0.31540000  1.0 -0.2722313558
O  O44  1  0.20998000  0.95818000  0.68460000  1.0 -0.2722313558
O  O45  1  0.11240000  0.77940000  0.86100000  1.0 -0.179239078
O  O46  1  0.77940000  0.11240000  0.13900000  1.0 -0.179239078
O  O47  1  0.88760000  0.22060000  0.13900000  1.0 -0.179239078
O  O48  1  0.22060000  0.88760000  0.86100000  1.0 -0.179239078
O  O49  1  0.18550000  0.11550000  0.17510000  1.0 -0.2508706589
O  O50  1  0.11550000  0.18550000  0.82490000  1.0 -0.2508706589
O  O51  1  0.81450000  0.88450000  0.82490000  1.0 -0.243819642
O  O52  1  0.88450000  0.81450000  0.17510000  1.0 -0.243819642
O  O53  1  0.29330000  0.10410000  0.19030000  1.0 -0.0493192666
O  O54  1  0.10410000  0.29330000  0.80970000  1.0 -0.0493192666
O  O55  1  0.70670000  0.89590000  0.80970000  1.0 -0.0613413391
O  O56  1  0.89590000  0.70670000  0.19030000  1.0 -0.0493192666
