# DDEC6 charges by PACMAN v1.1 (https://github.com/mtap-research/PACMAN-charge/)
data_ALANAD_ASR_pacman
_symmetry_space_group_name_H-M   'P 1'
_cell_length_a   37.45370000
_cell_length_b   37.45370000
_cell_length_c   37.45370000
_cell_angle_alpha   151.87800000
_cell_angle_beta   148.83000000
_cell_angle_gamma   42.47390000
_symmetry_Int_Tables_number   1
_chemical_formula_structural   ZnH4C13NO6
_chemical_formula_sum   'Zn16 H64 C208 N16 O96'
_cell_volume   12786.24580978
_cell_formula_units_Z   16
loop_
 _symmetry_equiv_pos_site_id
 _symmetry_equiv_pos_as_xyz
  1  'x, y, z'
loop_
 _atom_site_type_symbol
 _atom_site_label
 _atom_site_symmetry_multiplicity
 _atom_site_fract_x
 _atom_site_fract_y
 _atom_site_fract_z
 _atom_site_occupancy
 _atom_site_charge
Zn  Zn1  1  0.34375000  0.14625000  0.75358000  1.0 0.926611417
Zn  Zn2  1  0.89267000  0.59017000  0.74642000  1.0 0.926611417
Zn  Zn3  1  0.15625000  0.90983000  0.80250000  1.0 0.926611417
Zn  Zn4  1  0.60733000  0.35375000  0.69750000  1.0 0.926611417
Zn  Zn5  1  0.65625000  0.85375000  0.24642000  1.0 0.926611417
Zn  Zn6  1  0.10733000  0.40983000  0.25358000  1.0 0.926611417
Zn  Zn7  1  0.84375000  0.09017000  0.19750000  1.0 0.926611417
Zn  Zn8  1  0.39267000  0.64625000  0.30250000  1.0 0.926611417
Zn  Zn9  1  0.27355000  0.20864000  0.67093000  1.0 1.0302741761
Zn  Zn10  1  0.03771000  0.60262000  0.82907000  1.0 1.0302741761
Zn  Zn11  1  0.22645000  0.89738000  0.93509000  1.0 1.0302741761
Zn  Zn12  1  0.46229000  0.29136000  0.56491000  1.0 1.0302741761
Zn  Zn13  1  0.72645000  0.79136000  0.32907000  1.0 1.0302741761
Zn  Zn14  1  0.96229000  0.39738000  0.17093000  1.0 1.0302741761
Zn  Zn15  1  0.77355000  0.10262000  0.06491000  1.0 1.0302741761
Zn  Zn16  1  0.53771000  0.70864000  0.43509000  1.0 1.0302741761
H  H1  1  0.07880000  0.13400000  0.47180000  1.0 0.1328964035
H  H2  1  0.16220000  0.60700000  0.02820000  1.0 0.1328964035
H  H3  1  0.42120000  0.89300000  0.05520000  1.0 0.1328964035
H  H4  1  0.33780000  0.36600000  0.44480000  1.0 0.1328964035
H  H5  1  0.92120000  0.86600000  0.52820000  1.0 0.1328964035
H  H6  1  0.83780000  0.39300000  0.97180000  1.0 0.1328964035
H  H7  1  0.57880000  0.10700000  0.94480000  1.0 0.1328964035
H  H8  1  0.66220000  0.63400000  0.55520000  1.0 0.1328964035
H  H9  1  0.14650000  0.09660000  0.59590000  1.0 0.1408951549
H  H10  1  0.00070000  0.55060000  0.90410000  1.0 0.1408951549
H  H11  1  0.35350000  0.94940000  0.95010000  1.0 0.1408951549
H  H12  1  0.49930000  0.40340000  0.54990000  1.0 0.1408951549
H  H13  1  0.85350000  0.90340000  0.40410000  1.0 0.1408951549
H  H14  1  0.99930000  0.44940000  0.09590000  1.0 0.1408951549
H  H15  1  0.64650000  0.05060000  0.04990000  1.0 0.1408951549
H  H16  1  0.50070000  0.59660000  0.45010000  1.0 0.1408951549
H  H17  1  0.94580000  0.05560000  0.36380000  1.0 0.1408951549
H  H18  1  0.19180000  0.58200000  0.13620000  1.0 0.1408951549
H  H19  1  0.55420000  0.91800000  0.10980000  1.0 0.1328964035
H  H20  1  0.30820000  0.44440000  0.39020000  1.0 0.1408951549
H  H21  1  0.05420000  0.94440000  0.63620000  1.0 0.1328964035
H  H22  1  0.80820000  0.41800000  0.86380000  1.0 0.1328964035
H  H23  1  0.44580000  0.08200000  0.89020000  1.0 0.1408951549
H  H24  1  0.69180000  0.55560000  0.60980000  1.0 0.1328964035
H  H25  1  0.09210000  0.91590000  0.50600000  1.0 0.1408951549
H  H26  1  0.90990000  0.58610000  0.99400000  1.0 0.1408951549
H  H27  1  0.40790000  0.91390000  0.82380000  1.0 0.1408951549
H  H28  1  0.59010000  0.58410000  0.67620000  1.0 0.1408951549
H  H29  1  0.90790000  0.08410000  0.49400000  1.0 0.1408951549
H  H30  1  0.09010000  0.41390000  0.00600000  1.0 0.1408951549
H  H31  1  0.59210000  0.08610000  0.17620000  1.0 0.1408951549
H  H32  1  0.40990000  0.41590000  0.32380000  1.0 0.1408951549
H  H33  1  0.35900000  0.91500000  0.51640000  1.0 0.1408951549
H  H34  1  0.89860000  0.84260000  0.98360000  1.0 0.1408951549
H  H35  1  0.14100000  0.65740000  0.55600000  1.0 0.1408951549
H  H36  1  0.60140000  0.58500000  0.94400000  1.0 0.1408951549
H  H37  1  0.64100000  0.08500000  0.48360000  1.0 0.1408951549
H  H38  1  0.10140000  0.15740000  0.01640000  1.0 0.1408951549
H  H39  1  0.85900000  0.34260000  0.44400000  1.0 0.1408951549
H  H40  1  0.39860000  0.41500000  0.05600000  1.0 0.1408951549
H  H41  1  0.38450000  0.04960000  0.57090000  1.0 0.1328964035
H  H42  1  0.97870000  0.81360000  0.92910000  1.0 0.1328964035
H  H43  1  0.11550000  0.68640000  0.66510000  1.0 0.1328964035
H  H44  1  0.52130000  0.45040000  0.83490000  1.0 0.1328964035
H  H45  1  0.61550000  0.95040000  0.42910000  1.0 0.1328964035
H  H46  1  0.02130000  0.18640000  0.07090000  1.0 0.1328964035
H  H47  1  0.88450000  0.31360000  0.33490000  1.0 0.1328964035
H  H48  1  0.47870000  0.54960000  0.16510000  1.0 0.1328964035
H  H49  1  0.44190000  0.83540000  0.42750000  1.0 0.124853083
H  H50  1  0.90790000  0.01440000  0.07250000  1.0 0.124853083
H  H51  1  0.05810000  0.48560000  0.39350000  1.0 0.124853083
H  H52  1  0.59210000  0.66460000  0.10650000  1.0 0.124853083
H  H53  1  0.55810000  0.16460000  0.57250000  1.0 0.124853083
H  H54  1  0.09210000  0.98560000  0.92750000  1.0 0.124853083
H  H55  1  0.94190000  0.51440000  0.60650000  1.0 0.124853083
H  H56  1  0.40790000  0.33540000  0.89350000  1.0 0.124853083
H  H57  1  0.57320000  0.10230000  0.67550000  1.0 0.1408951549
H  H58  1  0.92680000  0.89770000  0.82450000  1.0 0.1408951549
H  H59  1  0.92680000  0.60230000  0.52910000  1.0 0.1408951549
H  H60  1  0.57320000  0.39770000  0.97090000  1.0 0.1408951549
H  H61  1  0.42680000  0.89770000  0.32450000  1.0 0.1408951549
H  H62  1  0.07320000  0.10230000  0.17550000  1.0 0.1408951549
H  H63  1  0.07320000  0.39770000  0.47090000  1.0 0.1408951549
H  H64  1  0.42680000  0.60230000  0.02910000  1.0 0.1408951549
C  C1  1  0.07018000  0.11798000  0.47360000  1.0 -0.0866577909
C  C2  1  0.14438000  0.59658000  0.02640000  1.0 -0.0866577909
C  C3  1  0.42982000  0.90342000  0.04780000  1.0 -0.0866577909
C  C4  1  0.35562000  0.38202000  0.45220000  1.0 -0.0866577909
C  C5  1  0.92982000  0.88202000  0.52640000  1.0 -0.0866577909
C  C6  1  0.85562000  0.40342000  0.97360000  1.0 -0.0866577909
C  C7  1  0.57018000  0.09658000  0.95220000  1.0 -0.0866577909
C  C8  1  0.64438000  0.61798000  0.54780000  1.0 -0.0866577909
C  C9  1  0.12507000  0.11857000  0.54530000  1.0 0.004285538
C  C10  1  0.07327000  0.57977000  0.95470000  1.0 0.004285538
C  C11  1  0.37493000  0.92023000  0.99350000  1.0 0.004285538
C  C12  1  0.42673000  0.38143000  0.50650000  1.0 0.004285538
C  C13  1  0.87493000  0.88143000  0.45470000  1.0 0.004285538
C  C14  1  0.92673000  0.42023000  0.04530000  1.0 0.004285538
C  C15  1  0.62507000  0.07977000  0.00650000  1.0 0.004285538
C  C16  1  0.57327000  0.61857000  0.49350000  1.0 0.004285538
C  C17  1  0.19806000  0.14426000  0.61920000  1.0 0.5947656269
C  C18  1  0.02506000  0.57886000  0.88080000  1.0 0.5956692035
C  C19  1  0.30194000  0.92114000  0.94620000  1.0 0.5956692035
C  C20  1  0.47494000  0.35574000  0.55380000  1.0 0.5947656269
C  C21  1  0.80194000  0.85574000  0.38080000  1.0 0.5947656269
C  C22  1  0.97494000  0.42114000  0.11920000  1.0 0.5947656269
C  C23  1  0.69806000  0.07886000  0.05380000  1.0 0.5947656269
C  C24  1  0.52506000  0.64426000  0.44620000  1.0 0.5947656269
C  C25  1  0.11109000  0.09559000  0.54790000  1.0 -0.1491342978
C  C26  1  0.04769000  0.56319000  0.95210000  1.0 -0.1491342978
C  C27  1  0.38891000  0.93681000  0.98450000  1.0 -0.1491342978
C  C28  1  0.45231000  0.40441000  0.51550000  1.0 -0.1491342978
C  C29  1  0.88891000  0.90441000  0.45210000  1.0 -0.1491342978
C  C30  1  0.95231000  0.43681000  0.04790000  1.0 -0.1491342978
C  C31  1  0.61109000  0.06319000  0.01550000  1.0 -0.1491342978
C  C32  1  0.54769000  0.59559000  0.48450000  1.0 -0.1491342978
C  C33  1  0.04445000  0.07105000  0.47900000  1.0 0.1847247693
C  C34  1  0.09205000  0.56545000  0.02100000  1.0 0.1847247693
C  C35  1  0.45555000  0.93455000  0.02660000  1.0 0.1847247693
C  C36  1  0.40795000  0.42895000  0.47340000  1.0 0.1847247693
C  C37  1  0.95555000  0.92895000  0.52100000  1.0 0.1847247693
C  C38  1  0.90795000  0.43455000  0.97900000  1.0 0.186229446
C  C39  1  0.54445000  0.06545000  0.97340000  1.0 0.1847247693
C  C40  1  0.59205000  0.57105000  0.52660000  1.0 0.1847247693
C  C41  1  0.99064000  0.07104000  0.40880000  1.0 -0.1402941188
C  C42  1  0.16224000  0.58184000  0.09120000  1.0 -0.1402941188
C  C43  1  0.50936000  0.91816000  0.08040000  1.0 -0.1402941188
C  C44  1  0.33776000  0.42896000  0.41960000  1.0 -0.1402941188
C  C45  1  0.00936000  0.92896000  0.59120000  1.0 -0.1402941188
C  C46  1  0.83776000  0.41816000  0.90880000  1.0 -0.1402941188
C  C47  1  0.49064000  0.08184000  0.91960000  1.0 -0.1402941188
C  C48  1  0.66224000  0.57104000  0.58040000  1.0 -0.1402941188
C  C49  1  0.00452000  0.09462000  0.40650000  1.0 0.004285538
C  C50  1  0.18812000  0.59802000  0.09350000  1.0 0.004285538
C  C51  1  0.49548000  0.90198000  0.09010000  1.0 0.004285538
C  C52  1  0.31188000  0.40538000  0.40990000  1.0 0.004285538
C  C53  1  0.99548000  0.90538000  0.59350000  1.0 0.004285538
C  C54  1  0.81188000  0.40198000  0.90650000  1.0 0.0052496596
C  C55  1  0.50452000  0.09802000  0.90990000  1.0 0.004285538
C  C56  1  0.68812000  0.59462000  0.59010000  1.0 0.004285538
C  C57  1  0.94830000  0.09410000  0.33040000  1.0 0.5496894056
C  C58  1  0.26370000  0.61790000  0.16960000  1.0 0.5496894056
C  C59  1  0.55170000  0.88210000  0.14580000  1.0 0.5496894056
C  C60  1  0.23630000  0.40590000  0.35420000  1.0 0.5496894056
C  C61  1  0.05170000  0.90590000  0.66960000  1.0 0.5496894056
C  C62  1  0.73630000  0.38210000  0.83040000  1.0 0.5496894056
C  C63  1  0.44830000  0.11790000  0.85420000  1.0 0.5496894056
C  C64  1  0.76370000  0.59410000  0.64580000  1.0 0.5496894056
C  C65  1  0.06860000  0.00340000  0.49780000  1.0 0.2929485301
C  C66  1  0.00560000  0.57080000  0.00220000  1.0 0.2929485301
C  C67  1  0.43140000  0.92920000  0.93480000  1.0 0.2929485301
C  C68  1  0.49440000  0.49660000  0.56520000  1.0 0.2929485301
C  C69  1  0.93140000  0.99660000  0.50220000  1.0 0.2929485301
C  C70  1  0.99440000  0.42920000  0.99780000  1.0 0.2929485301
C  C71  1  0.56860000  0.07080000  0.06520000  1.0 0.2929485301
C  C72  1  0.50560000  0.50340000  0.43480000  1.0 0.2929485301
C  C73  1  0.03630000  0.99710000  0.49660000  1.0 -0.0403724382
C  C74  1  0.00050000  0.53970000  0.00340000  1.0 -0.0403724382
C  C75  1  0.46370000  0.96030000  0.96080000  1.0 -0.0403724382
C  C76  1  0.49950000  0.50290000  0.53920000  1.0 -0.0403724382
C  C77  1  0.96370000  0.00290000  0.50340000  1.0 -0.0403724382
C  C78  1  0.99950000  0.46030000  0.99660000  1.0 -0.0403724382
C  C79  1  0.53630000  0.03970000  0.03920000  1.0 -0.0403724382
C  C80  1  0.50050000  0.49710000  0.46080000  1.0 -0.0403724382
C  C81  1  0.05870000  0.95120000  0.50830000  1.0 -0.0280302981
C  C82  1  0.94290000  0.55040000  0.99170000  1.0 -0.0280302981
C  C83  1  0.44130000  0.94960000  0.89250000  1.0 -0.0280302981
C  C84  1  0.55710000  0.54880000  0.60750000  1.0 -0.0280302981
C  C85  1  0.94130000  0.04880000  0.49170000  1.0 -0.0280302981
C  C86  1  0.05710000  0.44960000  0.00830000  1.0 -0.0280302981
C  C87  1  0.55870000  0.05040000  0.10750000  1.0 -0.0280302981
C  C88  1  0.44290000  0.45120000  0.39250000  1.0 -0.0280302981
C  C89  1  0.98400000  0.02570000  0.47630000  1.0 -0.0186927313
C  C90  1  0.04940000  0.50770000  0.02370000  1.0 -0.0186927313
C  C91  1  0.51600000  0.99230000  0.04170000  1.0 -0.0186927313
C  C92  1  0.45060000  0.47430000  0.45830000  1.0 -0.0186927313
C  C93  1  0.01600000  0.97430000  0.52370000  1.0 -0.0186927313
C  C94  1  0.95060000  0.49230000  0.97630000  1.0 -0.0186927313
C  C95  1  0.48400000  0.00770000  0.95830000  1.0 -0.0186927313
C  C96  1  0.54940000  0.52570000  0.54170000  1.0 -0.0186927313
C  C97  1  0.97840000  0.07430000  0.48150000  1.0 0.4099602411
C  C98  1  0.09280000  0.49690000  0.01850000  1.0 0.4099602411
C  C99  1  0.52160000  0.00310000  0.09590000  1.0 0.4099602411
C  C100  1  0.40720000  0.42570000  0.40410000  1.0 0.4099602411
C  C101  1  0.02160000  0.92570000  0.51850000  1.0 0.4099602411
C  C102  1  0.90720000  0.50310000  0.98150000  1.0 0.4099602411
C  C103  1  0.47840000  0.99690000  0.90410000  1.0 0.4099602411
C  C104  1  0.59280000  0.57430000  0.59590000  1.0 0.4099602411
C  C105  1  0.37304000  0.92224000  0.51120000  1.0 -0.0866577909
C  C106  1  0.91104000  0.86184000  0.98880000  1.0 -0.0866577909
C  C107  1  0.12696000  0.63816000  0.54920000  1.0 -0.0866577909
C  C108  1  0.58896000  0.57776000  0.95080000  1.0 -0.0866577909
C  C109  1  0.62696000  0.07776000  0.48880000  1.0 -0.0866577909
C  C110  1  0.08896000  0.13816000  0.01120000  1.0 -0.0866577909
C  C111  1  0.87304000  0.36184000  0.45080000  1.0 -0.0866577909
C  C112  1  0.41104000  0.42224000  0.04920000  1.0 -0.0866577909
C  C113  1  0.36754000  0.99124000  0.55110000  1.0 -0.0056504711
C  C114  1  0.94014000  0.81644000  0.94890000  1.0 -0.0056504711
C  C115  1  0.13246000  0.68356000  0.62370000  1.0 -0.0056504711
C  C116  1  0.55986000  0.50876000  0.87630000  1.0 -0.0056504711
C  C117  1  0.63246000  0.00876000  0.44890000  1.0 -0.0056504711
C  C118  1  0.05986000  0.18356000  0.05110000  1.0 -0.0056504711
C  C119  1  0.86754000  0.31644000  0.37630000  1.0 -0.0056504711
C  C120  1  0.44014000  0.49124000  0.12370000  1.0 -0.0056504711
C  C121  1  0.33715000  0.05675000  0.60220000  1.0 0.6141923006
C  C122  1  0.95455000  0.73495000  0.89780000  1.0 0.6141923006
C  C123  1  0.16285000  0.76505000  0.71960000  1.0 0.6141923006
C  C124  1  0.54545000  0.44325000  0.78040000  1.0 0.6141923006
C  C125  1  0.66285000  0.94325000  0.39780000  1.0 0.6141923006
C  C126  1  0.04545000  0.26505000  0.10220000  1.0 0.6141923006
C  C127  1  0.83715000  0.23495000  0.28040000  1.0 0.6141923006
C  C128  1  0.45455000  0.55675000  0.21960000  1.0 0.6141923006
C  C129  1  0.38928000  0.00308000  0.54500000  1.0 -0.1402941188
C  C130  1  0.95808000  0.84428000  0.95500000  1.0 -0.1402941188
C  C131  1  0.11072000  0.65572000  0.61380000  1.0 -0.1402941188
C  C132  1  0.54192000  0.49692000  0.88620000  1.0 -0.1402941188
C  C133  1  0.61072000  0.99692000  0.45500000  1.0 -0.1402941188
C  C134  1  0.04192000  0.15572000  0.04500000  1.0 -0.1402941188
C  C135  1  0.88928000  0.34428000  0.38620000  1.0 -0.1402941188
C  C136  1  0.45808000  0.50308000  0.11380000  1.0 -0.1402941188
C  C137  1  0.41799000  0.94539000  0.50060000  1.0 0.186229446
C  C138  1  0.94479000  0.91739000  0.99940000  1.0 0.186229446
C  C139  1  0.08201000  0.58261000  0.52740000  1.0 0.186229446
C  C140  1  0.55521000  0.55461000  0.97260000  1.0 0.186229446
C  C141  1  0.58201000  0.05461000  0.49940000  1.0 0.186229446
C  C142  1  0.05521000  0.08261000  0.00060000  1.0 0.186229446
C  C143  1  0.91799000  0.41739000  0.47260000  1.0 0.186229446
C  C144  1  0.44479000  0.44539000  0.02740000  1.0 0.186229446
C  C145  1  0.42310000  0.87450000  0.45840000  1.0 -0.1559163098
C  C146  1  0.91610000  0.96470000  0.04160000  1.0 -0.1559163098
C  C147  1  0.07690000  0.53530000  0.45140000  1.0 -0.1559163098
C  C148  1  0.58390000  0.62550000  0.04860000  1.0 -0.1559163098
C  C149  1  0.57690000  0.12550000  0.54160000  1.0 -0.1559163098
C  C150  1  0.08390000  0.03530000  0.95840000  1.0 -0.1559163098
C  C151  1  0.92310000  0.46470000  0.54860000  1.0 -0.1559163098
C  C152  1  0.41610000  0.37450000  0.95140000  1.0 -0.1559163098
C  C153  1  0.39990000  0.86290000  0.46280000  1.0 -0.0056504711
C  C154  1  0.90010000  0.93710000  0.03720000  1.0 -0.0045466999
C  C155  1  0.10010000  0.56290000  0.46300000  1.0 -0.0056504711
C  C156  1  0.59990000  0.63710000  0.03700000  1.0 -0.0045466999
C  C157  1  0.60010000  0.13710000  0.53720000  1.0 -0.0045466999
C  C158  1  0.09990000  0.06290000  0.96280000  1.0 -0.0056504711
C  C159  1  0.89990000  0.43710000  0.53700000  1.0 -0.0045466999
C  C160  1  0.40010000  0.36290000  0.96300000  1.0 -0.0045466999
C  C161  1  0.40311000  0.78731000  0.41640000  1.0 0.5756532485
C  C162  1  0.87091000  0.98671000  0.08360000  1.0 0.5756532485
C  C163  1  0.09689000  0.51329000  0.38420000  1.0 0.5756532485
C  C164  1  0.62909000  0.71269000  0.11580000  1.0 0.5756532485
C  C165  1  0.59689000  0.21269000  0.58360000  1.0 0.5756532485
C  C166  1  0.12909000  0.01329000  0.91640000  1.0 0.5756532485
C  C167  1  0.90311000  0.48671000  0.61580000  1.0 0.5756532485
C  C168  1  0.37091000  0.28731000  0.88420000  1.0 0.5756532485
C  C169  1  0.49245000  0.01905000  0.58540000  1.0 0.4325916405
C  C170  1  0.93365000  0.90705000  0.91460000  1.0 0.4325916405
C  C171  1  0.00755000  0.59295000  0.52660000  1.0 0.4325916405
C  C172  1  0.56635000  0.48095000  0.97340000  1.0 0.4325916405
C  C173  1  0.50755000  0.98095000  0.41460000  1.0 0.4325916405
C  C174  1  0.06635000  0.09295000  0.08540000  1.0 0.4325916405
C  C175  1  0.99245000  0.40705000  0.47340000  1.0 0.4325916405
C  C176  1  0.43365000  0.51905000  0.02660000  1.0 0.4325916405
C  C177  1  0.50104000  0.01414000  0.54910000  1.0 -0.05691735
C  C178  1  0.96504000  0.95194000  0.95090000  1.0 -0.05691735
C  C179  1  0.99896000  0.54806000  0.51310000  1.0 -0.05691735
C  C180  1  0.53496000  0.48586000  0.98690000  1.0 -0.05691735
C  C181  1  0.49896000  0.98586000  0.45090000  1.0 -0.05691735
C  C182  1  0.03496000  0.04806000  0.04910000  1.0 -0.05691735
C  C183  1  0.00104000  0.45194000  0.48690000  1.0 -0.05691735
C  C184  1  0.46504000  0.51414000  0.01310000  1.0 -0.05691735
C  C185  1  0.54473000  0.06203000  0.60670000  1.0 -0.05691735
C  C186  1  0.95533000  0.93803000  0.89330000  1.0 -0.05691735
C  C187  1  0.95527000  0.56197000  0.51730000  1.0 -0.05691735
C  C188  1  0.54467000  0.43797000  0.98270000  1.0 -0.05691735
C  C189  1  0.45527000  0.93797000  0.39330000  1.0 -0.05691735
C  C190  1  0.04467000  0.06197000  0.10670000  1.0 -0.05691735
C  C191  1  0.04473000  0.43803000  0.48270000  1.0 -0.05691735
C  C192  1  0.45533000  0.56203000  0.01730000  1.0 -0.05691735
C  C193  1  0.45864000  0.95634000  0.44850000  1.0 -0.0403724382
C  C194  1  0.00784000  0.01014000  0.05150000  1.0 -0.0403724382
C  C195  1  0.04136000  0.48986000  0.49770000  1.0 -0.0403724382
C  C196  1  0.49216000  0.54366000  0.00230000  1.0 -0.0403724382
C  C197  1  0.54136000  0.04366000  0.55150000  1.0 -0.0403724382
C  C198  1  0.99216000  0.98986000  0.94850000  1.0 -0.0403724382
C  C199  1  0.95864000  0.51014000  0.50230000  1.0 -0.0403724382
C  C200  1  0.50784000  0.45634000  0.99770000  1.0 -0.0403724382
C  C201  1  0.41907000  0.91927000  0.41260000  1.0 0.4364413145
C  C202  1  0.00667000  0.00647000  0.08740000  1.0 0.4364413145
C  C203  1  0.08093000  0.49353000  0.50020000  1.0 0.4364413145
C  C204  1  0.49333000  0.58073000  0.99980000  1.0 0.4364413145
C  C205  1  0.58093000  0.08073000  0.58740000  1.0 0.4364413145
C  C206  1  0.99333000  0.99353000  0.91260000  1.0 0.4364413145
C  C207  1  0.91907000  0.50647000  0.49980000  1.0 0.4364413145
C  C208  1  0.50667000  0.41927000  0.00020000  1.0 0.4364413145
N  N1  1  0.03008000  0.04878000  0.48310000  1.0 -0.1874819239
N  N2  1  0.06568000  0.54698000  0.01690000  1.0 -0.1874819239
N  N3  1  0.46992000  0.95302000  0.01870000  1.0 -0.1874819239
N  N4  1  0.43432000  0.45122000  0.48130000  1.0 -0.1874819239
N  N5  1  0.96992000  0.95122000  0.51690000  1.0 -0.1874819239
N  N6  1  0.93432000  0.45302000  0.98310000  1.0 -0.1874819239
N  N7  1  0.53008000  0.04698000  0.98130000  1.0 -0.1874819239
N  N8  1  0.56568000  0.54878000  0.51870000  1.0 -0.1874819239
N  N9  1  0.44318000  0.95878000  0.49840000  1.0 -0.2207879861
N  N10  1  0.96038000  0.94478000  0.00160000  1.0 -0.2207879861
N  N11  1  0.05682000  0.55522000  0.51560000  1.0 -0.2207879861
N  N12  1  0.53962000  0.54122000  0.98440000  1.0 -0.2207879861
N  N13  1  0.55682000  0.04122000  0.50160000  1.0 -0.2207879861
N  N14  1  0.03962000  0.05522000  0.99840000  1.0 -0.2207879861
N  N15  1  0.94318000  0.44478000  0.48440000  1.0 -0.2207879861
N  N16  1  0.46038000  0.45878000  0.01560000  1.0 -0.2207879861
O  O1  1  0.20387000  0.17457000  0.62070000  1.0 -0.5821758573
O  O2  1  0.05387000  0.58317000  0.87930000  1.0 -0.5821758573
O  O3  1  0.29613000  0.91683000  0.97070000  1.0 -0.5821758573
O  O4  1  0.44613000  0.32543000  0.52930000  1.0 -0.5821758573
O  O5  1  0.79613000  0.82543000  0.37930000  1.0 -0.5821758573
O  O6  1  0.94613000  0.41683000  0.12070000  1.0 -0.5821758573
O  O7  1  0.70387000  0.08317000  0.02930000  1.0 -0.5821758573
O  O8  1  0.55387000  0.67457000  0.47070000  1.0 -0.5821758573
O  O9  1  0.24479000  0.13433000  0.67226000  1.0 -0.5136244212
O  O10  1  0.96207000  0.57253000  0.82774000  1.0 -0.5136244212
O  O11  1  0.25521000  0.92747000  0.88954000  1.0 -0.5136244212
O  O12  1  0.53793000  0.36567000  0.61046000  1.0 -0.5136244212
O  O13  1  0.75521000  0.86567000  0.32774000  1.0 -0.5136244212
O  O14  1  0.03793000  0.42747000  0.17226000  1.0 -0.5136244212
O  O15  1  0.74479000  0.07253000  0.11046000  1.0 -0.5136244212
O  O16  1  0.46207000  0.63433000  0.38954000  1.0 -0.5136244212
O  O17  1  0.96323000  0.10523000  0.32140000  1.0 -0.498420746
O  O18  1  0.28383000  0.64183000  0.17860000  1.0 -0.498420746
O  O19  1  0.53677000  0.85817000  0.14200000  1.0 -0.498420746
O  O20  1  0.21617000  0.39477000  0.35800000  1.0 -0.498420746
O  O21  1  0.03677000  0.89477000  0.67860000  1.0 -0.498420746
O  O22  1  0.71617000  0.35817000  0.82140000  1.0 -0.498420746
O  O23  1  0.46323000  0.14183000  0.85800000  1.0 -0.498420746
O  O24  1  0.78383000  0.60523000  0.64200000  1.0 -0.498420746
O  O25  1  0.88583000  0.08206000  0.27597000  1.0 -0.498420746
O  O26  1  0.30609000  0.60986000  0.22403000  1.0 -0.498420746
O  O27  1  0.61417000  0.89014000  0.19623000  1.0 -0.498420746
O  O28  1  0.19391000  0.41794000  0.30377000  1.0 -0.498420746
O  O29  1  0.11417000  0.91794000  0.72403000  1.0 -0.498420746
O  O30  1  0.69391000  0.39014000  0.77597000  1.0 -0.498420746
O  O31  1  0.38583000  0.10986000  0.80377000  1.0 -0.498420746
O  O32  1  0.80609000  0.58206000  0.69623000  1.0 -0.498420746
O  O33  1  0.11560000  0.96460000  0.49100000  1.0 -0.4353772665
O  O34  1  0.97360000  0.62460000  0.00900000  1.0 -0.4353772665
O  O35  1  0.38440000  0.87540000  0.84900000  1.0 -0.4345629876
O  O36  1  0.52640000  0.53540000  0.65100000  1.0 -0.4353772665
O  O37  1  0.88440000  0.03540000  0.50900000  1.0 -0.4353772665
O  O38  1  0.02640000  0.37540000  0.99100000  1.0 -0.4345629876
O  O39  1  0.61560000  0.12460000  0.15100000  1.0 -0.4353772665
O  O40  1  0.47360000  0.46460000  0.34900000  1.0 -0.4353772665
O  O41  1  0.93690000  0.11760000  0.47430000  1.0 -0.4140051966
O  O42  1  0.14330000  0.46260000  0.02570000  1.0 -0.4140051966
O  O43  1  0.56310000  0.03740000  0.18070000  1.0 -0.4140051966
O  O44  1  0.35670000  0.38240000  0.31930000  1.0 -0.4140051966
O  O45  1  0.06310000  0.88240000  0.52570000  1.0 -0.4140051966
O  O46  1  0.85670000  0.53740000  0.97430000  1.0 -0.4140051966
O  O47  1  0.43690000  0.96260000  0.81930000  1.0 -0.4140051966
O  O48  1  0.64330000  0.61760000  0.68070000  1.0 -0.4140051966
O  O49  1  0.34354000  0.05594000  0.64080000  1.0 -0.5373199051
O  O50  1  0.91514000  0.70274000  0.85920000  1.0 -0.5373199051
O  O51  1  0.15646000  0.79726000  0.71240000  1.0 -0.5373199051
O  O52  1  0.58486000  0.44406000  0.78760000  1.0 -0.5373199051
O  O53  1  0.65646000  0.94406000  0.35920000  1.0 -0.5373199051
O  O54  1  0.08486000  0.29726000  0.14080000  1.0 -0.5373199051
O  O55  1  0.84354000  0.20274000  0.28760000  1.0 -0.5373199051
O  O56  1  0.41514000  0.55594000  0.21240000  1.0 -0.5373199051
O  O57  1  0.31199000  0.10529000  0.60450000  1.0 -0.5470316624
O  O58  1  0.00079000  0.70749000  0.89550000  1.0 -0.5470316624
O  O59  1  0.18801000  0.79251000  0.79330000  1.0 -0.5470316624
O  O60  1  0.49921000  0.39471000  0.70670000  1.0 -0.5470316624
O  O61  1  0.68801000  0.89471000  0.39550000  1.0 -0.5470316624
O  O62  1  0.99921000  0.29251000  0.10450000  1.0 -0.5470316624
O  O63  1  0.81199000  0.20749000  0.20670000  1.0 -0.5470316624
O  O64  1  0.50079000  0.60529000  0.29330000  1.0 -0.5470316624
O  O65  1  0.37653000  0.77603000  0.41370000  1.0 -0.4833356207
O  O66  1  0.86233000  0.96283000  0.08630000  1.0 -0.4833356207
O  O67  1  0.12347000  0.53717000  0.39950000  1.0 -0.4833356207
O  O68  1  0.63767000  0.72397000  0.10050000  1.0 -0.4833356207
O  O69  1  0.62347000  0.22397000  0.58630000  1.0 -0.4833356207
O  O70  1  0.13767000  0.03717000  0.91370000  1.0 -0.4833356207
O  O71  1  0.87653000  0.46283000  0.60050000  1.0 -0.4833356207
O  O72  1  0.36233000  0.27603000  0.89950000  1.0 -0.4833356207
O  O73  1  0.42992000  0.73307000  0.37445000  1.0 -0.6194029515
O  O74  1  0.85862000  0.05547000  0.12555000  1.0 -0.6194029515
O  O75  1  0.07008000  0.44453000  0.30315000  1.0 -0.6194029515
O  O76  1  0.64138000  0.76693000  0.19685000  1.0 -0.6194029515
O  O77  1  0.57008000  0.26693000  0.62555000  1.0 -0.6194029515
O  O78  1  0.14138000  0.94453000  0.87445000  1.0 -0.6194029515
O  O79  1  0.92992000  0.55547000  0.69685000  1.0 -0.6194029515
O  O80  1  0.35862000  0.23307000  0.80315000  1.0 -0.6194029515
O  O81  1  0.51993000  0.06263000  0.66810000  1.0 -0.3896353905
O  O82  1  0.89453000  0.85183000  0.83190000  1.0 -0.3896353905
O  O83  1  0.98007000  0.64817000  0.54270000  1.0 -0.3896353905
O  O84  1  0.60547000  0.43737000  0.95730000  1.0 -0.3896353905
O  O85  1  0.48007000  0.93737000  0.33190000  1.0 -0.3896353905
O  O86  1  0.10547000  0.14817000  0.16810000  1.0 -0.3896353905
O  O87  1  0.01993000  0.35183000  0.45730000  1.0 -0.3896353905
O  O88  1  0.39453000  0.56263000  0.04270000  1.0 -0.3896353905
O  O89  1  0.37871000  0.86551000  0.33000000  1.0 -0.3966257525
O  O90  1  0.03551000  0.04871000  0.17000000  1.0 -0.3966257525
O  O91  1  0.12129000  0.45129000  0.48680000  1.0 -0.3966257525
O  O92  1  0.46449000  0.63449000  0.01320000  1.0 -0.3966257525
O  O93  1  0.62129000  0.13449000  0.67000000  1.0 -0.3966257525
O  O94  1  0.96449000  0.95129000  0.83000000  1.0 -0.3966257525
O  O95  1  0.87871000  0.54871000  0.51320000  1.0 -0.3966257525
O  O96  1  0.53551000  0.36551000  0.98680000  1.0 -0.3966257525
