# DDEC6 charges by PACMAN v1.1 (https://github.com/mtap-research/PACMAN-charge/)
data_ALECEC_ASR_pacman
_symmetry_space_group_name_H-M   'P 1'
_cell_length_a   29.43760000
_cell_length_b   29.43760000
_cell_length_c   15.53020000
_cell_angle_alpha   90.00000000
_cell_angle_beta   90.00000000
_cell_angle_gamma   129.91100000
_symmetry_Int_Tables_number   1
_chemical_formula_structural   UH32C53O6
_chemical_formula_sum   'U4 H128 C212 O24'
_cell_volume   10322.88255381
_cell_formula_units_Z   4
loop_
 _symmetry_equiv_pos_site_id
 _symmetry_equiv_pos_as_xyz
  1  'x, y, z'
loop_
 _atom_site_type_symbol
 _atom_site_label
 _atom_site_symmetry_multiplicity
 _atom_site_fract_x
 _atom_site_fract_y
 _atom_site_fract_z
 _atom_site_occupancy
 _atom_site_charge
U  U1  1  0.13951000  0.40515000  0.69417000  1.0 2.0933039476
U  U2  1  0.86049000  0.59485000  0.19417000  1.0 2.0962405492
U  U3  1  0.40515000  0.13951000  0.19417000  1.0 2.0933039476
U  U4  1  0.59485000  0.86049000  0.69417000  1.0 2.0962405492
H  H1  1  0.25190000  0.44850000  0.43110000  1.0 0.1259258784
H  H2  1  0.28550000  0.47810000  0.28800000  1.0 0.1086786715
H  H3  1  0.16690000  0.50150000  0.25720000  1.0 0.1181062789
H  H4  1  0.12992000  0.46328000  0.38960000  1.0 0.1259258784
H  H5  1  0.27800000  0.46580000  0.14350000  1.0 0.1000044964
H  H6  1  0.32290000  0.50950000  0.01110000  1.0 0.1086786715
H  H7  1  0.28310000  0.61410000  0.02710000  1.0 0.1086786715
H  H8  1  0.23740000  0.57460000  0.16060000  1.0 0.1000044964
H  H9  1  0.28180000  0.53200000  0.84860000  1.0 0.1259258784
H  H10  1  0.28530000  0.53090000  0.68200000  1.0 0.1181062789
H  H11  1  0.32640000  0.48660000  0.60510000  1.0 0.1367174079
H  H12  1  0.43200000  0.45920000  0.63550000  1.0 0.1086786715
H  H13  1  0.41540000  0.37780000  0.57950000  1.0 0.1086786715
H  H14  1  0.35130000  0.39490000  0.36230000  1.0 0.1000044964
H  H15  1  0.37230000  0.48090000  0.42350000  1.0 0.1086786715
H  H16  1  0.37080000  0.28680000  0.52560000  1.0 0.1086786715
H  H17  1  0.37600000  0.22000000  0.45470000  1.0 0.1259258784
H  H18  1  0.40760000  0.30520000  0.22920000  1.0 0.1181062789
H  H19  1  0.40230000  0.37190000  0.30000000  1.0 0.1086786715
H  H20  1  0.24530000  0.57050000  0.59180000  1.0 0.1259258784
H  H21  1  0.10350000  0.58990000  0.54090000  1.0 0.1000044964
H  H22  1  0.18450000  0.60710000  0.60750000  1.0 0.1000044964
H  H23  1  0.27710000  0.67450000  0.38450000  1.0 0.0777654464
H  H24  1  0.19600000  0.65740000  0.31790000  1.0 0.0916574457
H  H25  1  0.10620000  0.60760000  0.25750000  1.0 0.1181062789
H  H26  1  0.02810000  0.59390000  0.20290000  1.0 0.1259258784
H  H27  1  0.99270000  0.63170000  0.42650000  1.0 0.1259258784
H  H28  1  0.06870000  0.64070000  0.48730000  1.0 0.1181062789
H  H29  1  0.22750000  0.59670000  0.40650000  1.0 0.1000044964
H  H30  1  0.13180000  0.55980000  0.38520000  1.0 0.1000044964
H  H31  1  0.15650000  0.68470000  0.51400000  1.0 0.0916574457
H  H32  1  0.24610000  0.70910000  0.57560000  1.0 0.0609574203
H  H33  1  0.74810000  0.55150000  0.93110000  1.0 0.1259258784
H  H34  1  0.71450000  0.52190000  0.78800000  1.0 0.1086786715
H  H35  1  0.83310000  0.49850000  0.75720000  1.0 0.1181062789
H  H36  1  0.87008000  0.53672000  0.88960000  1.0 0.1259258784
H  H37  1  0.72200000  0.53420000  0.64350000  1.0 0.1000044964
H  H38  1  0.67710000  0.49050000  0.51110000  1.0 0.1086786715
H  H39  1  0.71690000  0.38590000  0.52710000  1.0 0.1086786715
H  H40  1  0.76260000  0.42540000  0.66060000  1.0 0.1000044964
H  H41  1  0.71820000  0.46800000  0.34860000  1.0 0.1259258784
H  H42  1  0.71470000  0.46910000  0.18200000  1.0 0.1181062789
H  H43  1  0.67360000  0.51340000  0.10510000  1.0 0.1367174079
H  H44  1  0.56800000  0.54080000  0.13550000  1.0 0.1086786715
H  H45  1  0.58460000  0.62220000  0.07950000  1.0 0.1086786715
H  H46  1  0.64870000  0.60510000  0.86230000  1.0 0.1000044964
H  H47  1  0.62770000  0.51910000  0.92350000  1.0 0.1086786715
H  H48  1  0.62920000  0.71320000  0.02560000  1.0 0.1086786715
H  H49  1  0.62400000  0.78000000  0.95470000  1.0 0.1259258784
H  H50  1  0.59240000  0.69480000  0.72920000  1.0 0.1181062789
H  H51  1  0.59770000  0.62810000  0.80000000  1.0 0.1086786715
H  H52  1  0.75470000  0.42950000  0.09180000  1.0 0.1259258784
H  H53  1  0.89650000  0.41010000  0.04090000  1.0 0.1000044964
H  H54  1  0.81550000  0.39290000  0.10750000  1.0 0.1000044964
H  H55  1  0.72290000  0.32550000  0.88450000  1.0 0.0777654464
H  H56  1  0.80400000  0.34260000  0.81790000  1.0 0.0916574457
H  H57  1  0.89380000  0.39240000  0.75750000  1.0 0.1181062789
H  H58  1  0.97190000  0.40610000  0.70290000  1.0 0.1259258784
H  H59  1  0.00730000  0.36830000  0.92650000  1.0 0.1259258784
H  H60  1  0.93130000  0.35930000  0.98730000  1.0 0.1181062789
H  H61  1  0.77250000  0.40330000  0.90650000  1.0 0.1000044964
H  H62  1  0.86820000  0.44020000  0.88520000  1.0 0.1000044964
H  H63  1  0.84350000  0.31530000  0.01400000  1.0 0.0916574457
H  H64  1  0.75390000  0.29090000  0.07560000  1.0 0.0609574203
H  H65  1  0.44850000  0.25190000  0.93110000  1.0 0.1259258784
H  H66  1  0.47810000  0.28550000  0.78800000  1.0 0.1086786715
H  H67  1  0.50150000  0.16690000  0.75720000  1.0 0.1181062789
H  H68  1  0.46328000  0.12992000  0.88960000  1.0 0.1259258784
H  H69  1  0.46580000  0.27800000  0.64350000  1.0 0.1000044964
H  H70  1  0.50950000  0.32290000  0.51110000  1.0 0.1086786715
H  H71  1  0.61410000  0.28310000  0.52710000  1.0 0.1086786715
H  H72  1  0.57460000  0.23740000  0.66060000  1.0 0.1000044964
H  H73  1  0.53200000  0.28180000  0.34860000  1.0 0.1259258784
H  H74  1  0.53090000  0.28530000  0.18200000  1.0 0.1181062789
H  H75  1  0.48660000  0.32640000  0.10510000  1.0 0.1367174079
H  H76  1  0.45920000  0.43200000  0.13550000  1.0 0.1086786715
H  H77  1  0.37780000  0.41540000  0.07950000  1.0 0.1086786715
H  H78  1  0.39490000  0.35130000  0.86230000  1.0 0.1000044964
H  H79  1  0.48090000  0.37230000  0.92350000  1.0 0.1086786715
H  H80  1  0.28680000  0.37080000  0.02560000  1.0 0.1086786715
H  H81  1  0.22000000  0.37600000  0.95470000  1.0 0.1259258784
H  H82  1  0.30520000  0.40760000  0.72920000  1.0 0.1181062789
H  H83  1  0.37190000  0.40230000  0.80000000  1.0 0.1086786715
H  H84  1  0.57050000  0.24530000  0.09180000  1.0 0.1259258784
H  H85  1  0.58990000  0.10350000  0.04090000  1.0 0.1000044964
H  H86  1  0.60710000  0.18450000  0.10750000  1.0 0.1000044964
H  H87  1  0.67450000  0.27710000  0.88450000  1.0 0.0777654464
H  H88  1  0.65740000  0.19600000  0.81790000  1.0 0.0916574457
H  H89  1  0.60760000  0.10620000  0.75750000  1.0 0.1181062789
H  H90  1  0.59390000  0.02810000  0.70290000  1.0 0.1259258784
H  H91  1  0.63170000  0.99270000  0.92650000  1.0 0.1259258784
H  H92  1  0.64070000  0.06870000  0.98730000  1.0 0.1181062789
H  H93  1  0.59670000  0.22750000  0.90650000  1.0 0.1000044964
H  H94  1  0.55980000  0.13180000  0.88520000  1.0 0.1000044964
H  H95  1  0.68470000  0.15650000  0.01400000  1.0 0.0916574457
H  H96  1  0.70910000  0.24610000  0.07560000  1.0 0.0609574203
H  H97  1  0.55150000  0.74810000  0.43110000  1.0 0.1259258784
H  H98  1  0.52190000  0.71450000  0.28800000  1.0 0.1086786715
H  H99  1  0.49850000  0.83310000  0.25720000  1.0 0.1181062789
H  H100  1  0.53672000  0.87008000  0.38960000  1.0 0.1259258784
H  H101  1  0.53420000  0.72200000  0.14350000  1.0 0.1000044964
H  H102  1  0.49050000  0.67710000  0.01110000  1.0 0.1086786715
H  H103  1  0.38590000  0.71690000  0.02710000  1.0 0.1086786715
H  H104  1  0.42540000  0.76260000  0.16060000  1.0 0.1000044964
H  H105  1  0.46800000  0.71820000  0.84860000  1.0 0.1259258784
H  H106  1  0.46910000  0.71470000  0.68200000  1.0 0.1181062789
H  H107  1  0.51340000  0.67360000  0.60510000  1.0 0.1367174079
H  H108  1  0.54080000  0.56800000  0.63550000  1.0 0.1086786715
H  H109  1  0.62220000  0.58460000  0.57950000  1.0 0.1086786715
H  H110  1  0.60510000  0.64870000  0.36230000  1.0 0.1000044964
H  H111  1  0.51910000  0.62770000  0.42350000  1.0 0.1086786715
H  H112  1  0.71320000  0.62920000  0.52560000  1.0 0.1086786715
H  H113  1  0.78000000  0.62400000  0.45470000  1.0 0.1259258784
H  H114  1  0.69480000  0.59240000  0.22920000  1.0 0.1181062789
H  H115  1  0.62810000  0.59770000  0.30000000  1.0 0.1086786715
H  H116  1  0.42950000  0.75470000  0.59180000  1.0 0.1259258784
H  H117  1  0.41010000  0.89650000  0.54090000  1.0 0.1000044964
H  H118  1  0.39290000  0.81550000  0.60750000  1.0 0.1000044964
H  H119  1  0.32550000  0.72290000  0.38450000  1.0 0.0777654464
H  H120  1  0.34260000  0.80400000  0.31790000  1.0 0.0916574457
H  H121  1  0.39240000  0.89380000  0.25750000  1.0 0.1181062789
H  H122  1  0.40610000  0.97190000  0.20290000  1.0 0.1259258784
H  H123  1  0.36830000  0.00730000  0.42650000  1.0 0.1259258784
H  H124  1  0.35930000  0.93130000  0.48730000  1.0 0.1181062789
H  H125  1  0.40330000  0.77250000  0.40650000  1.0 0.1000044964
H  H126  1  0.44020000  0.86820000  0.38520000  1.0 0.1000044964
H  H127  1  0.31530000  0.84350000  0.51400000  1.0 0.0916574457
H  H128  1  0.29090000  0.75390000  0.57560000  1.0 0.0609574203
C  C1  1  0.17399000  0.44301000  0.51480000  1.0 0.5368166258
C  C2  1  0.19262000  0.45818000  0.41920000  1.0 -0.0154691055
C  C3  1  0.23471000  0.45929000  0.39370000  1.0 -0.1013761946
C  C4  1  0.25449000  0.47711000  0.30860000  1.0 -0.1598741206
C  C5  1  0.23072000  0.49248000  0.25630000  1.0 0.0777654464
C  C6  1  0.18390000  0.48910000  0.29130000  1.0 -0.1691033254
C  C7  1  0.16400000  0.46940000  0.36910000  1.0 -0.1092158014
C  C8  1  0.25459000  0.51681000  0.16880000  1.0 0.0674714138
C  C9  1  0.27940000  0.49700000  0.12190000  1.0 -0.150863457
C  C10  1  0.30648000  0.52352000  0.04260000  1.0 -0.1598741206
C  C11  1  0.31018000  0.56862000  0.00830000  1.0 0.0609574203
C  C12  1  0.28325000  0.58475000  0.05200000  1.0 -0.150863457
C  C13  1  0.25530000  0.56110000  0.13200000  1.0 -0.150863457
C  C14  1  0.34332000  0.59848000  0.92530000  1.0 0.0396335432
C  C15  1  0.31944000  0.57056000  0.84870000  1.0 -0.1989851902
C  C16  1  0.34708000  0.59532000  0.77220000  1.0 0.0396335432
C  C17  1  0.32549000  0.57091000  0.68230000  1.0 -0.1194543895
C  C18  1  0.37301000  0.57059000  0.64350000  1.0 0.0515389276
C  C19  1  0.36496000  0.52424000  0.60770000  1.0 -0.1989851902
C  C20  1  0.41514000  0.53186000  0.57320000  1.0 0.0172188682
C  C21  1  0.40497000  0.47883000  0.53220000  1.0 0.0609574203
C  C22  1  0.41679000  0.44681000  0.57860000  1.0 -0.1691033254
C  C23  1  0.40759000  0.39901000  0.54570000  1.0 -0.1280627621
C  C24  1  0.38717000  0.38143000  0.46470000  1.0 0.0609574203
C  C25  1  0.36985000  0.40935000  0.41700000  1.0 -0.1598741206
C  C26  1  0.38151000  0.46009000  0.45490000  1.0 -0.150863457
C  C27  1  0.38603000  0.33557000  0.41940000  1.0 0.0777654464
C  C28  1  0.37826000  0.29054000  0.46540000  1.0 -0.1598741206
C  C29  1  0.38133000  0.25087000  0.42330000  1.0 -0.1092158014
C  C30  1  0.39225000  0.25635000  0.33530000  1.0 -0.0385370178
C  C31  1  0.40012000  0.30148000  0.28930000  1.0 -0.1092158014
C  C32  1  0.39696000  0.34104000  0.33140000  1.0 -0.1598741206
C  C33  1  0.39553000  0.21447000  0.29060000  1.0 0.5216854651
C  C34  1  0.32753000  0.61567000  0.63310000  1.0 0.0609574203
C  C35  1  0.28333000  0.60867000  0.59080000  1.0 -0.2203134308
C  C36  1  0.28912000  0.65308000  0.54570000  1.0 -0.0032112445
C  C37  1  0.14215000  0.62205000  0.42310000  1.0 0.0515389276
C  C38  1  0.13871000  0.60709000  0.50920000  1.0 -0.0707757949
C  C39  1  0.18690000  0.61730000  0.54870000  1.0 -0.1013761946
C  C40  1  0.23843000  0.64237000  0.50230000  1.0 0.0515389276
C  C41  1  0.24187000  0.65733000  0.41620000  1.0 -0.1013761946
C  C42  1  0.19368000  0.64712000  0.37670000  1.0 -0.1194543895
C  C43  1  0.09704000  0.62596000  0.38580000  1.0 0.0515389276
C  C44  1  0.08316000  0.61224000  0.29310000  1.0 -0.150863457
C  C45  1  0.03873000  0.60647000  0.26100000  1.0 -0.0862686122
C  C46  1  0.00616000  0.61764000  0.30550000  1.0 -0.0707757949
C  C47  1  0.01650000  0.62770000  0.39170000  1.0 -0.1013761946
C  C48  1  0.06170000  0.63230000  0.42740000  1.0 -0.1444715681
C  C49  1  0.95973000  0.61567000  0.26480000  1.0 0.5216854651
C  C50  1  0.21160000  0.61120000  0.43890000  1.0 -0.0385370178
C  C51  1  0.15840000  0.59660000  0.41410000  1.0 -0.0639466132
C  C52  1  0.17150000  0.66590000  0.49450000  1.0 -0.1280627621
C  C53  1  0.22320000  0.67900000  0.53330000  1.0 -0.1280627621
C  C54  1  0.82601000  0.55699000  0.01480000  1.0 0.5368166258
C  C55  1  0.80738000  0.54182000  0.91920000  1.0 -0.0154691055
C  C56  1  0.76529000  0.54071000  0.89370000  1.0 -0.1013761946
C  C57  1  0.74551000  0.52289000  0.80860000  1.0 -0.1598741206
C  C58  1  0.76928000  0.50752000  0.75630000  1.0 0.0777654464
C  C59  1  0.81610000  0.51090000  0.79130000  1.0 -0.1691033254
C  C60  1  0.83600000  0.53060000  0.86910000  1.0 -0.1092158014
C  C61  1  0.74541000  0.48319000  0.66880000  1.0 0.0674714138
C  C62  1  0.72060000  0.50300000  0.62190000  1.0 -0.150863457
C  C63  1  0.69352000  0.47648000  0.54260000  1.0 -0.1598741206
C  C64  1  0.68982000  0.43138000  0.50830000  1.0 0.0609574203
C  C65  1  0.71675000  0.41525000  0.55200000  1.0 -0.150863457
C  C66  1  0.74470000  0.43890000  0.63200000  1.0 -0.150863457
C  C67  1  0.65668000  0.40152000  0.42530000  1.0 0.0396335432
C  C68  1  0.68056000  0.42944000  0.34870000  1.0 -0.1989851902
C  C69  1  0.65292000  0.40468000  0.27220000  1.0 0.0396335432
C  C70  1  0.67451000  0.42909000  0.18230000  1.0 -0.1194543895
C  C71  1  0.62699000  0.42941000  0.14350000  1.0 0.0515389276
C  C72  1  0.63504000  0.47576000  0.10770000  1.0 -0.1989851902
C  C73  1  0.58486000  0.46814000  0.07320000  1.0 0.0172188682
C  C74  1  0.59503000  0.52117000  0.03220000  1.0 0.0609574203
C  C75  1  0.58321000  0.55319000  0.07860000  1.0 -0.1691033254
C  C76  1  0.59241000  0.60099000  0.04570000  1.0 -0.1280627621
C  C77  1  0.61283000  0.61857000  0.96470000  1.0 0.0609574203
C  C78  1  0.63015000  0.59065000  0.91700000  1.0 -0.1598741206
C  C79  1  0.61849000  0.53991000  0.95490000  1.0 -0.150863457
C  C80  1  0.61397000  0.66443000  0.91940000  1.0 0.0777654464
C  C81  1  0.62174000  0.70946000  0.96540000  1.0 -0.1598741206
C  C82  1  0.61867000  0.74913000  0.92330000  1.0 -0.1092158014
C  C83  1  0.60775000  0.74365000  0.83530000  1.0 -0.0385370178
C  C84  1  0.59988000  0.69852000  0.78930000  1.0 -0.1092158014
C  C85  1  0.60304000  0.65896000  0.83140000  1.0 -0.1598741206
C  C86  1  0.60447000  0.78553000  0.79060000  1.0 0.5216854651
C  C87  1  0.67247000  0.38433000  0.13310000  1.0 0.0609574203
C  C88  1  0.71667000  0.39133000  0.09080000  1.0 -0.2203134308
C  C89  1  0.71088000  0.34692000  0.04570000  1.0 -0.0032112445
C  C90  1  0.85785000  0.37795000  0.92310000  1.0 0.0515389276
C  C91  1  0.86129000  0.39291000  0.00920000  1.0 -0.0707757949
C  C92  1  0.81310000  0.38270000  0.04870000  1.0 -0.1013761946
C  C93  1  0.76157000  0.35763000  0.00230000  1.0 0.0515389276
C  C94  1  0.75813000  0.34267000  0.91620000  1.0 -0.1013761946
C  C95  1  0.80632000  0.35288000  0.87670000  1.0 -0.1194543895
C  C96  1  0.90296000  0.37404000  0.88580000  1.0 0.0515389276
C  C97  1  0.91684000  0.38776000  0.79310000  1.0 -0.150863457
C  C98  1  0.96127000  0.39353000  0.76100000  1.0 -0.0862686122
C  C99  1  0.99384000  0.38236000  0.80550000  1.0 -0.0707757949
C  C100  1  0.98350000  0.37230000  0.89170000  1.0 -0.1013761946
C  C101  1  0.93830000  0.36770000  0.92740000  1.0 -0.1444715681
C  C102  1  0.04027000  0.38433000  0.76480000  1.0 0.5216854651
C  C103  1  0.78840000  0.38880000  0.93890000  1.0 -0.0385370178
C  C104  1  0.84160000  0.40340000  0.91410000  1.0 -0.0639466132
C  C105  1  0.82850000  0.33410000  0.99450000  1.0 -0.1280627621
C  C106  1  0.77680000  0.32100000  0.03330000  1.0 -0.1280627621
C  C107  1  0.44301000  0.17399000  0.01480000  1.0 0.5368166258
C  C108  1  0.45818000  0.19262000  0.91920000  1.0 -0.0154691055
C  C109  1  0.45929000  0.23471000  0.89370000  1.0 -0.1013761946
C  C110  1  0.47711000  0.25449000  0.80860000  1.0 -0.1598741206
C  C111  1  0.49248000  0.23072000  0.75630000  1.0 0.0777654464
C  C112  1  0.48910000  0.18390000  0.79130000  1.0 -0.1691033254
C  C113  1  0.46940000  0.16400000  0.86910000  1.0 -0.1092158014
C  C114  1  0.51681000  0.25459000  0.66880000  1.0 0.0674714138
C  C115  1  0.49700000  0.27940000  0.62190000  1.0 -0.150863457
C  C116  1  0.52352000  0.30648000  0.54260000  1.0 -0.1598741206
C  C117  1  0.56862000  0.31018000  0.50830000  1.0 0.0609574203
C  C118  1  0.58475000  0.28325000  0.55200000  1.0 -0.150863457
C  C119  1  0.56110000  0.25530000  0.63200000  1.0 -0.150863457
C  C120  1  0.59848000  0.34332000  0.42530000  1.0 0.0396335432
C  C121  1  0.57056000  0.31944000  0.34870000  1.0 -0.1989851902
C  C122  1  0.59532000  0.34708000  0.27220000  1.0 0.0396335432
C  C123  1  0.57091000  0.32549000  0.18230000  1.0 -0.1194543895
C  C124  1  0.57059000  0.37301000  0.14350000  1.0 0.0515389276
C  C125  1  0.52424000  0.36496000  0.10770000  1.0 -0.1989851902
C  C126  1  0.53186000  0.41514000  0.07320000  1.0 0.0172188682
C  C127  1  0.47883000  0.40497000  0.03220000  1.0 0.0609574203
C  C128  1  0.44681000  0.41679000  0.07860000  1.0 -0.1691033254
C  C129  1  0.39901000  0.40759000  0.04570000  1.0 -0.1280627621
C  C130  1  0.38143000  0.38717000  0.96470000  1.0 0.0609574203
C  C131  1  0.40935000  0.36985000  0.91700000  1.0 -0.1598741206
C  C132  1  0.46009000  0.38151000  0.95490000  1.0 -0.150863457
C  C133  1  0.33557000  0.38603000  0.91940000  1.0 0.0777654464
C  C134  1  0.29054000  0.37826000  0.96540000  1.0 -0.1598741206
C  C135  1  0.25087000  0.38133000  0.92330000  1.0 -0.1092158014
C  C136  1  0.25635000  0.39225000  0.83530000  1.0 -0.0385370178
C  C137  1  0.30148000  0.40012000  0.78930000  1.0 -0.1092158014
C  C138  1  0.34104000  0.39696000  0.83140000  1.0 -0.1598741206
C  C139  1  0.21447000  0.39553000  0.79060000  1.0 0.5216854651
C  C140  1  0.61567000  0.32753000  0.13310000  1.0 0.0609574203
C  C141  1  0.60867000  0.28333000  0.09080000  1.0 -0.2203134308
C  C142  1  0.65308000  0.28912000  0.04570000  1.0 -0.0032112445
C  C143  1  0.62205000  0.14215000  0.92310000  1.0 0.0515389276
C  C144  1  0.60709000  0.13871000  0.00920000  1.0 -0.0707757949
C  C145  1  0.61730000  0.18690000  0.04870000  1.0 -0.1013761946
C  C146  1  0.64237000  0.23843000  0.00230000  1.0 0.0515389276
C  C147  1  0.65733000  0.24187000  0.91620000  1.0 -0.1013761946
C  C148  1  0.64712000  0.19368000  0.87670000  1.0 -0.1194543895
C  C149  1  0.62596000  0.09704000  0.88580000  1.0 0.0515389276
C  C150  1  0.61224000  0.08316000  0.79310000  1.0 -0.150863457
C  C151  1  0.60647000  0.03873000  0.76100000  1.0 -0.0862686122
C  C152  1  0.61764000  0.00616000  0.80550000  1.0 -0.0707757949
C  C153  1  0.62770000  0.01650000  0.89170000  1.0 -0.1013761946
C  C154  1  0.63230000  0.06170000  0.92740000  1.0 -0.1444715681
C  C155  1  0.61567000  0.95973000  0.76480000  1.0 0.5216854651
C  C156  1  0.61120000  0.21160000  0.93890000  1.0 -0.0385370178
C  C157  1  0.59660000  0.15840000  0.91410000  1.0 -0.0639466132
C  C158  1  0.66590000  0.17150000  0.99450000  1.0 -0.1280627621
C  C159  1  0.67900000  0.22320000  0.03330000  1.0 -0.1280627621
C  C160  1  0.55699000  0.82601000  0.51480000  1.0 0.5368166258
C  C161  1  0.54182000  0.80738000  0.41920000  1.0 -0.0154691055
C  C162  1  0.54071000  0.76529000  0.39370000  1.0 -0.1013761946
C  C163  1  0.52289000  0.74551000  0.30860000  1.0 -0.1598741206
C  C164  1  0.50752000  0.76928000  0.25630000  1.0 0.0777654464
C  C165  1  0.51090000  0.81610000  0.29130000  1.0 -0.1691033254
C  C166  1  0.53060000  0.83600000  0.36910000  1.0 -0.1092158014
C  C167  1  0.48319000  0.74541000  0.16880000  1.0 0.0674714138
C  C168  1  0.50300000  0.72060000  0.12190000  1.0 -0.150863457
C  C169  1  0.47648000  0.69352000  0.04260000  1.0 -0.1598741206
C  C170  1  0.43138000  0.68982000  0.00830000  1.0 0.0609574203
C  C171  1  0.41525000  0.71675000  0.05200000  1.0 -0.150863457
C  C172  1  0.43890000  0.74470000  0.13200000  1.0 -0.150863457
C  C173  1  0.40152000  0.65668000  0.92530000  1.0 0.0396335432
C  C174  1  0.42944000  0.68056000  0.84870000  1.0 -0.1989851902
C  C175  1  0.40468000  0.65292000  0.77220000  1.0 0.0396335432
C  C176  1  0.42909000  0.67451000  0.68230000  1.0 -0.1194543895
C  C177  1  0.42941000  0.62699000  0.64350000  1.0 0.0515389276
C  C178  1  0.47576000  0.63504000  0.60770000  1.0 -0.1989851902
C  C179  1  0.46814000  0.58486000  0.57320000  1.0 0.0172188682
C  C180  1  0.52117000  0.59503000  0.53220000  1.0 0.0609574203
C  C181  1  0.55319000  0.58321000  0.57860000  1.0 -0.1691033254
C  C182  1  0.60099000  0.59241000  0.54570000  1.0 -0.1280627621
C  C183  1  0.61857000  0.61283000  0.46470000  1.0 0.0609574203
C  C184  1  0.59065000  0.63015000  0.41700000  1.0 -0.1598741206
C  C185  1  0.53991000  0.61849000  0.45490000  1.0 -0.150863457
C  C186  1  0.66443000  0.61397000  0.41940000  1.0 0.0777654464
C  C187  1  0.70946000  0.62174000  0.46540000  1.0 -0.1598741206
C  C188  1  0.74913000  0.61867000  0.42330000  1.0 -0.1092158014
C  C189  1  0.74365000  0.60775000  0.33530000  1.0 -0.0385370178
C  C190  1  0.69852000  0.59988000  0.28930000  1.0 -0.1092158014
C  C191  1  0.65896000  0.60304000  0.33140000  1.0 -0.1598741206
C  C192  1  0.78553000  0.60447000  0.29060000  1.0 0.5216854651
C  C193  1  0.38433000  0.67247000  0.63310000  1.0 0.0609574203
C  C194  1  0.39133000  0.71667000  0.59080000  1.0 -0.2203134308
C  C195  1  0.34692000  0.71088000  0.54570000  1.0 -0.0032112445
C  C196  1  0.37795000  0.85785000  0.42310000  1.0 0.0515389276
C  C197  1  0.39291000  0.86129000  0.50920000  1.0 -0.0707757949
C  C198  1  0.38270000  0.81310000  0.54870000  1.0 -0.1013761946
C  C199  1  0.35763000  0.76157000  0.50230000  1.0 0.0515389276
C  C200  1  0.34267000  0.75813000  0.41620000  1.0 -0.1013761946
C  C201  1  0.35288000  0.80632000  0.37670000  1.0 -0.1194543895
C  C202  1  0.37404000  0.90296000  0.38580000  1.0 0.0515389276
C  C203  1  0.38776000  0.91684000  0.29310000  1.0 -0.150863457
C  C204  1  0.39353000  0.96127000  0.26100000  1.0 -0.0862686122
C  C205  1  0.38236000  0.99384000  0.30550000  1.0 -0.0707757949
C  C206  1  0.37230000  0.98350000  0.39170000  1.0 -0.1013761946
C  C207  1  0.36770000  0.93830000  0.42740000  1.0 -0.1444715681
C  C208  1  0.38433000  0.04027000  0.26480000  1.0 0.5216854651
C  C209  1  0.38880000  0.78840000  0.43890000  1.0 -0.0385370178
C  C210  1  0.40340000  0.84160000  0.41410000  1.0 -0.0639466132
C  C211  1  0.33410000  0.82850000  0.49450000  1.0 -0.1280627621
C  C212  1  0.32100000  0.77680000  0.53330000  1.0 -0.1280627621
O  O1  1  0.12556000  0.42964000  0.54490000  1.0 -0.5905113156
O  O2  1  0.20287000  0.43573000  0.56680000  1.0 -0.5997544239
O  O3  1  0.38419000  0.16881000  0.32600000  1.0 -0.5809242437
O  O4  1  0.41041000  0.22399000  0.21320000  1.0 -0.5669290135
O  O5  1  0.94703000  0.60137000  0.18760000  1.0 -0.5905113156
O  O6  1  0.92931000  0.62429000  0.30880000  1.0 -0.6176113347
O  O7  1  0.87444000  0.57036000  0.04490000  1.0 -0.5905113156
O  O8  1  0.79713000  0.56427000  0.06680000  1.0 -0.5997544239
O  O9  1  0.61581000  0.83119000  0.82600000  1.0 -0.5809242437
O  O10  1  0.58959000  0.77601000  0.71320000  1.0 -0.5669290135
O  O11  1  0.05297000  0.39863000  0.68760000  1.0 -0.5905113156
O  O12  1  0.07069000  0.37571000  0.80880000  1.0 -0.6176113347
O  O13  1  0.42964000  0.12556000  0.04490000  1.0 -0.5905113156
O  O14  1  0.43573000  0.20287000  0.06680000  1.0 -0.5997544239
O  O15  1  0.16881000  0.38419000  0.82600000  1.0 -0.5809242437
O  O16  1  0.22399000  0.41041000  0.71320000  1.0 -0.5669290135
O  O17  1  0.60137000  0.94703000  0.68760000  1.0 -0.5905113156
O  O18  1  0.62429000  0.92931000  0.80880000  1.0 -0.6176113347
O  O19  1  0.57036000  0.87444000  0.54490000  1.0 -0.5905113156
O  O20  1  0.56427000  0.79713000  0.56680000  1.0 -0.5997544239
O  O21  1  0.83119000  0.61581000  0.32600000  1.0 -0.5809242437
O  O22  1  0.77601000  0.58959000  0.21320000  1.0 -0.5669290135
O  O23  1  0.39863000  0.05297000  0.18760000  1.0 -0.5905113156
O  O24  1  0.37571000  0.07069000  0.30880000  1.0 -0.6176113347
