# DDEC6 charges by PACMAN v1.1 (https://github.com/mtap-research/PACMAN-charge/)
data_ALICAA_FSR_pacman
_symmetry_space_group_name_H-M   'P 1'
_cell_length_a   20.41650000
_cell_length_b   20.41650000
_cell_length_c   20.41650000
_cell_angle_alpha   109.47100000
_cell_angle_beta   109.47100000
_cell_angle_gamma   109.47100000
_symmetry_Int_Tables_number   1
_chemical_formula_structural   Zn4WC30(N3O)4
_chemical_formula_sum   'Zn24 W6 C180 N72 O24'
_cell_volume   6551.27056464
_cell_formula_units_Z   6
loop_
 _symmetry_equiv_pos_site_id
 _symmetry_equiv_pos_as_xyz
  1  'x, y, z'
loop_
 _atom_site_type_symbol
 _atom_site_label
 _atom_site_symmetry_multiplicity
 _atom_site_fract_x
 _atom_site_fract_y
 _atom_site_fract_z
 _atom_site_occupancy
 _atom_site_charge
Zn  Zn1  1  0.63859000  0.45843000  0.81984000  1.0 0.808656218
Zn  Zn2  1  0.63859000  0.81875000  0.18016000  1.0 0.808656218
Zn  Zn3  1  0.36141000  0.54157000  0.18016000  1.0 0.8171652712
Zn  Zn4  1  0.36141000  0.18125000  0.81984000  1.0 0.808656218
Zn  Zn5  1  0.81984000  0.63859000  0.45843000  1.0 0.8171652712
Zn  Zn6  1  0.18016000  0.63859000  0.81875000  1.0 0.8171652712
Zn  Zn7  1  0.18016000  0.36141000  0.54157000  1.0 0.808656218
Zn  Zn8  1  0.81984000  0.36141000  0.18125000  1.0 0.808656218
Zn  Zn9  1  0.45843000  0.81984000  0.63859000  1.0 0.808656218
Zn  Zn10  1  0.81875000  0.18016000  0.63859000  1.0 0.808656218
Zn  Zn11  1  0.54157000  0.18016000  0.36141000  1.0 0.808656218
Zn  Zn12  1  0.18125000  0.81984000  0.36141000  1.0 0.8171652712
Zn  Zn13  1  0.18125000  0.36141000  0.81984000  1.0 0.808656218
Zn  Zn14  1  0.54157000  0.36141000  0.18016000  1.0 0.8171652712
Zn  Zn15  1  0.81875000  0.63859000  0.18016000  1.0 0.808656218
Zn  Zn16  1  0.45843000  0.63859000  0.81984000  1.0 0.8171652712
Zn  Zn17  1  0.63859000  0.81984000  0.45843000  1.0 0.808656218
Zn  Zn18  1  0.63859000  0.18016000  0.81875000  1.0 0.808656218
Zn  Zn19  1  0.36141000  0.18016000  0.54157000  1.0 0.808656218
Zn  Zn20  1  0.36141000  0.81984000  0.18125000  1.0 0.808656218
Zn  Zn21  1  0.18016000  0.81875000  0.63859000  1.0 0.808656218
Zn  Zn22  1  0.81984000  0.45843000  0.63859000  1.0 0.808656218
Zn  Zn23  1  0.81984000  0.18125000  0.36141000  1.0 0.808656218
Zn  Zn24  1  0.18016000  0.54157000  0.36141000  1.0 0.808656218
W  W1  1  0.50000000  0.25000000  0.75000000  1.0 1.8084907092
W  W2  1  0.50000000  0.75000000  0.25000000  1.0 1.803142444
W  W3  1  0.75000000  0.50000000  0.25000000  1.0 1.8084907092
W  W4  1  0.25000000  0.50000000  0.75000000  1.0 1.803142444
W  W5  1  0.25000000  0.75000000  0.50000000  1.0 1.8084907092
W  W6  1  0.75000000  0.25000000  0.50000000  1.0 1.8084907092
C  C1  1  0.72930000  0.45860000  0.72930000  1.0 0.224870747
C  C2  1  0.72930000  0.00000000  0.27070000  1.0 0.2280168391
C  C3  1  0.27070000  0.54140000  0.27070000  1.0 0.224870747
C  C4  1  0.27070000  0.00000000  0.72930000  1.0 0.224870747
C  C5  1  0.72930000  0.72930000  0.45860000  1.0 0.224870747
C  C6  1  0.27070000  0.72930000  0.00000000  1.0 0.2280168391
C  C7  1  0.27070000  0.27070000  0.54140000  1.0 0.224870747
C  C8  1  0.72930000  0.27070000  0.00000000  1.0 0.2280168391
C  C9  1  0.45860000  0.72930000  0.72930000  1.0 0.2280168391
C  C10  1  0.00000000  0.27070000  0.72930000  1.0 0.224870747
C  C11  1  0.54140000  0.27070000  0.27070000  1.0 0.2280168391
C  C12  1  0.00000000  0.72930000  0.27070000  1.0 0.2280168391
C  C13  1  0.54790000  0.54790000  0.81820000  1.0 0.351790481
C  C14  1  0.72970000  0.72970000  0.18180000  1.0 0.351790481
C  C15  1  0.27030000  0.45210000  0.00000000  1.0 0.3556622423
C  C16  1  0.45210000  0.27030000  0.00000000  1.0 0.351790481
C  C17  1  0.81820000  0.54790000  0.54790000  1.0 0.351790481
C  C18  1  0.18180000  0.72970000  0.72970000  1.0 0.351790481
C  C19  1  0.00000000  0.27030000  0.45210000  1.0 0.351790481
C  C20  1  0.00000000  0.45210000  0.27030000  1.0 0.3556622423
C  C21  1  0.54790000  0.81820000  0.54790000  1.0 0.351790481
C  C22  1  0.72970000  0.18180000  0.72970000  1.0 0.351790481
C  C23  1  0.45210000  0.00000000  0.27030000  1.0 0.3556622423
C  C24  1  0.27030000  0.00000000  0.45210000  1.0 0.351790481
C  C25  1  0.27030000  0.27030000  0.81820000  1.0 0.351790481
C  C26  1  0.45210000  0.45210000  0.18180000  1.0 0.351790481
C  C27  1  0.72970000  0.54790000  0.00000000  1.0 0.351790481
C  C28  1  0.54790000  0.72970000  0.00000000  1.0 0.3556622423
C  C29  1  0.72970000  0.00000000  0.54790000  1.0 0.351790481
C  C30  1  0.54790000  0.00000000  0.72970000  1.0 0.351790481
C  C31  1  0.45210000  0.18180000  0.45210000  1.0 0.351790481
C  C32  1  0.27030000  0.81820000  0.27030000  1.0 0.351790481
C  C33  1  0.00000000  0.72970000  0.54790000  1.0 0.351790481
C  C34  1  0.00000000  0.54790000  0.72970000  1.0 0.351790481
C  C35  1  0.81820000  0.27030000  0.27030000  1.0 0.351790481
C  C36  1  0.18180000  0.45210000  0.45210000  1.0 0.351790481
C  C37  1  0.50450000  0.50450000  0.86180000  1.0 -0.0218732026
C  C38  1  0.64270000  0.64270000  0.13820000  1.0 -0.0218732026
C  C39  1  0.35730000  0.49550000  0.00000000  1.0 -0.026013731
C  C40  1  0.49550000  0.35730000  0.00000000  1.0 -0.0218732026
C  C41  1  0.86180000  0.50450000  0.50450000  1.0 -0.0218732026
C  C42  1  0.13820000  0.64270000  0.64270000  1.0 -0.026013731
C  C43  1  0.00000000  0.35730000  0.49550000  1.0 -0.0218732026
C  C44  1  0.00000000  0.49550000  0.35730000  1.0 -0.0218732026
C  C45  1  0.50450000  0.86180000  0.50450000  1.0 -0.0218732026
C  C46  1  0.64270000  0.13820000  0.64270000  1.0 -0.0218732026
C  C47  1  0.49550000  0.00000000  0.35730000  1.0 -0.0218732026
C  C48  1  0.35730000  0.00000000  0.49550000  1.0 -0.026013731
C  C49  1  0.35730000  0.35730000  0.86180000  1.0 -0.0218732026
C  C50  1  0.49550000  0.49550000  0.13820000  1.0 -0.0218732026
C  C51  1  0.64270000  0.50450000  0.00000000  1.0 -0.0218732026
C  C52  1  0.50450000  0.64270000  0.00000000  1.0 -0.0218732026
C  C53  1  0.64270000  0.00000000  0.50450000  1.0 -0.0218732026
C  C54  1  0.50450000  0.00000000  0.64270000  1.0 -0.026013731
C  C55  1  0.49550000  0.13820000  0.49550000  1.0 -0.0218732026
C  C56  1  0.35730000  0.86180000  0.35730000  1.0 -0.0218732026
C  C57  1  0.00000000  0.64270000  0.50450000  1.0 -0.0218732026
C  C58  1  0.00000000  0.50450000  0.64270000  1.0 -0.0218732026
C  C59  1  0.86180000  0.35730000  0.35730000  1.0 -0.0218732026
C  C60  1  0.13820000  0.49550000  0.49550000  1.0 -0.0218732026
C  C61  1  0.72300000  0.37860000  0.76400000  1.0 -0.0606490998
C  C62  1  0.61460000  0.95900000  0.23600000  1.0 -0.0606490998
C  C63  1  0.38540000  0.62140000  0.34440000  1.0 -0.0606490998
C  C64  1  0.27700000  0.04100000  0.65560000  1.0 -0.0606490998
C  C65  1  0.76400000  0.72300000  0.37860000  1.0 -0.0606490998
C  C66  1  0.23600000  0.61460000  0.95900000  1.0 -0.0606490998
C  C67  1  0.34440000  0.38540000  0.62140000  1.0 -0.0606490998
C  C68  1  0.65560000  0.27700000  0.04100000  1.0 -0.0606490998
C  C69  1  0.37860000  0.76400000  0.72300000  1.0 -0.0606490998
C  C70  1  0.95900000  0.23600000  0.61460000  1.0 -0.0606490998
C  C71  1  0.62140000  0.34440000  0.38540000  1.0 -0.0606490998
C  C72  1  0.04100000  0.65560000  0.27700000  1.0 -0.0606490998
C  C73  1  0.04100000  0.38540000  0.76400000  1.0 -0.0606490998
C  C74  1  0.62140000  0.27700000  0.23600000  1.0 -0.0606490998
C  C75  1  0.95900000  0.72300000  0.34440000  1.0 -0.0606490998
C  C76  1  0.37860000  0.61460000  0.65560000  1.0 -0.0606490998
C  C77  1  0.61460000  0.65560000  0.37860000  1.0 -0.0606490998
C  C78  1  0.72300000  0.34440000  0.95900000  1.0 -0.0606490998
C  C79  1  0.27700000  0.23600000  0.62140000  1.0 -0.0606490998
C  C80  1  0.38540000  0.76400000  0.04100000  1.0 -0.0606490998
C  C81  1  0.34440000  0.95900000  0.72300000  1.0 -0.0606490998
C  C82  1  0.65560000  0.37860000  0.61460000  1.0 -0.0606490998
C  C83  1  0.76400000  0.04100000  0.38540000  1.0 -0.0606490998
C  C84  1  0.23600000  0.62140000  0.27700000  1.0 -0.0606490998
C  C85  1  0.27700000  0.62140000  0.23600000  1.0 -0.0606490998
C  C86  1  0.38540000  0.04100000  0.76400000  1.0 -0.0606490998
C  C87  1  0.61460000  0.37860000  0.65560000  1.0 -0.0606490998
C  C88  1  0.72300000  0.95900000  0.34440000  1.0 -0.0606490998
C  C89  1  0.23600000  0.27700000  0.62140000  1.0 -0.0606490998
C  C90  1  0.76400000  0.38540000  0.04100000  1.0 -0.0606490998
C  C91  1  0.65560000  0.61460000  0.37860000  1.0 -0.0606490998
C  C92  1  0.34440000  0.72300000  0.95900000  1.0 -0.0606490998
C  C93  1  0.62140000  0.23600000  0.27700000  1.0 -0.0606490998
C  C94  1  0.04100000  0.76400000  0.38540000  1.0 -0.0606490998
C  C95  1  0.37860000  0.65560000  0.61460000  1.0 -0.0606490998
C  C96  1  0.95900000  0.34440000  0.72300000  1.0 -0.0606490998
C  C97  1  0.95900000  0.61460000  0.23600000  1.0 -0.0606490998
C  C98  1  0.37860000  0.72300000  0.76400000  1.0 -0.0606490998
C  C99  1  0.04100000  0.27700000  0.65560000  1.0 -0.0606490998
C  C100  1  0.62140000  0.38540000  0.34440000  1.0 -0.0606490998
C  C101  1  0.38540000  0.34440000  0.62140000  1.0 -0.0606490998
C  C102  1  0.27700000  0.65560000  0.04100000  1.0 -0.0606490998
C  C103  1  0.72300000  0.76400000  0.37860000  1.0 -0.0606490998
C  C104  1  0.61460000  0.23600000  0.95900000  1.0 -0.0606490998
C  C105  1  0.65560000  0.04100000  0.27700000  1.0 -0.0606490998
C  C106  1  0.34440000  0.62140000  0.38540000  1.0 -0.0606490998
C  C107  1  0.23600000  0.95900000  0.61460000  1.0 -0.0606490998
C  C108  1  0.76400000  0.37860000  0.72300000  1.0 -0.0606490998
C  C109  1  0.59950000  0.55400000  0.75030000  1.0 0.0477264306
C  C110  1  0.80370000  0.84920000  0.24970000  1.0 0.0477264306
C  C111  1  0.19630000  0.44600000  0.04550000  1.0 0.0477264306
C  C112  1  0.40050000  0.15080000  0.95450000  1.0 0.0477264306
C  C113  1  0.75030000  0.59950000  0.55400000  1.0 0.0477264306
C  C114  1  0.24970000  0.80370000  0.84920000  1.0 0.0477264306
C  C115  1  0.04550000  0.19630000  0.44600000  1.0 0.0477264306
C  C116  1  0.95450000  0.40050000  0.15080000  1.0 0.0477264306
C  C117  1  0.55400000  0.75030000  0.59950000  1.0 0.0477264306
C  C118  1  0.84920000  0.24970000  0.80370000  1.0 0.0477264306
C  C119  1  0.44600000  0.04550000  0.19630000  1.0 0.0477264306
C  C120  1  0.15080000  0.95450000  0.40050000  1.0 0.0477264306
C  C121  1  0.15080000  0.19630000  0.75030000  1.0 0.0477264306
C  C122  1  0.44600000  0.40050000  0.24970000  1.0 0.0477264306
C  C123  1  0.84920000  0.59950000  0.04550000  1.0 0.0477264306
C  C124  1  0.55400000  0.80370000  0.95450000  1.0 0.0477264306
C  C125  1  0.80370000  0.95450000  0.55400000  1.0 0.0477264306
C  C126  1  0.59950000  0.04550000  0.84920000  1.0 0.0477264306
C  C127  1  0.40050000  0.24970000  0.44600000  1.0 0.0477264306
C  C128  1  0.19630000  0.75030000  0.15080000  1.0 0.0477264306
C  C129  1  0.04550000  0.84920000  0.59950000  1.0 0.0477264306
C  C130  1  0.95450000  0.55400000  0.80370000  1.0 0.0477264306
C  C131  1  0.75030000  0.15080000  0.19630000  1.0 0.0477264306
C  C132  1  0.24970000  0.44600000  0.40050000  1.0 0.0477264306
C  C133  1  0.40050000  0.44600000  0.24970000  1.0 0.0477264306
C  C134  1  0.19630000  0.15080000  0.75030000  1.0 0.0477264306
C  C135  1  0.80370000  0.55400000  0.95450000  1.0 0.0477264306
C  C136  1  0.59950000  0.84920000  0.04550000  1.0 0.0477264306
C  C137  1  0.24970000  0.40050000  0.44600000  1.0 0.0477264306
C  C138  1  0.75030000  0.19630000  0.15080000  1.0 0.0477264306
C  C139  1  0.95450000  0.80370000  0.55400000  1.0 0.0477264306
C  C140  1  0.04550000  0.59950000  0.84920000  1.0 0.0477264306
C  C141  1  0.44600000  0.24970000  0.40050000  1.0 0.0477264306
C  C142  1  0.15080000  0.75030000  0.19630000  1.0 0.0477264306
C  C143  1  0.55400000  0.95450000  0.80370000  1.0 0.0477264306
C  C144  1  0.84920000  0.04550000  0.59950000  1.0 0.0477264306
C  C145  1  0.84920000  0.80370000  0.24970000  1.0 0.0477264306
C  C146  1  0.55400000  0.59950000  0.75030000  1.0 0.0477264306
C  C147  1  0.15080000  0.40050000  0.95450000  1.0 0.0477264306
C  C148  1  0.44600000  0.19630000  0.04550000  1.0 0.0477264306
C  C149  1  0.19630000  0.04550000  0.44600000  1.0 0.0477264306
C  C150  1  0.40050000  0.95450000  0.15080000  1.0 0.0477264306
C  C151  1  0.59950000  0.75030000  0.55400000  1.0 0.0477264306
C  C152  1  0.80370000  0.24970000  0.84920000  1.0 0.0477264306
C  C153  1  0.95450000  0.15080000  0.40050000  1.0 0.0477264306
C  C154  1  0.04550000  0.44600000  0.19630000  1.0 0.0477264306
C  C155  1  0.24970000  0.84920000  0.80370000  1.0 0.0477264306
C  C156  1  0.75030000  0.55400000  0.59950000  1.0 0.0477264306
C  C157  1  0.68690000  0.50780000  0.68690000  1.0 0.0218664048
C  C158  1  0.82090000  0.00000000  0.31310000  1.0 0.0218664048
C  C159  1  0.17910000  0.49220000  0.17910000  1.0 0.0313958962
C  C160  1  0.31310000  0.00000000  0.82090000  1.0 0.0218664048
C  C161  1  0.68690000  0.68690000  0.50780000  1.0 0.0218664048
C  C162  1  0.31310000  0.82090000  0.00000000  1.0 0.0218664048
C  C163  1  0.17910000  0.17910000  0.49220000  1.0 0.0218664048
C  C164  1  0.82090000  0.31310000  0.00000000  1.0 -0.054386291
C  C165  1  0.50780000  0.68690000  0.68690000  1.0 0.0218664048
C  C166  1  0.00000000  0.31310000  0.82090000  1.0 0.0313958962
C  C167  1  0.49220000  0.17910000  0.17910000  1.0 0.0218664048
C  C168  1  0.00000000  0.82090000  0.31310000  1.0 0.0218664048
C  C169  1  0.00000000  0.17910000  0.68690000  1.0 0.0218664048
C  C170  1  0.49220000  0.31310000  0.31310000  1.0 0.0218664048
C  C171  1  0.00000000  0.68690000  0.17910000  1.0 -0.0441682099
C  C172  1  0.50780000  0.82090000  0.82090000  1.0 0.0218664048
C  C173  1  0.82090000  0.82090000  0.50780000  1.0 0.0218664048
C  C174  1  0.68690000  0.17910000  0.00000000  1.0 0.0218664048
C  C175  1  0.31310000  0.31310000  0.49220000  1.0 0.0218664048
C  C176  1  0.17910000  0.68690000  0.00000000  1.0 -0.0441682099
C  C177  1  0.17910000  0.00000000  0.68690000  1.0 0.0218664048
C  C178  1  0.82090000  0.50780000  0.82090000  1.0 0.0384116105
C  C179  1  0.68690000  0.00000000  0.17910000  1.0 0.0218664048
C  C180  1  0.31310000  0.49220000  0.31310000  1.0 0.0218664048
N  N1  1  0.68400000  0.43330000  0.74930000  1.0 -0.1531608743
N  N2  1  0.68400000  0.93470000  0.25070000  1.0 -0.155237222
N  N3  1  0.31600000  0.56670000  0.25070000  1.0 -0.155237222
N  N4  1  0.31600000  0.06530000  0.74930000  1.0 -0.1531608743
N  N5  1  0.74930000  0.68400000  0.43330000  1.0 -0.1531608743
N  N6  1  0.25070000  0.68400000  0.93470000  1.0 -0.155237222
N  N7  1  0.25070000  0.31600000  0.56670000  1.0 -0.1531608743
N  N8  1  0.74930000  0.31600000  0.06530000  1.0 -0.155237222
N  N9  1  0.43330000  0.74930000  0.68400000  1.0 -0.1531608743
N  N10  1  0.93470000  0.25070000  0.68400000  1.0 -0.1531608743
N  N11  1  0.56670000  0.25070000  0.31600000  1.0 -0.155237222
N  N12  1  0.06530000  0.74930000  0.31600000  1.0 -0.155237222
N  N13  1  0.06530000  0.31600000  0.74930000  1.0 -0.1531608743
N  N14  1  0.56670000  0.31600000  0.25070000  1.0 -0.155237222
N  N15  1  0.93470000  0.68400000  0.25070000  1.0 -0.155237222
N  N16  1  0.43330000  0.68400000  0.74930000  1.0 -0.1531608743
N  N17  1  0.68400000  0.74930000  0.43330000  1.0 -0.1531608743
N  N18  1  0.68400000  0.25070000  0.93470000  1.0 -0.155237222
N  N19  1  0.31600000  0.25070000  0.56670000  1.0 -0.1531608743
N  N20  1  0.31600000  0.74930000  0.06530000  1.0 -0.155237222
N  N21  1  0.25070000  0.93470000  0.68400000  1.0 -0.1531608743
N  N22  1  0.74930000  0.43330000  0.68400000  1.0 -0.1531608743
N  N23  1  0.74930000  0.06530000  0.31600000  1.0 -0.155237222
N  N24  1  0.25070000  0.56670000  0.31600000  1.0 -0.155237222
N  N25  1  0.57850000  0.51100000  0.79390000  1.0 -0.3857695494
N  N26  1  0.71710000  0.78460000  0.20610000  1.0 -0.3857695494
N  N27  1  0.28290000  0.48900000  0.06750000  1.0 -0.3857695494
N  N28  1  0.42150000  0.21540000  0.93250000  1.0 -0.3857695494
N  N29  1  0.79390000  0.57850000  0.51100000  1.0 -0.3857695494
N  N30  1  0.20610000  0.71710000  0.78460000  1.0 -0.3857695494
N  N31  1  0.06750000  0.28290000  0.48900000  1.0 -0.3857695494
N  N32  1  0.93250000  0.42150000  0.21540000  1.0 -0.3857695494
N  N33  1  0.51100000  0.79390000  0.57850000  1.0 -0.3857695494
N  N34  1  0.78460000  0.20610000  0.71710000  1.0 -0.3857695494
N  N35  1  0.48900000  0.06750000  0.28290000  1.0 -0.3857695494
N  N36  1  0.21540000  0.93250000  0.42150000  1.0 -0.3857695494
N  N37  1  0.21540000  0.28290000  0.79390000  1.0 -0.3857695494
N  N38  1  0.48900000  0.42150000  0.20610000  1.0 -0.3857695494
N  N39  1  0.78460000  0.57850000  0.06750000  1.0 -0.3841743015
N  N40  1  0.51100000  0.71710000  0.93250000  1.0 -0.3857695494
N  N41  1  0.71710000  0.93250000  0.51100000  1.0 -0.3857695494
N  N42  1  0.57850000  0.06750000  0.78460000  1.0 -0.3857695494
N  N43  1  0.42150000  0.20610000  0.48900000  1.0 -0.3857695494
N  N44  1  0.28290000  0.79390000  0.21540000  1.0 -0.3857695494
N  N45  1  0.06750000  0.78460000  0.57850000  1.0 -0.3857695494
N  N46  1  0.93250000  0.51100000  0.71710000  1.0 -0.3857695494
N  N47  1  0.79390000  0.21540000  0.28290000  1.0 -0.3857695494
N  N48  1  0.20610000  0.48900000  0.42150000  1.0 -0.3857695494
N  N49  1  0.42150000  0.48900000  0.20610000  1.0 -0.3857695494
N  N50  1  0.28290000  0.21540000  0.79390000  1.0 -0.3857695494
N  N51  1  0.71710000  0.51100000  0.93250000  1.0 -0.3857695494
N  N52  1  0.57850000  0.78460000  0.06750000  1.0 -0.3857695494
N  N53  1  0.20610000  0.42150000  0.48900000  1.0 -0.3857695494
N  N54  1  0.79390000  0.28290000  0.21540000  1.0 -0.3857695494
N  N55  1  0.93250000  0.71710000  0.51100000  1.0 -0.3857695494
N  N56  1  0.06750000  0.57850000  0.78460000  1.0 -0.3841743015
N  N57  1  0.48900000  0.20610000  0.42150000  1.0 -0.3857695494
N  N58  1  0.21540000  0.79390000  0.28290000  1.0 -0.3841743015
N  N59  1  0.51100000  0.93250000  0.71710000  1.0 -0.3857695494
N  N60  1  0.78460000  0.06750000  0.57850000  1.0 -0.3857695494
N  N61  1  0.78460000  0.71710000  0.20610000  1.0 -0.3857695494
N  N62  1  0.51100000  0.57850000  0.79390000  1.0 -0.3857695494
N  N63  1  0.21540000  0.42150000  0.93250000  1.0 -0.3857695494
N  N64  1  0.48900000  0.28290000  0.06750000  1.0 -0.3857695494
N  N65  1  0.28290000  0.06750000  0.48900000  1.0 -0.3857695494
N  N66  1  0.42150000  0.93250000  0.21540000  1.0 -0.3857695494
N  N67  1  0.57850000  0.79390000  0.51100000  1.0 -0.3857695494
N  N68  1  0.71710000  0.20610000  0.78460000  1.0 -0.3841743015
N  N69  1  0.93250000  0.21540000  0.42150000  1.0 -0.3857695494
N  N70  1  0.06750000  0.48900000  0.28290000  1.0 -0.3857695494
N  N71  1  0.20610000  0.78460000  0.71710000  1.0 -0.3857695494
N  N72  1  0.79390000  0.51100000  0.57850000  1.0 -0.3857695494
O  O1  1  0.55910000  0.35210000  0.79300000  1.0 -0.768907072
O  O2  1  0.55910000  0.76610000  0.20700000  1.0 -0.768907072
O  O3  1  0.44090000  0.64790000  0.20700000  1.0 -0.768907072
O  O4  1  0.44090000  0.23390000  0.79300000  1.0 -0.768907072
O  O5  1  0.79300000  0.55910000  0.35210000  1.0 -0.768907072
O  O6  1  0.20700000  0.55910000  0.76610000  1.0 -0.768907072
O  O7  1  0.20700000  0.44090000  0.64790000  1.0 -0.768907072
O  O8  1  0.79300000  0.44090000  0.23390000  1.0 -0.768907072
O  O9  1  0.35210000  0.79300000  0.55910000  1.0 -0.768907072
O  O10  1  0.76610000  0.20700000  0.55910000  1.0 -0.768907072
O  O11  1  0.64790000  0.20700000  0.44090000  1.0 -0.768907072
O  O12  1  0.23390000  0.79300000  0.44090000  1.0 -0.768907072
O  O13  1  0.23390000  0.44090000  0.79300000  1.0 -0.768907072
O  O14  1  0.64790000  0.44090000  0.20700000  1.0 -0.768907072
O  O15  1  0.76610000  0.55910000  0.20700000  1.0 -0.768907072
O  O16  1  0.35210000  0.55910000  0.79300000  1.0 -0.768907072
O  O17  1  0.55910000  0.79300000  0.35210000  1.0 -0.768907072
O  O18  1  0.55910000  0.20700000  0.76610000  1.0 -0.768907072
O  O19  1  0.44090000  0.20700000  0.64790000  1.0 -0.768907072
O  O20  1  0.44090000  0.79300000  0.23390000  1.0 -0.768907072
O  O21  1  0.20700000  0.76610000  0.55910000  1.0 -0.768907072
O  O22  1  0.79300000  0.35210000  0.55910000  1.0 -0.768907072
O  O23  1  0.79300000  0.23390000  0.44090000  1.0 -0.768907072
O  O24  1  0.20700000  0.64790000  0.44090000  1.0 -0.768907072
