# DDEC6 charges by PACMAN v1.1 (https://github.com/mtap-research/PACMAN-charge/)
data_ALIDEH_ASR_pacman
_symmetry_space_group_name_H-M   'P 1'
_cell_length_a   13.13160000
_cell_length_b   6.57160000
_cell_length_c   19.00830000
_cell_angle_alpha   90.00000000
_cell_angle_beta   124.68100000
_cell_angle_gamma   90.00000000
_symmetry_Int_Tables_number   1
_chemical_formula_structural   YH5C8O7
_chemical_formula_sum   'Y4 H20 C32 O28'
_cell_volume   1348.89965724
_cell_formula_units_Z   4
loop_
 _symmetry_equiv_pos_site_id
 _symmetry_equiv_pos_as_xyz
  1  'x, y, z'
loop_
 _atom_site_type_symbol
 _atom_site_label
 _atom_site_symmetry_multiplicity
 _atom_site_fract_x
 _atom_site_fract_y
 _atom_site_fract_z
 _atom_site_occupancy
 _atom_site_charge
Y  Y1  1  0.04583000  0.08437000  0.71394000  1.0 1.7496332346
Y  Y2  1  0.95417000  0.58437000  0.78606000  1.0 1.7496332346
Y  Y3  1  0.95417000  0.91563000  0.28606000  1.0 1.7496332346
Y  Y4  1  0.04583000  0.41563000  0.21394000  1.0 1.7496332346
H  H1  1  0.34670000  0.73480000  0.97040000  1.0 0.1343946425
H  H2  1  0.04080000  0.17940000  0.46880000  1.0 0.1483420251
H  H3  1  0.36950000  0.13310000  0.86860000  1.0 0.2833230613
H  H4  1  0.44670000  0.19600000  0.92030000  1.0 0.1189954827
H  H5  1  0.26000000  0.77810000  0.92360000  1.0 0.2894184037
H  H6  1  0.65330000  0.23480000  0.52960000  1.0 0.1343946425
H  H7  1  0.95920000  0.67940000  0.03120000  1.0 0.1483420251
H  H8  1  0.63050000  0.63310000  0.63140000  1.0 0.2833230613
H  H9  1  0.55330000  0.69600000  0.57970000  1.0 0.1189954827
H  H10  1  0.74000000  0.27810000  0.57640000  1.0 0.2894184037
H  H11  1  0.65330000  0.26520000  0.02960000  1.0 0.1343946425
H  H12  1  0.95920000  0.82060000  0.53120000  1.0 0.1483420251
H  H13  1  0.63050000  0.86690000  0.13140000  1.0 0.2833230613
H  H14  1  0.55330000  0.80400000  0.07970000  1.0 0.1189954827
H  H15  1  0.74000000  0.22190000  0.07640000  1.0 0.2894184037
H  H16  1  0.34670000  0.76520000  0.47040000  1.0 0.1343946425
H  H17  1  0.04080000  0.32060000  0.96880000  1.0 0.1483420251
H  H18  1  0.36950000  0.36690000  0.36860000  1.0 0.2833230613
H  H19  1  0.44670000  0.30400000  0.42030000  1.0 0.1189954827
H  H20  1  0.26000000  0.72190000  0.42360000  1.0 0.2894184037
C  C1  1  0.24230000  0.42470000  0.86530000  1.0 0.6314257203
C  C2  1  0.37540000  0.46040000  0.93470000  1.0 -0.2571694435
C  C3  1  0.46800000  0.31840000  0.95240000  1.0 0.0815732895
C  C4  1  0.40920000  0.63940000  0.98260000  1.0 0.0499196961
C  C5  1  0.01380000  0.43650000  0.35570000  1.0 0.639847499
C  C6  1  0.00458000  0.47380000  0.42908000  1.0 -0.1363801839
C  C7  1  0.01920000  0.32760000  0.55320000  1.0 0.332955998
C  C8  1  0.02380000  0.30920000  0.48190000  1.0 -0.2210958222
C  C9  1  0.75770000  0.92470000  0.63470000  1.0 0.6314257203
C  C10  1  0.62460000  0.96040000  0.56530000  1.0 -0.2571694435
C  C11  1  0.53200000  0.81840000  0.54760000  1.0 0.0815732895
C  C12  1  0.59080000  0.13940000  0.51740000  1.0 0.0499196961
C  C13  1  0.98620000  0.93650000  0.14430000  1.0 0.639847499
C  C14  1  0.99542000  0.97380000  0.07092000  1.0 -0.1363801839
C  C15  1  0.98080000  0.82760000  0.94680000  1.0 0.332955998
C  C16  1  0.97620000  0.80920000  0.01810000  1.0 -0.2210958222
C  C17  1  0.75770000  0.57530000  0.13470000  1.0 0.6314257203
C  C18  1  0.62460000  0.53960000  0.06530000  1.0 -0.2571694435
C  C19  1  0.53200000  0.68160000  0.04760000  1.0 0.0815732895
C  C20  1  0.59080000  0.36060000  0.01740000  1.0 0.0499196961
C  C21  1  0.98620000  0.56350000  0.64430000  1.0 0.639847499
C  C22  1  0.99542000  0.52620000  0.57092000  1.0 -0.1363801839
C  C23  1  0.98080000  0.67240000  0.44680000  1.0 0.332955998
C  C24  1  0.97620000  0.69080000  0.51810000  1.0 -0.2210958222
C  C25  1  0.24230000  0.07530000  0.36530000  1.0 0.6314257203
C  C26  1  0.37540000  0.03960000  0.43470000  1.0 -0.2571694435
C  C27  1  0.46800000  0.18160000  0.45240000  1.0 0.0815732895
C  C28  1  0.40920000  0.86060000  0.48260000  1.0 0.0499196961
C  C29  1  0.01380000  0.06350000  0.85570000  1.0 0.639847499
C  C30  1  0.00458000  0.02620000  0.92908000  1.0 -0.1363801839
C  C31  1  0.01920000  0.17240000  0.05320000  1.0 0.332955998
C  C32  1  0.02380000  0.19080000  0.98190000  1.0 -0.2210958222
O  O1  1  0.21574000  0.26630000  0.81919000  1.0 -0.6142892422
O  O2  1  0.16498000  0.55390000  0.85596000  1.0 -0.5789389195
O  O3  1  0.44590000  0.14450000  0.90600000  1.0 -0.3414303543
O  O4  1  0.03332000  0.58540000  0.32096000  1.0 -0.6776401283
O  O5  1  0.00524000  0.26020000  0.32696000  1.0 -0.6332760261
O  O6  1  0.04067000  0.16680000  0.60236000  1.0 -0.6332760261
O  O7  1  0.33320000  0.80800000  0.96300000  1.0 -0.3663329067
O  O8  1  0.78426000  0.76630000  0.68081000  1.0 -0.6142892422
O  O9  1  0.83502000  0.05390000  0.64404000  1.0 -0.5789389195
O  O10  1  0.55410000  0.64450000  0.59400000  1.0 -0.3414303543
O  O11  1  0.96668000  0.08540000  0.17904000  1.0 -0.6776401283
O  O12  1  0.99476000  0.76020000  0.17304000  1.0 -0.6332760261
O  O13  1  0.95933000  0.66680000  0.89764000  1.0 -0.6332760261
O  O14  1  0.66680000  0.30800000  0.53700000  1.0 -0.3663329067
O  O15  1  0.78426000  0.73370000  0.18081000  1.0 -0.6142892422
O  O16  1  0.83502000  0.44610000  0.14404000  1.0 -0.5789389195
O  O17  1  0.55410000  0.85550000  0.09400000  1.0 -0.3414303543
O  O18  1  0.96668000  0.41460000  0.67904000  1.0 -0.6776401283
O  O19  1  0.99476000  0.73980000  0.67304000  1.0 -0.6332760261
O  O20  1  0.95933000  0.83320000  0.39764000  1.0 -0.6332760261
O  O21  1  0.66680000  0.19200000  0.03700000  1.0 -0.3663329067
O  O22  1  0.21574000  0.23370000  0.31919000  1.0 -0.6142892422
O  O23  1  0.16498000  0.94610000  0.35596000  1.0 -0.5789389195
O  O24  1  0.44590000  0.35550000  0.40600000  1.0 -0.3414303543
O  O25  1  0.03332000  0.91460000  0.82096000  1.0 -0.6776401283
O  O26  1  0.00524000  0.23980000  0.82696000  1.0 -0.6332760261
O  O27  1  0.04067000  0.33320000  0.10236000  1.0 -0.6332760261
O  O28  1  0.33320000  0.69200000  0.46300000  1.0 -0.3663329067
