# DDEC6 charges by PACMAN v1.1 (https://github.com/mtap-research/PACMAN-charge/)
data_ALIXAU_ASR_pacman
_symmetry_space_group_name_H-M   'P 1'
_cell_length_a   15.75400000
_cell_length_b   15.75400000
_cell_length_c   15.75400000
_cell_angle_alpha   90.00000000
_cell_angle_beta   90.00000000
_cell_angle_gamma   90.00000000
_symmetry_Int_Tables_number   1
_chemical_formula_structural   Cu12H49C96(N24O23)2
_chemical_formula_sum   'Cu12 H49 C96 N48 O46'
_cell_volume   3909.96188106
_cell_formula_units_Z   1
loop_
 _symmetry_equiv_pos_site_id
 _symmetry_equiv_pos_as_xyz
  1  'x, y, z'
loop_
 _atom_site_type_symbol
 _atom_site_label
 _atom_site_symmetry_multiplicity
 _atom_site_fract_x
 _atom_site_fract_y
 _atom_site_fract_z
 _atom_site_occupancy
 _atom_site_charge
Cu  Cu1  1  0.50000000  0.25000000  0.75000000  1.0 0.7021989987
Cu  Cu2  1  0.00000000  0.25000000  0.75000000  1.0 0.7021989987
Cu  Cu3  1  0.75000000  0.50000000  0.25000000  1.0 0.7021989987
Cu  Cu4  1  0.75000000  0.00000000  0.25000000  1.0 0.7021989987
Cu  Cu5  1  0.25000000  0.75000000  0.50000000  1.0 0.6745504902
Cu  Cu6  1  0.25000000  0.75000000  0.00000000  1.0 0.7021989987
Cu  Cu7  1  0.50000000  0.75000000  0.25000000  1.0 0.7021989987
Cu  Cu8  1  0.00000000  0.75000000  0.25000000  1.0 0.7021989987
Cu  Cu9  1  0.25000000  0.50000000  0.75000000  1.0 0.7021989987
Cu  Cu10  1  0.25000000  0.00000000  0.75000000  1.0 0.7021989987
Cu  Cu11  1  0.75000000  0.25000000  0.50000000  1.0 0.7021989987
Cu  Cu12  1  0.75000000  0.25000000  0.00000000  1.0 0.6883515285
H  H1  1  0.42484000  0.76416000  0.56841000  1.0 0.1073218243
H  H2  1  0.62196000  0.29629000  0.87664000  1.0 0.1018307113
H  H3  1  0.65603000  0.98200000  0.83718000  1.0 0.1809077344
H  H4  1  0.87804000  0.20371000  0.87664000  1.0 0.1208218874
H  H5  1  0.84397000  0.51800000  0.83718000  1.0 0.1809077344
H  H6  1  0.87804000  0.29629000  0.62336000  1.0 0.1018307113
H  H7  1  0.83718000  0.98200000  0.65603000  1.0 0.1809077344
H  H8  1  0.62196000  0.20371000  0.62336000  1.0 0.1073218243
H  H9  1  0.65603000  0.51800000  0.66282000  1.0 0.1809077344
H  H10  1  0.87664000  0.62196000  0.29629000  1.0 0.1073218243
H  H11  1  0.83718000  0.65603000  0.98200000  1.0 0.1809077344
H  H12  1  0.87664000  0.87804000  0.20371000  1.0 0.1073218243
H  H13  1  0.84397000  0.83718000  0.51800000  1.0 0.1809077344
H  H14  1  0.62336000  0.87804000  0.29629000  1.0 0.1073218243
H  H15  1  0.65603000  0.83718000  0.98200000  1.0 0.1809077344
H  H16  1  0.62336000  0.62196000  0.20371000  1.0 0.1073218243
H  H17  1  0.66282000  0.65603000  0.51800000  1.0 0.1809077344
H  H18  1  0.29629000  0.87664000  0.62196000  1.0 0.0938320548
H  H19  1  0.98200000  0.83718000  0.65603000  1.0 0.1809077344
H  H20  1  0.20371000  0.87664000  0.87804000  1.0 0.1073218243
H  H21  1  0.51800000  0.84397000  0.83718000  1.0 0.1809077344
H  H22  1  0.29629000  0.62336000  0.87804000  1.0 0.1073218243
H  H23  1  0.98200000  0.65603000  0.83718000  1.0 0.1809077344
H  H24  1  0.20371000  0.62336000  0.62196000  1.0 0.1073218243
H  H25  1  0.51800000  0.66282000  0.65603000  1.0 0.1702999191
H  H26  1  0.79629000  0.12196000  0.12336000  1.0 0.1073218243
H  H27  1  0.48200000  0.16282000  0.15603000  1.0 0.1809077344
H  H28  1  0.70371000  0.37804000  0.12336000  1.0 0.1018307113
H  H29  1  0.01800000  0.33718000  0.15603000  1.0 0.1809077344
H  H30  1  0.79629000  0.37804000  0.37664000  1.0 0.1073218243
H  H31  1  0.48200000  0.34397000  0.33718000  1.0 0.1809077344
H  H32  1  0.70371000  0.12196000  0.37664000  1.0 0.1073218243
H  H33  1  0.01800000  0.15603000  0.33718000  1.0 0.1809077344
H  H34  1  0.12196000  0.37664000  0.70371000  1.0 0.1073218243
H  H35  1  0.15603000  0.33718000  0.01800000  1.0 0.1809077344
H  H36  1  0.37804000  0.37664000  0.79629000  1.0 0.1073218243
H  H37  1  0.34397000  0.33718000  0.48200000  1.0 0.1809077344
H  H38  1  0.37804000  0.12336000  0.70371000  1.0 0.1073218243
H  H39  1  0.33718000  0.15603000  0.01800000  1.0 0.1809077344
H  H40  1  0.12196000  0.12336000  0.79629000  1.0 0.1073218243
H  H41  1  0.16282000  0.15603000  0.48200000  1.0 0.1809077344
H  H42  1  0.37664000  0.79629000  0.37804000  1.0 0.1018307113
H  H43  1  0.34397000  0.48200000  0.33718000  1.0 0.1809077344
H  H44  1  0.37664000  0.70371000  0.12196000  1.0 0.1073218243
H  H45  1  0.33718000  0.01800000  0.15603000  1.0 0.1809077344
H  H46  1  0.12336000  0.79629000  0.12196000  1.0 0.1073218243
H  H47  1  0.16282000  0.48200000  0.15603000  1.0 0.1809077344
H  H48  1  0.12336000  0.70371000  0.37804000  1.0 0.1073218243
H  H49  1  0.15603000  0.01800000  0.33718000  1.0 0.1809077344
C  C1  1  0.60010000  0.10390000  0.79420000  1.0 0.4892429456
C  C2  1  0.89990000  0.39610000  0.79420000  1.0 0.4892429456
C  C3  1  0.89990000  0.10390000  0.70580000  1.0 0.4892429456
C  C4  1  0.60010000  0.39610000  0.70580000  1.0 0.4892429456
C  C5  1  0.79420000  0.60010000  0.10390000  1.0 0.4892429456
C  C6  1  0.79420000  0.89990000  0.39610000  1.0 0.4892429456
C  C7  1  0.70580000  0.89990000  0.10390000  1.0 0.4892429456
C  C8  1  0.70580000  0.60010000  0.39610000  1.0 0.4892429456
C  C9  1  0.10390000  0.79420000  0.60010000  1.0 0.4892429456
C  C10  1  0.39610000  0.79420000  0.89990000  1.0 0.4844681785
C  C11  1  0.10390000  0.70580000  0.89990000  1.0 0.4892429456
C  C12  1  0.39610000  0.70580000  0.60010000  1.0 0.2029712216
C  C13  1  0.60390000  0.10010000  0.20580000  1.0 0.4892429456
C  C14  1  0.89610000  0.39990000  0.20580000  1.0 0.4892429456
C  C15  1  0.60390000  0.39990000  0.29420000  1.0 0.4892429456
C  C16  1  0.89610000  0.10010000  0.29420000  1.0 0.4892429456
C  C17  1  0.10010000  0.29420000  0.89610000  1.0 0.4892429456
C  C18  1  0.39990000  0.29420000  0.60390000  1.0 0.4892429456
C  C19  1  0.39990000  0.20580000  0.89610000  1.0 0.4892429456
C  C20  1  0.10010000  0.20580000  0.60390000  1.0 0.4892429456
C  C21  1  0.29420000  0.60390000  0.39990000  1.0 0.4892429456
C  C22  1  0.29420000  0.89610000  0.10010000  1.0 0.4892429456
C  C23  1  0.20580000  0.60390000  0.10010000  1.0 0.4892429456
C  C24  1  0.20580000  0.89610000  0.39990000  1.0 0.4892429456
C  C25  1  0.39990000  0.89610000  0.20580000  1.0 0.4892429456
C  C26  1  0.10010000  0.60390000  0.20580000  1.0 0.4892429456
C  C27  1  0.10010000  0.89610000  0.29420000  1.0 0.4892429456
C  C28  1  0.39990000  0.60390000  0.29420000  1.0 0.4892429456
C  C29  1  0.20580000  0.39990000  0.89610000  1.0 0.4892429456
C  C30  1  0.20580000  0.10010000  0.60390000  1.0 0.4892429456
C  C31  1  0.29420000  0.10010000  0.89610000  1.0 0.4892429456
C  C32  1  0.29420000  0.39990000  0.60390000  1.0 0.4892429456
C  C33  1  0.89610000  0.20580000  0.39990000  1.0 0.4892429456
C  C34  1  0.60390000  0.20580000  0.10010000  1.0 0.4892429456
C  C35  1  0.89610000  0.29420000  0.10010000  1.0 0.4892429456
C  C36  1  0.60390000  0.29420000  0.39990000  1.0 0.4892429456
C  C37  1  0.39610000  0.89990000  0.79420000  1.0 0.4844681785
C  C38  1  0.10390000  0.60010000  0.79420000  1.0 0.4892429456
C  C39  1  0.39610000  0.60010000  0.70580000  1.0 0.4844681785
C  C40  1  0.10390000  0.89990000  0.70580000  1.0 0.4892429456
C  C41  1  0.89990000  0.70580000  0.10390000  1.0 0.4892429456
C  C42  1  0.60010000  0.70580000  0.39610000  1.0 0.4844681785
C  C43  1  0.60010000  0.79420000  0.10390000  1.0 0.4892429456
C  C44  1  0.89990000  0.79420000  0.39610000  1.0 0.4892429456
C  C45  1  0.70580000  0.39610000  0.60010000  1.0 0.4892429456
C  C46  1  0.70580000  0.10390000  0.89990000  1.0 0.4892429456
C  C47  1  0.79420000  0.39610000  0.89990000  1.0 0.1423849405
C  C48  1  0.79420000  0.10390000  0.60010000  1.0 0.4892429456
C  C49  1  0.63100000  0.22490000  0.86900000  1.0 0.2406327293
C  C50  1  0.65560000  0.05400000  0.84440000  1.0 -0.4193032236
C  C51  1  0.86900000  0.27510000  0.86900000  1.0 0.2311923818
C  C52  1  0.84440000  0.44600000  0.84440000  1.0 -0.2997298672
C  C53  1  0.86900000  0.22490000  0.63100000  1.0 0.2510983778
C  C54  1  0.84440000  0.05400000  0.65560000  1.0 -0.4193032236
C  C55  1  0.63100000  0.27510000  0.63100000  1.0 0.2510983778
C  C56  1  0.65560000  0.44600000  0.65560000  1.0 -0.4295068032
C  C57  1  0.86900000  0.63100000  0.22490000  1.0 0.2510983778
C  C58  1  0.84440000  0.65560000  0.05400000  1.0 -0.4295068032
C  C59  1  0.86900000  0.86900000  0.27510000  1.0 0.2510983778
C  C60  1  0.84440000  0.84440000  0.44600000  1.0 -0.4193032236
C  C61  1  0.63100000  0.86900000  0.22490000  1.0 0.2510983778
C  C62  1  0.65560000  0.84440000  0.05400000  1.0 -0.4193032236
C  C63  1  0.63100000  0.63100000  0.27510000  1.0 0.2510983778
C  C64  1  0.65560000  0.65560000  0.44600000  1.0 -0.4193032236
C  C65  1  0.22490000  0.86900000  0.63100000  1.0 0.2406327293
C  C66  1  0.05400000  0.84440000  0.65560000  1.0 -0.4193032236
C  C67  1  0.27510000  0.86900000  0.86900000  1.0 0.2510983778
C  C68  1  0.44600000  0.84440000  0.84440000  1.0 -0.4295068032
C  C69  1  0.22490000  0.63100000  0.86900000  1.0 0.2510983778
C  C70  1  0.05400000  0.65560000  0.84440000  1.0 -0.4193032236
C  C71  1  0.27510000  0.63100000  0.63100000  1.0 0.2406327293
C  C72  1  0.44600000  0.65560000  0.65560000  1.0 -0.2833233013
C  C73  1  0.72490000  0.13100000  0.13100000  1.0 0.2510983778
C  C74  1  0.55400000  0.15560000  0.15560000  1.0 -0.4193032236
C  C75  1  0.77510000  0.36900000  0.13100000  1.0 0.2218590171
C  C76  1  0.94600000  0.34440000  0.15560000  1.0 -0.4193032236
C  C77  1  0.72490000  0.36900000  0.36900000  1.0 0.2510983778
C  C78  1  0.55400000  0.34440000  0.34440000  1.0 -0.4193032236
C  C79  1  0.77510000  0.13100000  0.36900000  1.0 0.2510983778
C  C80  1  0.94600000  0.15560000  0.34440000  1.0 -0.4193032236
C  C81  1  0.13100000  0.36900000  0.77510000  1.0 0.2510983778
C  C82  1  0.15560000  0.34440000  0.94600000  1.0 -0.4193032236
C  C83  1  0.36900000  0.36900000  0.72490000  1.0 0.2510983778
C  C84  1  0.34440000  0.34440000  0.55400000  1.0 -0.4193032236
C  C85  1  0.36900000  0.13100000  0.77510000  1.0 0.2510983778
C  C86  1  0.34440000  0.15560000  0.94600000  1.0 -0.4193032236
C  C87  1  0.13100000  0.13100000  0.72490000  1.0 0.2510983778
C  C88  1  0.15560000  0.15560000  0.55400000  1.0 -0.4193032236
C  C89  1  0.36900000  0.72490000  0.36900000  1.0 0.2218590171
C  C90  1  0.34440000  0.55400000  0.34440000  1.0 -0.4193032236
C  C91  1  0.36900000  0.77510000  0.13100000  1.0 0.2510983778
C  C92  1  0.34440000  0.94600000  0.15560000  1.0 -0.4193032236
C  C93  1  0.13100000  0.72490000  0.13100000  1.0 0.2510983778
C  C94  1  0.15560000  0.55400000  0.15560000  1.0 -0.4193032236
C  C95  1  0.13100000  0.77510000  0.36900000  1.0 0.2510983778
C  C96  1  0.15560000  0.94600000  0.34440000  1.0 -0.4193032236
N  N1  1  0.58310000  0.18080000  0.81080000  1.0 -0.3137495449
N  N2  1  0.91690000  0.31920000  0.81080000  1.0 -0.2997298672
N  N3  1  0.91690000  0.18080000  0.68920000  1.0 -0.3179727495
N  N4  1  0.58310000  0.31920000  0.68920000  1.0 -0.3179727495
N  N5  1  0.81080000  0.58310000  0.18080000  1.0 -0.3137495449
N  N6  1  0.81080000  0.91690000  0.31920000  1.0 -0.3137495449
N  N7  1  0.68920000  0.91690000  0.18080000  1.0 -0.3137495449
N  N8  1  0.68920000  0.58310000  0.31920000  1.0 -0.3137495449
N  N9  1  0.18080000  0.81080000  0.58310000  1.0 -0.3137495449
N  N10  1  0.31920000  0.81080000  0.91690000  1.0 -0.3137495449
N  N11  1  0.18080000  0.68920000  0.91690000  1.0 -0.3137495449
N  N12  1  0.31920000  0.68920000  0.58310000  1.0 -0.2319054141
N  N13  1  0.68080000  0.08310000  0.18920000  1.0 -0.3137495449
N  N14  1  0.81920000  0.41690000  0.18920000  1.0 -0.3137495449
N  N15  1  0.68080000  0.41690000  0.31080000  1.0 -0.3137495449
N  N16  1  0.81920000  0.08310000  0.31080000  1.0 -0.3137495449
N  N17  1  0.08310000  0.31080000  0.81920000  1.0 -0.3179727495
N  N18  1  0.41690000  0.31080000  0.68080000  1.0 -0.3137495449
N  N19  1  0.41690000  0.18920000  0.81920000  1.0 -0.3137495449
N  N20  1  0.08310000  0.18920000  0.68080000  1.0 -0.3137495449
N  N21  1  0.31080000  0.68080000  0.41690000  1.0 -0.3179727495
N  N22  1  0.31080000  0.81920000  0.08310000  1.0 -0.3137495449
N  N23  1  0.18920000  0.68080000  0.08310000  1.0 -0.3137495449
N  N24  1  0.18920000  0.81920000  0.41690000  1.0 -0.3137495449
N  N25  1  0.41690000  0.81920000  0.18920000  1.0 -0.3137495449
N  N26  1  0.08310000  0.68080000  0.18920000  1.0 -0.3137495449
N  N27  1  0.08310000  0.81920000  0.31080000  1.0 -0.3137495449
N  N28  1  0.41690000  0.68080000  0.31080000  1.0 -0.3137495449
N  N29  1  0.18920000  0.41690000  0.81920000  1.0 -0.3137495449
N  N30  1  0.18920000  0.08310000  0.68080000  1.0 -0.3137495449
N  N31  1  0.31080000  0.08310000  0.81920000  1.0 -0.3137495449
N  N32  1  0.31080000  0.41690000  0.68080000  1.0 -0.3179727495
N  N33  1  0.81920000  0.18920000  0.41690000  1.0 -0.3137495449
N  N34  1  0.68080000  0.18920000  0.08310000  1.0 -0.3179727495
N  N35  1  0.81920000  0.31080000  0.08310000  1.0 -0.3265329136
N  N36  1  0.68080000  0.31080000  0.41690000  1.0 -0.3137495449
N  N37  1  0.31920000  0.91690000  0.81080000  1.0 -0.3179727495
N  N38  1  0.18080000  0.58310000  0.81080000  1.0 -0.3179727495
N  N39  1  0.31920000  0.58310000  0.68920000  1.0 -0.2997298672
N  N40  1  0.18080000  0.91690000  0.68920000  1.0 -0.3137495449
N  N41  1  0.91690000  0.68920000  0.18080000  1.0 -0.3137495449
N  N42  1  0.58310000  0.68920000  0.31920000  1.0 -0.3137495449
N  N43  1  0.58310000  0.81080000  0.18080000  1.0 -0.3137495449
N  N44  1  0.91690000  0.81080000  0.31920000  1.0 -0.3137495449
N  N45  1  0.68920000  0.31920000  0.58310000  1.0 -0.3137495449
N  N46  1  0.68920000  0.18080000  0.91690000  1.0 -0.3179727495
N  N47  1  0.81080000  0.31920000  0.91690000  1.0 -0.1673966183
N  N48  1  0.81080000  0.18080000  0.58310000  1.0 -0.3137495449
O  O1  1  0.55000000  0.07900000  0.73100000  1.0 -0.4193032236
O  O2  1  0.95000000  0.42100000  0.73100000  1.0 -0.4130679403
O  O3  1  0.95000000  0.07900000  0.76900000  1.0 -0.4193032236
O  O4  1  0.55000000  0.42100000  0.76900000  1.0 -0.4295068032
O  O5  1  0.73100000  0.55000000  0.07900000  1.0 -0.4542457594
O  O6  1  0.73100000  0.95000000  0.42100000  1.0 -0.4193032236
O  O7  1  0.76900000  0.95000000  0.07900000  1.0 -0.4193032236
O  O8  1  0.76900000  0.55000000  0.42100000  1.0 -0.4193032236
O  O9  1  0.07900000  0.73100000  0.55000000  1.0 -0.4193032236
O  O10  1  0.42100000  0.73100000  0.95000000  1.0 -0.4193032236
O  O11  1  0.07900000  0.76900000  0.95000000  1.0 -0.4193032236
O  O12  1  0.57900000  0.05000000  0.26900000  1.0 -0.4193032236
O  O13  1  0.92100000  0.45000000  0.26900000  1.0 -0.4130679403
O  O14  1  0.57900000  0.45000000  0.23100000  1.0 -0.4193032236
O  O15  1  0.92100000  0.05000000  0.23100000  1.0 -0.4193032236
O  O16  1  0.05000000  0.23100000  0.92100000  1.0 -0.4295068032
O  O17  1  0.45000000  0.23100000  0.57900000  1.0 -0.4193032236
O  O18  1  0.45000000  0.26900000  0.92100000  1.0 -0.4193032236
O  O19  1  0.05000000  0.26900000  0.57900000  1.0 -0.4193032236
O  O20  1  0.23100000  0.57900000  0.45000000  1.0 -0.4193032236
O  O21  1  0.23100000  0.92100000  0.05000000  1.0 -0.4193032236
O  O22  1  0.26900000  0.57900000  0.05000000  1.0 -0.4193032236
O  O23  1  0.26900000  0.92100000  0.45000000  1.0 -0.4373055979
O  O24  1  0.45000000  0.92100000  0.26900000  1.0 -0.4193032236
O  O25  1  0.05000000  0.57900000  0.26900000  1.0 -0.4193032236
O  O26  1  0.05000000  0.92100000  0.23100000  1.0 -0.4193032236
O  O27  1  0.45000000  0.57900000  0.23100000  1.0 -0.4193032236
O  O28  1  0.26900000  0.45000000  0.92100000  1.0 -0.4193032236
O  O29  1  0.26900000  0.05000000  0.57900000  1.0 -0.4295068032
O  O30  1  0.23100000  0.05000000  0.92100000  1.0 -0.4193032236
O  O31  1  0.23100000  0.45000000  0.57900000  1.0 -0.4193032236
O  O32  1  0.92100000  0.26900000  0.45000000  1.0 -0.4193032236
O  O33  1  0.57900000  0.26900000  0.05000000  1.0 -0.4295068032
O  O34  1  0.92100000  0.23100000  0.05000000  1.0 -0.4193032236
O  O35  1  0.57900000  0.23100000  0.45000000  1.0 -0.4193032236
O  O36  1  0.42100000  0.95000000  0.73100000  1.0 -0.4373055979
O  O37  1  0.07900000  0.55000000  0.73100000  1.0 -0.4295068032
O  O38  1  0.42100000  0.55000000  0.76900000  1.0 -0.4130679403
O  O39  1  0.07900000  0.95000000  0.76900000  1.0 -0.4193032236
O  O40  1  0.95000000  0.76900000  0.07900000  1.0 -0.4193032236
O  O41  1  0.55000000  0.76900000  0.42100000  1.0 -0.460400088
O  O42  1  0.55000000  0.73100000  0.07900000  1.0 -0.4193032236
O  O43  1  0.95000000  0.73100000  0.42100000  1.0 -0.4193032236
O  O44  1  0.76900000  0.42100000  0.55000000  1.0 -0.4193032236
O  O45  1  0.76900000  0.07900000  0.95000000  1.0 -0.4193032236
O  O46  1  0.73100000  0.07900000  0.55000000  1.0 -0.4193032236
