# DDEC6 charges by PACMAN v1.1 (https://github.com/mtap-research/PACMAN-charge/)
data_ALIXUP_FSR_pacman
_symmetry_space_group_name_H-M   'P 1'
_cell_length_a   8.13870000
_cell_length_b   18.46090000
_cell_length_c   18.65530000
_cell_angle_alpha   90.00000000
_cell_angle_beta   90.00000000
_cell_angle_gamma   90.00000000
_symmetry_Int_Tables_number   1
_chemical_formula_structural   Cu3H18C17O14
_chemical_formula_sum   'Cu12 H72 C68 O56'
_cell_volume   2802.91641833
_cell_formula_units_Z   4
loop_
 _symmetry_equiv_pos_site_id
 _symmetry_equiv_pos_as_xyz
  1  'x, y, z'
loop_
 _atom_site_type_symbol
 _atom_site_label
 _atom_site_symmetry_multiplicity
 _atom_site_fract_x
 _atom_site_fract_y
 _atom_site_fract_z
 _atom_site_occupancy
 _atom_site_charge
Cu  Cu1  1  0.20933000  0.06924000  0.58564000  1.0 0.9703476271
Cu  Cu2  1  0.20933000  0.43076000  0.91436000  1.0 0.9703476271
Cu  Cu3  1  0.29067000  0.93076000  0.08564000  1.0 0.9703476271
Cu  Cu4  1  0.29067000  0.56924000  0.41436000  1.0 0.9703476271
Cu  Cu5  1  0.79067000  0.93076000  0.41436000  1.0 0.9703476271
Cu  Cu6  1  0.79067000  0.56924000  0.08564000  1.0 0.9703476271
Cu  Cu7  1  0.70933000  0.06924000  0.91436000  1.0 0.9703476271
Cu  Cu8  1  0.70933000  0.43076000  0.58564000  1.0 0.9703476271
Cu  Cu9  1  0.00000000  0.50000000  0.50000000  1.0 1.0250183782
Cu  Cu10  1  0.00000000  0.00000000  0.00000000  1.0 1.0242308816
Cu  Cu11  1  0.50000000  0.50000000  0.00000000  1.0 1.0242308816
Cu  Cu12  1  0.50000000  0.00000000  0.50000000  1.0 1.0250183782
H  H1  1  0.19420000  0.28960000  0.48330000  1.0 0.1394084013
H  H2  1  0.19420000  0.21040000  0.01670000  1.0 0.1394084013
H  H3  1  0.30580000  0.71040000  0.98330000  1.0 0.1394084013
H  H4  1  0.30580000  0.78960000  0.51670000  1.0 0.1394084013
H  H5  1  0.80580000  0.71040000  0.51670000  1.0 0.1394084013
H  H6  1  0.80580000  0.78960000  0.98330000  1.0 0.1394084013
H  H7  1  0.69420000  0.28960000  0.01670000  1.0 0.1394084013
H  H8  1  0.69420000  0.21040000  0.48330000  1.0 0.1394084013
H  H9  1  0.42300000  0.36960000  0.30970000  1.0 0.1309585711
H  H10  1  0.42300000  0.13040000  0.19030000  1.0 0.1309585711
H  H11  1  0.07700000  0.63040000  0.80970000  1.0 0.1309585711
H  H12  1  0.07700000  0.86960000  0.69030000  1.0 0.1309585711
H  H13  1  0.57700000  0.63040000  0.69030000  1.0 0.1309585711
H  H14  1  0.57700000  0.86960000  0.80970000  1.0 0.1309585711
H  H15  1  0.92300000  0.36960000  0.19030000  1.0 0.1309585711
H  H16  1  0.92300000  0.13040000  0.30970000  1.0 0.1309585711
H  H17  1  0.41680000  0.15540000  0.34450000  1.0 0.12455252
H  H18  1  0.41680000  0.34460000  0.15550000  1.0 0.12455252
H  H19  1  0.08320000  0.84460000  0.84450000  1.0 0.12455252
H  H20  1  0.08320000  0.65540000  0.65550000  1.0 0.12455252
H  H21  1  0.58320000  0.84460000  0.65550000  1.0 0.12455252
H  H22  1  0.58320000  0.65540000  0.84450000  1.0 0.12455252
H  H23  1  0.91680000  0.15540000  0.15550000  1.0 0.12455252
H  H24  1  0.91680000  0.34460000  0.34450000  1.0 0.12455252
H  H25  1  0.61050000  0.29190000  0.24350000  1.0 0.12455252
H  H26  1  0.61050000  0.20810000  0.25650000  1.0 0.12455252
H  H27  1  0.88950000  0.70810000  0.74350000  1.0 0.12455252
H  H28  1  0.88950000  0.79190000  0.75650000  1.0 0.12455252
H  H29  1  0.38950000  0.70810000  0.75650000  1.0 0.12455252
H  H30  1  0.38950000  0.79190000  0.74350000  1.0 0.12455252
H  H31  1  0.11050000  0.29190000  0.25650000  1.0 0.12455252
H  H32  1  0.11050000  0.20810000  0.24350000  1.0 0.12455252
H  H33  1  0.00500000  0.55400000  0.37100000  1.0 0.39085829
H  H34  1  0.00500000  0.94600000  0.12900000  1.0 0.39085829
H  H35  1  0.49500000  0.44600000  0.87100000  1.0 0.39085829
H  H36  1  0.49500000  0.05400000  0.62900000  1.0 0.39085829
H  H37  1  0.99500000  0.44600000  0.62900000  1.0 0.39085829
H  H38  1  0.99500000  0.05400000  0.87100000  1.0 0.39085829
H  H39  1  0.50500000  0.55400000  0.12900000  1.0 0.39085829
H  H40  1  0.50500000  0.94600000  0.37100000  1.0 0.39085829
H  H41  1  0.90000000  0.04500000  0.61900000  1.0 0.4132862529
H  H42  1  0.90000000  0.45500000  0.88100000  1.0 0.4132862529
H  H43  1  0.60000000  0.95500000  0.11900000  1.0 0.4132862529
H  H44  1  0.60000000  0.54500000  0.38100000  1.0 0.4132862529
H  H45  1  0.10000000  0.95500000  0.38100000  1.0 0.4132862529
H  H46  1  0.10000000  0.54500000  0.11900000  1.0 0.4132862529
H  H47  1  0.40000000  0.04500000  0.88100000  1.0 0.4132862529
H  H48  1  0.40000000  0.45500000  0.61900000  1.0 0.4132862529
H  H49  1  0.93500000  0.05800000  0.54080000  1.0 0.39085829
H  H50  1  0.93500000  0.44200000  0.95920000  1.0 0.3951515397
H  H51  1  0.56500000  0.94200000  0.04080000  1.0 0.3951515397
H  H52  1  0.56500000  0.55800000  0.45920000  1.0 0.3951515397
H  H53  1  0.06500000  0.94200000  0.45920000  1.0 0.3951515397
H  H54  1  0.06500000  0.55800000  0.04080000  1.0 0.3951515397
H  H55  1  0.43500000  0.05800000  0.95920000  1.0 0.3951515397
H  H56  1  0.43500000  0.44200000  0.54080000  1.0 0.3951515397
H  H57  1  0.14300000  0.09200000  0.73100000  1.0 0.3613194069
H  H58  1  0.14300000  0.40800000  0.76900000  1.0 0.3613194069
H  H59  1  0.35700000  0.90800000  0.23100000  1.0 0.3613194069
H  H60  1  0.35700000  0.59200000  0.26900000  1.0 0.3613194069
H  H61  1  0.85700000  0.90800000  0.26900000  1.0 0.3613194069
H  H62  1  0.85700000  0.59200000  0.23100000  1.0 0.3613194069
H  H63  1  0.64300000  0.09200000  0.76900000  1.0 0.3613194069
H  H64  1  0.64300000  0.40800000  0.73100000  1.0 0.3613194069
H  H65  1  0.29500000  0.13700000  0.72000000  1.0 0.3842136106
H  H66  1  0.29500000  0.36300000  0.78000000  1.0 0.3842136106
H  H67  1  0.20500000  0.86300000  0.22000000  1.0 0.3842136106
H  H68  1  0.20500000  0.63700000  0.28000000  1.0 0.3842136106
H  H69  1  0.70500000  0.86300000  0.28000000  1.0 0.3842136106
H  H70  1  0.70500000  0.63700000  0.22000000  1.0 0.3842136106
H  H71  1  0.79500000  0.13700000  0.78000000  1.0 0.3842136106
H  H72  1  0.79500000  0.36300000  0.72000000  1.0 0.3842136106
C  C1  1  0.29890000  0.21280000  0.42153000  1.0 -0.0019117025
C  C2  1  0.29890000  0.28720000  0.07847000  1.0 -0.0019117025
C  C3  1  0.20110000  0.78720000  0.92153000  1.0 -0.0019117025
C  C4  1  0.20110000  0.71280000  0.57847000  1.0 -0.0019117025
C  C5  1  0.70110000  0.78720000  0.57847000  1.0 -0.0019117025
C  C6  1  0.70110000  0.71280000  0.92153000  1.0 -0.0019117025
C  C7  1  0.79890000  0.21280000  0.07847000  1.0 -0.0019117025
C  C8  1  0.79890000  0.28720000  0.42153000  1.0 -0.0019117025
C  C9  1  0.25420000  0.28220000  0.44150000  1.0 -0.1323455209
C  C10  1  0.25420000  0.21780000  0.05850000  1.0 -0.1323455209
C  C11  1  0.24580000  0.71780000  0.94150000  1.0 -0.1323455209
C  C12  1  0.24580000  0.78220000  0.55850000  1.0 -0.1323455209
C  C13  1  0.74580000  0.71780000  0.55850000  1.0 -0.1323455209
C  C14  1  0.74580000  0.78220000  0.94150000  1.0 -0.1323455209
C  C15  1  0.75420000  0.28220000  0.05850000  1.0 -0.1323455209
C  C16  1  0.75420000  0.21780000  0.44150000  1.0 -0.1323455209
C  C17  1  0.29900000  0.34100000  0.39930000  1.0 -0.0137235988
C  C18  1  0.29900000  0.15900000  0.10070000  1.0 -0.0137235988
C  C19  1  0.20100000  0.65900000  0.89930000  1.0 -0.0137235988
C  C20  1  0.20100000  0.84100000  0.60070000  1.0 -0.0137235988
C  C21  1  0.70100000  0.65900000  0.60070000  1.0 -0.0137235988
C  C22  1  0.70100000  0.84100000  0.89930000  1.0 -0.0137235988
C  C23  1  0.79900000  0.34100000  0.10070000  1.0 -0.0137235988
C  C24  1  0.79900000  0.15900000  0.39930000  1.0 -0.0137235988
C  C25  1  0.39170000  0.33010000  0.33741000  1.0 -0.1676486153
C  C26  1  0.39170000  0.16990000  0.16259000  1.0 -0.1676486153
C  C27  1  0.10830000  0.66990000  0.83741000  1.0 -0.1676486153
C  C28  1  0.10830000  0.83010000  0.66259000  1.0 -0.1676486153
C  C29  1  0.60830000  0.66990000  0.66259000  1.0 -0.1676486153
C  C30  1  0.60830000  0.83010000  0.83741000  1.0 -0.1676486153
C  C31  1  0.89170000  0.33010000  0.16259000  1.0 -0.1676486153
C  C32  1  0.89170000  0.16990000  0.33741000  1.0 -0.1676486153
C  C33  1  0.43760000  0.26060000  0.31694000  1.0 0.1394084013
C  C34  1  0.43760000  0.23940000  0.18306000  1.0 0.1394084013
C  C35  1  0.06240000  0.73940000  0.81694000  1.0 0.1394084013
C  C36  1  0.06240000  0.76060000  0.68306000  1.0 0.1394084013
C  C37  1  0.56240000  0.73940000  0.68306000  1.0 0.1394084013
C  C38  1  0.56240000  0.76060000  0.81694000  1.0 0.1394084013
C  C39  1  0.93760000  0.26060000  0.18306000  1.0 0.1394084013
C  C40  1  0.93760000  0.23940000  0.31694000  1.0 0.1394084013
C  C41  1  0.38910000  0.20210000  0.35860000  1.0 -0.1676486153
C  C42  1  0.38910000  0.29790000  0.14140000  1.0 -0.1676486153
C  C43  1  0.11090000  0.79790000  0.85860000  1.0 -0.1676486153
C  C44  1  0.11090000  0.70210000  0.64140000  1.0 -0.1676486153
C  C45  1  0.61090000  0.79790000  0.64140000  1.0 -0.1676486153
C  C46  1  0.61090000  0.70210000  0.85860000  1.0 -0.1676486153
C  C47  1  0.88910000  0.20210000  0.14140000  1.0 -0.1676486153
C  C48  1  0.88910000  0.29790000  0.35860000  1.0 -0.1676486153
C  C49  1  0.54020000  0.25000000  0.25000000  1.0 -0.3311878898
C  C50  1  0.95980000  0.75000000  0.75000000  1.0 -0.3311878898
C  C51  1  0.45980000  0.75000000  0.75000000  1.0 -0.3311878898
C  C52  1  0.04020000  0.25000000  0.25000000  1.0 -0.3311878898
C  C53  1  0.25440000  0.14960000  0.46800000  1.0 0.5699293903
C  C54  1  0.25440000  0.35040000  0.03200000  1.0 0.5699293903
C  C55  1  0.24560000  0.85040000  0.96800000  1.0 0.5699293903
C  C56  1  0.24560000  0.64960000  0.53200000  1.0 0.5699293903
C  C57  1  0.74560000  0.85040000  0.53200000  1.0 0.5699293903
C  C58  1  0.74560000  0.64960000  0.96800000  1.0 0.5699293903
C  C59  1  0.75440000  0.14960000  0.03200000  1.0 0.5699293903
C  C60  1  0.75440000  0.35040000  0.46800000  1.0 0.5699293903
C  C61  1  0.25020000  0.41640000  0.42020000  1.0 0.5699293903
C  C62  1  0.25020000  0.08360000  0.07980000  1.0 0.5699293903
C  C63  1  0.24980000  0.58360000  0.92020000  1.0 0.5699293903
C  C64  1  0.24980000  0.91640000  0.57980000  1.0 0.5699293903
C  C65  1  0.74980000  0.58360000  0.57980000  1.0 0.5699293903
C  C66  1  0.74980000  0.91640000  0.92020000  1.0 0.5699293903
C  C67  1  0.75020000  0.41640000  0.07980000  1.0 0.5699293903
C  C68  1  0.75020000  0.08360000  0.42020000  1.0 0.5699293903
O  O1  1  0.24750000  0.08743000  0.44293000  1.0 -0.6260680118
O  O2  1  0.24750000  0.41257000  0.05707000  1.0 -0.6260680118
O  O3  1  0.25250000  0.91257000  0.94293000  1.0 -0.6260680118
O  O4  1  0.25250000  0.58743000  0.55707000  1.0 -0.6260680118
O  O5  1  0.75250000  0.91257000  0.55707000  1.0 -0.6260680118
O  O6  1  0.75250000  0.58743000  0.94293000  1.0 -0.6260680118
O  O7  1  0.74750000  0.08743000  0.05707000  1.0 -0.6260680118
O  O8  1  0.74750000  0.41257000  0.44293000  1.0 -0.6260680118
O  O9  1  0.22730000  0.16322000  0.53457000  1.0 -0.5440022805
O  O10  1  0.22730000  0.33678000  0.96543000  1.0 -0.5440022805
O  O11  1  0.27270000  0.83678000  0.03457000  1.0 -0.5440022805
O  O12  1  0.27270000  0.66322000  0.46543000  1.0 -0.5440022805
O  O13  1  0.77270000  0.83678000  0.46543000  1.0 -0.5440022805
O  O14  1  0.77270000  0.66322000  0.03457000  1.0 -0.5440022805
O  O15  1  0.72730000  0.16322000  0.96543000  1.0 -0.5440022805
O  O16  1  0.72730000  0.33678000  0.53457000  1.0 -0.5440022805
O  O17  1  0.15130000  0.42224000  0.47229000  1.0 -0.5486874664
O  O18  1  0.15130000  0.07776000  0.02771000  1.0 -0.5486874664
O  O19  1  0.34870000  0.57776000  0.97229000  1.0 -0.5486874664
O  O20  1  0.34870000  0.92224000  0.52771000  1.0 -0.5486874664
O  O21  1  0.84870000  0.57776000  0.52771000  1.0 -0.5486874664
O  O22  1  0.84870000  0.92224000  0.97229000  1.0 -0.5486874664
O  O23  1  0.65130000  0.42224000  0.02771000  1.0 -0.5486874664
O  O24  1  0.65130000  0.07776000  0.47229000  1.0 -0.5486874664
O  O25  1  0.30780000  0.46729000  0.38477000  1.0 -0.5622688094
O  O26  1  0.30780000  0.03271000  0.11523000  1.0 -0.5622688094
O  O27  1  0.19220000  0.53271000  0.88477000  1.0 -0.5622688094
O  O28  1  0.19220000  0.96729000  0.61523000  1.0 -0.5622688094
O  O29  1  0.69220000  0.53271000  0.61523000  1.0 -0.5622688094
O  O30  1  0.69220000  0.96729000  0.88477000  1.0 -0.5622688094
O  O31  1  0.80780000  0.46729000  0.11523000  1.0 -0.5622688094
O  O32  1  0.80780000  0.03271000  0.38477000  1.0 -0.5622688094
O  O33  1  0.05330000  0.55719000  0.41685000  1.0 -0.8571917275
O  O34  1  0.05330000  0.94281000  0.08315000  1.0 -0.8571917275
O  O35  1  0.44670000  0.44281000  0.91685000  1.0 -0.8571917275
O  O36  1  0.44670000  0.05719000  0.58315000  1.0 -0.8571917275
O  O37  1  0.94670000  0.44281000  0.58315000  1.0 -0.8571917275
O  O38  1  0.94670000  0.05719000  0.91685000  1.0 -0.8571917275
O  O39  1  0.55330000  0.55719000  0.08315000  1.0 -0.8571917275
O  O40  1  0.55330000  0.94281000  0.41685000  1.0 -0.8571917275
O  O41  1  0.96380000  0.07420000  0.58770000  1.0 -0.6989726284
O  O42  1  0.96380000  0.42580000  0.91230000  1.0 -0.6989726284
O  O43  1  0.53620000  0.92580000  0.08770000  1.0 -0.6989726284
O  O44  1  0.53620000  0.57420000  0.41230000  1.0 -0.6989726284
O  O45  1  0.03620000  0.92580000  0.41230000  1.0 -0.6989726284
O  O46  1  0.03620000  0.57420000  0.08770000  1.0 -0.6989726284
O  O47  1  0.46380000  0.07420000  0.91230000  1.0 -0.6989726284
O  O48  1  0.46380000  0.42580000  0.58770000  1.0 -0.6989726284
O  O49  1  0.19840000  0.12080000  0.69890000  1.0 -0.7396286586
O  O50  1  0.19840000  0.37920000  0.80110000  1.0 -0.7396286586
O  O51  1  0.30160000  0.87920000  0.19890000  1.0 -0.7396286586
O  O52  1  0.30160000  0.62080000  0.30110000  1.0 -0.7396286586
O  O53  1  0.80160000  0.87920000  0.30110000  1.0 -0.7396286586
O  O54  1  0.80160000  0.62080000  0.19890000  1.0 -0.7396286586
O  O55  1  0.69840000  0.12080000  0.80110000  1.0 -0.7396286586
O  O56  1  0.69840000  0.37920000  0.69890000  1.0 -0.7396286586
