# DDEC6 charges by PACMAN v1.1 (https://github.com/mtap-research/PACMAN-charge/)
data_ALOLES_FSR_pacman
_symmetry_space_group_name_H-M   'P 1'
_cell_length_a   15.25610000
_cell_length_b   15.25610000
_cell_length_c   28.08600000
_cell_angle_alpha   88.88950000
_cell_angle_beta   91.11050000
_cell_angle_gamma   143.30300000
_symmetry_Int_Tables_number   1
_chemical_formula_structural   KBi3H12C18O23
_chemical_formula_sum   'K4 Bi12 H48 C72 O92'
_cell_volume   3905.57287713
_cell_formula_units_Z   4
loop_
 _symmetry_equiv_pos_site_id
 _symmetry_equiv_pos_as_xyz
  1  'x, y, z'
loop_
 _atom_site_type_symbol
 _atom_site_label
 _atom_site_symmetry_multiplicity
 _atom_site_fract_x
 _atom_site_fract_y
 _atom_site_fract_z
 _atom_site_occupancy
 _atom_site_charge
K  K1  1  0.17120000  0.32400000  0.11050000  1.0 0.8416936614
K  K2  1  0.67600000  0.82880000  0.61050000  1.0 0.8416936614
K  K3  1  0.82880000  0.67600000  0.88950000  1.0 0.8416936614
K  K4  1  0.32400000  0.17120000  0.38950000  1.0 0.8416936614
Bi  Bi1  1  0.31821000  0.51751000  0.97845000  1.0 1.3664297081
Bi  Bi2  1  0.48249000  0.68179000  0.47845000  1.0 1.3664297081
Bi  Bi3  1  0.68179000  0.48249000  0.02155000  1.0 1.3664297081
Bi  Bi4  1  0.51751000  0.31821000  0.52155000  1.0 1.3664297081
Bi  Bi5  1  0.30184000  0.79472000  0.99766000  1.0 1.3448703505
Bi  Bi6  1  0.20528000  0.69816000  0.49766000  1.0 1.3461584466
Bi  Bi7  1  0.69816000  0.20528000  0.00234000  1.0 1.3461584466
Bi  Bi8  1  0.79472000  0.30184000  0.50234000  1.0 1.3461584466
Bi  Bi9  1  0.39805000  0.42017000  0.85580000  1.0 1.3562115647
Bi  Bi10  1  0.57983000  0.60195000  0.35580000  1.0 1.3562115647
Bi  Bi11  1  0.60195000  0.57983000  0.14420000  1.0 1.3562115647
Bi  Bi12  1  0.42017000  0.39805000  0.64420000  1.0 1.3562115647
H  H1  1  0.97690000  0.48250000  0.86540000  1.0 0.1717678721
H  H2  1  0.51750000  0.02310000  0.36540000  1.0 0.1717678721
H  H3  1  0.02310000  0.51750000  0.13460000  1.0 0.1717678721
H  H4  1  0.48250000  0.97690000  0.63460000  1.0 0.1717678721
H  H5  1  0.05980000  0.46000000  0.87320000  1.0 0.1717678721
H  H6  1  0.54000000  0.94020000  0.37320000  1.0 0.1717678721
H  H7  1  0.94020000  0.54000000  0.12680000  1.0 0.1717678721
H  H8  1  0.46000000  0.05980000  0.62680000  1.0 0.1717678721
H  H9  1  0.82720000  0.19480000  0.85860000  1.0 0.1717678721
H  H10  1  0.80520000  0.17280000  0.35860000  1.0 0.1717678721
H  H11  1  0.17280000  0.80520000  0.14140000  1.0 0.1717678721
H  H12  1  0.19480000  0.82720000  0.64140000  1.0 0.1717678721
H  H13  1  0.74650000  0.22010000  0.85150000  1.0 0.1717678721
H  H14  1  0.77990000  0.25350000  0.35150000  1.0 0.1717678721
H  H15  1  0.25350000  0.77990000  0.14850000  1.0 0.1717678721
H  H16  1  0.22010000  0.74650000  0.64850000  1.0 0.1717678721
H  H17  1  0.30250000  0.62250000  0.80910000  1.0 0.1717678721
H  H18  1  0.37750000  0.69750000  0.30910000  1.0 0.1717678721
H  H19  1  0.69750000  0.37750000  0.19090000  1.0 0.1717678721
H  H20  1  0.62250000  0.30250000  0.69090000  1.0 0.1717678721
H  H21  1  0.47030000  0.73690000  0.81330000  1.0 0.1820567764
H  H22  1  0.26310000  0.52970000  0.31330000  1.0 0.1820567764
H  H23  1  0.52970000  0.26310000  0.18670000  1.0 0.1820567764
H  H24  1  0.73690000  0.47030000  0.68670000  1.0 0.1820567764
H  H25  1  0.29490000  0.55130000  0.72630000  1.0 0.1717678721
H  H26  1  0.44870000  0.70510000  0.22630000  1.0 0.1717678721
H  H27  1  0.70510000  0.44870000  0.27370000  1.0 0.1717678721
H  H28  1  0.55130000  0.29490000  0.77370000  1.0 0.1717678721
H  H29  1  0.46480000  0.68680000  0.73500000  1.0 0.1588044084
H  H30  1  0.31320000  0.53520000  0.23500000  1.0 0.1588044084
H  H31  1  0.53520000  0.31320000  0.26500000  1.0 0.1588044084
H  H32  1  0.68680000  0.46480000  0.76500000  1.0 0.1588044084
H  H33  1  0.71650000  0.95850000  0.97800000  1.0 0.1955932334
H  H34  1  0.04150000  0.28350000  0.47800000  1.0 0.1955932334
H  H35  1  0.28350000  0.04150000  0.02200000  1.0 0.1955932334
H  H36  1  0.95850000  0.71650000  0.52200000  1.0 0.1955932334
H  H37  1  0.75260000  0.97940000  0.03250000  1.0 0.1820567764
H  H38  1  0.02060000  0.24740000  0.53250000  1.0 0.1820567764
H  H39  1  0.24740000  0.02060000  0.96750000  1.0 0.1820567764
H  H40  1  0.97940000  0.75260000  0.46750000  1.0 0.1820567764
H  H41  1  0.84130000  0.90850000  0.03330000  1.0 0.1717678721
H  H42  1  0.09150000  0.15870000  0.53330000  1.0 0.1717678721
H  H43  1  0.15870000  0.09150000  0.96670000  1.0 0.1717678721
H  H44  1  0.90850000  0.84130000  0.46670000  1.0 0.1717678721
H  H45  1  0.83190000  0.90090000  0.97760000  1.0 0.1820567764
H  H46  1  0.09910000  0.16810000  0.47760000  1.0 0.1820567764
H  H47  1  0.16810000  0.09910000  0.02240000  1.0 0.1820567764
H  H48  1  0.90090000  0.83190000  0.52240000  1.0 0.1820567764
C  C1  1  0.11290000  0.59190000  0.92130000  1.0 0.6380695916
C  C2  1  0.40810000  0.88710000  0.42130000  1.0 0.6380695916
C  C3  1  0.88710000  0.40810000  0.07870000  1.0 0.6380695916
C  C4  1  0.59190000  0.11290000  0.57870000  1.0 0.6380695916
C  C5  1  0.00900000  0.46580000  0.88940000  1.0 -0.4005225942
C  C6  1  0.53420000  0.99100000  0.38940000  1.0 -0.4005225942
C  C7  1  0.99100000  0.53420000  0.11060000  1.0 -0.4005225942
C  C8  1  0.46580000  0.00900000  0.61060000  1.0 -0.4005225942
C  C9  1  0.87490000  0.31970000  0.91350000  1.0 0.2600158427
C  C10  1  0.68030000  0.12510000  0.41350000  1.0 0.2600158427
C  C11  1  0.12510000  0.68030000  0.08650000  1.0 0.2600158427
C  C12  1  0.31970000  0.87490000  0.58650000  1.0 0.2600158427
C  C13  1  0.92340000  0.28480000  0.94810000  1.0 0.536525122
C  C14  1  0.71520000  0.07660000  0.44810000  1.0 0.536525122
C  C15  1  0.07660000  0.71520000  0.05190000  1.0 0.536525122
C  C16  1  0.28480000  0.92340000  0.55190000  1.0 0.536525122
C  C17  1  0.77290000  0.19630000  0.87490000  1.0 -0.4179191671
C  C18  1  0.80370000  0.22710000  0.37490000  1.0 -0.4179191671
C  C19  1  0.22710000  0.80370000  0.12510000  1.0 -0.4179191671
C  C20  1  0.19630000  0.77290000  0.62510000  1.0 -0.4179191671
C  C21  1  0.63780000  0.04920000  0.89450000  1.0 0.6741753436
C  C22  1  0.95080000  0.36220000  0.39450000  1.0 0.6741753436
C  C23  1  0.36220000  0.95080000  0.10550000  1.0 0.6741753436
C  C24  1  0.04920000  0.63780000  0.60550000  1.0 0.6741753436
C  C25  1  0.35800000  0.60960000  0.87250000  1.0 0.6584812618
C  C26  1  0.39040000  0.64200000  0.37250000  1.0 0.6584812618
C  C27  1  0.64200000  0.39040000  0.12750000  1.0 0.6584812618
C  C28  1  0.60960000  0.35800000  0.62750000  1.0 0.6584812618
C  C29  1  0.37350000  0.63550000  0.81960000  1.0 -0.3892136199
C  C30  1  0.36450000  0.62650000  0.31960000  1.0 -0.3892136199
C  C31  1  0.62650000  0.36450000  0.18040000  1.0 -0.3892136199
C  C32  1  0.63550000  0.37350000  0.68040000  1.0 -0.3892136199
C  C33  1  0.35230000  0.53590000  0.78900000  1.0 0.2600158427
C  C34  1  0.46410000  0.64770000  0.28900000  1.0 0.2600158427
C  C35  1  0.64770000  0.46410000  0.21100000  1.0 0.2600158427
C  C36  1  0.53590000  0.35230000  0.71100000  1.0 0.2600158427
C  C37  1  0.19820000  0.37900000  0.79470000  1.0 0.5163384892
C  C38  1  0.62100000  0.80180000  0.29470000  1.0 0.5163384892
C  C39  1  0.80180000  0.62100000  0.20530000  1.0 0.5163384892
C  C40  1  0.37900000  0.19820000  0.70530000  1.0 0.5163384892
C  C41  1  0.37690000  0.58110000  0.73730000  1.0 -0.3892136199
C  C42  1  0.41890000  0.62310000  0.23730000  1.0 -0.3892136199
C  C43  1  0.62310000  0.41890000  0.26270000  1.0 -0.3892136199
C  C44  1  0.58110000  0.37690000  0.76270000  1.0 -0.3892136199
C  C45  1  0.39140000  0.51460000  0.70470000  1.0 0.6584812618
C  C46  1  0.48540000  0.60860000  0.20470000  1.0 0.6584812618
C  C47  1  0.60860000  0.48540000  0.29530000  1.0 0.6584812618
C  C48  1  0.51460000  0.39140000  0.79530000  1.0 0.6584812618
C  C49  1  0.54700000  0.86580000  0.01960000  1.0 0.6808732368
C  C50  1  0.13420000  0.45300000  0.51960000  1.0 0.6808732368
C  C51  1  0.45300000  0.13420000  0.98040000  1.0 0.6808732368
C  C52  1  0.86580000  0.54700000  0.48040000  1.0 0.6808732368
C  C53  1  0.67650000  0.90970000  0.00870000  1.0 -0.4005225942
C  C54  1  0.09030000  0.32350000  0.50870000  1.0 -0.4005225942
C  C55  1  0.32350000  0.09030000  0.99130000  1.0 -0.4005225942
C  C56  1  0.90970000  0.67650000  0.49130000  1.0 -0.4005225942
C  C57  1  0.63440000  0.77600000  0.00830000  1.0 0.2694675542
C  C58  1  0.22400000  0.36560000  0.50830000  1.0 0.2694675542
C  C59  1  0.36560000  0.22400000  0.99170000  1.0 0.2694675542
C  C60  1  0.77600000  0.63440000  0.49170000  1.0 0.2694675542
C  C61  1  0.55470000  0.69230000  0.05610000  1.0 0.5338226027
C  C62  1  0.30770000  0.44530000  0.55610000  1.0 0.5338226027
C  C63  1  0.44530000  0.30770000  0.94390000  1.0 0.5338226027
C  C64  1  0.69230000  0.55470000  0.44390000  1.0 0.5338226027
C  C65  1  0.78080000  0.84260000  0.00650000  1.0 -0.3892136199
C  C66  1  0.15740000  0.21920000  0.50650000  1.0 -0.3892136199
C  C67  1  0.21920000  0.15740000  0.99350000  1.0 -0.3892136199
C  C68  1  0.84260000  0.78080000  0.49350000  1.0 -0.3892136199
C  C69  1  0.76500000  0.72980000  0.00790000  1.0 0.654582522
C  C70  1  0.27020000  0.23500000  0.50790000  1.0 0.6584812618
C  C71  1  0.23500000  0.27020000  0.99210000  1.0 0.6584812618
C  C72  1  0.72980000  0.76500000  0.49210000  1.0 0.654582522
O  O1  1  0.18510000  0.71670000  0.91030000  1.0 -0.4569205798
O  O2  1  0.28330000  0.81490000  0.41030000  1.0 -0.4569205798
O  O3  1  0.81490000  0.28330000  0.08970000  1.0 -0.4569205798
O  O4  1  0.71670000  0.18510000  0.58970000  1.0 -0.4569205798
O  O5  1  0.13140000  0.57160000  0.96360000  1.0 -0.5129038476
O  O6  1  0.42840000  0.86860000  0.46360000  1.0 -0.5129038476
O  O7  1  0.86860000  0.42840000  0.03640000  1.0 -0.5129038476
O  O8  1  0.57160000  0.13140000  0.53640000  1.0 -0.5129038476
O  O9  1  0.00460000  0.29040000  0.93450000  1.0 -0.4973406278
O  O10  1  0.70960000  0.99540000  0.43450000  1.0 -0.4973406278
O  O11  1  0.99540000  0.70960000  0.06550000  1.0 -0.4973406278
O  O12  1  0.29040000  0.00460000  0.56550000  1.0 -0.4973406278
O  O13  1  0.87570000  0.24830000  0.99150000  1.0 -0.4569205798
O  O14  1  0.75170000  0.12430000  0.49150000  1.0 -0.4569205798
O  O15  1  0.12430000  0.75170000  0.00850000  1.0 -0.4569205798
O  O16  1  0.24830000  0.87570000  0.50850000  1.0 -0.4569205798
O  O17  1  0.60020000  0.01680000  0.93640000  1.0 -0.566858434
O  O18  1  0.98320000  0.39980000  0.43640000  1.0 -0.566858434
O  O19  1  0.39980000  0.98320000  0.06360000  1.0 -0.566858434
O  O20  1  0.01680000  0.60020000  0.56360000  1.0 -0.566858434
O  O21  1  0.55400000  0.94680000  0.86250000  1.0 -0.4913363614
O  O22  1  0.05320000  0.44600000  0.36250000  1.0 -0.4913363614
O  O23  1  0.44600000  0.05320000  0.13750000  1.0 -0.4913363614
O  O24  1  0.94680000  0.55400000  0.63750000  1.0 -0.4913363614
O  O25  1  0.79680000  0.32360000  0.93650000  1.0 -0.4513482906
O  O26  1  0.67640000  0.20320000  0.43650000  1.0 -0.4513482906
O  O27  1  0.20320000  0.67640000  0.06350000  1.0 -0.4513482906
O  O28  1  0.32360000  0.79680000  0.56350000  1.0 -0.4513482906
O  O29  1  0.33030000  0.51110000  0.88980000  1.0 -0.5500353905
O  O30  1  0.48890000  0.66970000  0.38980000  1.0 -0.5500353905
O  O31  1  0.66970000  0.48890000  0.11020000  1.0 -0.5500353905
O  O32  1  0.51110000  0.33030000  0.61020000  1.0 -0.5500353905
O  O33  1  0.37100000  0.68340000  0.89810000  1.0 -0.4513482906
O  O34  1  0.31660000  0.62900000  0.39810000  1.0 -0.4513482906
O  O35  1  0.62900000  0.31660000  0.10190000  1.0 -0.4513482906
O  O36  1  0.68340000  0.37100000  0.60190000  1.0 -0.4513482906
O  O37  1  0.17980000  0.28740000  0.81440000  1.0 -0.4913363614
O  O38  1  0.71260000  0.82020000  0.31440000  1.0 -0.4913363614
O  O39  1  0.82020000  0.71260000  0.18560000  1.0 -0.4913363614
O  O40  1  0.28740000  0.17980000  0.68560000  1.0 -0.4913363614
O  O41  1  0.09190000  0.33790000  0.78380000  1.0 -0.4179191671
O  O42  1  0.66210000  0.90810000  0.28380000  1.0 -0.4179191671
O  O43  1  0.90810000  0.66210000  0.21620000  1.0 -0.4179191671
O  O44  1  0.33790000  0.09190000  0.71620000  1.0 -0.4179191671
O  O45  1  0.50360000  0.59720000  0.67850000  1.0 -0.5500353905
O  O46  1  0.40280000  0.49640000  0.17850000  1.0 -0.5500353905
O  O47  1  0.49640000  0.40280000  0.32150000  1.0 -0.5500353905
O  O48  1  0.59720000  0.50360000  0.82150000  1.0 -0.5500353905
O  O49  1  0.29340000  0.37880000  0.70580000  1.0 -0.4700728402
O  O50  1  0.62120000  0.70660000  0.20580000  1.0 -0.4700728402
O  O51  1  0.70660000  0.62120000  0.29420000  1.0 -0.4700728402
O  O52  1  0.37880000  0.29340000  0.79420000  1.0 -0.4700728402
O  O53  1  0.46030000  0.56030000  0.80220000  1.0 -0.4700728402
O  O54  1  0.43970000  0.53970000  0.30220000  1.0 -0.4700728402
O  O55  1  0.53970000  0.43970000  0.19780000  1.0 -0.4700728402
O  O56  1  0.56030000  0.46030000  0.69780000  1.0 -0.4700728402
O  O57  1  0.41910000  0.74010000  0.00910000  1.0 -0.5268597983
O  O58  1  0.25990000  0.58090000  0.50910000  1.0 -0.5268597983
O  O59  1  0.58090000  0.25990000  0.99090000  1.0 -0.5268597983
O  O60  1  0.74010000  0.41910000  0.49090000  1.0 -0.5268597983
O  O61  1  0.57320000  0.95820000  0.03960000  1.0 -0.5500353905
O  O62  1  0.04180000  0.42680000  0.53960000  1.0 -0.5500353905
O  O63  1  0.42680000  0.04180000  0.96040000  1.0 -0.5500353905
O  O64  1  0.95820000  0.57320000  0.46040000  1.0 -0.5500353905
O  O65  1  0.41760000  0.56340000  0.05160000  1.0 -0.5232019804
O  O66  1  0.43660000  0.58240000  0.55160000  1.0 -0.5232019804
O  O67  1  0.58240000  0.43660000  0.94840000  1.0 -0.5232019804
O  O68  1  0.56340000  0.41760000  0.44840000  1.0 -0.5232019804
O  O69  1  0.61690000  0.75090000  0.09380000  1.0 -0.4700728402
O  O70  1  0.24910000  0.38310000  0.59380000  1.0 -0.4700728402
O  O71  1  0.38310000  0.24910000  0.90620000  1.0 -0.4700728402
O  O72  1  0.75090000  0.61690000  0.40620000  1.0 -0.4700728402
O  O73  1  0.66920000  0.62140000  0.03710000  1.0 -0.5400643729
O  O74  1  0.37860000  0.33080000  0.53710000  1.0 -0.5400643729
O  O75  1  0.33080000  0.37860000  0.96290000  1.0 -0.5400643729
O  O76  1  0.62140000  0.66920000  0.46290000  1.0 -0.5400643729
O  O77  1  0.83680000  0.74160000  0.98200000  1.0 -0.5400643729
O  O78  1  0.25840000  0.16320000  0.48200000  1.0 -0.5400643729
O  O79  1  0.16320000  0.25840000  0.01800000  1.0 -0.5400643729
O  O80  1  0.74160000  0.83680000  0.51800000  1.0 -0.5400643729
O  O81  1  0.54710000  0.68750000  0.96840000  1.0 -0.4700728402
O  O82  1  0.31250000  0.45290000  0.46840000  1.0 -0.4700728402
O  O83  1  0.45290000  0.31250000  0.03160000  1.0 -0.4700728402
O  O84  1  0.68750000  0.54710000  0.53160000  1.0 -0.4700728402
O  O85  1  0.62150000  0.65530000  0.89300000  1.0 -0.3540534161
O  O86  1  0.34470000  0.37850000  0.39300000  1.0 -0.3540534161
O  O87  1  0.37850000  0.34470000  0.10700000  1.0 -0.3540534161
O  O88  1  0.65530000  0.62150000  0.60700000  1.0 -0.3540534161
O  O89  1  0.12350000  0.42950000  0.05000000  1.0 -0.1604332447
O  O90  1  0.57050000  0.87650000  0.55000000  1.0 -0.1604332447
O  O91  1  0.87650000  0.57050000  0.95000000  1.0 -0.1604332447
O  O92  1  0.42950000  0.12350000  0.45000000  1.0 -0.1604332447
