# DDEC6 charges by PACMAN v1.1 (https://github.com/mtap-research/PACMAN-charge/)
data_ALOVAB_ASR_pacman
_symmetry_space_group_name_H-M   'P 1'
_cell_length_a   11.49630000
_cell_length_b   11.49630000
_cell_length_c   11.10960000
_cell_angle_alpha   75.29040000
_cell_angle_beta   104.71000000
_cell_angle_gamma   94.56280000
_symmetry_Int_Tables_number   1
_chemical_formula_structural   CoH6C12(N3O2)2
_chemical_formula_sum   'Co2 H12 C24 N12 O8'
_cell_volume   1373.44932270
_cell_formula_units_Z   2
loop_
 _symmetry_equiv_pos_site_id
 _symmetry_equiv_pos_as_xyz
  1  'x, y, z'
loop_
 _atom_site_type_symbol
 _atom_site_label
 _atom_site_symmetry_multiplicity
 _atom_site_fract_x
 _atom_site_fract_y
 _atom_site_fract_z
 _atom_site_occupancy
 _atom_site_charge
Co  Co1  1  0.00000000  0.00000000  0.00000000  1.0 0.7418863818
Co  Co2  1  0.00000000  0.00000000  0.50000000  1.0 0.7418863818
H  H1  1  0.77952000  0.90862000  0.28845000  1.0 0.1272399484
H  H2  1  0.47996000  0.11256000  0.13734000  1.0 0.1474897087
H  H3  1  0.85946000  0.23724000  0.30007000  1.0 0.1272399484
H  H4  1  0.90862000  0.77952000  0.21155000  1.0 0.1272399484
H  H5  1  0.11256000  0.47996000  0.36266000  1.0 0.1474897087
H  H6  1  0.23724000  0.85946000  0.19993000  1.0 0.1272399484
H  H7  1  0.22048000  0.09138000  0.71155000  1.0 0.1272399484
H  H8  1  0.52004000  0.88744000  0.86266000  1.0 0.1474897087
H  H9  1  0.14054000  0.76276000  0.69993000  1.0 0.1186922089
H  H10  1  0.09138000  0.22048000  0.78845000  1.0 0.1272399484
H  H11  1  0.88744000  0.52004000  0.63734000  1.0 0.1474897087
H  H12  1  0.76276000  0.14054000  0.80007000  1.0 0.1272399484
C  C1  1  0.60030000  0.03070000  0.08580000  1.0 0.1186922089
C  C2  1  0.77860000  0.99200000  0.27220000  1.0 0.1272399484
C  C3  1  0.73660000  0.92800000  0.99110000  1.0 0.5650020883
C  C4  1  0.61600000  0.96380000  0.00310000  1.0 -0.0720487359
C  C5  1  0.48750000  0.06670000  0.08190000  1.0 -0.1539161607
C  C6  1  0.81990000  0.16990000  0.27610000  1.0 0.1679903165
C  C7  1  0.03070000  0.60030000  0.41420000  1.0 0.1186922089
C  C8  1  0.99200000  0.77860000  0.22780000  1.0 0.1272399484
C  C9  1  0.92800000  0.73660000  0.50890000  1.0 0.5645906374
C  C10  1  0.96380000  0.61600000  0.49690000  1.0 -0.0720487359
C  C11  1  0.06670000  0.48750000  0.41810000  1.0 -0.1559986526
C  C12  1  0.16990000  0.81990000  0.22390000  1.0 0.1679903165
C  C13  1  0.39970000  0.96930000  0.91420000  1.0 0.1186922089
C  C14  1  0.22140000  0.00800000  0.72780000  1.0 0.1272399484
C  C15  1  0.26340000  0.07200000  0.00890000  1.0 0.5645906374
C  C16  1  0.38400000  0.03620000  0.99690000  1.0 -0.0720487359
C  C17  1  0.51250000  0.93330000  0.91810000  1.0 -0.1559986526
C  C18  1  0.18010000  0.83010000  0.72390000  1.0 0.1679903165
C  C19  1  0.96930000  0.39970000  0.58580000  1.0 0.1186922089
C  C20  1  0.00800000  0.22140000  0.77220000  1.0 0.1272399484
C  C21  1  0.07200000  0.26340000  0.49110000  1.0 0.5645906374
C  C22  1  0.03620000  0.38400000  0.50310000  1.0 -0.0720487359
C  C23  1  0.93330000  0.51250000  0.58190000  1.0 -0.1559986526
C  C24  1  0.83010000  0.18010000  0.77610000  1.0 0.1679903165
N  N1  1  0.85633000  0.05733000  0.33700000  1.0 -0.3131772533
N  N2  1  0.69800000  0.06224000  0.17948000  1.0 0.1474897087
N  N3  1  0.72470000  0.17790000  0.18070000  1.0 -0.2353309348
N  N4  1  0.05733000  0.85633000  0.16300000  1.0 -0.3131772533
N  N5  1  0.06224000  0.69800000  0.32052000  1.0 0.1474897087
N  N6  1  0.17790000  0.72470000  0.31930000  1.0 -0.2353309348
N  N7  1  0.14367000  0.94267000  0.66300000  1.0 -0.3131772533
N  N8  1  0.30200000  0.93776000  0.82052000  1.0 0.1474897087
N  N9  1  0.27530000  0.82210000  0.81930000  1.0 -0.2338557794
N  N10  1  0.94267000  0.14367000  0.83700000  1.0 -0.3131772533
N  N11  1  0.93776000  0.30200000  0.67948000  1.0 0.1474897087
N  N12  1  0.82210000  0.27530000  0.68070000  1.0 -0.2353309348
O  O1  1  0.82621000  0.98917000  0.03092000  1.0 -0.5846332267
O  O2  1  0.73647000  0.84433000  0.93897000  1.0 -0.5356942519
O  O3  1  0.98917000  0.82621000  0.46908000  1.0 -0.5858170941
O  O4  1  0.84433000  0.73647000  0.56103000  1.0 -0.5356942519
O  O5  1  0.17379000  0.01083000  0.96908000  1.0 -0.5858170941
O  O6  1  0.26353000  0.15567000  0.06103000  1.0 -0.5356942519
O  O7  1  0.01083000  0.17379000  0.53092000  1.0 -0.5858170941
O  O8  1  0.15567000  0.26353000  0.43897000  1.0 -0.5356942519
