# DDEC6 charges by PACMAN v1.1 (https://github.com/mtap-research/PACMAN-charge/)
data_ALUKIC_FSR_pacman
_symmetry_space_group_name_H-M   'P 1'
_cell_length_a   16.10350000
_cell_length_b   16.10350000
_cell_length_c   28.12800000
_cell_angle_alpha   79.39080000
_cell_angle_beta   100.60900000
_cell_angle_gamma   116.82300000
_symmetry_Int_Tables_number   1
_chemical_formula_structural   CeH24C25S2N3O8
_chemical_formula_sum   'Ce4 H96 C100 S8 N12 O32'
_cell_volume   6355.55075139
_cell_formula_units_Z   4
loop_
 _symmetry_equiv_pos_site_id
 _symmetry_equiv_pos_as_xyz
  1  'x, y, z'
loop_
 _atom_site_type_symbol
 _atom_site_label
 _atom_site_symmetry_multiplicity
 _atom_site_fract_x
 _atom_site_fract_y
 _atom_site_fract_z
 _atom_site_occupancy
 _atom_site_charge
Ce  Ce1  1  0.06662000  0.46878000  0.95390000  1.0 2.0151152793
Ce  Ce2  1  0.46878000  0.06662000  0.54610000  1.0 2.0151152793
Ce  Ce3  1  0.93338000  0.53122000  0.04610000  1.0 2.0151152793
Ce  Ce4  1  0.53122000  0.93338000  0.45390000  1.0 2.0151152793
H  H1  1  0.06440000  0.36620000  0.79660000  1.0 0.122692772
H  H2  1  0.36620000  0.06440000  0.70340000  1.0 0.122692772
H  H3  1  0.93560000  0.63380000  0.20340000  1.0 0.122692772
H  H4  1  0.63380000  0.93560000  0.29660000  1.0 0.122692772
H  H5  1  0.10570000  0.29310000  0.74650000  1.0 0.122692772
H  H6  1  0.29310000  0.10570000  0.75350000  1.0 0.122692772
H  H7  1  0.89430000  0.70690000  0.25350000  1.0 0.122692772
H  H8  1  0.70690000  0.89430000  0.24650000  1.0 0.122692772
H  H9  1  0.19380000  0.15780000  0.86650000  1.0 0.122692772
H  H10  1  0.15780000  0.19380000  0.63350000  1.0 0.122692772
H  H11  1  0.80620000  0.84220000  0.13350000  1.0 0.122692772
H  H12  1  0.84220000  0.80620000  0.36650000  1.0 0.122692772
H  H13  1  0.16110000  0.23970000  0.91430000  1.0 0.1292645319
H  H14  1  0.23970000  0.16110000  0.58570000  1.0 0.1292645319
H  H15  1  0.83890000  0.76030000  0.08570000  1.0 0.1292645319
H  H16  1  0.76030000  0.83890000  0.41430000  1.0 0.1292645319
H  H17  1  0.82770000  0.67470000  0.91000000  1.0 0.1292645319
H  H18  1  0.67470000  0.82770000  0.59000000  1.0 0.1292645319
H  H19  1  0.17230000  0.32530000  0.09000000  1.0 0.1292645319
H  H20  1  0.32530000  0.17230000  0.41000000  1.0 0.1292645319
H  H21  1  0.76570000  0.73770000  0.84090000  1.0 0.122692772
H  H22  1  0.73770000  0.76570000  0.65910000  1.0 0.122692772
H  H23  1  0.23430000  0.26230000  0.15910000  1.0 0.122692772
H  H24  1  0.26230000  0.23430000  0.34090000  1.0 0.122692772
H  H25  1  0.86600000  0.63380000  0.75780000  1.0 0.122692772
H  H26  1  0.63380000  0.86600000  0.74220000  1.0 0.122692772
H  H27  1  0.13400000  0.36620000  0.24220000  1.0 0.122692772
H  H28  1  0.36620000  0.13400000  0.25780000  1.0 0.122692772
H  H29  1  0.93140000  0.56960000  0.82950000  1.0 0.1292645319
H  H30  1  0.56960000  0.93140000  0.67050000  1.0 0.1292645319
H  H31  1  0.06860000  0.43040000  0.17050000  1.0 0.1292645319
H  H32  1  0.43040000  0.06860000  0.32950000  1.0 0.1292645319
H  H33  1  0.78830000  0.17610000  0.94400000  1.0 0.1393069509
H  H34  1  0.17610000  0.78830000  0.55600000  1.0 0.1393069509
H  H35  1  0.21170000  0.82390000  0.05600000  1.0 0.1393069509
H  H36  1  0.82390000  0.21170000  0.44400000  1.0 0.1393069509
H  H37  1  0.64640000  0.05080000  0.95740000  1.0 0.122692772
H  H38  1  0.05080000  0.64640000  0.54260000  1.0 0.122692772
H  H39  1  0.35360000  0.94920000  0.04260000  1.0 0.122692772
H  H40  1  0.94920000  0.35360000  0.45740000  1.0 0.122692772
H  H41  1  0.58850000  0.19250000  0.03910000  1.0 0.122692772
H  H42  1  0.19250000  0.58850000  0.46090000  1.0 0.122692772
H  H43  1  0.41150000  0.80750000  0.96090000  1.0 0.122692772
H  H44  1  0.80750000  0.41150000  0.53910000  1.0 0.122692772
H  H45  1  0.73220000  0.31760000  0.03120000  1.0 0.122692772
H  H46  1  0.31760000  0.73220000  0.46880000  1.0 0.122692772
H  H47  1  0.26780000  0.68240000  0.96880000  1.0 0.122692772
H  H48  1  0.68240000  0.26780000  0.53120000  1.0 0.122692772
H  H49  1  0.34850000  0.69410000  0.89070000  1.0 0.1494474397
H  H50  1  0.69410000  0.34850000  0.60930000  1.0 0.1494474397
H  H51  1  0.65150000  0.30590000  0.10930000  1.0 0.1494474397
H  H52  1  0.30590000  0.65150000  0.39070000  1.0 0.1494474397
H  H53  1  0.32840000  0.73280000  0.83670000  1.0 0.1494474397
H  H54  1  0.73280000  0.32840000  0.66330000  1.0 0.1494474397
H  H55  1  0.67160000  0.26720000  0.16330000  1.0 0.1494474397
H  H56  1  0.26720000  0.67160000  0.33670000  1.0 0.1494474397
H  H57  1  0.28370000  0.74610000  0.87800000  1.0 0.1494474397
H  H58  1  0.74610000  0.28370000  0.62200000  1.0 0.1584547231
H  H59  1  0.71630000  0.25390000  0.12200000  1.0 0.1494474397
H  H60  1  0.25390000  0.71630000  0.37800000  1.0 0.1494474397
H  H61  1  0.16150000  0.67310000  0.78700000  1.0 0.1494474397
H  H62  1  0.67310000  0.16150000  0.71300000  1.0 0.1494474397
H  H63  1  0.83850000  0.32690000  0.21300000  1.0 0.1494474397
H  H64  1  0.32690000  0.83850000  0.28700000  1.0 0.1494474397
H  H65  1  0.13810000  0.57070000  0.77910000  1.0 0.1494474397
H  H66  1  0.57070000  0.13810000  0.72090000  1.0 0.1494474397
H  H67  1  0.86190000  0.42930000  0.22090000  1.0 0.1494474397
H  H68  1  0.42930000  0.86190000  0.27910000  1.0 0.1494474397
H  H69  1  0.07220000  0.58880000  0.80630000  1.0 0.1584547231
H  H70  1  0.58880000  0.07220000  0.69370000  1.0 0.1584547231
H  H71  1  0.92780000  0.41120000  0.19370000  1.0 0.1584547231
H  H72  1  0.41120000  0.92780000  0.30630000  1.0 0.1584547231
H  H73  1  0.41350000  0.50950000  0.95620000  1.0 0.1584547231
H  H74  1  0.50950000  0.41350000  0.54380000  1.0 0.1584547231
H  H75  1  0.58650000  0.49050000  0.04380000  1.0 0.1584547231
H  H76  1  0.49050000  0.58650000  0.45620000  1.0 0.1584547231
H  H77  1  0.35840000  0.40020000  0.95800000  1.0 0.1584547231
H  H78  1  0.40020000  0.35840000  0.54200000  1.0 0.1584547231
H  H79  1  0.64160000  0.59980000  0.04200000  1.0 0.1584547231
H  H80  1  0.59980000  0.64160000  0.45800000  1.0 0.1584547231
H  H81  1  0.32190000  0.46490000  0.92060000  1.0 0.1584547231
H  H82  1  0.46490000  0.32190000  0.57940000  1.0 0.1584547231
H  H83  1  0.67810000  0.53510000  0.07940000  1.0 0.1584547231
H  H84  1  0.53510000  0.67810000  0.42060000  1.0 0.1584547231
H  H85  1  0.34610000  0.52270000  0.07180000  1.0 0.169630121
H  H86  1  0.52270000  0.34610000  0.42820000  1.0 0.169630121
H  H87  1  0.65390000  0.47730000  0.92820000  1.0 0.169630121
H  H88  1  0.47730000  0.65390000  0.57180000  1.0 0.169630121
H  H89  1  0.42690000  0.53750000  0.04270000  1.0 0.1584547231
H  H90  1  0.53750000  0.42690000  0.45730000  1.0 0.1584547231
H  H91  1  0.57310000  0.46250000  0.95730000  1.0 0.1584547231
H  H92  1  0.46250000  0.57310000  0.54270000  1.0 0.1584547231
H  H93  1  0.37450000  0.60190000  0.02800000  1.0 0.169630121
H  H94  1  0.60190000  0.37450000  0.47200000  1.0 0.169630121
H  H95  1  0.62550000  0.39810000  0.97200000  1.0 0.169630121
H  H96  1  0.39810000  0.62550000  0.52800000  1.0 0.169630121
C  C1  1  0.07657000  0.35463000  0.89004000  1.0 0.5388758365
C  C2  1  0.35463000  0.07657000  0.60996000  1.0 0.5388758365
C  C3  1  0.92343000  0.64537000  0.10996000  1.0 0.5388758365
C  C4  1  0.64537000  0.92343000  0.39004000  1.0 0.5388758365
C  C5  1  0.09290000  0.29530000  0.86111000  1.0 -0.0297112248
C  C6  1  0.29530000  0.09290000  0.63889000  1.0 -0.0297112248
C  C7  1  0.90710000  0.70470000  0.13889000  1.0 -0.0297112248
C  C8  1  0.70470000  0.90710000  0.36111000  1.0 -0.0297112248
C  C9  1  0.08659000  0.32181000  0.81007000  1.0 -0.0837050115
C  C10  1  0.32181000  0.08659000  0.68993000  1.0 -0.0837050115
C  C11  1  0.91341000  0.67819000  0.18993000  1.0 -0.0837050115
C  C12  1  0.67819000  0.91341000  0.31007000  1.0 -0.0837050115
C  C13  1  0.11437000  0.28023000  0.78022000  1.0 -0.1619921033
C  C14  1  0.28023000  0.11437000  0.71978000  1.0 -0.1619921033
C  C15  1  0.88563000  0.71977000  0.21978000  1.0 -0.1619921033
C  C16  1  0.71977000  0.88563000  0.28022000  1.0 -0.1619921033
C  C17  1  0.15460000  0.22000000  0.80095000  1.0 0.2041671458
C  C18  1  0.22000000  0.15460000  0.69905000  1.0 0.2041671458
C  C19  1  0.84540000  0.78000000  0.19905000  1.0 0.2041671458
C  C20  1  0.78000000  0.84540000  0.30095000  1.0 0.2041671458
C  C21  1  0.16858000  0.19962000  0.85245000  1.0 -0.1540912878
C  C22  1  0.19962000  0.16858000  0.64755000  1.0 -0.1540912878
C  C23  1  0.83142000  0.80038000  0.14755000  1.0 -0.1540912878
C  C24  1  0.80038000  0.83142000  0.35245000  1.0 -0.1540912878
C  C25  1  0.14346000  0.24414000  0.88083000  1.0 -0.0737395564
C  C26  1  0.24414000  0.14346000  0.61917000  1.0 -0.0737395564
C  C27  1  0.85654000  0.75586000  0.11917000  1.0 -0.0737395564
C  C28  1  0.75586000  0.85654000  0.38083000  1.0 -0.0737395564
C  C29  1  0.92385000  0.57895000  0.92302000  1.0 0.6303008977
C  C30  1  0.57895000  0.92385000  0.57698000  1.0 0.6303008977
C  C31  1  0.07615000  0.42105000  0.07698000  1.0 0.6303008977
C  C32  1  0.42105000  0.07615000  0.42302000  1.0 0.6303008977
C  C33  1  0.88680000  0.61860000  0.87694000  1.0 -0.0423202407
C  C34  1  0.61860000  0.88680000  0.62306000  1.0 -0.0423202407
C  C35  1  0.11320000  0.38140000  0.12306000  1.0 -0.0423202407
C  C36  1  0.38140000  0.11320000  0.37694000  1.0 -0.0423202407
C  C37  1  0.83661000  0.66719000  0.87959000  1.0 -0.0837050115
C  C38  1  0.66719000  0.83661000  0.62041000  1.0 -0.0837050115
C  C39  1  0.16339000  0.33281000  0.12041000  1.0 -0.0837050115
C  C40  1  0.33281000  0.16339000  0.37959000  1.0 -0.0837050115
C  C41  1  0.79932000  0.70468000  0.83871000  1.0 -0.1376949665
C  C42  1  0.70468000  0.79932000  0.66129000  1.0 -0.1376949665
C  C43  1  0.20068000  0.29532000  0.16129000  1.0 -0.1376949665
C  C44  1  0.29532000  0.20068000  0.33871000  1.0 -0.1376949665
C  C45  1  0.81276000  0.69244000  0.79527000  1.0 0.1907579858
C  C46  1  0.69244000  0.81276000  0.70473000  1.0 0.1907579858
C  C47  1  0.18724000  0.30756000  0.20473000  1.0 0.1907579858
C  C48  1  0.30756000  0.18724000  0.29527000  1.0 0.1907579858
C  C49  1  0.86006000  0.64194000  0.78869000  1.0 -0.1619921033
C  C50  1  0.64194000  0.86006000  0.71131000  1.0 -0.1619921033
C  C51  1  0.13994000  0.35806000  0.21131000  1.0 -0.1619921033
C  C52  1  0.35806000  0.13994000  0.28869000  1.0 -0.1619921033
C  C53  1  0.89883000  0.60377000  0.83147000  1.0 -0.0737395564
C  C54  1  0.60377000  0.89883000  0.66853000  1.0 -0.0737395564
C  C55  1  0.10117000  0.39623000  0.16853000  1.0 -0.0737395564
C  C56  1  0.39623000  0.10117000  0.33147000  1.0 -0.0737395564
C  C57  1  0.87070000  0.33510000  0.98088000  1.0 0.5932526771
C  C58  1  0.33510000  0.87070000  0.51912000  1.0 0.5932526771
C  C59  1  0.12930000  0.66490000  0.01912000  1.0 0.5932526771
C  C60  1  0.66490000  0.12930000  0.48088000  1.0 0.5932526771
C  C61  1  0.77732000  0.25908000  0.98744000  1.0 -0.0297112248
C  C62  1  0.25908000  0.77732000  0.51256000  1.0 -0.0297112248
C  C63  1  0.22268000  0.74092000  0.01256000  1.0 -0.0297112248
C  C64  1  0.74092000  0.22268000  0.48744000  1.0 -0.0297112248
C  C65  1  0.74972000  0.17888000  0.96397000  1.0 -0.0737395564
C  C66  1  0.17888000  0.74972000  0.53603000  1.0 -0.0737395564
C  C67  1  0.25028000  0.82112000  0.03603000  1.0 -0.0737395564
C  C68  1  0.82112000  0.25028000  0.46397000  1.0 -0.0737395564
C  C69  1  0.66459000  0.10521000  0.97146000  1.0 -0.1306590107
C  C70  1  0.10521000  0.66459000  0.52854000  1.0 -0.1306590107
C  C71  1  0.33541000  0.89479000  0.02854000  1.0 -0.1306590107
C  C72  1  0.89479000  0.33541000  0.47146000  1.0 -0.1306590107
C  C73  1  0.60218000  0.11042000  0.00089000  1.0 0.206701893
C  C74  1  0.11042000  0.60218000  0.49911000  1.0 0.206701893
C  C75  1  0.39782000  0.88958000  0.99911000  1.0 0.206701893
C  C76  1  0.88958000  0.39782000  0.50089000  1.0 0.206701893
C  C77  1  0.62928000  0.18872000  0.02099000  1.0 -0.1619921033
C  C78  1  0.18872000  0.62928000  0.47901000  1.0 -0.1619921033
C  C79  1  0.37072000  0.81128000  0.97901000  1.0 -0.1619921033
C  C80  1  0.81128000  0.37072000  0.52099000  1.0 -0.1619921033
C  C81  1  0.71502000  0.26438000  0.01621000  1.0 -0.0837050115
C  C82  1  0.26438000  0.71502000  0.48379000  1.0 -0.0837050115
C  C83  1  0.28498000  0.73562000  0.98379000  1.0 -0.0837050115
C  C84  1  0.73562000  0.28498000  0.51621000  1.0 -0.0837050115
C  C85  1  0.30233000  0.70487000  0.86686000  1.0 -0.5335514661
C  C86  1  0.70487000  0.30233000  0.63314000  1.0 -0.5335514661
C  C87  1  0.69767000  0.29513000  0.13314000  1.0 -0.5335514661
C  C88  1  0.29513000  0.69767000  0.36686000  1.0 -0.5335514661
C  C89  1  0.13601000  0.60879000  0.80098000  1.0 -0.5122438487
C  C90  1  0.60879000  0.13601000  0.69902000  1.0 -0.5122438487
C  C91  1  0.86399000  0.39121000  0.19902000  1.0 -0.5122438487
C  C92  1  0.39121000  0.86399000  0.30098000  1.0 -0.5122438487
C  C93  1  0.35240000  0.45800000  0.95281000  1.0 -0.5611965176
C  C94  1  0.45800000  0.35240000  0.54719000  1.0 -0.5611965176
C  C95  1  0.64760000  0.54200000  0.04719000  1.0 -0.5611965176
C  C96  1  0.54200000  0.64760000  0.45281000  1.0 -0.5611965176
C  C97  1  0.36754000  0.53966000  0.04022000  1.0 -0.5611965176
C  C98  1  0.53966000  0.36754000  0.45978000  1.0 -0.5611965176
C  C99  1  0.63246000  0.46034000  0.95978000  1.0 -0.5611965176
C  C100  1  0.46034000  0.63246000  0.54022000  1.0 -0.5611965176
S  S1  1  0.20360000  0.59706000  0.85802000  1.0 0.6134506795
S  S2  1  0.59706000  0.20360000  0.64198000  1.0 0.6134506795
S  S3  1  0.79640000  0.40294000  0.14198000  1.0 0.6134506795
S  S4  1  0.40294000  0.79640000  0.35802000  1.0 0.6134506795
S  S5  1  0.28182000  0.45706000  0.99852000  1.0 0.6899978403
S  S6  1  0.45706000  0.28182000  0.50148000  1.0 0.6899978403
S  S7  1  0.71818000  0.54294000  0.00148000  1.0 0.6899978403
S  S8  1  0.54294000  0.71818000  0.49852000  1.0 0.6899978403
N  N1  1  0.19043000  0.17997000  0.77491000  1.0 -0.1897215065
N  N2  1  0.17997000  0.19043000  0.72509000  1.0 -0.1897215065
N  N3  1  0.80957000  0.82003000  0.22509000  1.0 -0.1897215065
N  N4  1  0.82003000  0.80957000  0.27491000  1.0 -0.1897215065
N  N5  1  0.77396000  0.72404000  0.75082000  1.0 -0.1897215065
N  N6  1  0.72404000  0.77396000  0.74918000  1.0 -0.1897215065
N  N7  1  0.22604000  0.27596000  0.24918000  1.0 -0.1897215065
N  N8  1  0.27596000  0.22604000  0.25082000  1.0 -0.1897215065
N  N9  1  0.51536000  0.04442000  0.00526000  1.0 -0.2072273161
N  N10  1  0.04442000  0.51536000  0.49474000  1.0 -0.2072273161
N  N11  1  0.48464000  0.95558000  0.99474000  1.0 -0.2072273161
N  N12  1  0.95558000  0.48464000  0.50526000  1.0 -0.2072273161
O  O1  1  0.04176000  0.40932000  0.87397000  1.0 -0.5434300717
O  O2  1  0.40932000  0.04176000  0.62603000  1.0 -0.5434300717
O  O3  1  0.95824000  0.59068000  0.12603000  1.0 -0.5434300717
O  O4  1  0.59068000  0.95824000  0.37397000  1.0 -0.5434300717
O  O5  1  0.10362000  0.34354000  0.93656000  1.0 -0.6219177064
O  O6  1  0.34354000  0.10362000  0.56344000  1.0 -0.6219177064
O  O7  1  0.89638000  0.65646000  0.06344000  1.0 -0.6219177064
O  O8  1  0.65646000  0.89638000  0.43656000  1.0 -0.6219177064
O  O9  1  0.91535000  0.59245000  0.96481000  1.0 -0.6401057359
O  O10  1  0.59245000  0.91535000  0.53519000  1.0 -0.6401057359
O  O11  1  0.08465000  0.40755000  0.03519000  1.0 -0.6401057359
O  O12  1  0.40755000  0.08465000  0.46481000  1.0 -0.6401057359
O  O13  1  0.96352000  0.53072000  0.91380000  1.0 -0.6219177064
O  O14  1  0.53072000  0.96352000  0.58620000  1.0 -0.6219177064
O  O15  1  0.03648000  0.46928000  0.08620000  1.0 -0.6219177064
O  O16  1  0.46928000  0.03648000  0.41380000  1.0 -0.6219177064
O  O17  1  0.89650000  0.40294000  0.00286000  1.0 -0.6219177064
O  O18  1  0.40294000  0.89650000  0.49714000  1.0 -0.6219177064
O  O19  1  0.10350000  0.59706000  0.99714000  1.0 -0.6219177064
O  O20  1  0.59706000  0.10350000  0.50286000  1.0 -0.6219177064
O  O21  1  0.92064000  0.32504000  0.95394000  1.0 -0.5819235262
O  O22  1  0.32504000  0.92064000  0.54606000  1.0 -0.5819235262
O  O23  1  0.07936000  0.67496000  0.04606000  1.0 -0.5819235262
O  O24  1  0.67496000  0.07936000  0.45394000  1.0 -0.5819235262
O  O25  1  0.14961000  0.59585000  0.89755000  1.0 -0.6018583667
O  O26  1  0.59585000  0.14961000  0.60245000  1.0 -0.6018583667
O  O27  1  0.85039000  0.40415000  0.10245000  1.0 -0.6018583667
O  O28  1  0.40415000  0.85039000  0.39755000  1.0 -0.6018583667
O  O29  1  0.23253000  0.51299000  0.97366000  1.0 -0.6018583667
O  O30  1  0.51299000  0.23253000  0.52634000  1.0 -0.6018583667
O  O31  1  0.76747000  0.48701000  0.02634000  1.0 -0.6018583667
O  O32  1  0.48701000  0.76747000  0.47366000  1.0 -0.6018583667
