# DDEC6 charges by PACMAN v1.1 (https://github.com/mtap-research/PACMAN-charge/)
data_ALUKOI_ASR_pacman
_symmetry_space_group_name_H-M   'P 1'
_cell_length_a   16.10860000
_cell_length_b   16.10860000
_cell_length_c   27.96320000
_cell_angle_alpha   79.97990000
_cell_angle_beta   100.02000000
_cell_angle_gamma   116.98100000
_symmetry_Int_Tables_number   1
_chemical_formula_structural   SmH12C21(NO2)3
_chemical_formula_sum   'Sm4 H48 C84 N12 O24'
_cell_volume   6330.21821043
_cell_formula_units_Z   4
loop_
 _symmetry_equiv_pos_site_id
 _symmetry_equiv_pos_as_xyz
  1  'x, y, z'
loop_
 _atom_site_type_symbol
 _atom_site_label
 _atom_site_symmetry_multiplicity
 _atom_site_fract_x
 _atom_site_fract_y
 _atom_site_fract_z
 _atom_site_occupancy
 _atom_site_charge
Sm  Sm1  1  0.06657000  0.46875000  0.95390000  1.0 2.0949015826
Sm  Sm2  1  0.46875000  0.06657000  0.54610000  1.0 2.0949015826
Sm  Sm3  1  0.93343000  0.53125000  0.04610000  1.0 2.0949015826
Sm  Sm4  1  0.53125000  0.93343000  0.45390000  1.0 2.096834442
H  H1  1  0.06500000  0.36680000  0.79720000  1.0 0.1223146574
H  H2  1  0.36680000  0.06500000  0.70280000  1.0 0.1223146574
H  H3  1  0.93500000  0.63320000  0.20280000  1.0 0.1223146574
H  H4  1  0.63320000  0.93500000  0.29720000  1.0 0.1223146574
H  H5  1  0.10620000  0.29240000  0.74630000  1.0 0.1223146574
H  H6  1  0.29240000  0.10620000  0.75370000  1.0 0.1223146574
H  H7  1  0.89380000  0.70760000  0.25370000  1.0 0.1223146574
H  H8  1  0.70760000  0.89380000  0.24630000  1.0 0.1223146574
H  H9  1  0.19500000  0.15940000  0.86630000  1.0 0.1223146574
H  H10  1  0.15940000  0.19500000  0.63370000  1.0 0.1223146574
H  H11  1  0.80500000  0.84060000  0.13370000  1.0 0.1291733727
H  H12  1  0.84060000  0.80500000  0.36630000  1.0 0.1223146574
H  H13  1  0.16010000  0.24010000  0.91450000  1.0 0.1223146574
H  H14  1  0.24010000  0.16010000  0.58550000  1.0 0.1223146574
H  H15  1  0.83990000  0.75990000  0.08550000  1.0 0.1223146574
H  H16  1  0.75990000  0.83990000  0.41450000  1.0 0.1223146574
H  H17  1  0.82710000  0.67430000  0.91000000  1.0 0.1291733727
H  H18  1  0.67430000  0.82710000  0.59000000  1.0 0.1291733727
H  H19  1  0.17290000  0.32570000  0.09000000  1.0 0.1291733727
H  H20  1  0.32570000  0.17290000  0.41000000  1.0 0.1291733727
H  H21  1  0.76760000  0.73880000  0.84170000  1.0 0.1223146574
H  H22  1  0.73880000  0.76760000  0.65830000  1.0 0.1223146574
H  H23  1  0.23240000  0.26120000  0.15830000  1.0 0.1223146574
H  H24  1  0.26120000  0.23240000  0.34170000  1.0 0.1223146574
H  H25  1  0.86500000  0.63240000  0.75760000  1.0 0.1291733727
H  H26  1  0.63240000  0.86500000  0.74240000  1.0 0.1291733727
H  H27  1  0.13500000  0.36760000  0.24240000  1.0 0.1291733727
H  H28  1  0.36760000  0.13500000  0.25760000  1.0 0.1291733727
H  H29  1  0.93370000  0.57090000  0.82930000  1.0 0.1382777098
H  H30  1  0.57090000  0.93370000  0.67070000  1.0 0.1382777098
H  H31  1  0.06630000  0.42910000  0.17070000  1.0 0.1382777098
H  H32  1  0.42910000  0.06630000  0.32930000  1.0 0.1382777098
H  H33  1  0.78910000  0.17670000  0.94390000  1.0 0.1382777098
H  H34  1  0.17670000  0.78910000  0.55610000  1.0 0.1382777098
H  H35  1  0.21090000  0.82330000  0.05610000  1.0 0.1382777098
H  H36  1  0.82330000  0.21090000  0.44390000  1.0 0.1382777098
H  H37  1  0.64650000  0.05030000  0.95720000  1.0 0.1223146574
H  H38  1  0.05030000  0.64650000  0.54280000  1.0 0.1223146574
H  H39  1  0.35350000  0.94970000  0.04280000  1.0 0.1223146574
H  H40  1  0.94970000  0.35350000  0.45720000  1.0 0.1223146574
H  H41  1  0.58800000  0.19360000  0.03890000  1.0 0.1291733727
H  H42  1  0.19360000  0.58800000  0.46110000  1.0 0.1223146574
H  H43  1  0.41200000  0.80640000  0.96110000  1.0 0.1223146574
H  H44  1  0.80640000  0.41200000  0.53890000  1.0 0.1223146574
H  H45  1  0.73220000  0.31800000  0.03110000  1.0 0.1128153153
H  H46  1  0.31800000  0.73220000  0.46890000  1.0 0.1128153153
H  H47  1  0.26780000  0.68200000  0.96890000  1.0 0.1128153153
H  H48  1  0.68200000  0.26780000  0.53110000  1.0 0.1128153153
C  C1  1  0.07709000  0.35471000  0.89029000  1.0 0.5691083878
C  C2  1  0.35471000  0.07709000  0.60971000  1.0 0.5691083878
C  C3  1  0.92291000  0.64529000  0.10971000  1.0 0.5643540233
C  C4  1  0.64529000  0.92291000  0.39029000  1.0 0.5691083878
C  C5  1  0.09220000  0.29460000  0.86115000  1.0 -0.0283914826
C  C6  1  0.29460000  0.09220000  0.63885000  1.0 -0.0283914826
C  C7  1  0.90780000  0.70540000  0.13885000  1.0 -0.0227190345
C  C8  1  0.70540000  0.90780000  0.36115000  1.0 -0.0283914826
C  C9  1  0.08653000  0.32207000  0.81035000  1.0 -0.0732341144
C  C10  1  0.32207000  0.08653000  0.68965000  1.0 -0.0732341144
C  C11  1  0.91347000  0.67793000  0.18965000  1.0 -0.0763502382
C  C12  1  0.67793000  0.91347000  0.31035000  1.0 -0.0732341144
C  C13  1  0.11453000  0.28007000  0.78009000  1.0 -0.1558478236
C  C14  1  0.28007000  0.11453000  0.71991000  1.0 -0.1506947749
C  C15  1  0.88547000  0.71993000  0.21991000  1.0 -0.1558478236
C  C16  1  0.71993000  0.88547000  0.28009000  1.0 -0.1558478236
C  C17  1  0.15420000  0.22040000  0.80088000  1.0 0.1835959948
C  C18  1  0.22040000  0.15420000  0.69912000  1.0 0.1835959948
C  C19  1  0.84580000  0.77960000  0.19912000  1.0 0.1835959948
C  C20  1  0.77960000  0.84580000  0.30088000  1.0 0.1835959948
C  C21  1  0.16898000  0.20042000  0.85253000  1.0 -0.1400088086
C  C22  1  0.20042000  0.16898000  0.64747000  1.0 -0.1506947749
C  C23  1  0.83102000  0.79958000  0.14747000  1.0 -0.1400088086
C  C24  1  0.79958000  0.83102000  0.35253000  1.0 -0.1506947749
C  C25  1  0.14301000  0.24419000  0.88092000  1.0 -0.063210911
C  C26  1  0.24419000  0.14301000  0.61908000  1.0 -0.063210911
C  C27  1  0.85699000  0.75581000  0.11908000  1.0 -0.0732341144
C  C28  1  0.75581000  0.85699000  0.38092000  1.0 -0.063210911
C  C29  1  0.92393000  0.57887000  0.92302000  1.0 0.6557817072
C  C30  1  0.57887000  0.92393000  0.57698000  1.0 0.6557817072
C  C31  1  0.07607000  0.42113000  0.07698000  1.0 0.6557817072
C  C32  1  0.42113000  0.07607000  0.42302000  1.0 0.6557817072
C  C33  1  0.88707000  0.61853000  0.87731000  1.0 -0.0484800614
C  C34  1  0.61853000  0.88707000  0.62269000  1.0 -0.0484800614
C  C35  1  0.11293000  0.38147000  0.12269000  1.0 -0.0484800614
C  C36  1  0.38147000  0.11293000  0.37731000  1.0 -0.0484800614
C  C37  1  0.83678000  0.66702000  0.87943000  1.0 -0.0763502382
C  C38  1  0.66702000  0.83678000  0.62057000  1.0 -0.0763502382
C  C39  1  0.16322000  0.33298000  0.12057000  1.0 -0.0763502382
C  C40  1  0.33298000  0.16322000  0.37943000  1.0 -0.0763502382
C  C41  1  0.80021000  0.70519000  0.83887000  1.0 -0.1400088086
C  C42  1  0.70519000  0.80021000  0.66113000  1.0 -0.1289585992
C  C43  1  0.19979000  0.29481000  0.16113000  1.0 -0.1400088086
C  C44  1  0.29481000  0.19979000  0.33887000  1.0 -0.1289585992
C  C45  1  0.81227000  0.69293000  0.79507000  1.0 0.1888713747
C  C46  1  0.69293000  0.81227000  0.70493000  1.0 0.1888713747
C  C47  1  0.18773000  0.30707000  0.20493000  1.0 0.1888713747
C  C48  1  0.30707000  0.18773000  0.29507000  1.0 0.1888713747
C  C49  1  0.85979000  0.64161000  0.78860000  1.0 -0.1558478236
C  C50  1  0.64161000  0.85979000  0.71140000  1.0 -0.1558478236
C  C51  1  0.14021000  0.35839000  0.21140000  1.0 -0.1506947749
C  C52  1  0.35839000  0.14021000  0.28860000  1.0 -0.1506947749
C  C53  1  0.90010000  0.60390000  0.83163000  1.0 -0.0763502382
C  C54  1  0.60390000  0.90010000  0.66837000  1.0 -0.0763502382
C  C55  1  0.09990000  0.39610000  0.16837000  1.0 -0.0763502382
C  C56  1  0.39610000  0.09990000  0.33163000  1.0 -0.0763502382
C  C57  1  0.87017000  0.33463000  0.98101000  1.0 0.6215767771
C  C58  1  0.33463000  0.87017000  0.51899000  1.0 0.6215767771
C  C59  1  0.12983000  0.66537000  0.01899000  1.0 0.6215767771
C  C60  1  0.66537000  0.12983000  0.48101000  1.0 0.6215767771
C  C61  1  0.77674000  0.25926000  0.98747000  1.0 -0.0420033229
C  C62  1  0.25926000  0.77674000  0.51253000  1.0 -0.0420033229
C  C63  1  0.22326000  0.74074000  0.01253000  1.0 -0.0420033229
C  C64  1  0.74074000  0.22326000  0.48747000  1.0 -0.0420033229
C  C65  1  0.75007000  0.17933000  0.96397000  1.0 -0.0732341144
C  C66  1  0.17933000  0.75007000  0.53603000  1.0 -0.0732341144
C  C67  1  0.24993000  0.82067000  0.03603000  1.0 -0.0732341144
C  C68  1  0.82067000  0.24993000  0.46397000  1.0 -0.0732341144
C  C69  1  0.66460000  0.10480000  0.97140000  1.0 -0.1289585992
C  C70  1  0.10480000  0.66460000  0.52860000  1.0 -0.1289585992
C  C71  1  0.33540000  0.89520000  0.02860000  1.0 -0.1289585992
C  C72  1  0.89520000  0.33540000  0.47140000  1.0 -0.1289585992
C  C73  1  0.60215000  0.11045000  0.00140000  1.0 0.2091983119
C  C74  1  0.11045000  0.60215000  0.49860000  1.0 0.2091983119
C  C75  1  0.39785000  0.88955000  0.99860000  1.0 0.2047501862
C  C76  1  0.88955000  0.39785000  0.50140000  1.0 0.2091983119
C  C77  1  0.62904000  0.18916000  0.02100000  1.0 -0.1506947749
C  C78  1  0.18916000  0.62904000  0.47900000  1.0 -0.1506947749
C  C79  1  0.37096000  0.81084000  0.97900000  1.0 -0.1506947749
C  C80  1  0.81084000  0.37096000  0.52100000  1.0 -0.1506947749
C  C81  1  0.71497000  0.26463000  0.01605000  1.0 -0.0763502382
C  C82  1  0.26463000  0.71497000  0.48395000  1.0 -0.0763502382
C  C83  1  0.28503000  0.73537000  0.98395000  1.0 -0.0763502382
C  C84  1  0.73537000  0.28503000  0.51605000  1.0 -0.0763502382
N  N1  1  0.19101000  0.17999000  0.77480000  1.0 -0.1924452126
N  N2  1  0.17999000  0.19101000  0.72520000  1.0 -0.1924452126
N  N3  1  0.80899000  0.82001000  0.22520000  1.0 -0.1975480258
N  N4  1  0.82001000  0.80899000  0.27480000  1.0 -0.1924452126
N  N5  1  0.77435000  0.72405000  0.75091000  1.0 -0.2219431132
N  N6  1  0.72405000  0.77435000  0.74909000  1.0 -0.2255513559
N  N7  1  0.22565000  0.27595000  0.24909000  1.0 -0.2219431132
N  N8  1  0.27595000  0.22565000  0.25091000  1.0 -0.2219431132
N  N9  1  0.51538000  0.04422000  0.00498000  1.0 -0.2219431132
N  N10  1  0.04422000  0.51538000  0.49502000  1.0 -0.2255513559
N  N11  1  0.48462000  0.95578000  0.99502000  1.0 -0.2219431132
N  N12  1  0.95578000  0.48462000  0.50498000  1.0 -0.2255513559
O  O1  1  0.04213000  0.40953000  0.87399000  1.0 -0.6219783664
O  O2  1  0.40953000  0.04213000  0.62601000  1.0 -0.6219783664
O  O3  1  0.95787000  0.59047000  0.12601000  1.0 -0.6219783664
O  O4  1  0.59047000  0.95787000  0.37399000  1.0 -0.6219783664
O  O5  1  0.10354000  0.34342000  0.93686000  1.0 -0.670324861
O  O6  1  0.34342000  0.10354000  0.56314000  1.0 -0.670324861
O  O7  1  0.89646000  0.65658000  0.06314000  1.0 -0.670324861
O  O8  1  0.65658000  0.89646000  0.43686000  1.0 -0.670324861
O  O9  1  0.91496000  0.59186000  0.96502000  1.0 -0.670324861
O  O10  1  0.59186000  0.91496000  0.53498000  1.0 -0.6753416449
O  O11  1  0.08504000  0.40814000  0.03498000  1.0 -0.6753416449
O  O12  1  0.40814000  0.08504000  0.46502000  1.0 -0.670324861
O  O13  1  0.96401000  0.53095000  0.91393000  1.0 -0.6919051051
O  O14  1  0.53095000  0.96401000  0.58607000  1.0 -0.6919051051
O  O15  1  0.03599000  0.46905000  0.08607000  1.0 -0.6919051051
O  O16  1  0.46905000  0.03599000  0.41393000  1.0 -0.6919051051
O  O17  1  0.89603000  0.40301000  0.00286000  1.0 -0.703497076
O  O18  1  0.40301000  0.89603000  0.49714000  1.0 -0.703497076
O  O19  1  0.10397000  0.59699000  0.99714000  1.0 -0.703497076
O  O20  1  0.59699000  0.10397000  0.50286000  1.0 -0.703497076
O  O21  1  0.92066000  0.32442000  0.95381000  1.0 -0.6009230107
O  O22  1  0.32442000  0.92066000  0.54619000  1.0 -0.6009230107
O  O23  1  0.07934000  0.67558000  0.04619000  1.0 -0.6009230107
O  O24  1  0.67558000  0.07934000  0.45381000  1.0 -0.6009230107
