# DDEC6 charges by PACMAN v1.1 (https://github.com/mtap-research/PACMAN-charge/)
data_ALULAV_FSR_pacman
_symmetry_space_group_name_H-M   'P 1'
_cell_length_a   16.06360000
_cell_length_b   16.06360000
_cell_length_c   27.91500000
_cell_angle_alpha   79.89020000
_cell_angle_beta   100.11000000
_cell_angle_gamma   116.82400000
_symmetry_Int_Tables_number   1
_chemical_formula_structural   GdH24C25S2N3O8
_chemical_formula_sum   'Gd4 H96 C100 S8 N12 O32'
_cell_volume   6290.11993189
_cell_formula_units_Z   4
loop_
 _symmetry_equiv_pos_site_id
 _symmetry_equiv_pos_as_xyz
  1  'x, y, z'
loop_
 _atom_site_type_symbol
 _atom_site_label
 _atom_site_symmetry_multiplicity
 _atom_site_fract_x
 _atom_site_fract_y
 _atom_site_fract_z
 _atom_site_occupancy
 _atom_site_charge
Gd  Gd1  1  0.06657000  0.46873000  0.95389000  1.0 2.0034972335
Gd  Gd2  1  0.46873000  0.06657000  0.54611000  1.0 2.0034972335
Gd  Gd3  1  0.93343000  0.53127000  0.04611000  1.0 2.0034972335
Gd  Gd4  1  0.53127000  0.93343000  0.45389000  1.0 2.0034972335
H  H1  1  0.06490000  0.36630000  0.79650000  1.0 0.1279181326
H  H2  1  0.36630000  0.06490000  0.70350000  1.0 0.1279181326
H  H3  1  0.93510000  0.63370000  0.20350000  1.0 0.1279181326
H  H4  1  0.63370000  0.93510000  0.29650000  1.0 0.1279181326
H  H5  1  0.10650000  0.29230000  0.74650000  1.0 0.1224474611
H  H6  1  0.29230000  0.10650000  0.75350000  1.0 0.1224474611
H  H7  1  0.89350000  0.70770000  0.25350000  1.0 0.1224474611
H  H8  1  0.70770000  0.89350000  0.24650000  1.0 0.1224474611
H  H9  1  0.19480000  0.15880000  0.86650000  1.0 0.1224474611
H  H10  1  0.15880000  0.19480000  0.63350000  1.0 0.1224474611
H  H11  1  0.80520000  0.84120000  0.13350000  1.0 0.1224474611
H  H12  1  0.84120000  0.80520000  0.36650000  1.0 0.1224474611
H  H13  1  0.15990000  0.23970000  0.91450000  1.0 0.1279181326
H  H14  1  0.23970000  0.15990000  0.58550000  1.0 0.1279181326
H  H15  1  0.84010000  0.76030000  0.08550000  1.0 0.1279181326
H  H16  1  0.76030000  0.84010000  0.41450000  1.0 0.1279181326
H  H17  1  0.17240000  0.32480000  0.08990000  1.0 0.1279181326
H  H18  1  0.32480000  0.17240000  0.41010000  1.0 0.1279181326
H  H19  1  0.82760000  0.67520000  0.91010000  1.0 0.1279181326
H  H20  1  0.67520000  0.82760000  0.58990000  1.0 0.1279181326
H  H21  1  0.23340000  0.26140000  0.15860000  1.0 0.1224474611
H  H22  1  0.26140000  0.23340000  0.34140000  1.0 0.1224474611
H  H23  1  0.76660000  0.73860000  0.84140000  1.0 0.1224474611
H  H24  1  0.73860000  0.76660000  0.65860000  1.0 0.1224474611
H  H25  1  0.13400000  0.36720000  0.24250000  1.0 0.1224474611
H  H26  1  0.36720000  0.13400000  0.25750000  1.0 0.1224474611
H  H27  1  0.86600000  0.63280000  0.75750000  1.0 0.1224474611
H  H28  1  0.63280000  0.86600000  0.74250000  1.0 0.1224474611
H  H29  1  0.06780000  0.43080000  0.17060000  1.0 0.1400481852
H  H30  1  0.43080000  0.06780000  0.32940000  1.0 0.1400481852
H  H31  1  0.93220000  0.56920000  0.82940000  1.0 0.1400481852
H  H32  1  0.56920000  0.93220000  0.67060000  1.0 0.1400481852
H  H33  1  0.21080000  0.82380000  0.05570000  1.0 0.1400481852
H  H34  1  0.82380000  0.21080000  0.44430000  1.0 0.1400481852
H  H35  1  0.78920000  0.17620000  0.94430000  1.0 0.1400481852
H  H36  1  0.17620000  0.78920000  0.55570000  1.0 0.1400481852
H  H37  1  0.35380000  0.94960000  0.04290000  1.0 0.1224474611
H  H38  1  0.94960000  0.35380000  0.45710000  1.0 0.1224474611
H  H39  1  0.64620000  0.05040000  0.95710000  1.0 0.1224474611
H  H40  1  0.05040000  0.64620000  0.54290000  1.0 0.1224474611
H  H41  1  0.41190000  0.80670000  0.96070000  1.0 0.1279181326
H  H42  1  0.80670000  0.41190000  0.53930000  1.0 0.1279181326
H  H43  1  0.58810000  0.19330000  0.03930000  1.0 0.1279181326
H  H44  1  0.19330000  0.58810000  0.46070000  1.0 0.1279181326
H  H45  1  0.26750000  0.68190000  0.96870000  1.0 0.1279181326
H  H46  1  0.68190000  0.26750000  0.53130000  1.0 0.1279181326
H  H47  1  0.73250000  0.31810000  0.03130000  1.0 0.1279181326
H  H48  1  0.31810000  0.73250000  0.46870000  1.0 0.1279181326
H  H49  1  0.34770000  0.69410000  0.89110000  1.0 0.1400481852
H  H50  1  0.69410000  0.34770000  0.60890000  1.0 0.1497443066
H  H51  1  0.65230000  0.30590000  0.10890000  1.0 0.1400481852
H  H52  1  0.30590000  0.65230000  0.39110000  1.0 0.1400481852
H  H53  1  0.32910000  0.73170000  0.83650000  1.0 0.1497443066
H  H54  1  0.73170000  0.32910000  0.66350000  1.0 0.1497443066
H  H55  1  0.67090000  0.26830000  0.16350000  1.0 0.1497443066
H  H56  1  0.26830000  0.67090000  0.33650000  1.0 0.1497443066
H  H57  1  0.28330000  0.74650000  0.87750000  1.0 0.1497443066
H  H58  1  0.74650000  0.28330000  0.62250000  1.0 0.1571262207
H  H59  1  0.71670000  0.25350000  0.12250000  1.0 0.1497443066
H  H60  1  0.25350000  0.71670000  0.37750000  1.0 0.1497443066
H  H61  1  0.16190000  0.67310000  0.78680000  1.0 0.1497443066
H  H62  1  0.67310000  0.16190000  0.71320000  1.0 0.1497443066
H  H63  1  0.83810000  0.32690000  0.21320000  1.0 0.1497443066
H  H64  1  0.32690000  0.83810000  0.28680000  1.0 0.1497443066
H  H65  1  0.13680000  0.56980000  0.77880000  1.0 0.1497443066
H  H66  1  0.56980000  0.13680000  0.72120000  1.0 0.1497443066
H  H67  1  0.86320000  0.43020000  0.22120000  1.0 0.1497443066
H  H68  1  0.43020000  0.86320000  0.27880000  1.0 0.1400481852
H  H69  1  0.07200000  0.58980000  0.80650000  1.0 0.1571262207
H  H70  1  0.58980000  0.07200000  0.69350000  1.0 0.1571262207
H  H71  1  0.92800000  0.41020000  0.19350000  1.0 0.1571262207
H  H72  1  0.41020000  0.92800000  0.30650000  1.0 0.1571262207
H  H73  1  0.41400000  0.50880000  0.95690000  1.0 0.1571262207
H  H74  1  0.50880000  0.41400000  0.54310000  1.0 0.1571262207
H  H75  1  0.58600000  0.49120000  0.04310000  1.0 0.1497443066
H  H76  1  0.49120000  0.58600000  0.45690000  1.0 0.1571262207
H  H77  1  0.35710000  0.39970000  0.95750000  1.0 0.1571262207
H  H78  1  0.39970000  0.35710000  0.54250000  1.0 0.1571262207
H  H79  1  0.64290000  0.60030000  0.04250000  1.0 0.1571262207
H  H80  1  0.60030000  0.64290000  0.45750000  1.0 0.1571262207
H  H81  1  0.32290000  0.46650000  0.92060000  1.0 0.1707499169
H  H82  1  0.46650000  0.32290000  0.57940000  1.0 0.1707499169
H  H83  1  0.67710000  0.53350000  0.07940000  1.0 0.1707499169
H  H84  1  0.53350000  0.67710000  0.42060000  1.0 0.1707499169
H  H85  1  0.34500000  0.52500000  0.07170000  1.0 0.1707499169
H  H86  1  0.52500000  0.34500000  0.42830000  1.0 0.1707499169
H  H87  1  0.65500000  0.47500000  0.92830000  1.0 0.1707499169
H  H88  1  0.47500000  0.65500000  0.57170000  1.0 0.1707499169
H  H89  1  0.42620000  0.53560000  0.04360000  1.0 0.1571262207
H  H90  1  0.53560000  0.42620000  0.45640000  1.0 0.1571262207
H  H91  1  0.57380000  0.46440000  0.95640000  1.0 0.1571262207
H  H92  1  0.46440000  0.57380000  0.54360000  1.0 0.1571262207
H  H93  1  0.37700000  0.60260000  0.02730000  1.0 0.1707499169
H  H94  1  0.60260000  0.37700000  0.47270000  1.0 0.1707499169
H  H95  1  0.62300000  0.39740000  0.97270000  1.0 0.1707499169
H  H96  1  0.39740000  0.62300000  0.52730000  1.0 0.1707499169
C  C1  1  0.07650000  0.35510000  0.89011000  1.0 0.5442442055
C  C2  1  0.35510000  0.07650000  0.60989000  1.0 0.5442442055
C  C3  1  0.92350000  0.64490000  0.10989000  1.0 0.5442442055
C  C4  1  0.64490000  0.92350000  0.39011000  1.0 0.5442442055
C  C5  1  0.09280000  0.29580000  0.86117000  1.0 -0.024252711
C  C6  1  0.29580000  0.09280000  0.63883000  1.0 -0.024252711
C  C7  1  0.90720000  0.70420000  0.13883000  1.0 -0.024252711
C  C8  1  0.70420000  0.90720000  0.36117000  1.0 -0.024252711
C  C9  1  0.08700000  0.32180000  0.81010000  1.0 -0.0789267359
C  C10  1  0.32180000  0.08700000  0.68990000  1.0 -0.0789267359
C  C11  1  0.91300000  0.67820000  0.18990000  1.0 -0.0789267359
C  C12  1  0.67820000  0.91300000  0.31010000  1.0 -0.0789267359
C  C13  1  0.11470000  0.27990000  0.78036000  1.0 -0.1605920784
C  C14  1  0.27990000  0.11470000  0.71964000  1.0 -0.1605920784
C  C15  1  0.88530000  0.72010000  0.21964000  1.0 -0.1605920784
C  C16  1  0.72010000  0.88530000  0.28036000  1.0 -0.1605920784
C  C17  1  0.15450000  0.21990000  0.80120000  1.0 0.2019787038
C  C18  1  0.21990000  0.15450000  0.69880000  1.0 0.2019787038
C  C19  1  0.84550000  0.78010000  0.19880000  1.0 0.2019787038
C  C20  1  0.78010000  0.84550000  0.30120000  1.0 0.2019787038
C  C21  1  0.16900000  0.20000000  0.85257000  1.0 -0.1605920784
C  C22  1  0.20000000  0.16900000  0.64743000  1.0 -0.1605920784
C  C23  1  0.83100000  0.80000000  0.14743000  1.0 -0.1605920784
C  C24  1  0.80000000  0.83100000  0.35257000  1.0 -0.1605920784
C  C25  1  0.14310000  0.24430000  0.88089000  1.0 -0.0715735735
C  C26  1  0.24430000  0.14310000  0.61911000  1.0 -0.0715735735
C  C27  1  0.85690000  0.75570000  0.11911000  1.0 -0.0715735735
C  C28  1  0.75570000  0.85690000  0.38089000  1.0 -0.0715735735
C  C29  1  0.07590000  0.42130000  0.07695000  1.0 0.6419661036
C  C30  1  0.42130000  0.07590000  0.42305000  1.0 0.6419661036
C  C31  1  0.92410000  0.57870000  0.92305000  1.0 0.6419661036
C  C32  1  0.57870000  0.92410000  0.57695000  1.0 0.6419661036
C  C33  1  0.11300000  0.38200000  0.12284000  1.0 -0.0429021447
C  C34  1  0.38200000  0.11300000  0.37716000  1.0 -0.0429021447
C  C35  1  0.88700000  0.61800000  0.87716000  1.0 -0.0429021447
C  C36  1  0.61800000  0.88700000  0.62284000  1.0 -0.0429021447
C  C37  1  0.16320000  0.33260000  0.12051000  1.0 -0.0789267359
C  C38  1  0.33260000  0.16320000  0.37949000  1.0 -0.0789267359
C  C39  1  0.83680000  0.66740000  0.87949000  1.0 -0.0789267359
C  C40  1  0.66740000  0.83680000  0.62051000  1.0 -0.0789267359
C  C41  1  0.20020000  0.29480000  0.16120000  1.0 -0.1367675663
C  C42  1  0.29480000  0.20020000  0.33880000  1.0 -0.1367675663
C  C43  1  0.79980000  0.70520000  0.83880000  1.0 -0.1367675663
C  C44  1  0.70520000  0.79980000  0.66120000  1.0 -0.1367675663
C  C45  1  0.18730000  0.30710000  0.20460000  1.0 0.1891553867
C  C46  1  0.30710000  0.18730000  0.29540000  1.0 0.1891553867
C  C47  1  0.81270000  0.69290000  0.79540000  1.0 0.1891553867
C  C48  1  0.69290000  0.81270000  0.70460000  1.0 0.1891553867
C  C49  1  0.13970000  0.35850000  0.21140000  1.0 -0.1605920784
C  C50  1  0.35850000  0.13970000  0.28860000  1.0 -0.1605920784
C  C51  1  0.86030000  0.64150000  0.78860000  1.0 -0.1605920784
C  C52  1  0.64150000  0.86030000  0.71140000  1.0 -0.1605920784
C  C53  1  0.10070000  0.39670000  0.16835000  1.0 -0.0715735735
C  C54  1  0.39670000  0.10070000  0.33165000  1.0 -0.0715735735
C  C55  1  0.89930000  0.60330000  0.83165000  1.0 -0.0715735735
C  C56  1  0.60330000  0.89930000  0.66835000  1.0 -0.0715735735
C  C57  1  0.12970000  0.66470000  0.01904000  1.0 0.596389165
C  C58  1  0.66470000  0.12970000  0.48096000  1.0 0.596389165
C  C59  1  0.87030000  0.33530000  0.98096000  1.0 0.596389165
C  C60  1  0.33530000  0.87030000  0.51904000  1.0 0.596389165
C  C61  1  0.22306000  0.74054000  0.01249000  1.0 -0.0276638513
C  C62  1  0.74054000  0.22306000  0.48751000  1.0 -0.0276638513
C  C63  1  0.77694000  0.25946000  0.98751000  1.0 -0.0276638513
C  C64  1  0.25946000  0.77694000  0.51249000  1.0 -0.0276638513
C  C65  1  0.24990000  0.82090000  0.03582000  1.0 -0.0789267359
C  C66  1  0.82090000  0.24990000  0.46418000  1.0 -0.0715735735
C  C67  1  0.75010000  0.17910000  0.96418000  1.0 -0.0789267359
C  C68  1  0.17910000  0.75010000  0.53582000  1.0 -0.0789267359
C  C69  1  0.33570000  0.89510000  0.02850000  1.0 -0.1367675663
C  C70  1  0.89510000  0.33570000  0.47150000  1.0 -0.1367675663
C  C71  1  0.66430000  0.10490000  0.97150000  1.0 -0.1367675663
C  C72  1  0.10490000  0.66430000  0.52850000  1.0 -0.1367675663
C  C73  1  0.39773000  0.88967000  0.99899000  1.0 0.2061734006
C  C74  1  0.88967000  0.39773000  0.50101000  1.0 0.2019787038
C  C75  1  0.60227000  0.11033000  0.00101000  1.0 0.2061734006
C  C76  1  0.11033000  0.60227000  0.49899000  1.0 0.2061734006
C  C77  1  0.37080000  0.81080000  0.97884000  1.0 -0.1605920784
C  C78  1  0.81080000  0.37080000  0.52116000  1.0 -0.1605920784
C  C79  1  0.62920000  0.18920000  0.02116000  1.0 -0.1605920784
C  C80  1  0.18920000  0.62920000  0.47884000  1.0 -0.1605920784
C  C81  1  0.28474000  0.73526000  0.98386000  1.0 -0.0715735735
C  C82  1  0.73526000  0.28474000  0.51614000  1.0 -0.0715735735
C  C83  1  0.71526000  0.26474000  0.01614000  1.0 -0.0715735735
C  C84  1  0.26474000  0.71526000  0.48386000  1.0 -0.0715735735
C  C85  1  0.30210000  0.70450000  0.86678000  1.0 -0.5412484204
C  C86  1  0.70450000  0.30210000  0.63322000  1.0 -0.5412484204
C  C87  1  0.69790000  0.29550000  0.13322000  1.0 -0.5412484204
C  C88  1  0.29550000  0.69790000  0.36678000  1.0 -0.5412484204
C  C89  1  0.13560000  0.60880000  0.80086000  1.0 -0.5167003815
C  C90  1  0.60880000  0.13560000  0.69914000  1.0 -0.5167003815
C  C91  1  0.86440000  0.39120000  0.19914000  1.0 -0.5167003815
C  C92  1  0.39120000  0.86440000  0.30086000  1.0 -0.5167003815
C  C93  1  0.35243000  0.45817000  0.95291000  1.0 -0.5600741153
C  C94  1  0.45817000  0.35243000  0.54709000  1.0 -0.5600741153
C  C95  1  0.64757000  0.54183000  0.04709000  1.0 -0.5600741153
C  C96  1  0.54183000  0.64757000  0.45291000  1.0 -0.5600741153
C  C97  1  0.36770000  0.53990000  0.04024000  1.0 -0.5667817836
C  C98  1  0.53990000  0.36770000  0.45976000  1.0 -0.5667817836
C  C99  1  0.63230000  0.46010000  0.95976000  1.0 -0.5667817836
C  C100  1  0.46010000  0.63230000  0.54024000  1.0 -0.5667817836
S  S1  1  0.20348000  0.59702000  0.85805000  1.0 0.6419661036
S  S2  1  0.59702000  0.20348000  0.64195000  1.0 0.6526662613
S  S3  1  0.79652000  0.40298000  0.14195000  1.0 0.6419661036
S  S4  1  0.40298000  0.79652000  0.35805000  1.0 0.6419661036
S  S5  1  0.28172000  0.45708000  0.99849000  1.0 0.7158049847
S  S6  1  0.45708000  0.28172000  0.50151000  1.0 0.7148522044
S  S7  1  0.71828000  0.54292000  0.00151000  1.0 0.7158049847
S  S8  1  0.54292000  0.71828000  0.49849000  1.0 0.7299488688
N  N1  1  0.19076000  0.17984000  0.77478000  1.0 -0.1805556995
N  N2  1  0.17984000  0.19076000  0.72522000  1.0 -0.1805556995
N  N3  1  0.80924000  0.82016000  0.22522000  1.0 -0.1805556995
N  N4  1  0.82016000  0.80924000  0.27478000  1.0 -0.1805556995
N  N5  1  0.22594000  0.27626000  0.24905000  1.0 -0.1917575357
N  N6  1  0.27626000  0.22594000  0.25095000  1.0 -0.1917575357
N  N7  1  0.77406000  0.72374000  0.75095000  1.0 -0.1917575357
N  N8  1  0.72374000  0.77406000  0.74905000  1.0 -0.1917575357
N  N9  1  0.48427000  0.95573000  0.99485000  1.0 -0.1958979128
N  N10  1  0.95573000  0.48427000  0.50515000  1.0 -0.1958979128
N  N11  1  0.51573000  0.04427000  0.00515000  1.0 -0.1958979128
N  N12  1  0.04427000  0.51573000  0.49485000  1.0 -0.1958979128
O  O1  1  0.04185000  0.40957000  0.87394000  1.0 -0.5600741153
O  O2  1  0.40957000  0.04185000  0.62606000  1.0 -0.5600741153
O  O3  1  0.95815000  0.59043000  0.12606000  1.0 -0.5600741153
O  O4  1  0.59043000  0.95815000  0.37394000  1.0 -0.5600741153
O  O5  1  0.10355000  0.34345000  0.93651000  1.0 -0.6370189582
O  O6  1  0.34345000  0.10355000  0.56349000  1.0 -0.6370189582
O  O7  1  0.89645000  0.65655000  0.06349000  1.0 -0.6370189582
O  O8  1  0.65655000  0.89645000  0.43651000  1.0 -0.6370189582
O  O9  1  0.08463000  0.40767000  0.03506000  1.0 -0.6640431677
O  O10  1  0.40767000  0.08463000  0.46494000  1.0 -0.6640431677
O  O11  1  0.91537000  0.59233000  0.96494000  1.0 -0.6640431677
O  O12  1  0.59233000  0.91537000  0.53506000  1.0 -0.6640431677
O  O13  1  0.03631000  0.46909000  0.08599000  1.0 -0.6370189582
O  O14  1  0.46909000  0.03631000  0.41401000  1.0 -0.6289865707
O  O15  1  0.96369000  0.53091000  0.91401000  1.0 -0.6289865707
O  O16  1  0.53091000  0.96369000  0.58599000  1.0 -0.6370189582
O  O17  1  0.10372000  0.59708000  0.99711000  1.0 -0.6289865707
O  O18  1  0.59708000  0.10372000  0.50289000  1.0 -0.6289865707
O  O19  1  0.89628000  0.40292000  0.00289000  1.0 -0.618633089
O  O20  1  0.40292000  0.89628000  0.49711000  1.0 -0.6289865707
O  O21  1  0.07940000  0.67528000  0.04616000  1.0 -0.5941519832
O  O22  1  0.67528000  0.07940000  0.45384000  1.0 -0.5941519832
O  O23  1  0.92060000  0.32472000  0.95384000  1.0 -0.5941519832
O  O24  1  0.32472000  0.92060000  0.54616000  1.0 -0.5941519832
O  O25  1  0.14937000  0.59591000  0.89765000  1.0 -0.6110808944
O  O26  1  0.59591000  0.14937000  0.60235000  1.0 -0.6110808944
O  O27  1  0.85063000  0.40409000  0.10235000  1.0 -0.6110808944
O  O28  1  0.40409000  0.85063000  0.39765000  1.0 -0.6110808944
O  O29  1  0.23230000  0.51270000  0.97361000  1.0 -0.618633089
O  O30  1  0.51270000  0.23230000  0.52639000  1.0 -0.618633089
O  O31  1  0.76770000  0.48730000  0.02639000  1.0 -0.618633089
O  O32  1  0.48730000  0.76770000  0.47361000  1.0 -0.618633089
