# DDEC6 charges by PACMAN v1.1 (https://github.com/mtap-research/PACMAN-charge/)
data_ALULID_ASR_pacman
_symmetry_space_group_name_H-M   'P 1'
_cell_length_a   15.74280000
_cell_length_b   16.55620000
_cell_length_c   16.97600000
_cell_angle_alpha   99.86600000
_cell_angle_beta   95.61700000
_cell_angle_gamma   115.06000000
_symmetry_Int_Tables_number   1
_chemical_formula_structural   CeH12C21(NO2)3
_chemical_formula_sum   'Ce4 H48 C84 N12 O24'
_cell_volume   3876.15856881
_cell_formula_units_Z   4
loop_
 _symmetry_equiv_pos_site_id
 _symmetry_equiv_pos_as_xyz
  1  'x, y, z'
loop_
 _atom_site_type_symbol
 _atom_site_label
 _atom_site_symmetry_multiplicity
 _atom_site_fract_x
 _atom_site_fract_y
 _atom_site_fract_z
 _atom_site_occupancy
 _atom_site_charge
Ce  Ce1  1  0.52894000  0.53929000  0.63452000  1.0 1.885952455
Ce  Ce2  1  0.47106000  0.46071000  0.36548000  1.0 1.885952455
Ce  Ce3  1  0.55302000  0.48262000  0.86026000  1.0 1.9001850904
Ce  Ce4  1  0.44698000  0.51738000  0.13974000  1.0 1.9001850904
H  H1  1  0.23690000  0.48530000  0.86010000  1.0 0.1290966442
H  H2  1  0.76310000  0.51470000  0.13990000  1.0 0.1290966442
H  H3  1  0.10330000  0.50730000  0.81070000  1.0 0.1205799572
H  H4  1  0.89670000  0.49270000  0.18930000  1.0 0.1205799572
H  H5  1  0.12730000  0.41520000  0.58560000  1.0 0.1205799572
H  H6  1  0.87270000  0.58480000  0.41440000  1.0 0.1205799572
H  H7  1  0.27440000  0.42660000  0.63610000  1.0 0.1290966442
H  H8  1  0.72560000  0.57340000  0.36390000  1.0 0.1290966442
H  H9  1  0.88380000  0.50560000  0.68110000  1.0 0.1205799572
H  H10  1  0.11620000  0.49440000  0.31890000  1.0 0.1205799572
H  H11  1  0.74880000  0.51460000  0.62840000  1.0 0.1290966442
H  H12  1  0.25120000  0.48540000  0.37160000  1.0 0.1290966442
H  H13  1  0.73440000  0.37270000  0.41170000  1.0 0.1205799572
H  H14  1  0.26560000  0.62730000  0.58830000  1.0 0.1205799572
H  H15  1  0.87160000  0.36230000  0.45850000  1.0 0.1205799572
H  H16  1  0.12840000  0.63770000  0.54150000  1.0 0.1205799572
H  H17  1  0.55820000  0.76200000  0.89590000  1.0 0.138830991
H  H18  1  0.44180000  0.23800000  0.10410000  1.0 0.138830991
H  H19  1  0.55000000  0.90010000  0.90920000  1.0 0.1205799572
H  H20  1  0.45000000  0.09990000  0.09080000  1.0 0.1205799572
H  H21  1  0.48270000  0.88240000  0.12460000  1.0 0.1290966442
H  H22  1  0.51730000  0.11760000  0.87540000  1.0 0.1290966442
H  H23  1  0.47470000  0.73760000  0.10600000  1.0 0.1205799572
H  H24  1  0.52530000  0.26240000  0.89400000  1.0 0.1205799572
H  H25  1  0.87620000  0.77120000  0.73960000  1.0 0.1290966442
H  H26  1  0.12380000  0.22880000  0.26040000  1.0 0.1290966442
H  H27  1  0.98750000  0.91290000  0.82090000  1.0 0.1205799572
H  H28  1  0.01250000  0.08710000  0.17910000  1.0 0.1205799572
H  H29  1  0.84290000  0.86890000  0.00190000  1.0 0.1205799572
H  H30  1  0.15710000  0.13110000  0.99810000  1.0 0.1205799572
H  H31  1  0.72760000  0.73360000  0.91710000  1.0 0.1290966442
H  H32  1  0.27240000  0.26640000  0.08290000  1.0 0.1290966442
H  H33  1  0.72080000  0.74600000  0.38290000  1.0 0.1290966442
H  H34  1  0.27920000  0.25400000  0.61710000  1.0 0.1290966442
H  H35  1  0.86360000  0.87560000  0.39480000  1.0 0.1205799572
H  H36  1  0.13640000  0.12440000  0.60520000  1.0 0.1205799572
H  H37  1  0.90140000  0.91940000  0.63890000  1.0 0.1205799572
H  H38  1  0.09860000  0.08060000  0.36110000  1.0 0.1205799572
H  H39  1  0.75650000  0.79140000  0.62520000  1.0 0.1205799572
H  H40  1  0.24350000  0.20860000  0.37480000  1.0 0.1205799572
H  H41  1  0.44640000  0.16320000  0.71810000  1.0 0.1205799572
H  H42  1  0.55360000  0.83680000  0.28190000  1.0 0.1205799572
H  H43  1  0.45340000  0.04200000  0.63090000  1.0 0.1205799572
H  H44  1  0.54660000  0.95800000  0.36910000  1.0 0.1205799572
H  H45  1  0.55740000  0.19890000  0.47870000  1.0 0.1290966442
H  H46  1  0.44260000  0.80110000  0.52130000  1.0 0.1290966442
H  H47  1  0.55930000  0.32040000  0.56640000  1.0 0.1290966442
H  H48  1  0.44070000  0.67960000  0.43360000  1.0 0.1290966442
C  C1  1  0.26940000  0.45670000  0.75170000  1.0 -0.052054205
C  C2  1  0.73060000  0.54330000  0.24830000  1.0 -0.052054205
C  C3  1  0.21710000  0.47600000  0.80440000  1.0 -0.0817154693
C  C4  1  0.78290000  0.52400000  0.19560000  1.0 -0.0817154693
C  C5  1  0.13260000  0.48220000  0.77590000  1.0 -0.1518486804
C  C6  1  0.86740000  0.51780000  0.22410000  1.0 -0.1518486804
C  C7  1  0.09650000  0.44820000  0.69260000  1.0 0.138830991
C  C8  1  0.90350000  0.55180000  0.30740000  1.0 0.138830991
C  C9  1  0.14940000  0.43100000  0.64160000  1.0 -0.1518486804
C  C10  1  0.85060000  0.56900000  0.35840000  1.0 -0.1518486804
C  C11  1  0.23720000  0.43680000  0.67210000  1.0 -0.0743380292
C  C12  1  0.76280000  0.56320000  0.32790000  1.0 -0.0743380292
C  C13  1  0.89340000  0.43820000  0.57270000  1.0 0.1498078601
C  C14  1  0.10660000  0.56180000  0.42730000  1.0 0.1498078601
C  C15  1  0.85560000  0.48080000  0.62630000  1.0 -0.1608814476
C  C16  1  0.14440000  0.51920000  0.37370000  1.0 -0.1608814476
C  C17  1  0.77350000  0.48420000  0.59350000  1.0 -0.0817154693
C  C18  1  0.22650000  0.51580000  0.40650000  1.0 -0.0817154693
C  C19  1  0.72460000  0.44660000  0.51360000  1.0 -0.090798327
C  C20  1  0.27540000  0.55340000  0.48640000  1.0 -0.090798327
C  C21  1  0.76500000  0.40090000  0.46560000  1.0 -0.090798327
C  C22  1  0.23500000  0.59910000  0.53440000  1.0 -0.090798327
C  C23  1  0.84790000  0.39450000  0.49270000  1.0 -0.1671119935
C  C24  1  0.15210000  0.60550000  0.50730000  1.0 -0.1671119935
C  C25  1  0.63930000  0.45240000  0.48220000  1.0 0.5806449673
C  C26  1  0.36070000  0.54760000  0.51780000  1.0 0.5806449673
C  C27  1  0.51390000  0.73590000  0.99750000  1.0 -0.052054205
C  C28  1  0.48610000  0.26410000  0.00250000  1.0 -0.052054205
C  C29  1  0.53770000  0.78390000  0.94070000  1.0 -0.090798327
C  C30  1  0.46230000  0.21610000  0.05930000  1.0 -0.090798327
C  C31  1  0.53220000  0.86580000  0.94810000  1.0 -0.1671119935
C  C32  1  0.46780000  0.13420000  0.05190000  1.0 -0.1608814476
C  C33  1  0.50000000  0.89570000  0.01360000  1.0 0.138830991
C  C34  1  0.50000000  0.10430000  0.98640000  1.0 0.138830991
C  C35  1  0.49000000  0.85440000  0.07510000  1.0 -0.1608814476
C  C36  1  0.51000000  0.14560000  0.92490000  1.0 -0.1518486804
C  C37  1  0.49040000  0.77040000  0.06590000  1.0 -0.090798327
C  C38  1  0.50960000  0.22960000  0.93410000  1.0 -0.090798327
C  C39  1  0.71400000  0.65370000  0.76580000  1.0 0.5806449673
C  C40  1  0.28600000  0.34630000  0.23420000  1.0 0.5806449673
C  C41  1  0.79050000  0.73930000  0.82260000  1.0 -0.03099922
C  C42  1  0.20950000  0.26070000  0.17740000  1.0 -0.03099922
C  C43  1  0.86900000  0.79150000  0.79200000  1.0 -0.090798327
C  C44  1  0.13100000  0.20850000  0.20800000  1.0 -0.090798327
C  C45  1  0.93660000  0.87510000  0.84170000  1.0 -0.1608814476
C  C46  1  0.06340000  0.12490000  0.15830000  1.0 -0.1518486804
C  C47  1  0.93000000  0.90250000  0.91910000  1.0 0.1498078601
C  C48  1  0.07000000  0.09750000  0.08090000  1.0 0.1498078601
C  C49  1  0.84990000  0.84990000  0.94910000  1.0 -0.1608814476
C  C50  1  0.15010000  0.15010000  0.05090000  1.0 -0.1608814476
C  C51  1  0.78160000  0.76890000  0.89820000  1.0 -0.090798327
C  C52  1  0.21840000  0.23110000  0.10180000  1.0 -0.090798327
C  C53  1  0.63520000  0.66940000  0.49870000  1.0 0.6055844845
C  C54  1  0.36480000  0.33060000  0.50130000  1.0 0.6055844845
C  C55  1  0.72430000  0.75420000  0.50310000  1.0 -0.03099922
C  C56  1  0.27570000  0.24580000  0.49690000  1.0 -0.03099922
C  C57  1  0.75670000  0.78060000  0.43430000  1.0 -0.090798327
C  C58  1  0.24330000  0.21940000  0.56570000  1.0 -0.090798327
C  C59  1  0.84240000  0.85840000  0.44130000  1.0 -0.1671119935
C  C60  1  0.15760000  0.14160000  0.55870000  1.0 -0.1671119935
C  C61  1  0.89600000  0.91010000  0.51770000  1.0 0.1552073629
C  C62  1  0.10400000  0.08990000  0.48230000  1.0 0.1498078601
C  C63  1  0.86520000  0.88530000  0.58750000  1.0 -0.1671119935
C  C64  1  0.13480000  0.11470000  0.41250000  1.0 -0.1671119935
C  C65  1  0.77860000  0.80770000  0.57870000  1.0 -0.090798327
C  C66  1  0.22140000  0.19230000  0.42130000  1.0 -0.090798327
C  C67  1  0.50800000  0.33610000  0.71010000  1.0 0.5806449673
C  C68  1  0.49200000  0.66390000  0.28990000  1.0 0.5806449673
C  C69  1  0.50880000  0.25760000  0.65160000  1.0 -0.0158478544
C  C70  1  0.49120000  0.74240000  0.34840000  1.0 -0.0158478544
C  C71  1  0.47200000  0.17150000  0.67130000  1.0 -0.090798327
C  C72  1  0.52800000  0.82850000  0.32870000  1.0 -0.090798327
C  C73  1  0.47540000  0.09890000  0.61790000  1.0 -0.1608814476
C  C74  1  0.52460000  0.90110000  0.38210000  1.0 -0.1608814476
C  C75  1  0.50990000  0.10850000  0.54750000  1.0 0.1498078601
C  C76  1  0.49010000  0.89150000  0.45250000  1.0 0.138830991
C  C77  1  0.53810000  0.19160000  0.52810000  1.0 -0.1518486804
C  C78  1  0.46190000  0.80840000  0.47190000  1.0 -0.1518486804
C  C79  1  0.53810000  0.26420000  0.58070000  1.0 -0.0817154693
C  C80  1  0.46190000  0.73580000  0.41930000  1.0 -0.0817154693
C  C81  1  0.52090000  0.64820000  0.98630000  1.0 0.6181261958
C  C82  1  0.47910000  0.35180000  0.01370000  1.0 0.6181261958
C  C83  1  0.36370000  0.46800000  0.78450000  1.0 0.5730187418
C  C84  1  0.63630000  0.53200000  0.21550000  1.0 0.5730187418
N  N1  1  0.00800000  0.45400000  0.66850000  1.0 -0.0817154693
N  N2  1  0.99200000  0.54600000  0.33150000  1.0 -0.0817154693
N  N3  1  0.97770000  0.42790000  0.59620000  1.0 -0.1348446785
N  N4  1  0.02230000  0.57210000  0.40380000  1.0 -0.1352907597
N  N5  1  0.49510000  0.98390000  0.02920000  1.0 -0.1206101889
N  N6  1  0.50490000  0.01610000  0.97080000  1.0 -0.1143881111
N  N7  1  0.00530000  0.98750000  0.96600000  1.0 -0.1206101889
N  N8  1  0.99470000  0.01250000  0.03400000  1.0 -0.1206101889
N  N9  1  0.98720000  0.99220000  0.53140000  1.0 -0.1206101889
N  N10  1  0.01280000  0.00780000  0.46860000  1.0 -0.1206101889
N  N11  1  0.51110000  0.03550000  0.48940000  1.0 -0.1206101889
N  N12  1  0.48890000  0.96450000  0.51060000  1.0 -0.1206101889
O  O1  1  0.43060000  0.49420000  0.74640000  1.0 -0.6198418119
O  O2  1  0.56940000  0.50580000  0.25360000  1.0 -0.6198418119
O  O3  1  0.37490000  0.44900000  0.84800000  1.0 -0.466855201
O  O4  1  0.62510000  0.55100000  0.15200000  1.0 -0.466855201
O  O5  1  0.60610000  0.42410000  0.40850000  1.0 -0.5741812168
O  O6  1  0.39390000  0.57590000  0.59150000  1.0 -0.5741812168
O  O7  1  0.59910000  0.48260000  0.53150000  1.0 -0.6560442626
O  O8  1  0.40090000  0.51740000  0.46850000  1.0 -0.6560442626
O  O9  1  0.54450000  0.62060000  0.92210000  1.0 -0.6198418119
O  O10  1  0.45550000  0.37940000  0.07790000  1.0 -0.6198418119
O  O11  1  0.64780000  0.60160000  0.79590000  1.0 -0.671673554
O  O12  1  0.35220000  0.39840000  0.20410000  1.0 -0.671673554
O  O13  1  0.71330000  0.63810000  0.69280000  1.0 -0.5470310925
O  O14  1  0.28670000  0.36190000  0.30720000  1.0 -0.5470310925
O  O15  1  0.60030000  0.66170000  0.55990000  1.0 -0.5861339151
O  O16  1  0.39970000  0.33830000  0.44010000  1.0 -0.5861339151
O  O17  1  0.60180000  0.61470000  0.43020000  1.0 -0.6198418119
O  O18  1  0.39820000  0.38530000  0.56980000  1.0 -0.6198418119
O  O19  1  0.55500000  0.41600000  0.69780000  1.0 -0.6754709064
O  O20  1  0.44500000  0.58400000  0.30220000  1.0 -0.6754709064
O  O21  1  0.46760000  0.32180000  0.76910000  1.0 -0.5819670438
O  O22  1  0.53240000  0.67820000  0.23090000  1.0 -0.5819670438
O  O23  1  0.49510000  0.60170000  0.03750000  1.0 -0.637853968
O  O24  1  0.50490000  0.39830000  0.96250000  1.0 -0.637853968
