# DDEC6 charges by PACMAN v1.1 (https://github.com/mtap-research/PACMAN-charge/)
data_AMAWAP_FSR_pacman
_symmetry_space_group_name_H-M   'P 1'
_cell_length_a   6.18240000
_cell_length_b   15.01000000
_cell_length_c   16.20100000
_cell_angle_alpha   65.99000000
_cell_angle_beta   81.36800000
_cell_angle_gamma   83.52500000
_symmetry_Int_Tables_number   1
_chemical_formula_structural   Co2H24C30O11
_chemical_formula_sum   'Co4 H48 C60 O22'
_cell_volume   1355.55082992
_cell_formula_units_Z   2
loop_
 _symmetry_equiv_pos_site_id
 _symmetry_equiv_pos_as_xyz
  1  'x, y, z'
loop_
 _atom_site_type_symbol
 _atom_site_label
 _atom_site_symmetry_multiplicity
 _atom_site_fract_x
 _atom_site_fract_y
 _atom_site_fract_z
 _atom_site_occupancy
 _atom_site_charge
Co  Co1  1  0.96400000  0.55774000  0.39621000  1.0 1.0664907477
Co  Co2  1  0.31890000  0.38801000  0.43229000  1.0 0.9601075135
Co  Co3  1  0.03600000  0.44226000  0.60379000  1.0 1.0664907477
Co  Co4  1  0.68110000  0.61199000  0.56771000  1.0 0.9601075135
H  H1  1  0.33140000  0.53610000  0.47020000  1.0 0.3876370571
H  H2  1  0.62370000  0.57040000  0.31250000  1.0 0.3699073724
H  H3  1  0.63130000  0.66550000  0.31800000  1.0 0.3699073724
H  H4  1  0.11000000  0.36170000  0.27130000  1.0 0.1294356194
H  H5  1  0.56870000  0.22310000  0.41740000  1.0 0.1294356194
H  H6  1  0.86500000  0.16530000  0.20620000  1.0 0.1294356194
H  H7  1  0.43220000  0.32300000  0.17250000  1.0 0.1010446167
H  H8  1  0.25340000  0.40890000  0.13660000  1.0 0.1010446167
H  H9  1  0.71430000  0.30010000  0.05700000  1.0 0.1219678304
H  H10  1  0.15780000  0.44420000  0.97970000  1.0 0.1219678304
H  H11  1  0.84750000  0.33420000  0.90930000  1.0 0.1219678304
H  H12  1  0.30340000  0.50180000  0.82920000  1.0 0.1219678304
H  H13  1  0.69780000  0.03560000  0.28280000  1.0 0.1010446167
H  H14  1  0.52490000  0.10170000  0.21890000  1.0 0.1010446167
H  H15  1  0.14180000  0.05540000  0.37030000  1.0 0.0906225574
H  H16  1  0.90870000  0.92800000  0.42340000  1.0 0.0831064272
H  H17  1  0.37410000  0.76530000  0.33770000  1.0 0.0906225574
H  H18  1  0.60720000  0.89270000  0.28460000  1.0 0.0906225574
H  H19  1  0.28840000  0.14520000  0.37160000  1.0 0.1219678304
H  H20  1  0.40210000  0.07470000  0.45710000  1.0 0.0831064272
H  H21  1  0.98090000  0.04240000  0.44790000  1.0 0.0906225574
H  H22  1  0.79040000  0.91220000  0.45990000  1.0 0.0625182322
H  H23  1  0.33520000  0.80210000  0.35720000  1.0 0.0906225574
H  H24  1  0.52570000  0.93230000  0.34510000  1.0 0.1010446167
H  H25  1  0.66860000  0.46390000  0.52980000  1.0 0.3876370571
H  H26  1  0.37630000  0.42960000  0.68750000  1.0 0.3699073724
H  H27  1  0.36870000  0.33450000  0.68200000  1.0 0.3699073724
H  H28  1  0.89000000  0.63830000  0.72870000  1.0 0.1294356194
H  H29  1  0.43130000  0.77690000  0.58260000  1.0 0.1294356194
H  H30  1  0.13500000  0.83470000  0.79380000  1.0 0.1294356194
H  H31  1  0.56780000  0.67700000  0.82750000  1.0 0.1010446167
H  H32  1  0.74660000  0.59110000  0.86340000  1.0 0.1010446167
H  H33  1  0.28570000  0.69990000  0.94300000  1.0 0.1219678304
H  H34  1  0.84220000  0.55580000  0.02030000  1.0 0.1219678304
H  H35  1  0.15250000  0.66580000  0.09070000  1.0 0.1219678304
H  H36  1  0.69660000  0.49820000  0.17080000  1.0 0.1219678304
H  H37  1  0.30220000  0.96440000  0.71720000  1.0 0.1010446167
H  H38  1  0.47510000  0.89830000  0.78110000  1.0 0.1010446167
H  H39  1  0.85820000  0.94460000  0.62970000  1.0 0.0906225574
H  H40  1  0.09130000  0.07200000  0.57660000  1.0 0.0831064272
H  H41  1  0.62590000  0.23470000  0.66230000  1.0 0.0906225574
H  H42  1  0.39280000  0.10730000  0.71540000  1.0 0.0906225574
H  H43  1  0.71160000  0.85480000  0.62840000  1.0 0.1219678304
H  H44  1  0.59790000  0.92530000  0.54290000  1.0 0.0831064272
H  H45  1  0.01910000  0.95760000  0.55210000  1.0 0.0906225574
H  H46  1  0.20960000  0.08780000  0.54010000  1.0 0.0625182322
H  H47  1  0.66480000  0.19790000  0.64280000  1.0 0.0906225574
H  H48  1  0.47430000  0.06770000  0.65490000  1.0 0.1010446167
C  C1  1  0.81040000  0.36790000  0.40370000  1.0 0.5869518301
C  C2  1  0.82940000  0.30400000  0.34930000  1.0 -0.0099561129
C  C3  1  0.00280000  0.31890000  0.28000000  1.0 -0.25985033
C  C4  1  0.67880000  0.23420000  0.36900000  1.0 -0.422040365
C  C5  1  0.01100000  0.26870000  0.22520000  1.0 0.2554992816
C  C6  1  0.85740000  0.19960000  0.24330000  1.0 -0.4568277069
C  C7  1  0.69590000  0.18160000  0.31500000  1.0 0.23174844
C  C8  1  0.32100000  0.34970000  0.13110000  1.0 -0.0689929112
C  C9  1  0.42160000  0.37120000  0.03340000  1.0 0.0906225574
C  C10  1  0.62900000  0.33850000  0.01120000  1.0 -0.1577186354
C  C11  1  0.30300000  0.42650000  0.96510000  1.0 -0.1472325393
C  C12  1  0.71090000  0.36160000  0.92220000  1.0 -0.097667794
C  C13  1  0.38610000  0.45850000  0.87400000  1.0 -0.1081938216
C  C14  1  0.59870000  0.42410000  0.85070000  1.0 -0.0595154383
C  C15  1  0.68290000  0.45540000  0.75390000  1.0 0.5759422562
C  C16  1  0.54900000  0.06440000  0.28200000  1.0 -0.0099561129
C  C17  1  0.39760000  0.98660000  0.32210000  1.0 -0.0689929112
C  C18  1  0.18840000  0.99720000  0.36370000  1.0 -0.0486241349
C  C19  1  0.04870000  0.92090000  0.39560000  1.0 0.0172204736
C  C20  1  0.11830000  0.83400000  0.38580000  1.0 0.0328186459
C  C21  1  0.32800000  0.82340000  0.34420000  1.0 -0.0486241349
C  C22  1  0.46720000  0.89970000  0.31240000  1.0 -0.1285663017
C  C23  1  0.93400000  0.75130000  0.42260000  1.0 0.4032859437
C  C24  1  0.38200000  0.08630000  0.39520000  1.0 -0.0428526097
C  C25  1  0.27220000  0.00020000  0.39530000  1.0 -0.0214457901
C  C26  1  0.05190000  0.99420000  0.42970000  1.0 -0.1443651834
C  C27  1  0.93780000  0.91620000  0.43690000  1.0 -0.0759455443
C  C28  1  0.04390000  0.84430000  0.40970000  1.0 0.0328186459
C  C29  1  0.26420000  0.85030000  0.37530000  1.0 0.0081736164
C  C30  1  0.37830000  0.92830000  0.36810000  1.0 -0.0486241349
C  C31  1  0.18960000  0.63210000  0.59630000  1.0 0.5869518301
C  C32  1  0.17060000  0.69600000  0.65070000  1.0 -0.0099561129
C  C33  1  0.99720000  0.68110000  0.72000000  1.0 -0.25985033
C  C34  1  0.32120000  0.76580000  0.63100000  1.0 -0.422040365
C  C35  1  0.98900000  0.73130000  0.77480000  1.0 0.2554992816
C  C36  1  0.14260000  0.80040000  0.75670000  1.0 -0.4568277069
C  C37  1  0.30410000  0.81840000  0.68500000  1.0 0.23174844
C  C38  1  0.67900000  0.65030000  0.86890000  1.0 -0.0689929112
C  C39  1  0.57840000  0.62880000  0.96660000  1.0 0.0906225574
C  C40  1  0.37100000  0.66150000  0.98880000  1.0 -0.1577186354
C  C41  1  0.69700000  0.57350000  0.03490000  1.0 -0.1472325393
C  C42  1  0.28910000  0.63840000  0.07780000  1.0 -0.097667794
C  C43  1  0.61390000  0.54150000  0.12600000  1.0 -0.1081938216
C  C44  1  0.40130000  0.57590000  0.14930000  1.0 -0.0595154383
C  C45  1  0.31710000  0.54460000  0.24610000  1.0 0.5759422562
C  C46  1  0.45100000  0.93560000  0.71800000  1.0 -0.0099561129
C  C47  1  0.60240000  0.01340000  0.67790000  1.0 -0.0689929112
C  C48  1  0.81160000  0.00280000  0.63630000  1.0 -0.0486241349
C  C49  1  0.95130000  0.07910000  0.60440000  1.0 0.0172204736
C  C50  1  0.88170000  0.16600000  0.61420000  1.0 0.0328186459
C  C51  1  0.67200000  0.17660000  0.65580000  1.0 -0.0486241349
C  C52  1  0.53280000  0.10030000  0.68760000  1.0 -0.1285663017
C  C53  1  0.06600000  0.24870000  0.57740000  1.0 0.4032859437
C  C54  1  0.61800000  0.91370000  0.60480000  1.0 -0.0428526097
C  C55  1  0.72780000  0.99980000  0.60470000  1.0 -0.0214457901
C  C56  1  0.94810000  0.00580000  0.57030000  1.0 -0.1443651834
C  C57  1  0.06220000  0.08380000  0.56310000  1.0 -0.0759455443
C  C58  1  0.95610000  0.15570000  0.59030000  1.0 0.0328186459
C  C59  1  0.73580000  0.14970000  0.62470000  1.0 0.0081736164
C  C60  1  0.62170000  0.07170000  0.63190000  1.0 -0.0486241349
O  O1  1  0.97770000  0.41680000  0.39270000  1.0 -0.6021856287
O  O2  1  0.63780000  0.37200000  0.45330000  1.0 -0.5634132841
O  O3  1  0.15760000  0.27910000  0.15170000  1.0 -0.190045438
O  O4  1  0.59740000  0.53320000  0.69890000  1.0 -0.5815423348
O  O5  1  0.84900000  0.40830000  0.73050000  1.0 -0.5738376298
O  O6  1  0.78460000  0.74070000  0.48240000  1.0 -0.4817019173
O  O7  1  0.01160000  0.69710000  0.38350000  1.0 -0.496562741
O  O8  1  0.21820000  0.49200000  0.47730000  1.0 -0.9284594276
O  O9  1  0.68430000  0.60760000  0.32900000  1.0 -0.6992019036
O  O10  1  0.52900000  0.12400000  0.32400000  1.0 -0.0099561129
O  O11  1  0.57300000  0.09870000  0.34520000  1.0 -0.0214457901
O  O12  1  0.02230000  0.58320000  0.60730000  1.0 -0.6021856287
O  O13  1  0.36220000  0.62800000  0.54670000  1.0 -0.5634132841
O  O14  1  0.84240000  0.72090000  0.84830000  1.0 -0.190045438
O  O15  1  0.40260000  0.46680000  0.30110000  1.0 -0.5815423348
O  O16  1  0.15100000  0.59170000  0.26950000  1.0 -0.5738376298
O  O17  1  0.21540000  0.25930000  0.51760000  1.0 -0.4817019173
O  O18  1  0.98840000  0.30290000  0.61650000  1.0 -0.496562741
O  O19  1  0.78180000  0.50800000  0.52270000  1.0 -0.9284594276
O  O20  1  0.31570000  0.39240000  0.67100000  1.0 -0.6992019036
O  O21  1  0.47100000  0.87600000  0.67600000  1.0 -0.0099561129
O  O22  1  0.42700000  0.90130000  0.65480000  1.0 -0.0214457901
