# DDEC6 charges by PACMAN v1.1 (https://github.com/mtap-research/PACMAN-charge/)
data_AMOXEI_FSR_pacman
_symmetry_space_group_name_H-M   'P 1'
_cell_length_a   19.61850000
_cell_length_b   19.61850000
_cell_length_c   19.21600000
_cell_angle_alpha   79.19890000
_cell_angle_beta   100.80100000
_cell_angle_gamma   79.17510000
_symmetry_Int_Tables_number   1
_chemical_formula_structural   Cs2Na12Co4Te2Mo12P6H16C18(N2O31)3
_chemical_formula_sum   'Cs4 Na24 Co8 Te4 Mo24 P12 H32 C36 N12 O186'
_cell_volume   6943.14877243
_cell_formula_units_Z   2
loop_
 _symmetry_equiv_pos_site_id
 _symmetry_equiv_pos_as_xyz
  1  'x, y, z'
loop_
 _atom_site_type_symbol
 _atom_site_label
 _atom_site_symmetry_multiplicity
 _atom_site_fract_x
 _atom_site_fract_y
 _atom_site_fract_z
 _atom_site_occupancy
 _atom_site_charge
Cs  Cs1  1  0.42332000  0.92724000  0.96964000  1.0 1.0014349806
Cs  Cs2  1  0.92724000  0.42332000  0.53036000  1.0 1.0014349806
Cs  Cs3  1  0.57668000  0.07276000  0.03036000  1.0 1.0014349806
Cs  Cs4  1  0.07276000  0.57668000  0.46964000  1.0 1.0060577976
Na  Na1  1  0.59367000  0.92247000  0.67310000  1.0 0.8940745282
Na  Na2  1  0.76500000  0.68740000  0.96410000  1.0 0.8535233128
Na  Na3  1  0.45510000  0.66110000  0.77720000  1.0 0.8725655067
Na  Na4  1  0.30950000  0.57430000  0.72990000  1.0 0.9312049734
Na  Na5  1  0.40795000  0.12901000  0.83160000  1.0 0.9312049734
Na  Na6  1  0.19210000  0.69470000  0.56900000  1.0 0.8829425561
Na  Na7  1  0.92247000  0.59367000  0.82690000  1.0 0.8940745282
Na  Na8  1  0.68740000  0.76500000  0.53590000  1.0 0.8550039518
Na  Na9  1  0.66110000  0.45510000  0.72280000  1.0 0.8725655067
Na  Na10  1  0.57430000  0.30950000  0.77010000  1.0 0.9312049734
Na  Na11  1  0.12901000  0.40795000  0.66840000  1.0 0.9312049734
Na  Na12  1  0.69470000  0.19210000  0.93100000  1.0 0.8829425561
Na  Na13  1  0.40633000  0.07753000  0.32690000  1.0 0.8940745282
Na  Na14  1  0.23500000  0.31260000  0.03590000  1.0 0.8535233128
Na  Na15  1  0.54490000  0.33890000  0.22280000  1.0 0.8725655067
Na  Na16  1  0.69050000  0.42570000  0.27010000  1.0 0.9312049734
Na  Na17  1  0.59205000  0.87099000  0.16840000  1.0 0.9312049734
Na  Na18  1  0.80790000  0.30530000  0.43100000  1.0 0.8829425561
Na  Na19  1  0.07753000  0.40633000  0.17310000  1.0 0.8940745282
Na  Na20  1  0.31260000  0.23500000  0.46410000  1.0 0.8550039518
Na  Na21  1  0.33890000  0.54490000  0.27720000  1.0 0.8725655067
Na  Na22  1  0.42570000  0.69050000  0.22990000  1.0 0.9312049734
Na  Na23  1  0.87099000  0.59205000  0.33160000  1.0 0.9312049734
Na  Na24  1  0.30530000  0.80790000  0.06900000  1.0 0.8829425561
Co  Co1  1  0.71501000  0.49561000  0.92484000  1.0 0.9312049734
Co  Co2  1  0.49561000  0.71501000  0.57516000  1.0 0.9312049734
Co  Co3  1  0.28499000  0.50439000  0.07516000  1.0 0.9237583863
Co  Co4  1  0.50439000  0.28499000  0.42484000  1.0 0.9237583863
Co  Co5  1  0.72642000  0.72642000  0.75000000  1.0 1.3200770724
Co  Co6  1  0.83154000  0.83154000  0.75000000  1.0 0.9109530138
Co  Co7  1  0.27358000  0.27358000  0.25000000  1.0 1.3101235497
Co  Co8  1  0.16846000  0.16846000  0.25000000  1.0 0.9109530138
Te  Te1  1  0.53751000  0.82219000  0.86688000  1.0 1.4767212855
Te  Te2  1  0.82219000  0.53751000  0.63312000  1.0 1.4726887333
Te  Te3  1  0.46249000  0.17781000  0.13312000  1.0 1.4767212855
Te  Te4  1  0.17781000  0.46249000  0.36688000  1.0 1.4726887333
Mo  Mo1  1  0.66666667  0.87462000  0.99702000  1.0 2.0142727482
Mo  Mo2  1  0.58296000  0.99694000  0.84139000  1.0 2.1450925457
Mo  Mo3  1  0.59152000  0.72410000  0.05891000  1.0 2.1578196275
Mo  Mo4  1  0.34878000  0.83648000  0.78634000  1.0 2.140651344
Mo  Mo5  1  0.43771000  0.70839000  0.95987000  1.0 2.1912150967
Mo  Mo6  1  0.42075000  0.97293000  0.72974000  1.0 2.140651344
Mo  Mo7  1  0.87462000  0.66666667  0.50298000  1.0 2.0225910929
Mo  Mo8  1  0.99694000  0.58296000  0.65861000  1.0 2.140651344
Mo  Mo9  1  0.72410000  0.59152000  0.44109000  1.0 2.1578196275
Mo  Mo10  1  0.83648000  0.34878000  0.71366000  1.0 2.1315878021
Mo  Mo11  1  0.70839000  0.43771000  0.54013000  1.0 2.1912150967
Mo  Mo12  1  0.97293000  0.42075000  0.77026000  1.0 2.140651344
Mo  Mo13  1  0.33333333  0.12538000  0.00298000  1.0 2.0225910929
Mo  Mo14  1  0.41704000  0.00306000  0.15861000  1.0 2.1450925457
Mo  Mo15  1  0.40848000  0.27590000  0.94109000  1.0 2.1578196275
Mo  Mo16  1  0.65122000  0.16352000  0.21366000  1.0 2.140651344
Mo  Mo17  1  0.56229000  0.29161000  0.04013000  1.0 2.1912150967
Mo  Mo18  1  0.57925000  0.02707000  0.27026000  1.0 2.140651344
Mo  Mo19  1  0.12538000  0.33333333  0.49702000  1.0 2.0225910929
Mo  Mo20  1  0.00306000  0.41704000  0.34139000  1.0 2.140651344
Mo  Mo21  1  0.27590000  0.40848000  0.55891000  1.0 2.1578196275
Mo  Mo22  1  0.16352000  0.65122000  0.28634000  1.0 2.1315878021
Mo  Mo23  1  0.29161000  0.56229000  0.45987000  1.0 2.1912150967
Mo  Mo24  1  0.02707000  0.57925000  0.22974000  1.0 2.140651344
P  P1  1  0.46257000  0.81875000  0.67287000  1.0 1.3101235497
P  P2  1  0.59634000  0.61378000  0.94203000  1.0 1.3200770724
P  P3  1  0.72103000  0.86429000  0.83982000  1.0 1.2924898254
P  P4  1  0.81875000  0.46257000  0.82713000  1.0 1.3101235497
P  P5  1  0.61378000  0.59634000  0.55797000  1.0 1.3200770724
P  P6  1  0.86429000  0.72103000  0.66018000  1.0 1.2924898254
P  P7  1  0.53743000  0.18125000  0.32713000  1.0 1.3101235497
P  P8  1  0.40366000  0.38622000  0.05797000  1.0 1.3200770724
P  P9  1  0.27897000  0.13571000  0.16018000  1.0 1.2968099105
P  P10  1  0.18125000  0.53743000  0.17287000  1.0 1.3101235497
P  P11  1  0.38622000  0.40366000  0.44203000  1.0 1.3200770724
P  P12  1  0.13571000  0.27897000  0.33982000  1.0 1.2968099105
H  H1  1  0.56579000  0.50581000  0.97810000  1.0 0.1756970013
H  H2  1  0.58419000  0.53875000  0.04579000  1.0 0.1692256971
H  H3  1  0.69590000  0.53518000  0.10174000  1.0 0.1328044447
H  H4  1  0.74312000  0.45746000  0.12017000  1.0 0.1481632264
H  H5  1  0.42178000  0.88280000  0.55301000  1.0 0.1692256971
H  H6  1  0.35685000  0.87505000  0.58816000  1.0 0.1606484639
H  H7  1  0.31143000  0.78289000  0.59440000  1.0 0.1438121123
H  H8  1  0.30888000  0.74914000  0.52658000  1.0 0.1481632264
H  H9  1  0.50581000  0.56579000  0.52190000  1.0 0.1756970013
H  H10  1  0.53875000  0.58419000  0.45421000  1.0 0.1692256971
H  H11  1  0.53518000  0.69590000  0.39826000  1.0 0.1328044447
H  H12  1  0.45746000  0.74312000  0.37983000  1.0 0.1481632264
H  H13  1  0.88280000  0.42178000  0.94699000  1.0 0.1692256971
H  H14  1  0.87505000  0.35685000  0.91184000  1.0 0.1606484639
H  H15  1  0.78289000  0.31143000  0.90560000  1.0 0.1438121123
H  H16  1  0.74914000  0.30888000  0.97342000  1.0 0.1481632264
H  H17  1  0.43421000  0.49419000  0.02190000  1.0 0.1756970013
H  H18  1  0.41581000  0.46125000  0.95421000  1.0 0.1692256971
H  H19  1  0.30410000  0.46482000  0.89826000  1.0 0.1328044447
H  H20  1  0.25688000  0.54254000  0.87983000  1.0 0.1481632264
H  H21  1  0.57822000  0.11720000  0.44699000  1.0 0.1692256971
H  H22  1  0.64315000  0.12495000  0.41184000  1.0 0.1606484639
H  H23  1  0.68857000  0.21711000  0.40560000  1.0 0.1438121123
H  H24  1  0.69112000  0.25086000  0.47342000  1.0 0.1481632264
H  H25  1  0.49419000  0.43421000  0.47810000  1.0 0.1756970013
H  H26  1  0.46125000  0.41581000  0.54579000  1.0 0.1692256971
H  H27  1  0.46482000  0.30410000  0.60174000  1.0 0.1328044447
H  H28  1  0.54254000  0.25688000  0.62017000  1.0 0.1481632264
H  H29  1  0.11720000  0.57822000  0.05301000  1.0 0.1692256971
H  H30  1  0.12495000  0.64315000  0.08816000  1.0 0.1606484639
H  H31  1  0.21711000  0.68857000  0.09440000  1.0 0.1438121123
H  H32  1  0.25086000  0.69112000  0.02658000  1.0 0.1481632264
C  C1  1  0.59880000  0.52980000  0.00220000  1.0 -0.4391434838
C  C2  1  0.72270000  0.50010000  0.08160000  1.0 -0.2874777106
C  C3  1  0.78240000  0.52880000  0.05690000  1.0 0.6061157721
C  C4  1  0.40270000  0.84970000  0.58360000  1.0 -0.4391434838
C  C5  1  0.34020000  0.75400000  0.57000000  1.0 -0.277655106
C  C6  1  0.37080000  0.68160000  0.61920000  1.0 0.6460686115
C  C7  1  0.79080000  0.91180000  0.85640000  1.0 -0.2002506864
C  C8  1  0.78870000  0.99570000  0.74340000  1.0 0.1438121123
C  C9  1  0.75210000  0.98050000  0.67300000  1.0 0.5309135901
C  C10  1  0.52980000  0.59880000  0.49780000  1.0 -0.4391434838
C  C11  1  0.50010000  0.72270000  0.41840000  1.0 -0.2874777106
C  C12  1  0.52880000  0.78240000  0.44310000  1.0 0.6061157721
C  C13  1  0.84970000  0.40270000  0.91640000  1.0 -0.4391434838
C  C14  1  0.75400000  0.34020000  0.93000000  1.0 -0.277655106
C  C15  1  0.68160000  0.37080000  0.88080000  1.0 0.6460686115
C  C16  1  0.91180000  0.79080000  0.64360000  1.0 -0.2002506864
C  C17  1  0.99570000  0.78870000  0.75660000  1.0 0.1481632264
C  C18  1  0.98050000  0.75210000  0.82700000  1.0 0.5309135901
C  C19  1  0.40120000  0.47020000  0.99780000  1.0 -0.4391434838
C  C20  1  0.27730000  0.49990000  0.91840000  1.0 -0.2874777106
C  C21  1  0.21760000  0.47120000  0.94310000  1.0 0.6061157721
C  C22  1  0.59730000  0.15030000  0.41640000  1.0 -0.4391434838
C  C23  1  0.65980000  0.24600000  0.43000000  1.0 -0.277655106
C  C24  1  0.62920000  0.31840000  0.38080000  1.0 0.6448224771
C  C25  1  0.20920000  0.08820000  0.14360000  1.0 -0.2077572805
C  C26  1  0.21130000  0.00430000  0.25660000  1.0 0.1438121123
C  C27  1  0.24790000  0.01950000  0.32700000  1.0 0.5309135901
C  C28  1  0.47020000  0.40120000  0.50220000  1.0 -0.4391434838
C  C29  1  0.49990000  0.27730000  0.58160000  1.0 -0.2874777106
C  C30  1  0.47120000  0.21760000  0.55690000  1.0 0.6061157721
C  C31  1  0.15030000  0.59730000  0.08360000  1.0 -0.4391434838
C  C32  1  0.24600000  0.65980000  0.07000000  1.0 -0.277655106
C  C33  1  0.31840000  0.62920000  0.11920000  1.0 0.6460686115
C  C34  1  0.08820000  0.20920000  0.35640000  1.0 -0.2077572805
C  C35  1  0.00430000  0.21130000  0.24340000  1.0 0.1438121123
C  C36  1  0.01950000  0.24790000  0.17300000  1.0 0.5309135901
N  N1  1  0.67300000  0.48260000  0.02300000  1.0 -0.0204953634
N  N2  1  0.39220000  0.79060000  0.54840000  1.0 -0.0925894038
N  N3  1  0.82440000  0.92580000  0.79370000  1.0 -0.1676655573
N  N4  1  0.48260000  0.67300000  0.47700000  1.0 -0.0204953634
N  N5  1  0.79060000  0.39220000  0.95160000  1.0 -0.0925894038
N  N6  1  0.92580000  0.82440000  0.70630000  1.0 -0.1676655573
N  N7  1  0.32700000  0.51740000  0.97700000  1.0 -0.0204953634
N  N8  1  0.60780000  0.20940000  0.45160000  1.0 -0.0925894038
N  N9  1  0.17560000  0.07420000  0.20630000  1.0 -0.159648068
N  N10  1  0.51740000  0.32700000  0.52300000  1.0 -0.0204953634
N  N11  1  0.20940000  0.60780000  0.04840000  1.0 -0.0925894038
N  N12  1  0.07420000  0.17560000  0.29370000  1.0 -0.159648068
O  O1  1  0.82410000  0.54750000  0.10270000  1.0 -0.3883008274
O  O2  1  0.63374000  0.66014000  0.98440000  1.0 -0.8120223047
O  O3  1  0.32820000  0.65420000  0.64650000  1.0 -0.6366801274
O  O4  1  0.38130000  0.02770000  0.77920000  1.0 -0.7564114344
O  O5  1  0.78870000  0.53050000  0.99290000  1.0 -0.5431285632
O  O6  1  0.28290000  0.80650000  0.73830000  1.0 -0.5431285632
O  O7  1  0.63710000  0.59190000  0.88530000  1.0 -0.6055272383
O  O8  1  0.56968000  0.89348000  0.90690000  1.0 -0.8419231785
O  O9  1  0.75140000  0.86380000  0.04590000  1.0 -0.5095140606
O  O10  1  0.40350000  0.02510000  0.64420000  1.0 -0.4930908543
O  O11  1  0.38650000  0.76910000  0.99370000  1.0 -0.7441928796
O  O12  1  0.51375000  0.78075000  0.95150000  1.0 -0.8705019317
O  O13  1  0.43550000  0.65410000  0.62580000  1.0 -0.5260422838
O  O14  1  0.51800000  0.65080000  0.90680000  1.0 -0.8120223047
O  O15  1  0.48730000  0.88350000  0.69270000  1.0 -0.8190557969
O  O16  1  0.54930000  0.78690000  0.09780000  1.0 -0.6608506453
O  O17  1  0.65120000  0.66440000  0.13150000  1.0 -0.5095140606
O  O18  1  0.44574000  0.87794000  0.82580000  1.0 -0.8557649863
O  O19  1  0.65167000  0.78047000  0.02040000  1.0 -0.8830994082
O  O20  1  0.30600000  0.88100000  0.84160000  1.0 -0.6753204477
O  O21  1  0.52420000  0.76280000  0.66390000  1.0 -0.5965490353
O  O22  1  0.61550000  0.91070000  0.05040000  1.0 -0.8120223047
O  O23  1  0.52140000  0.04360000  0.87850000  1.0 -0.7676026475
O  O24  1  0.51730000  0.97750000  0.76600000  1.0 -0.8705019317
O  O25  1  0.34820000  0.91940000  0.71280000  1.0 -0.9108586622
O  O26  1  0.61510000  0.06290000  0.79400000  1.0 -0.5013437209
O  O27  1  0.42600000  0.78400000  0.72900000  1.0 -0.8335272533
O  O28  1  0.40010000  0.75250000  0.85920000  1.0 -0.8705019317
O  O29  1  0.39880000  0.63700000  0.96770000  1.0 -0.5431285632
O  O30  1  0.66136000  0.96276000  0.92700000  1.0 -0.9316364539
O  O31  1  0.51750000  0.67210000  0.04560000  1.0 -0.8521211398
O  O32  1  0.76530000  0.92050000  0.66010000  1.0 -0.520901843
O  O33  1  0.70530000  0.03190000  0.62240000  1.0 -0.4597774682
O  O34  1  0.71200000  0.82600000  0.91380000  1.0 -0.7759637845
O  O35  1  0.74752000  0.81152000  0.79650000  1.0 -0.7188437235
O  O36  1  0.65280000  0.91720000  0.79610000  1.0 -0.7946258795
O  O37  1  0.65100000  0.79400000  0.65710000  1.0 -0.6478990776
O  O38  1  0.63540000  0.71420000  0.79170000  1.0 -0.2745910299
O  O39  1  0.57050000  0.04690000  0.62640000  1.0 -0.1195038147
O  O40  1  0.55350000  0.92730000  0.53390000  1.0 0.025203495
O  O41  1  0.40460000  0.57940000  0.82570000  1.0 -0.7144457313
O  O42  1  0.19740000  0.58740000  0.64980000  1.0 -0.6925770653
O  O43  1  0.33490000  0.45630000  0.75090000  1.0 -0.2077572805
O  O44  1  0.25990000  0.66250000  0.79100000  1.0 -0.0305745632
O  O45  1  0.45100000  0.18740000  0.73920000  1.0 -0.159648068
O  O46  1  0.87210000  0.64310000  0.05460000  1.0 0.3038314867
O  O47  1  0.54750000  0.82410000  0.39730000  1.0 -0.3883008274
O  O48  1  0.66014000  0.63374000  0.51560000  1.0 -0.8120223047
O  O49  1  0.65420000  0.32820000  0.85350000  1.0 -0.6366801274
O  O50  1  0.02770000  0.38130000  0.72080000  1.0 -0.7564114344
O  O51  1  0.53050000  0.78870000  0.50710000  1.0 -0.5431285632
O  O52  1  0.80650000  0.28290000  0.76170000  1.0 -0.5431285632
O  O53  1  0.59190000  0.63710000  0.61470000  1.0 -0.6055272383
O  O54  1  0.89348000  0.56968000  0.59310000  1.0 -0.8419231785
O  O55  1  0.86380000  0.75140000  0.45410000  1.0 -0.520901843
O  O56  1  0.02510000  0.40350000  0.85580000  1.0 -0.5013437209
O  O57  1  0.76910000  0.38650000  0.50630000  1.0 -0.7441928796
O  O58  1  0.78075000  0.51375000  0.54850000  1.0 -0.8705019317
O  O59  1  0.65410000  0.43550000  0.87420000  1.0 -0.5260422838
O  O60  1  0.65080000  0.51800000  0.59320000  1.0 -0.8120223047
O  O61  1  0.88350000  0.48730000  0.80730000  1.0 -0.8190557969
O  O62  1  0.78690000  0.54930000  0.40220000  1.0 -0.6608506453
O  O63  1  0.66440000  0.65120000  0.36850000  1.0 -0.5095140606
O  O64  1  0.87794000  0.44574000  0.67420000  1.0 -0.8521211398
O  O65  1  0.78047000  0.65167000  0.47960000  1.0 -0.8830994082
O  O66  1  0.88100000  0.30600000  0.65840000  1.0 -0.6732472988
O  O67  1  0.76280000  0.52420000  0.83610000  1.0 -0.5941531869
O  O68  1  0.91070000  0.61550000  0.44960000  1.0 -0.8120223047
O  O69  1  0.04360000  0.52140000  0.62150000  1.0 -0.7676026475
O  O70  1  0.97750000  0.51730000  0.73400000  1.0 -0.8705019317
O  O71  1  0.91940000  0.34820000  0.78720000  1.0 -0.9108586622
O  O72  1  0.06290000  0.61510000  0.70600000  1.0 -0.5095140606
O  O73  1  0.78400000  0.42600000  0.77100000  1.0 -0.8335272533
O  O74  1  0.75250000  0.40010000  0.64080000  1.0 -0.8705019317
O  O75  1  0.63700000  0.39880000  0.53230000  1.0 -0.5457732094
O  O76  1  0.96276000  0.66136000  0.57300000  1.0 -0.9316364539
O  O77  1  0.67210000  0.51750000  0.45440000  1.0 -0.8521211398
O  O78  1  0.92050000  0.76530000  0.83990000  1.0 -0.520901843
O  O79  1  0.03190000  0.70530000  0.87760000  1.0 -0.4597774682
O  O80  1  0.82600000  0.71200000  0.58620000  1.0 -0.7676026475
O  O81  1  0.81152000  0.74752000  0.70350000  1.0 -0.7188437235
O  O82  1  0.91720000  0.65280000  0.70390000  1.0 -0.7946258795
O  O83  1  0.79400000  0.65100000  0.84290000  1.0 -0.6478990776
O  O84  1  0.71420000  0.63540000  0.70830000  1.0 -0.277655106
O  O85  1  0.04690000  0.57050000  0.87360000  1.0 -0.1195038147
O  O86  1  0.92730000  0.55350000  0.96610000  1.0 0.0201162976
O  O87  1  0.57940000  0.40460000  0.67430000  1.0 -0.7144457313
O  O88  1  0.58740000  0.19740000  0.85020000  1.0 -0.6925770653
O  O89  1  0.45630000  0.33490000  0.74910000  1.0 -0.2077572805
O  O90  1  0.66250000  0.25990000  0.70900000  1.0 -0.0400530311
O  O91  1  0.18740000  0.45100000  0.76080000  1.0 -0.1417701107
O  O92  1  0.64310000  0.87210000  0.44540000  1.0 0.2796290505
O  O93  1  0.17590000  0.45250000  0.89730000  1.0 -0.3883008274
O  O94  1  0.36626000  0.33986000  0.01560000  1.0 -0.8120223047
O  O95  1  0.67180000  0.34580000  0.35350000  1.0 -0.6366801274
O  O96  1  0.61870000  0.97230000  0.22080000  1.0 -0.7564114344
O  O97  1  0.21130000  0.46950000  0.00710000  1.0 -0.5431285632
O  O98  1  0.71710000  0.19350000  0.26170000  1.0 -0.5431285632
O  O99  1  0.36290000  0.40810000  0.11470000  1.0 -0.6055272383
O  O100  1  0.43032000  0.10652000  0.09310000  1.0 -0.8419231785
O  O101  1  0.24860000  0.13620000  0.95410000  1.0 -0.520901843
O  O102  1  0.59650000  0.97490000  0.35580000  1.0 -0.4930908543
O  O103  1  0.61350000  0.23090000  0.00630000  1.0 -0.7441928796
O  O104  1  0.48625000  0.21925000  0.04850000  1.0 -0.8705019317
O  O105  1  0.56450000  0.34590000  0.37420000  1.0 -0.5260422838
O  O106  1  0.48200000  0.34920000  0.09320000  1.0 -0.8120223047
O  O107  1  0.51270000  0.11650000  0.30730000  1.0 -0.8190557969
O  O108  1  0.45070000  0.21310000  0.90220000  1.0 -0.6608506453
O  O109  1  0.34880000  0.33560000  0.86850000  1.0 -0.5095140606
O  O110  1  0.55426000  0.12206000  0.17420000  1.0 -0.8557649863
O  O111  1  0.34833000  0.21953000  0.97960000  1.0 -0.8830994082
O  O112  1  0.69400000  0.11900000  0.15840000  1.0 -0.6732472988
O  O113  1  0.47580000  0.23720000  0.33610000  1.0 -0.5941531869
O  O114  1  0.38450000  0.08930000  0.94960000  1.0 -0.8120223047
O  O115  1  0.47860000  0.95640000  0.12150000  1.0 -0.7676026475
O  O116  1  0.48270000  0.02250000  0.23400000  1.0 -0.8705019317
O  O117  1  0.65180000  0.08060000  0.28720000  1.0 -0.9108586622
O  O118  1  0.38490000  0.93710000  0.20600000  1.0 -0.5095140606
O  O119  1  0.57400000  0.21600000  0.27100000  1.0 -0.8335272533
O  O120  1  0.59990000  0.24750000  0.14080000  1.0 -0.8705019317
O  O121  1  0.60120000  0.36300000  0.03230000  1.0 -0.5431285632
O  O122  1  0.33864000  0.03724000  0.07300000  1.0 -0.9316364539
O  O123  1  0.48250000  0.32790000  0.95440000  1.0 -0.8521211398
O  O124  1  0.23470000  0.07950000  0.33990000  1.0 -0.520901843
O  O125  1  0.29470000  0.96810000  0.37760000  1.0 -0.4597774682
O  O126  1  0.28800000  0.17400000  0.08620000  1.0 -0.7759637845
O  O127  1  0.25248000  0.18848000  0.20350000  1.0 -0.7188437235
O  O128  1  0.34720000  0.08280000  0.20390000  1.0 -0.7957240355
O  O129  1  0.34900000  0.20600000  0.34290000  1.0 -0.6478990776
O  O130  1  0.36460000  0.28580000  0.20830000  1.0 -0.2745910299
O  O131  1  0.42950000  0.95310000  0.37360000  1.0 -0.1195038147
O  O132  1  0.44650000  0.07270000  0.46610000  1.0 0.0201162976
O  O133  1  0.59540000  0.42060000  0.17430000  1.0 -0.7188437235
O  O134  1  0.80260000  0.41260000  0.35020000  1.0 -0.6925770653
O  O135  1  0.66510000  0.54370000  0.24910000  1.0 -0.2002506864
O  O136  1  0.74010000  0.33750000  0.20900000  1.0 -0.0400530311
O  O137  1  0.54900000  0.81260000  0.26080000  1.0 -0.159648068
O  O138  1  0.12790000  0.35690000  0.94540000  1.0 0.2796290505
O  O139  1  0.45250000  0.17590000  0.60270000  1.0 -0.3842870009
O  O140  1  0.33986000  0.36626000  0.48440000  1.0 -0.8120223047
O  O141  1  0.34580000  0.67180000  0.14650000  1.0 -0.6366801274
O  O142  1  0.97230000  0.61870000  0.27920000  1.0 -0.7564114344
O  O143  1  0.46950000  0.21130000  0.49290000  1.0 -0.5431285632
O  O144  1  0.19350000  0.71710000  0.23830000  1.0 -0.5431285632
O  O145  1  0.40810000  0.36290000  0.38530000  1.0 -0.6055272383
O  O146  1  0.10652000  0.43032000  0.40690000  1.0 -0.8419231785
O  O147  1  0.13620000  0.24860000  0.54590000  1.0 -0.520901843
O  O148  1  0.97490000  0.59650000  0.14420000  1.0 -0.5013437209
O  O149  1  0.23090000  0.61350000  0.49370000  1.0 -0.7453328979
O  O150  1  0.21925000  0.48625000  0.45150000  1.0 -0.8705019317
O  O151  1  0.34590000  0.56450000  0.12580000  1.0 -0.5260422838
O  O152  1  0.34920000  0.48200000  0.40680000  1.0 -0.8120223047
O  O153  1  0.11650000  0.51270000  0.19270000  1.0 -0.8190557969
O  O154  1  0.21310000  0.45070000  0.59780000  1.0 -0.6608506453
O  O155  1  0.33560000  0.34880000  0.63150000  1.0 -0.5095140606
O  O156  1  0.12206000  0.55426000  0.32580000  1.0 -0.8557649863
O  O157  1  0.21953000  0.34833000  0.52040000  1.0 -0.8830994082
O  O158  1  0.11900000  0.69400000  0.34160000  1.0 -0.6732472988
O  O159  1  0.23720000  0.47580000  0.16390000  1.0 -0.5941531869
O  O160  1  0.08930000  0.38450000  0.55040000  1.0 -0.8120223047
O  O161  1  0.95640000  0.47860000  0.37850000  1.0 -0.7676026475
O  O162  1  0.02250000  0.48270000  0.26600000  1.0 -0.8705019317
O  O163  1  0.08060000  0.65180000  0.21280000  1.0 -0.9108586622
O  O164  1  0.93710000  0.38490000  0.29400000  1.0 -0.5013437209
O  O165  1  0.21600000  0.57400000  0.22900000  1.0 -0.8335272533
O  O166  1  0.24750000  0.59990000  0.35920000  1.0 -0.8705019317
O  O167  1  0.36300000  0.60120000  0.46770000  1.0 -0.5457732094
O  O168  1  0.03724000  0.33864000  0.42700000  1.0 -0.9316364539
O  O169  1  0.32790000  0.48250000  0.54560000  1.0 -0.8521211398
O  O170  1  0.07950000  0.23470000  0.16010000  1.0 -0.520901843
O  O171  1  0.96810000  0.29470000  0.12240000  1.0 -0.4597774682
O  O172  1  0.17400000  0.28800000  0.41380000  1.0 -0.7759637845
O  O173  1  0.18848000  0.25248000  0.29650000  1.0 -0.7188437235
O  O174  1  0.08280000  0.34720000  0.29610000  1.0 -0.7957240355
O  O175  1  0.20600000  0.34900000  0.15710000  1.0 -0.6478990776
O  O176  1  0.28580000  0.36460000  0.29170000  1.0 -0.277655106
O  O177  1  0.95310000  0.42950000  0.12640000  1.0 -0.1096674514
O  O178  1  0.07270000  0.44650000  0.03390000  1.0 0.0201162976
O  O179  1  0.42060000  0.59540000  0.32570000  1.0 -0.7144457313
O  O180  1  0.41260000  0.80260000  0.14980000  1.0 -0.6925770653
O  O181  1  0.54370000  0.66510000  0.25090000  1.0 -0.2002506864
O  O182  1  0.33750000  0.74010000  0.29100000  1.0 -0.0400530311
O  O183  1  0.81260000  0.54900000  0.23920000  1.0 -0.159648068
O  O184  1  0.35690000  0.12790000  0.55460000  1.0 0.2699073243
O  O185  1  0.56210000  0.56210000  0.75000000  1.0 -0.1007843849
O  O186  1  0.43790000  0.43790000  0.25000000  1.0 -0.1007843849
