# DDEC6 charges by PACMAN v1.1 (https://github.com/mtap-research/PACMAN-charge/)
data_AMUFAR_ASR_pacman
_symmetry_space_group_name_H-M   'P 1'
_cell_length_a   9.12910000
_cell_length_b   9.58840000
_cell_length_c   14.75540000
_cell_angle_alpha   100.38800000
_cell_angle_beta   99.27000000
_cell_angle_gamma   114.46700000
_symmetry_Int_Tables_number   1
_chemical_formula_structural   Co2H12C17NO8
_chemical_formula_sum   'Co4 H24 C34 N2 O16'
_cell_volume   1115.52074766
_cell_formula_units_Z   2
loop_
 _symmetry_equiv_pos_site_id
 _symmetry_equiv_pos_as_xyz
  1  'x, y, z'
loop_
 _atom_site_type_symbol
 _atom_site_label
 _atom_site_symmetry_multiplicity
 _atom_site_fract_x
 _atom_site_fract_y
 _atom_site_fract_z
 _atom_site_occupancy
 _atom_site_charge
Co  Co1  1  0.35513000  0.03226000  0.17061000  1.0 0.8694760177
Co  Co2  1  0.64487000  0.96774000  0.82939000  1.0 0.8694760177
Co  Co3  1  0.00000000  0.00000000  0.00000000  1.0 1.0706425283
Co  Co4  1  0.50000000  0.50000000  0.00000000  1.0 0.8860779975
H  H1  1  0.12360000  0.49050000  0.15620000  1.0 0.1058484513
H  H2  1  0.87640000  0.50950000  0.84380000  1.0 0.1058484513
H  H3  1  0.85660000  0.38760000  0.08590000  1.0 0.116803713
H  H4  1  0.14340000  0.61240000  0.91410000  1.0 0.116803713
H  H5  1  0.87320000  0.38600000  0.23990000  1.0 0.0801399175
H  H6  1  0.12680000  0.61400000  0.76010000  1.0 0.0801399175
H  H7  1  0.91910000  0.11000000  0.21820000  1.0 0.1279650722
H  H8  1  0.08090000  0.89000000  0.78180000  1.0 0.1279650722
H  H9  1  0.97700000  0.24750000  0.31290000  1.0 0.096998679
H  H10  1  0.02300000  0.75250000  0.68710000  1.0 0.096998679
H  H11  1  0.19830000  0.41110000  0.27380000  1.0 0.096998679
H  H12  1  0.80170000  0.58890000  0.72620000  1.0 0.096998679
H  H13  1  0.91560000  0.65750000  0.29230000  1.0 0.1353301976
H  H14  1  0.08440000  0.34250000  0.70770000  1.0 0.1353301976
H  H15  1  0.02510000  0.81160000  0.19570000  1.0 0.1279650722
H  H16  1  0.97490000  0.18840000  0.80430000  1.0 0.1279650722
H  H17  1  0.83010000  0.57360000  0.40920000  1.0 0.1279650722
H  H18  1  0.16990000  0.42640000  0.59080000  1.0 0.1279650722
H  H19  1  0.47550000  0.95150000  0.34770000  1.0 0.116803713
H  H20  1  0.52450000  0.04850000  0.65230000  1.0 0.116803713
H  H21  1  0.37810000  0.80090000  0.44810000  1.0 0.1279650722
H  H22  1  0.62190000  0.19910000  0.55190000  1.0 0.1279650722
H  H23  1  0.27500000  0.59020000  0.49790000  1.0 0.1279650722
H  H24  1  0.72500000  0.40980000  0.50210000  1.0 0.1279650722
C  C1  1  0.21710000  0.21450000  0.20793000  1.0 0.5885218952
C  C2  1  0.78290000  0.78550000  0.79207000  1.0 0.5885218952
C  C3  1  0.16650000  0.35290000  0.05306000  1.0 0.6014534805
C  C4  1  0.83350000  0.64710000  0.94694000  1.0 0.6014534805
C  C5  1  0.07990000  0.37500000  0.13142000  1.0 -0.1457571861
C  C6  1  0.92010000  0.62500000  0.86858000  1.0 -0.1457571861
C  C7  1  0.79530000  0.15360000  0.02304000  1.0 0.6137533758
C  C8  1  0.20470000  0.84640000  0.97696000  1.0 0.6137533758
C  C9  1  0.88640000  0.30690000  0.10318000  1.0 -0.1352574851
C  C10  1  0.11360000  0.69310000  0.89682000  1.0 -0.1352574851
C  C11  1  0.66080000  0.17730000  0.18802000  1.0 0.5647132967
C  C12  1  0.33920000  0.82270000  0.81198000  1.0 0.5653295491
C  C13  1  0.84360000  0.28090000  0.19847000  1.0 -0.1119871799
C  C14  1  0.15640000  0.71910000  0.80153000  1.0 -0.1119871799
C  C15  1  0.96170000  0.22390000  0.24427000  1.0 -0.1986769464
C  C16  1  0.03830000  0.77610000  0.75573000  1.0 -0.1986769464
C  C17  1  0.12750000  0.31670000  0.21983000  1.0 -0.1119871799
C  C18  1  0.87250000  0.68330000  0.78017000  1.0 -0.1119871799
C  C19  1  0.06510000  0.60170000  0.44289000  1.0 0.0579312902
C  C20  1  0.93490000  0.39830000  0.55711000  1.0 0.0579312902
C  C21  1  0.13290000  0.70630000  0.38103000  1.0 0.116803713
C  C22  1  0.86710000  0.29370000  0.61897000  1.0 0.116803713
C  C23  1  0.03080000  0.71550000  0.30480000  1.0 -0.1986769464
C  C24  1  0.96920000  0.28450000  0.69520000  1.0 -0.1986769464
C  C25  1  0.09740000  0.80940000  0.24696000  1.0 0.096998679
C  C26  1  0.90260000  0.19060000  0.75304000  1.0 0.096998679
C  C27  1  0.89970000  0.54440000  0.44590000  1.0 -0.1314700831
C  C28  1  0.10030000  0.45560000  0.55410000  1.0 -0.1314700831
C  C29  1  0.36090000  0.89090000  0.33610000  1.0 0.0883423846
C  C30  1  0.63910000  0.10910000  0.66390000  1.0 0.0883423846
C  C31  1  0.30330000  0.79980000  0.39680000  1.0 -0.2063964929
C  C32  1  0.69670000  0.20020000  0.60320000  1.0 -0.2063964929
C  C33  1  0.16370000  0.55440000  0.49840000  1.0 -0.1314700831
C  C34  1  0.83630000  0.44560000  0.50160000  1.0 -0.1314700831
N  N1  1  0.26170000  0.89750000  0.26147000  1.0 -0.2358042773
N  N2  1  0.73830000  0.10250000  0.73853000  1.0 -0.2358042773
O  O1  1  0.34740000  0.24820000  0.26816000  1.0 -0.5269487327
O  O2  1  0.65260000  0.75180000  0.73184000  1.0 -0.5269487327
O  O3  1  0.15700000  0.08930000  0.13845000  1.0 -0.5794789221
O  O4  1  0.84300000  0.91070000  0.86155000  1.0 -0.5794789221
O  O5  1  0.30690000  0.46520000  0.06497000  1.0 -0.5586967793
O  O6  1  0.69310000  0.53480000  0.93503000  1.0 -0.5586967793
O  O7  1  0.09950000  0.22897000  0.98480000  1.0 -0.5667943236
O  O8  1  0.90050000  0.77103000  0.01520000  1.0 -0.5667943236
O  O9  1  0.71270000  0.15400000  0.94630000  1.0 -0.5269487327
O  O10  1  0.28730000  0.84600000  0.05370000  1.0 -0.5269487327
O  O11  1  0.80413000  0.03053000  0.03763000  1.0 -0.5667943236
O  O12  1  0.19587000  0.96947000  0.96237000  1.0 -0.5667943236
O  O13  1  0.61250000  0.06500000  0.22486000  1.0 -0.5269487327
O  O14  1  0.38750000  0.93500000  0.77514000  1.0 -0.5269487327
O  O15  1  0.55510000  0.20810000  0.14166000  1.0 -0.5047297504
O  O16  1  0.44490000  0.79190000  0.85834000  1.0 -0.5059039023
