# DDEC6 charges by PACMAN v1.1 (https://github.com/mtap-research/PACMAN-charge/)
data_AMUQEG_FSR_pacman
_symmetry_space_group_name_H-M   'P 1'
_cell_length_a   10.49230000
_cell_length_b   12.85800000
_cell_length_c   15.33200000
_cell_angle_alpha   91.11000000
_cell_angle_beta   102.69600000
_cell_angle_gamma   111.71100000
_symmetry_Int_Tables_number   1
_chemical_formula_structural   CuH16C27N6O7
_chemical_formula_sum   'Cu2 H32 C54 N12 O14'
_cell_volume   1863.12118702
_cell_formula_units_Z   2
loop_
 _symmetry_equiv_pos_site_id
 _symmetry_equiv_pos_as_xyz
  1  'x, y, z'
loop_
 _atom_site_type_symbol
 _atom_site_label
 _atom_site_symmetry_multiplicity
 _atom_site_fract_x
 _atom_site_fract_y
 _atom_site_fract_z
 _atom_site_occupancy
 _atom_site_charge
Cu  Cu1  1  0.61022000  0.75610000  0.79037000  1.0 0.747342459
Cu  Cu2  1  0.38978000  0.24390000  0.20963000  1.0 0.747342459
H  H1  1  0.20240000  0.09680000  0.47330000  1.0 0.1605553619
H  H2  1  0.79760000  0.90320000  0.52670000  1.0 0.1605553619
H  H3  1  0.49720000  0.08660000  0.87550000  1.0 0.1487167365
H  H4  1  0.50280000  0.91340000  0.12450000  1.0 0.1487167365
H  H5  1  0.43490000  0.05750000  0.58480000  1.0 0.1605553619
H  H6  1  0.56510000  0.94250000  0.41520000  1.0 0.1605553619
H  H7  1  0.54540000  0.39250000  0.58330000  1.0 0.1391165174
H  H8  1  0.45460000  0.60750000  0.41670000  1.0 0.1391165174
H  H9  1  0.65690000  0.26630000  0.81310000  1.0 0.1674373365
H  H10  1  0.34310000  0.73370000  0.18690000  1.0 0.1674373365
H  H11  1  0.53700000  0.52920000  0.68280000  1.0 0.1105528912
H  H12  1  0.46300000  0.47080000  0.31720000  1.0 0.1105528912
H  H13  1  0.82240000  0.46210000  0.86380000  1.0 0.1487167365
H  H14  1  0.17760000  0.53790000  0.13620000  1.0 0.1487167365
H  H15  1  0.83260000  0.65010000  0.90680000  1.0 0.1487167365
H  H16  1  0.16740000  0.34990000  0.09320000  1.0 0.1487167365
H  H17  1  0.15550000  0.11830000  0.31250000  1.0 0.1487167365
H  H18  1  0.84450000  0.88170000  0.68750000  1.0 0.1487167365
H  H19  1  0.55560000  0.30530000  0.41780000  1.0 0.1218027762
H  H20  1  0.44440000  0.69470000  0.58220000  1.0 0.1218027762
H  H21  1  0.58370000  0.95200000  0.67200000  1.0 0.1105528912
H  H22  1  0.41630000  0.04800000  0.32800000  1.0 0.1105528912
H  H23  1  0.50960000  0.90520000  0.91110000  1.0 0.1487167365
H  H24  1  0.49040000  0.09480000  0.08890000  1.0 0.1487167365
H  H25  1  0.83900000  0.98470000  0.11400000  1.0 0.1391165174
H  H26  1  0.16100000  0.01530000  0.88600000  1.0 0.1391165174
H  H27  1  0.75650000  0.80860000  0.32140000  1.0 0.1105528912
H  H28  1  0.24350000  0.19140000  0.67860000  1.0 0.1105528912
H  H29  1  0.64050000  0.64560000  0.22290000  1.0 0.1105528912
H  H30  1  0.35950000  0.35440000  0.77710000  1.0 0.1105528912
H  H31  1  0.28170000  0.45840000  0.90330000  1.0 0.1303193635
H  H32  1  0.71830000  0.54160000  0.09670000  1.0 0.1303193635
C  C1  1  0.26700000  0.14060000  0.44270000  1.0 -0.0508133057
C  C2  1  0.73300000  0.85940000  0.55730000  1.0 -0.0508133057
C  C3  1  0.51610000  0.03800000  0.83930000  1.0 -0.0508133057
C  C4  1  0.48390000  0.96200000  0.16070000  1.0 -0.0508133057
C  C5  1  0.47870000  0.12970000  0.61520000  1.0 -0.2493014642
C  C6  1  0.52130000  0.87030000  0.38480000  1.0 -0.2493014642
C  C7  1  0.54510000  0.14760000  0.70630000  1.0 0.2196959621
C  C8  1  0.45490000  0.85240000  0.29370000  1.0 0.2196959621
C  C9  1  0.47980000  0.22280000  0.57107000  1.0 0.2088259376
C  C10  1  0.52020000  0.77720000  0.42893000  1.0 0.2088259376
C  C11  1  0.54450000  0.33100000  0.61456000  1.0 -0.2681502708
C  C12  1  0.45550000  0.66900000  0.38544000  1.0 -0.2681502708
C  C13  1  0.61140000  0.25530000  0.75230000  1.0 -0.2221222305
C  C14  1  0.38860000  0.74470000  0.24770000  1.0 -0.2221222305
C  C15  1  0.60820000  0.34600000  0.70590000  1.0 0.2196959621
C  C16  1  0.39180000  0.65400000  0.29410000  1.0 0.2196959621
C  C17  1  0.60930000  0.53630000  0.73300000  1.0 0.0771769699
C  C18  1  0.39070000  0.46370000  0.26700000  1.0 0.0771769699
C  C19  1  0.76680000  0.49800000  0.83270000  1.0 -0.0745892794
C  C20  1  0.23320000  0.50200000  0.16730000  1.0 -0.0745892794
C  C21  1  0.77170000  0.60210000  0.85610000  1.0 0.0104352089
C  C22  1  0.22830000  0.39790000  0.14390000  1.0 0.0104352089
C  C23  1  0.24210000  0.15290000  0.35410000  1.0 -0.0217111501
C  C24  1  0.75790000  0.84710000  0.64590000  1.0 -0.0217111501
C  C25  1  0.46230000  0.25590000  0.41100000  1.0 0.0771769699
C  C26  1  0.53770000  0.74410000  0.58900000  1.0 0.0771769699
C  C27  1  0.56440000  0.96260000  0.72710000  1.0 0.0971005178
C  C28  1  0.43560000  0.03740000  0.27290000  1.0 0.0971005178
C  C29  1  0.52360000  0.93770000  0.85860000  1.0 0.0168619566
C  C30  1  0.47640000  0.06230000  0.14140000  1.0 0.0168619566
C  C31  1  0.72650000  0.83090000  0.97720000  1.0 0.5433176375
C  C32  1  0.27350000  0.16910000  0.02280000  1.0 0.5433176375
C  C33  1  0.72370000  0.81950000  0.07473000  1.0 -0.0508133057
C  C34  1  0.27630000  0.18050000  0.92527000  1.0 -0.0508133057
C  C35  1  0.79460000  0.91660000  0.13510000  1.0 -0.0882986159
C  C36  1  0.20540000  0.08340000  0.86490000  1.0 -0.0882986159
C  C37  1  0.80030000  0.91380000  0.22670000  1.0 -0.0217111501
C  C38  1  0.19970000  0.08620000  0.77330000  1.0 -0.0217111501
C  C39  1  0.86050000  0.02220000  0.28640000  1.0 0.5297488487
C  C40  1  0.13950000  0.97780000  0.71360000  1.0 0.5297488487
C  C41  1  0.74600000  0.81190000  0.25980000  1.0 -0.1023427778
C  C42  1  0.25400000  0.18810000  0.74020000  1.0 -0.1023427778
C  C43  1  0.67570000  0.71450000  0.20040000  1.0 -0.1501325452
C  C44  1  0.32430000  0.28550000  0.79960000  1.0 -0.1501325452
C  C45  1  0.65660000  0.71740000  0.10731000  1.0 0.0771769699
C  C46  1  0.34340000  0.28260000  0.89269000  1.0 0.0771769699
C  C47  1  0.57240000  0.60700000  0.05048000  1.0 0.0489445395
C  C48  1  0.42760000  0.39300000  0.94952000  1.0 0.0489445395
C  C49  1  0.43900000  0.58030000  0.99260000  1.0 -0.0318487369
C  C50  1  0.56100000  0.41970000  0.00740000  1.0 -0.0318487369
C  C51  1  0.36960000  0.47470000  0.94260000  1.0 -0.1352299237
C  C52  1  0.63040000  0.52530000  0.05740000  1.0 -0.1352299237
C  C53  1  0.36630000  0.66130000  0.98350000  1.0 0.5433176375
C  C54  1  0.63370000  0.33870000  0.01650000  1.0 0.5433176375
N  N1  1  0.67290000  0.62580000  0.79343000  1.0 -0.2559440815
N  N2  1  0.32710000  0.37420000  0.20657000  1.0 -0.2559440815
N  N3  1  0.66280000  0.45610000  0.75345000  1.0 0.0035578514
N  N4  1  0.33720000  0.54390000  0.24655000  1.0 0.0035578514
N  N5  1  0.40730000  0.20590000  0.47840000  1.0 0.0035578514
N  N6  1  0.59270000  0.79410000  0.52160000  1.0 0.0035578514
N  N7  1  0.54200000  0.05360000  0.75508000  1.0 0.0104352089
N  N8  1  0.45800000  0.94640000  0.24492000  1.0 0.0104352089
N  N9  1  0.36550000  0.22480000  0.33462000  1.0 -0.2921488368
N  N10  1  0.63450000  0.77520000  0.66538000  1.0 -0.2921488368
N  N11  1  0.55550000  0.89090000  0.78817000  1.0 -0.2681502708
N  N12  1  0.44450000  0.10910000  0.21183000  1.0 -0.2681502708
O  O1  1  0.87360000  0.01010000  0.37203000  1.0 -0.5866382503
O  O2  1  0.12640000  0.98990000  0.62797000  1.0 -0.5866382503
O  O3  1  0.89380000  0.11410000  0.25771000  1.0 -0.5059784734
O  O4  1  0.10620000  0.88590000  0.74229000  1.0 -0.5059784734
O  O5  1  0.39370000  0.73720000  0.04045000  1.0 -0.5279772364
O  O6  1  0.60630000  0.26280000  0.95955000  1.0 -0.5279772364
O  O7  1  0.26560000  0.63890000  0.90898000  1.0 -0.4812872493
O  O8  1  0.73440000  0.36110000  0.09102000  1.0 -0.4812872493
O  O9  1  0.62650000  0.75659000  0.91925000  1.0 -0.5015994989
O  O10  1  0.37350000  0.24341000  0.08075000  1.0 -0.5015994989
O  O11  1  0.82410000  0.90990000  0.96050000  1.0 -0.4736903393
O  O12  1  0.17590000  0.09010000  0.03950000  1.0 -0.4736903393
O  O13  1  0.37780000  0.62950000  0.74860000  1.0 -0.227774673
O  O14  1  0.62220000  0.37050000  0.25140000  1.0 -0.227774673
