# DDEC6 charges by PACMAN v1.1 (https://github.com/mtap-research/PACMAN-charge/)
data_AMUXAI_ASR_pacman
_symmetry_space_group_name_H-M   'P 1'
_cell_length_a   9.95060000
_cell_length_b   15.68230000
_cell_length_c   21.50000000
_cell_angle_alpha   100.07200000
_cell_angle_beta   93.06000000
_cell_angle_gamma   106.83400000
_symmetry_Int_Tables_number   1
_chemical_formula_structural   Cu3H26C42(NO3)4
_chemical_formula_sum   'Cu6 H52 C84 N8 O24'
_cell_volume   3142.45530609
_cell_formula_units_Z   2
loop_
 _symmetry_equiv_pos_site_id
 _symmetry_equiv_pos_as_xyz
  1  'x, y, z'
loop_
 _atom_site_type_symbol
 _atom_site_label
 _atom_site_symmetry_multiplicity
 _atom_site_fract_x
 _atom_site_fract_y
 _atom_site_fract_z
 _atom_site_occupancy
 _atom_site_charge
Cu  Cu1  1  0.62365000  0.20025000  0.45602000  1.0 0.7349651956
Cu  Cu2  1  0.37635000  0.79975000  0.54398000  1.0 0.7349651956
Cu  Cu3  1  0.05062000  0.91312000  0.63410000  1.0 0.8068209195
Cu  Cu4  1  0.94938000  0.08688000  0.36590000  1.0 0.8068209195
Cu  Cu5  1  0.06546000  0.90041000  0.19724000  1.0 0.6155899668
Cu  Cu6  1  0.93454000  0.09959000  0.80276000  1.0 0.6121129894
H  H1  1  0.70250000  0.67250000  0.66580000  1.0 0.1198508203
H  H2  1  0.29750000  0.32750000  0.33420000  1.0 0.1198508203
H  H3  1  0.48660000  0.55750000  0.63600000  1.0 0.1198508203
H  H4  1  0.51340000  0.44250000  0.36400000  1.0 0.1198508203
H  H5  1  0.45250000  0.62400000  0.46770000  1.0 0.1198508203
H  H6  1  0.54750000  0.37600000  0.53230000  1.0 0.1198508203
H  H7  1  0.67000000  0.73760000  0.49510000  1.0 0.1198508203
H  H8  1  0.33000000  0.26240000  0.50490000  1.0 0.1198508203
H  H9  1  0.24890000  0.50760000  0.44950000  1.0 0.1198508203
H  H10  1  0.75110000  0.49240000  0.55050000  1.0 0.1198508203
H  H11  1  0.27760000  0.48290000  0.57190000  1.0 0.1084798442
H  H12  1  0.72240000  0.51710000  0.42810000  1.0 0.1084798442
H  H13  1  0.80210000  0.31600000  0.37940000  1.0 0.1198508203
H  H14  1  0.19790000  0.68400000  0.62060000  1.0 0.1198508203
H  H15  1  0.02100000  0.41840000  0.38720000  1.0 0.142864892
H  H16  1  0.97900000  0.58160000  0.61280000  1.0 0.142864892
H  H17  1  0.08170000  0.39640000  0.56950000  1.0 0.1285148205
H  H18  1  0.91830000  0.60360000  0.43050000  1.0 0.1285148205
H  H19  1  0.84350000  0.29020000  0.55530000  1.0 0.1198508203
H  H20  1  0.15650000  0.70980000  0.44470000  1.0 0.1198508203
H  H21  1  0.70560000  0.84840000  0.06880000  1.0 0.1198508203
H  H22  1  0.29440000  0.15160000  0.93120000  1.0 0.1198508203
H  H23  1  0.50660000  0.83650000  0.98670000  1.0 0.1198508203
H  H24  1  0.49340000  0.16350000  0.01330000  1.0 0.1198508203
H  H25  1  0.73950000  0.06380000  0.94170000  1.0 0.1198508203
H  H26  1  0.26050000  0.93620000  0.05830000  1.0 0.1198508203
H  H27  1  0.91370000  0.07900000  0.01960000  1.0 0.1285148205
H  H28  1  0.08630000  0.92100000  0.98040000  1.0 0.1285148205
H  H29  1  0.40390000  0.89180000  0.90980000  1.0 0.1198508203
H  H30  1  0.59610000  0.10820000  0.09020000  1.0 0.1198508203
H  H31  1  0.57670000  0.02460000  0.86620000  1.0 0.1285148205
H  H32  1  0.42330000  0.97540000  0.13380000  1.0 0.1285148205
H  H33  1  0.06750000  0.87560000  0.75880000  1.0 0.1285148205
H  H34  1  0.93250000  0.12440000  0.24120000  1.0 0.1285148205
H  H35  1  0.21640000  0.88470000  0.84360000  1.0 0.1285148205
H  H36  1  0.78360000  0.11530000  0.15640000  1.0 0.1285148205
H  H37  1  0.51640000  0.04280000  0.76060000  1.0 0.1530711556
H  H38  1  0.48360000  0.95720000  0.23940000  1.0 0.1530711556
H  H39  1  0.35310000  0.01970000  0.67650000  1.0 0.1198508203
H  H40  1  0.64690000  0.98030000  0.32350000  1.0 0.1198508203
H  H41  1  0.12020000  0.92340000  0.42770000  1.0 0.1530711556
H  H42  1  0.87980000  0.07660000  0.57230000  1.0 0.1530711556
H  H43  1  0.80200000  0.88830000  0.23880000  1.0 0.1011325547
H  H44  1  0.19800000  0.11170000  0.76120000  1.0 0.1011325547
H  H45  1  0.62150000  0.79030000  0.27930000  1.0 0.142864892
H  H46  1  0.37850000  0.20970000  0.72070000  1.0 0.142864892
H  H47  1  0.62510000  0.64340000  0.28100000  1.0 0.1198508203
H  H48  1  0.37490000  0.35660000  0.71900000  1.0 0.1198508203
H  H49  1  0.80910000  0.59460000  0.24230000  1.0 0.1285148205
H  H50  1  0.19090000  0.40540000  0.75770000  1.0 0.1285148205
H  H51  1  0.98950000  0.69270000  0.20180000  1.0 0.1084798442
H  H52  1  0.01050000  0.30730000  0.79820000  1.0 0.1084798442
C  C1  1  0.84640000  0.78600000  0.59820000  1.0 0.5315823459
C  C2  1  0.15360000  0.21400000  0.40180000  1.0 0.5315823459
C  C3  1  0.70830000  0.71370000  0.57950000  1.0 -0.0262974559
C  C4  1  0.29170000  0.28630000  0.42050000  1.0 -0.0262974559
C  C5  1  0.65390000  0.66210000  0.62570000  1.0 -0.0818539358
C  C6  1  0.34610000  0.33790000  0.37430000  1.0 -0.0818539358
C  C7  1  0.52310000  0.59470000  0.60770000  1.0 -0.1503469518
C  C8  1  0.47690000  0.40530000  0.39230000  1.0 -0.1503469518
C  C9  1  0.44790000  0.58190000  0.55050000  1.0 0.1084798442
C  C10  1  0.55210000  0.41810000  0.44950000  1.0 0.1084798442
C  C11  1  0.50210000  0.63340000  0.50740000  1.0 -0.1792773961
C  C12  1  0.49790000  0.36660000  0.49260000  1.0 -0.1792773961
C  C13  1  0.63430000  0.70110000  0.52380000  1.0 -0.1014341156
C  C14  1  0.36570000  0.29890000  0.47620000  1.0 -0.1014341156
C  C15  1  0.21870000  0.48330000  0.48460000  1.0 -0.1503469518
C  C16  1  0.78130000  0.51670000  0.51540000  1.0 -0.1503469518
C  C17  1  0.30730000  0.51110000  0.53830000  1.0 -0.1377573035
C  C18  1  0.69270000  0.48890000  0.46170000  1.0 -0.1377573035
C  C19  1  0.85810000  0.33333333  0.41830000  1.0 0.1084798442
C  C20  1  0.14190000  0.66666667  0.58170000  1.0 0.1084798442
C  C21  1  0.99060000  0.39370000  0.42220000  1.0 -0.1909502244
C  C22  1  0.00940000  0.60630000  0.57780000  1.0 -0.1909502244
C  C23  1  0.07690000  0.41710000  0.47720000  1.0 0.1530711556
C  C24  1  0.92310000  0.58290000  0.52280000  1.0 0.1530711556
C  C25  1  0.02600000  0.38070000  0.53070000  1.0 -0.2033644414
C  C26  1  0.97400000  0.61930000  0.46930000  1.0 -0.2033644414
C  C27  1  0.88110000  0.31690000  0.52210000  1.0 0.1084798442
C  C28  1  0.11890000  0.68310000  0.47790000  1.0 0.1084798442
C  C29  1  0.94230000  0.96200000  0.10680000  1.0 0.5315823459
C  C30  1  0.05770000  0.03800000  0.89320000  1.0 0.5315823459
C  C31  1  0.82530000  0.96890000  0.05400000  1.0 -0.0072971997
C  C32  1  0.17470000  0.03110000  0.94600000  1.0 -0.0072971997
C  C33  1  0.71100000  0.89320000  0.04490000  1.0 -0.1101400296
C  C34  1  0.28900000  0.10680000  0.95510000  1.0 -0.1101400296
C  C35  1  0.59000000  0.88500000  0.99300000  1.0 -0.1503469518
C  C36  1  0.41000000  0.11500000  0.00700000  1.0 -0.1503469518
C  C37  1  0.61000000  0.94900000  0.95750000  1.0 0.1011325547
C  C38  1  0.39000000  0.05100000  0.04250000  1.0 0.1011325547
C  C39  1  0.72850000  0.02040000  0.96700000  1.0 -0.1377573035
C  C40  1  0.27150000  0.97960000  0.03300000  1.0 -0.1377573035
C  C41  1  0.83300000  0.02920000  0.01430000  1.0 -0.0892067945
C  C42  1  0.16700000  0.97080000  0.98570000  1.0 -0.0892067945
C  C43  1  0.48850000  0.93570000  0.90760000  1.0 -0.1014341156
C  C44  1  0.51150000  0.06430000  0.09240000  1.0 -0.1014341156
C  C45  1  0.49280000  0.97820000  0.86470000  1.0 -0.1101400296
C  C46  1  0.50720000  0.02180000  0.13530000  1.0 -0.1101400296
C  C47  1  0.16220000  0.90740000  0.75860000  1.0 0.0879199633
C  C48  1  0.83780000  0.09260000  0.24140000  1.0 0.0879199633
C  C49  1  0.24750000  0.91380000  0.81060000  1.0 -0.1792773961
C  C50  1  0.75250000  0.08620000  0.18940000  1.0 -0.1792773961
C  C51  1  0.38740000  0.96790000  0.81140000  1.0 0.1530711556
C  C52  1  0.61260000  0.03210000  0.18860000  1.0 0.1530711556
C  C53  1  0.42430000  0.00640000  0.76100000  1.0 -0.1701016075
C  C54  1  0.57570000  0.99360000  0.23900000  1.0 -0.1701016075
C  C55  1  0.32610000  0.99180000  0.71050000  1.0 0.0821804477
C  C56  1  0.67390000  0.00820000  0.28950000  1.0 0.0821804477
C  C57  1  0.43970000  0.13090000  0.34270000  1.0 0.5194364988
C  C58  1  0.56030000  0.86910000  0.65730000  1.0 0.5194364988
C  C59  1  0.37620000  0.07800000  0.39100000  1.0 0.0879199633
C  C60  1  0.62380000  0.92200000  0.60900000  1.0 0.0879199633
C  C61  1  0.24780000  0.00540000  0.38270000  1.0 -0.0262974559
C  C62  1  0.75220000  0.99460000  0.61730000  1.0 -0.0262974559
C  C63  1  0.16140000  0.97090000  0.31860000  1.0 0.6007575893
C  C64  1  0.83860000  0.02910000  0.68140000  1.0 0.6007575893
C  C65  1  0.20400000  0.97100000  0.43320000  1.0 -0.0818539358
C  C66  1  0.79600000  0.02900000  0.56680000  1.0 -0.0818539358
C  C67  1  0.22170000  0.96520000  0.55060000  1.0 0.5641881728
C  C68  1  0.77830000  0.03480000  0.44940000  1.0 0.5641881728
C  C69  1  0.27850000  0.00310000  0.49450000  1.0 -0.0167829211
C  C70  1  0.72150000  0.99690000  0.50550000  1.0 -0.0167829211
C  C71  1  0.40650000  0.07760000  0.49880000  1.0 0.0821804477
C  C72  1  0.59350000  0.92240000  0.50120000  1.0 0.0821804477
C  C73  1  0.50610000  0.12640000  0.55650000  1.0 0.5194364988
C  C74  1  0.49390000  0.87360000  0.44350000  1.0 0.5194364988
C  C75  1  0.80300000  0.82950000  0.23950000  1.0 0.0821804477
C  C76  1  0.19700000  0.17050000  0.76050000  1.0 0.0821804477
C  C77  1  0.69500000  0.77100000  0.26380000  1.0 -0.1184976755
C  C78  1  0.30500000  0.22900000  0.73620000  1.0 -0.1184976755
C  C79  1  0.69700000  0.68300000  0.26500000  1.0 -0.0476409069
C  C80  1  0.30300000  0.31700000  0.73500000  1.0 -0.0476409069
C  C81  1  0.80800000  0.65350000  0.24200000  1.0 -0.1503469518
C  C82  1  0.19200000  0.34650000  0.75800000  1.0 -0.1503469518
C  C83  1  0.91600000  0.71230000  0.21730000  1.0 0.0821804477
C  C84  1  0.08400000  0.28770000  0.78270000  1.0 0.0821804477
N  N1  1  0.80630000  0.29870000  0.46590000  1.0 -0.2098393611
N  N2  1  0.19370000  0.70130000  0.53410000  1.0 -0.2098393611
N  N3  1  0.19480000  0.94000000  0.70770000  1.0 -0.2325974947
N  N4  1  0.80520000  0.06000000  0.29230000  1.0 -0.2325974947
N  N5  1  0.44470000  0.10650000  0.44800000  1.0 -0.2506773456
N  N6  1  0.55530000  0.89350000  0.55200000  1.0 -0.2506773456
N  N7  1  0.91360000  0.80020000  0.21630000  1.0 -0.2506773456
N  N8  1  0.08640000  0.19980000  0.78370000  1.0 -0.2506773456
O  O1  1  0.89250000  0.84240000  0.56320000  1.0 -0.4983683622
O  O2  1  0.10750000  0.15760000  0.43680000  1.0 -0.4983683622
O  O3  1  0.91630000  0.79480000  0.65170000  1.0 -0.5227075911
O  O4  1  0.08370000  0.20520000  0.34830000  1.0 -0.5227075911
O  O5  1  0.03230000  0.05360000  0.11890000  1.0 -0.6108439661
O  O6  1  0.96770000  0.94640000  0.88110000  1.0 -0.6108439661
O  O7  1  0.93620000  0.90300000  0.13030000  1.0 -0.3919728494
O  O8  1  0.06380000  0.09700000  0.86970000  1.0 -0.3973155117
O  O9  1  0.38150000  0.11980000  0.28770000  1.0 -0.473729009
O  O10  1  0.61850000  0.88020000  0.71230000  1.0 -0.473729009
O  O11  1  0.56400000  0.19160000  0.36540000  1.0 -0.55128474
O  O12  1  0.43600000  0.80840000  0.63460000  1.0 -0.55128474
O  O13  1  0.18710000  0.91310000  0.27820000  1.0 -0.5085298217
O  O14  1  0.81290000  0.08690000  0.72180000  1.0 -0.5085298217
O  O15  1  0.05470000  0.00010000  0.31250000  1.0 -0.5984301663
O  O16  1  0.94530000  0.99990000  0.68750000  1.0 -0.5984301663
O  O17  1  0.15130000  0.00480000  0.58330000  1.0 -0.4878546244
O  O18  1  0.84870000  0.99520000  0.41670000  1.0 -0.4878546244
O  O19  1  0.24360000  0.89450000  0.55730000  1.0 -0.570572803
O  O20  1  0.75640000  0.10550000  0.44270000  1.0 -0.570572803
O  O21  1  0.48500000  0.10360000  0.60860000  1.0 -0.4768411464
O  O22  1  0.51500000  0.89640000  0.39140000  1.0 -0.4768411464
O  O23  1  0.61160000  0.19350000  0.54680000  1.0 -0.5426630771
O  O24  1  0.38840000  0.80650000  0.45320000  1.0 -0.5426630771
