# DDEC6 charges by PACMAN v1.1 (https://github.com/mtap-research/PACMAN-charge/)
data_ANEKUC_ASR_pacman
_symmetry_space_group_name_H-M   'P 1'
_cell_length_a   11.49020000
_cell_length_b   17.33230000
_cell_length_c   14.44790000
_cell_angle_alpha   90.00000000
_cell_angle_beta   121.37100000
_cell_angle_gamma   90.00000000
_symmetry_Int_Tables_number   1
_chemical_formula_structural   CaZn2H12(C2O)12
_chemical_formula_sum   'Ca2 Zn4 H24 C48 O24'
_cell_volume   2456.69920376
_cell_formula_units_Z   2
loop_
 _symmetry_equiv_pos_site_id
 _symmetry_equiv_pos_as_xyz
  1  'x, y, z'
loop_
 _atom_site_type_symbol
 _atom_site_label
 _atom_site_symmetry_multiplicity
 _atom_site_fract_x
 _atom_site_fract_y
 _atom_site_fract_z
 _atom_site_occupancy
 _atom_site_charge
Ca  Ca1  1  0.50000000  0.00000000  0.50000000  1.0 1.4276634446
Ca  Ca2  1  0.50000000  0.50000000  0.00000000  1.0 1.4276634446
Zn  Zn1  1  0.19029000  0.46523000  0.72104000  1.0 0.9399226895
Zn  Zn2  1  0.80971000  0.96523000  0.77896000  1.0 0.9399226895
Zn  Zn3  1  0.80971000  0.53477000  0.27896000  1.0 0.9399226895
Zn  Zn4  1  0.19029000  0.03477000  0.22104000  1.0 0.9399226895
H  H1  1  0.74040000  0.17640000  0.92300000  1.0 0.1202115189
H  H2  1  0.64280000  0.28450000  0.95010000  1.0 0.1202115189
H  H3  1  0.32890000  0.26530000  0.64730000  1.0 0.1202115189
H  H4  1  0.42270000  0.15260000  0.62820000  1.0 0.1266109289
H  H5  1  0.23230000  0.50000000  0.10470000  1.0 0.1266109289
H  H6  1  0.89400000  0.48080000  0.81560000  1.0 0.1202115189
H  H7  1  0.25960000  0.67640000  0.57700000  1.0 0.1202115189
H  H8  1  0.35720000  0.78450000  0.54990000  1.0 0.1202115189
H  H9  1  0.67110000  0.76530000  0.85270000  1.0 0.1202115189
H  H10  1  0.57730000  0.65260000  0.87180000  1.0 0.1266109289
H  H11  1  0.76770000  0.00000000  0.39530000  1.0 0.1266109289
H  H12  1  0.10600000  0.98080000  0.68440000  1.0 0.1202115189
H  H13  1  0.25960000  0.82360000  0.07700000  1.0 0.1202115189
H  H14  1  0.35720000  0.71550000  0.04990000  1.0 0.1202115189
H  H15  1  0.67110000  0.73470000  0.35270000  1.0 0.1202115189
H  H16  1  0.57730000  0.84740000  0.37180000  1.0 0.1266109289
H  H17  1  0.76770000  0.50000000  0.89530000  1.0 0.1266109289
H  H18  1  0.10600000  0.51920000  0.18440000  1.0 0.1202115189
H  H19  1  0.74040000  0.32360000  0.42300000  1.0 0.1202115189
H  H20  1  0.64280000  0.21550000  0.45010000  1.0 0.1266109289
H  H21  1  0.32890000  0.23470000  0.14730000  1.0 0.1202115189
H  H22  1  0.42270000  0.34740000  0.12820000  1.0 0.1266109289
H  H23  1  0.23230000  0.00000000  0.60470000  1.0 0.1266109289
H  H24  1  0.89400000  0.01920000  0.31560000  1.0 0.1202115189
C  C1  1  0.65630000  0.08670000  0.75300000  1.0 0.5931633404
C  C2  1  0.59520000  0.15620000  0.77110000  1.0 -0.0328414016
C  C3  1  0.65690000  0.19420000  0.86670000  1.0 -0.1015389114
C  C4  1  0.59880000  0.25950000  0.88340000  1.0 -0.0917679564
C  C5  1  0.47640000  0.28620000  0.80060000  1.0 -0.0465932767
C  C6  1  0.41170000  0.24740000  0.70440000  1.0 -0.0917679564
C  C7  1  0.47030000  0.18080000  0.69210000  1.0 -0.1015389114
C  C8  1  0.41700000  0.35690000  0.81720000  1.0 0.6091872221
C  C9  1  0.16300000  0.48130000  0.90360000  1.0 0.6091872221
C  C10  1  0.13770000  0.50050000  0.06170000  1.0 -0.1015389114
C  C11  1  0.07800000  0.49080000  0.95330000  1.0 -0.0328414016
C  C12  1  0.93740000  0.48900000  0.89000000  1.0 -0.1015389114
C  C13  1  0.34370000  0.58670000  0.74700000  1.0 0.5931633404
C  C14  1  0.40480000  0.65620000  0.72890000  1.0 -0.0328414016
C  C15  1  0.34310000  0.69420000  0.63330000  1.0 -0.1015389114
C  C16  1  0.40120000  0.75950000  0.61660000  1.0 -0.0917679564
C  C17  1  0.52360000  0.78620000  0.69940000  1.0 -0.0465932767
C  C18  1  0.58830000  0.74740000  0.79560000  1.0 -0.0917679564
C  C19  1  0.52970000  0.68080000  0.80790000  1.0 -0.1015389114
C  C20  1  0.58300000  0.85690000  0.68280000  1.0 0.6091872221
C  C21  1  0.83700000  0.98130000  0.59640000  1.0 0.6091872221
C  C22  1  0.86230000  0.00050000  0.43830000  1.0 -0.1015389114
C  C23  1  0.92200000  0.99080000  0.54670000  1.0 -0.0328414016
C  C24  1  0.06260000  0.98900000  0.61000000  1.0 -0.1015389114
C  C25  1  0.34370000  0.91330000  0.24700000  1.0 0.5931633404
C  C26  1  0.40480000  0.84380000  0.22890000  1.0 -0.0328414016
C  C27  1  0.34310000  0.80580000  0.13330000  1.0 -0.1015389114
C  C28  1  0.40120000  0.74050000  0.11660000  1.0 -0.0917679564
C  C29  1  0.52360000  0.71380000  0.19940000  1.0 -0.0465932767
C  C30  1  0.58830000  0.75260000  0.29560000  1.0 -0.0917679564
C  C31  1  0.52970000  0.81920000  0.30790000  1.0 -0.1015389114
C  C32  1  0.58300000  0.64310000  0.18280000  1.0 0.6091872221
C  C33  1  0.83700000  0.51870000  0.09640000  1.0 0.6091872221
C  C34  1  0.86230000  0.49950000  0.93830000  1.0 -0.1015389114
C  C35  1  0.92200000  0.50920000  0.04670000  1.0 -0.0328414016
C  C36  1  0.06260000  0.51100000  0.11000000  1.0 -0.1015389114
C  C37  1  0.65630000  0.41330000  0.25300000  1.0 0.5931633404
C  C38  1  0.59520000  0.34380000  0.27110000  1.0 -0.0328414016
C  C39  1  0.65690000  0.30580000  0.36670000  1.0 -0.1015389114
C  C40  1  0.59880000  0.24050000  0.38340000  1.0 -0.0917679564
C  C41  1  0.47640000  0.21380000  0.30060000  1.0 -0.0465932767
C  C42  1  0.41170000  0.25260000  0.20440000  1.0 -0.0917679564
C  C43  1  0.47030000  0.31920000  0.19210000  1.0 -0.1015389114
C  C44  1  0.41700000  0.14310000  0.31720000  1.0 0.6091872221
C  C45  1  0.16300000  0.01870000  0.40360000  1.0 0.6091872221
C  C46  1  0.13770000  0.99950000  0.56170000  1.0 -0.1015389114
C  C47  1  0.07800000  0.00920000  0.45330000  1.0 -0.0328414016
C  C48  1  0.93740000  0.01100000  0.39000000  1.0 -0.1015389114
O  O1  1  0.60210000  0.05780000  0.66370000  1.0 -0.6078707883
O  O2  1  0.76190000  0.05884000  0.83100000  1.0 -0.5178936878
O  O3  1  0.48000000  0.39130000  0.90430000  1.0 -0.600519062
O  O4  1  0.30000000  0.37699000  0.73770000  1.0 -0.5714242169
O  O5  1  0.10170000  0.47870000  0.80220000  1.0 -0.5542536387
O  O6  1  0.28930000  0.47220000  0.96550000  1.0 -0.6468025455
O  O7  1  0.39790000  0.55780000  0.83630000  1.0 -0.6078707883
O  O8  1  0.23810000  0.55884000  0.66900000  1.0 -0.5178936878
O  O9  1  0.52000000  0.89130000  0.59570000  1.0 -0.600519062
O  O10  1  0.70000000  0.87699000  0.76230000  1.0 -0.5714242169
O  O11  1  0.89830000  0.97870000  0.69780000  1.0 -0.5551672587
O  O12  1  0.71070000  0.97220000  0.53450000  1.0 -0.6468025455
O  O13  1  0.39790000  0.94220000  0.33630000  1.0 -0.6078707883
O  O14  1  0.23810000  0.94116000  0.16900000  1.0 -0.5178936878
O  O15  1  0.52000000  0.60870000  0.09570000  1.0 -0.600519062
O  O16  1  0.70000000  0.62301000  0.26230000  1.0 -0.5714242169
O  O17  1  0.89830000  0.52130000  0.19780000  1.0 -0.5542536387
O  O18  1  0.71070000  0.52780000  0.03450000  1.0 -0.6468025455
O  O19  1  0.60210000  0.44220000  0.16370000  1.0 -0.6078707883
O  O20  1  0.76190000  0.44116000  0.33100000  1.0 -0.5178936878
O  O21  1  0.48000000  0.10870000  0.40430000  1.0 -0.600519062
O  O22  1  0.30000000  0.12301000  0.23770000  1.0 -0.5714242169
O  O23  1  0.10170000  0.02130000  0.30220000  1.0 -0.5542536387
O  O24  1  0.28930000  0.02780000  0.46550000  1.0 -0.6468025455
