# DDEC6 charges by PACMAN v1.1 (https://github.com/mtap-research/PACMAN-charge/)
data_APEBII_ASR_pacman
_symmetry_space_group_name_H-M   'P 1'
_cell_length_a   16.90820000
_cell_length_b   16.90820000
_cell_length_c   16.90820000
_cell_angle_alpha   65.37290000
_cell_angle_beta   65.37290000
_cell_angle_gamma   65.37290000
_symmetry_Int_Tables_number   1
_chemical_formula_structural   CuH5C19N2O9
_chemical_formula_sum   'Cu6 H30 C114 N12 O54'
_cell_volume   3817.74780252
_cell_formula_units_Z   6
loop_
 _symmetry_equiv_pos_site_id
 _symmetry_equiv_pos_as_xyz
  1  'x, y, z'
loop_
 _atom_site_type_symbol
 _atom_site_label
 _atom_site_symmetry_multiplicity
 _atom_site_fract_x
 _atom_site_fract_y
 _atom_site_fract_z
 _atom_site_occupancy
 _atom_site_charge
Cu  Cu1  1  0.57660000  0.00133000  0.00133000  1.0 0.8575043406
Cu  Cu2  1  0.00133000  0.00133000  0.57660000  1.0 0.8575043406
Cu  Cu3  1  0.00133000  0.57660000  0.00133000  1.0 0.8575043406
Cu  Cu4  1  0.99867000  0.42340000  0.99867000  1.0 0.8575043406
Cu  Cu5  1  0.99867000  0.99867000  0.42340000  1.0 0.8575043406
Cu  Cu6  1  0.42340000  0.99867000  0.99867000  1.0 0.8575043406
H  H1  1  0.72365000  0.72365000  0.03050000  1.0 0.1556555853
H  H2  1  0.72365000  0.03050000  0.72365000  1.0 0.1546298937
H  H3  1  0.03050000  0.72365000  0.72365000  1.0 0.1546298937
H  H4  1  0.27635000  0.27635000  0.96950000  1.0 0.1546298937
H  H5  1  0.96950000  0.27635000  0.27635000  1.0 0.1546298937
H  H6  1  0.27635000  0.96950000  0.27635000  1.0 0.1546298937
H  H7  1  0.50360000  0.72140000  0.99810000  1.0 0.1229800806
H  H8  1  0.72140000  0.99810000  0.50360000  1.0 0.1229800806
H  H9  1  0.99810000  0.50360000  0.72140000  1.0 0.1229800806
H  H10  1  0.27860000  0.49640000  0.00190000  1.0 0.1229800806
H  H11  1  0.00190000  0.27860000  0.49640000  1.0 0.1229800806
H  H12  1  0.49640000  0.00190000  0.27860000  1.0 0.1229800806
H  H13  1  0.49640000  0.27860000  0.00190000  1.0 0.1229800806
H  H14  1  0.27860000  0.00190000  0.49640000  1.0 0.1229800806
H  H15  1  0.00190000  0.49640000  0.27860000  1.0 0.1229800806
H  H16  1  0.72140000  0.50360000  0.99810000  1.0 0.1229800806
H  H17  1  0.99810000  0.72140000  0.50360000  1.0 0.1229800806
H  H18  1  0.50360000  0.99810000  0.72140000  1.0 0.1229800806
H  H19  1  0.48690000  0.70840000  0.04490000  1.0 0.1229800806
H  H20  1  0.70840000  0.04490000  0.48690000  1.0 0.1229800806
H  H21  1  0.04490000  0.48690000  0.70840000  1.0 0.1229800806
H  H22  1  0.29160000  0.51310000  0.95510000  1.0 0.1229800806
H  H23  1  0.95510000  0.29160000  0.51310000  1.0 0.1229800806
H  H24  1  0.51310000  0.95510000  0.29160000  1.0 0.1229800806
H  H25  1  0.51310000  0.29160000  0.95510000  1.0 0.1229800806
H  H26  1  0.29160000  0.95510000  0.51310000  1.0 0.1229800806
H  H27  1  0.95510000  0.51310000  0.29160000  1.0 0.1229800806
H  H28  1  0.70840000  0.48690000  0.04490000  1.0 0.1229800806
H  H29  1  0.04490000  0.70840000  0.48690000  1.0 0.1229800806
H  H30  1  0.48690000  0.04490000  0.70840000  1.0 0.1229800806
C  C1  1  0.56005000  0.83205000  0.02135000  1.0 0.5556391901
C  C2  1  0.83205000  0.02135000  0.56005000  1.0 0.5556391901
C  C3  1  0.02135000  0.56005000  0.83205000  1.0 0.5556391901
C  C4  1  0.16795000  0.43995000  0.97865000  1.0 0.5556391901
C  C5  1  0.97865000  0.16795000  0.43995000  1.0 0.5556391901
C  C6  1  0.43995000  0.97865000  0.16795000  1.0 0.5556391901
C  C7  1  0.43995000  0.16795000  0.97865000  1.0 0.5556391901
C  C8  1  0.16795000  0.97865000  0.43995000  1.0 0.5556391901
C  C9  1  0.97865000  0.43995000  0.16795000  1.0 0.5556391901
C  C10  1  0.83205000  0.56005000  0.02135000  1.0 0.5556391901
C  C11  1  0.02135000  0.83205000  0.56005000  1.0 0.5556391901
C  C12  1  0.56005000  0.02135000  0.83205000  1.0 0.5556391901
C  C13  1  0.69196000  0.69196000  0.02731000  1.0 -0.1482143952
C  C14  1  0.69196000  0.02731000  0.69196000  1.0 -0.1482143952
C  C15  1  0.02731000  0.69196000  0.69196000  1.0 -0.1482143952
C  C16  1  0.30804000  0.30804000  0.97269000  1.0 -0.1428957357
C  C17  1  0.97269000  0.30804000  0.30804000  1.0 -0.1482143952
C  C18  1  0.30804000  0.97269000  0.30804000  1.0 -0.1482143952
C  C19  1  0.60266000  0.73396000  0.02496000  1.0 0.0128358517
C  C20  1  0.73396000  0.02496000  0.60266000  1.0 0.015772924
C  C21  1  0.02496000  0.60266000  0.73396000  1.0 0.0128358517
C  C22  1  0.26604000  0.39734000  0.97504000  1.0 0.0128358517
C  C23  1  0.97504000  0.26604000  0.39734000  1.0 0.0128358517
C  C24  1  0.39734000  0.97504000  0.26604000  1.0 0.0128358517
C  C25  1  0.39734000  0.26604000  0.97504000  1.0 0.0128358517
C  C26  1  0.26604000  0.97504000  0.39734000  1.0 0.0128358517
C  C27  1  0.97504000  0.39734000  0.26604000  1.0 0.0128358517
C  C28  1  0.73396000  0.60266000  0.02496000  1.0 0.0128358517
C  C29  1  0.02496000  0.73396000  0.60266000  1.0 0.0128358517
C  C30  1  0.60266000  0.02496000  0.73396000  1.0 0.0128358517
C  C31  1  0.60040000  0.60040000  0.00490000  1.0 0.1038920582
C  C32  1  0.60040000  0.00490000  0.60040000  1.0 0.1038920582
C  C33  1  0.00490000  0.60040000  0.60040000  1.0 0.1038920582
C  C34  1  0.39960000  0.39960000  0.99510000  1.0 0.1038920582
C  C35  1  0.99510000  0.39960000  0.39960000  1.0 0.1038920582
C  C36  1  0.39960000  0.99510000  0.39960000  1.0 0.1038920582
C  C37  1  0.56030000  0.69000000  0.00790000  1.0 -0.0538790933
C  C38  1  0.69000000  0.00790000  0.56030000  1.0 -0.0538790933
C  C39  1  0.00790000  0.56030000  0.69000000  1.0 -0.0538790933
C  C40  1  0.31000000  0.43970000  0.99210000  1.0 -0.0538790933
C  C41  1  0.99210000  0.31000000  0.43970000  1.0 -0.0538790933
C  C42  1  0.43970000  0.99210000  0.31000000  1.0 -0.0538790933
C  C43  1  0.43970000  0.31000000  0.99210000  1.0 -0.0538790933
C  C44  1  0.31000000  0.99210000  0.43970000  1.0 -0.0538790933
C  C45  1  0.99210000  0.43970000  0.31000000  1.0 -0.0538790933
C  C46  1  0.69000000  0.56030000  0.00790000  1.0 -0.0538790933
C  C47  1  0.00790000  0.69000000  0.56030000  1.0 -0.0538790933
C  C48  1  0.56030000  0.00790000  0.69000000  1.0 -0.0538790933
C  C49  1  0.59410000  0.48280000  0.95930000  1.0 0.015772924
C  C50  1  0.48280000  0.95930000  0.59410000  1.0 0.0128358517
C  C51  1  0.95930000  0.59410000  0.48280000  1.0 0.0128358517
C  C52  1  0.51720000  0.40590000  0.04070000  1.0 0.0128358517
C  C53  1  0.04070000  0.51720000  0.40590000  1.0 0.0128358517
C  C54  1  0.40590000  0.04070000  0.51720000  1.0 0.0128358517
C  C55  1  0.40590000  0.51720000  0.04070000  1.0 0.015772924
C  C56  1  0.51720000  0.04070000  0.40590000  1.0 0.015772924
C  C57  1  0.04070000  0.40590000  0.51720000  1.0 0.0128358517
C  C58  1  0.48280000  0.59410000  0.95930000  1.0 0.0128358517
C  C59  1  0.95930000  0.48280000  0.59410000  1.0 0.0128358517
C  C60  1  0.59410000  0.95930000  0.48280000  1.0 0.0128358517
C  C61  1  0.56760000  0.45570000  0.04770000  1.0 0.0128358517
C  C62  1  0.45570000  0.04770000  0.56760000  1.0 0.0128358517
C  C63  1  0.04770000  0.56760000  0.45570000  1.0 0.0128358517
C  C64  1  0.54430000  0.43240000  0.95230000  1.0 0.0128358517
C  C65  1  0.95230000  0.54430000  0.43240000  1.0 0.0128358517
C  C66  1  0.43240000  0.95230000  0.54430000  1.0 0.0128358517
C  C67  1  0.43240000  0.54430000  0.95230000  1.0 0.0128358517
C  C68  1  0.54430000  0.95230000  0.43240000  1.0 0.015772924
C  C69  1  0.95230000  0.43240000  0.54430000  1.0 0.015772924
C  C70  1  0.45570000  0.56760000  0.04770000  1.0 0.0128358517
C  C71  1  0.04770000  0.45570000  0.56760000  1.0 0.0128358517
C  C72  1  0.56760000  0.04770000  0.45570000  1.0 0.0128358517
C  C73  1  0.63270000  0.36630000  0.07680000  1.0 0.2770174631
C  C74  1  0.36630000  0.07680000  0.63270000  1.0 0.2770174631
C  C75  1  0.07680000  0.63270000  0.36630000  1.0 0.2770174631
C  C76  1  0.63370000  0.36730000  0.92320000  1.0 0.2747349666
C  C77  1  0.92320000  0.63370000  0.36730000  1.0 0.2770174631
C  C78  1  0.36730000  0.92320000  0.63370000  1.0 0.2747349666
C  C79  1  0.36730000  0.63370000  0.92320000  1.0 0.2747349666
C  C80  1  0.63370000  0.92320000  0.36730000  1.0 0.2770174631
C  C81  1  0.92320000  0.36730000  0.63370000  1.0 0.2770174631
C  C82  1  0.36630000  0.63270000  0.07680000  1.0 0.2747349666
C  C83  1  0.07680000  0.36630000  0.63270000  1.0 0.2770174631
C  C84  1  0.63270000  0.07680000  0.36630000  1.0 0.2770174631
C  C85  1  0.68150000  0.43010000  0.90690000  1.0 0.0587526151
C  C86  1  0.43010000  0.90690000  0.68150000  1.0 0.0587526151
C  C87  1  0.90690000  0.68150000  0.43010000  1.0 0.0587526151
C  C88  1  0.56990000  0.31850000  0.09310000  1.0 0.0587526151
C  C89  1  0.09310000  0.56990000  0.31850000  1.0 0.0587526151
C  C90  1  0.31850000  0.09310000  0.56990000  1.0 0.0587526151
C  C91  1  0.31850000  0.56990000  0.09310000  1.0 0.0587526151
C  C92  1  0.56990000  0.09310000  0.31850000  1.0 0.0587526151
C  C93  1  0.09310000  0.31850000  0.56990000  1.0 0.0587526151
C  C94  1  0.43010000  0.68150000  0.90690000  1.0 0.0587526151
C  C95  1  0.90690000  0.43010000  0.68150000  1.0 0.0587526151
C  C96  1  0.68150000  0.90690000  0.43010000  1.0 0.0587526151
C  C97  1  0.54890000  0.68250000  0.03820000  1.0 -0.0573823767
C  C98  1  0.68250000  0.03820000  0.54890000  1.0 -0.0573823767
C  C99  1  0.03820000  0.54890000  0.68250000  1.0 -0.0573823767
C  C100  1  0.31750000  0.45110000  0.96180000  1.0 -0.0573823767
C  C101  1  0.96180000  0.31750000  0.45110000  1.0 -0.0573823767
C  C102  1  0.45110000  0.96180000  0.31750000  1.0 -0.0573823767
C  C103  1  0.45110000  0.31750000  0.96180000  1.0 -0.0573823767
C  C104  1  0.31750000  0.96180000  0.45110000  1.0 -0.0573823767
C  C105  1  0.96180000  0.45110000  0.31750000  1.0 -0.0573823767
C  C106  1  0.68250000  0.54890000  0.03820000  1.0 -0.0573823767
C  C107  1  0.03820000  0.68250000  0.54890000  1.0 -0.0573823767
C  C108  1  0.54890000  0.03820000  0.68250000  1.0 -0.0573823767
C  C109  1  0.59145000  0.59145000  0.04110000  1.0 0.090817464
C  C110  1  0.59145000  0.04110000  0.59145000  1.0 0.090817464
C  C111  1  0.04110000  0.59145000  0.59145000  1.0 0.090817464
C  C112  1  0.40855000  0.40855000  0.95890000  1.0 0.090817464
C  C113  1  0.95890000  0.40855000  0.40855000  1.0 0.090817464
C  C114  1  0.40855000  0.95890000  0.40855000  1.0 0.090817464
N  N1  1  0.55605000  0.55605000  0.98830000  1.0 0.090817464
N  N2  1  0.55605000  0.98830000  0.55605000  1.0 0.090817464
N  N3  1  0.98830000  0.55605000  0.55605000  1.0 0.090817464
N  N4  1  0.44395000  0.44395000  0.01170000  1.0 0.090817464
N  N5  1  0.01170000  0.44395000  0.44395000  1.0 0.090817464
N  N6  1  0.44395000  0.01170000  0.44395000  1.0 0.090817464
N  N7  1  0.54270000  0.54270000  0.03750000  1.0 0.0424575046
N  N8  1  0.54270000  0.03750000  0.54270000  1.0 0.0424575046
N  N9  1  0.03750000  0.54270000  0.54270000  1.0 0.0466068835
N  N10  1  0.45730000  0.45730000  0.96250000  1.0 0.0424575046
N  N11  1  0.96250000  0.45730000  0.45730000  1.0 0.0466068835
N  N12  1  0.45730000  0.96250000  0.45730000  1.0 0.0466068835
O  O1  1  0.60896000  0.87128000  0.02069000  1.0 -0.4930793468
O  O2  1  0.87128000  0.02069000  0.60896000  1.0 -0.4930793468
O  O3  1  0.02069000  0.60896000  0.87128000  1.0 -0.4930793468
O  O4  1  0.12872000  0.39104000  0.97931000  1.0 -0.4930793468
O  O5  1  0.97931000  0.12872000  0.39104000  1.0 -0.4930793468
O  O6  1  0.39104000  0.97931000  0.12872000  1.0 -0.4930793468
O  O7  1  0.39104000  0.12872000  0.97931000  1.0 -0.4930793468
O  O8  1  0.12872000  0.97931000  0.39104000  1.0 -0.4930793468
O  O9  1  0.97931000  0.39104000  0.12872000  1.0 -0.4930793468
O  O10  1  0.87128000  0.60896000  0.02069000  1.0 -0.4930793468
O  O11  1  0.02069000  0.87128000  0.60896000  1.0 -0.4930793468
O  O12  1  0.60896000  0.02069000  0.87128000  1.0 -0.4930793468
O  O13  1  0.47947000  0.86809000  0.01714000  1.0 -0.4604816783
O  O14  1  0.86809000  0.01714000  0.47947000  1.0 -0.4604816783
O  O15  1  0.01714000  0.47947000  0.86809000  1.0 -0.4604816783
O  O16  1  0.13191000  0.52053000  0.98286000  1.0 -0.4604816783
O  O17  1  0.98286000  0.13191000  0.52053000  1.0 -0.4604816783
O  O18  1  0.52053000  0.98286000  0.13191000  1.0 -0.4604816783
O  O19  1  0.52053000  0.13191000  0.98286000  1.0 -0.4604816783
O  O20  1  0.13191000  0.98286000  0.52053000  1.0 -0.4604816783
O  O21  1  0.98286000  0.52053000  0.13191000  1.0 -0.4604816783
O  O22  1  0.86809000  0.47947000  0.01714000  1.0 -0.4604816783
O  O23  1  0.01714000  0.86809000  0.47947000  1.0 -0.4604816783
O  O24  1  0.47947000  0.01714000  0.86809000  1.0 -0.4604816783
O  O25  1  0.75980000  0.44690000  0.86340000  1.0 -0.3571796515
O  O26  1  0.44690000  0.86340000  0.75980000  1.0 -0.3571796515
O  O27  1  0.86340000  0.75980000  0.44690000  1.0 -0.3571796515
O  O28  1  0.55310000  0.24020000  0.13660000  1.0 -0.3571796515
O  O29  1  0.13660000  0.55310000  0.24020000  1.0 -0.3571796515
O  O30  1  0.24020000  0.13660000  0.55310000  1.0 -0.3571796515
O  O31  1  0.24020000  0.55310000  0.13660000  1.0 -0.3571796515
O  O32  1  0.55310000  0.13660000  0.24020000  1.0 -0.3571796515
O  O33  1  0.13660000  0.24020000  0.55310000  1.0 -0.3571796515
O  O34  1  0.44690000  0.75980000  0.86340000  1.0 -0.3571796515
O  O35  1  0.86340000  0.44690000  0.75980000  1.0 -0.3571796515
O  O36  1  0.75980000  0.86340000  0.44690000  1.0 -0.3571796515
O  O37  1  0.68970000  0.34440000  0.11610000  1.0 -0.3729924165
O  O38  1  0.34440000  0.11610000  0.68970000  1.0 -0.3729924165
O  O39  1  0.11610000  0.68970000  0.34440000  1.0 -0.3754611685
O  O40  1  0.65560000  0.31030000  0.88390000  1.0 -0.3729924165
O  O41  1  0.88390000  0.65560000  0.31030000  1.0 -0.3754611685
O  O42  1  0.31030000  0.88390000  0.65560000  1.0 -0.3729924165
O  O43  1  0.31030000  0.65560000  0.88390000  1.0 -0.3729924165
O  O44  1  0.65560000  0.88390000  0.31030000  1.0 -0.3754611685
O  O45  1  0.88390000  0.31030000  0.65560000  1.0 -0.3754611685
O  O46  1  0.34440000  0.68970000  0.11610000  1.0 -0.3754611685
O  O47  1  0.11610000  0.34440000  0.68970000  1.0 -0.3729924165
O  O48  1  0.68970000  0.11610000  0.34440000  1.0 -0.3729924165
O  O49  1  0.63515000  0.36485000  0.00000000  1.0 0.0424575046
O  O50  1  0.36485000  0.00000000  0.63515000  1.0 0.0466068835
O  O51  1  0.00000000  0.63515000  0.36485000  1.0 0.0424575046
O  O52  1  0.36485000  0.63515000  0.00000000  1.0 0.0466068835
O  O53  1  0.63515000  0.00000000  0.36485000  1.0 0.0424575046
O  O54  1  0.00000000  0.36485000  0.63515000  1.0 0.0424575046
