# DDEC6 charges by PACMAN v1.1 (https://github.com/mtap-research/PACMAN-charge/)
data_APEBOO_ASR_pacman
_symmetry_space_group_name_H-M   'P 1'
_cell_length_a   16.79260000
_cell_length_b   16.79260000
_cell_length_c   16.79260000
_cell_angle_alpha   68.14590000
_cell_angle_beta   68.14590000
_cell_angle_gamma   68.14590000
_symmetry_Int_Tables_number   1
_chemical_formula_structural   ZnH6C22(NO4)2
_chemical_formula_sum   'Zn6 H36 C132 N12 O48'
_cell_volume   3926.25526963
_cell_formula_units_Z   6
loop_
 _symmetry_equiv_pos_site_id
 _symmetry_equiv_pos_as_xyz
  1  'x, y, z'
loop_
 _atom_site_type_symbol
 _atom_site_label
 _atom_site_symmetry_multiplicity
 _atom_site_fract_x
 _atom_site_fract_y
 _atom_site_fract_z
 _atom_site_occupancy
 _atom_site_charge
Zn  Zn1  1  0.49380000  0.91603000  0.49380000  1.0 0.8778155936
Zn  Zn2  1  0.91603000  0.49380000  0.49380000  1.0 0.8778155936
Zn  Zn3  1  0.49380000  0.49380000  0.91603000  1.0 0.8778155936
Zn  Zn4  1  0.08397000  0.50620000  0.50620000  1.0 0.8778155936
Zn  Zn5  1  0.50620000  0.08397000  0.50620000  1.0 0.8778155936
Zn  Zn6  1  0.50620000  0.50620000  0.08397000  1.0 0.8778155936
H  H1  1  0.49090000  0.99810000  0.77820000  1.0 0.0888061688
H  H2  1  0.99810000  0.77820000  0.49090000  1.0 0.0888061688
H  H3  1  0.77820000  0.49090000  0.99810000  1.0 0.0888061688
H  H4  1  0.00190000  0.50910000  0.22180000  1.0 0.0888061688
H  H5  1  0.22180000  0.00190000  0.50910000  1.0 0.0888061688
H  H6  1  0.50910000  0.22180000  0.00190000  1.0 0.0888061688
H  H7  1  0.50910000  0.00190000  0.22180000  1.0 0.0888061688
H  H8  1  0.00190000  0.22180000  0.50910000  1.0 0.0888061688
H  H9  1  0.22180000  0.50910000  0.00190000  1.0 0.0888061688
H  H10  1  0.99810000  0.49090000  0.77820000  1.0 0.0888061688
H  H11  1  0.77820000  0.99810000  0.49090000  1.0 0.0888061688
H  H12  1  0.49090000  0.77820000  0.99810000  1.0 0.0888061688
H  H13  1  0.48450000  0.76160000  0.76160000  1.0 0.1214521223
H  H14  1  0.76160000  0.76160000  0.48450000  1.0 0.1142678254
H  H15  1  0.76160000  0.48450000  0.76160000  1.0 0.1214521223
H  H16  1  0.23840000  0.51550000  0.23840000  1.0 0.1142678254
H  H17  1  0.23840000  0.23840000  0.51550000  1.0 0.1142678254
H  H18  1  0.51550000  0.23840000  0.23840000  1.0 0.1142678254
H  H19  1  0.46420000  0.77580000  0.77580000  1.0 0.1214521223
H  H20  1  0.77580000  0.77580000  0.46420000  1.0 0.1214521223
H  H21  1  0.77580000  0.46420000  0.77580000  1.0 0.1214521223
H  H22  1  0.22420000  0.53580000  0.22420000  1.0 0.1214521223
H  H23  1  0.22420000  0.22420000  0.53580000  1.0 0.1214521223
H  H24  1  0.53580000  0.22420000  0.22420000  1.0 0.1214521223
H  H25  1  0.46460000  0.00270000  0.79450000  1.0 0.0888061688
H  H26  1  0.00270000  0.79450000  0.46460000  1.0 0.0888061688
H  H27  1  0.79450000  0.46460000  0.00270000  1.0 0.0888061688
H  H28  1  0.99730000  0.53540000  0.20550000  1.0 0.0888061688
H  H29  1  0.20550000  0.99730000  0.53540000  1.0 0.0888061688
H  H30  1  0.53540000  0.20550000  0.99730000  1.0 0.0888061688
H  H31  1  0.53540000  0.99730000  0.20550000  1.0 0.0888061688
H  H32  1  0.99730000  0.20550000  0.53540000  1.0 0.0888061688
H  H33  1  0.20550000  0.53540000  0.99730000  1.0 0.0888061688
H  H34  1  0.00270000  0.46460000  0.79450000  1.0 0.0888061688
H  H35  1  0.79450000  0.00270000  0.46460000  1.0 0.0888061688
H  H36  1  0.46460000  0.79450000  0.00270000  1.0 0.0888061688
C  C1  1  0.48163000  0.93173000  0.66643000  1.0 0.4404602044
C  C2  1  0.93173000  0.66643000  0.48163000  1.0 0.4404602044
C  C3  1  0.66643000  0.48163000  0.93173000  1.0 0.4404602044
C  C4  1  0.06827000  0.51837000  0.33357000  1.0 0.4404602044
C  C5  1  0.33357000  0.06827000  0.51837000  1.0 0.4404602044
C  C6  1  0.51837000  0.33357000  0.06827000  1.0 0.4404602044
C  C7  1  0.51837000  0.06827000  0.33357000  1.0 0.4404602044
C  C8  1  0.06827000  0.33357000  0.51837000  1.0 0.4404602044
C  C9  1  0.33357000  0.51837000  0.06827000  1.0 0.4404602044
C  C10  1  0.93173000  0.48163000  0.66643000  1.0 0.4404602044
C  C11  1  0.66643000  0.93173000  0.48163000  1.0 0.4404602044
C  C12  1  0.48163000  0.66643000  0.93173000  1.0 0.4404602044
C  C13  1  0.49090000  0.88670000  0.75520000  1.0 0.0010379522
C  C14  1  0.88670000  0.75520000  0.49090000  1.0 0.0010379522
C  C15  1  0.75520000  0.49090000  0.88670000  1.0 0.0010379522
C  C16  1  0.11330000  0.50910000  0.24480000  1.0 0.0010379522
C  C17  1  0.24480000  0.11330000  0.50910000  1.0 0.0010379522
C  C18  1  0.50910000  0.24480000  0.11330000  1.0 0.0010379522
C  C19  1  0.50910000  0.11330000  0.24480000  1.0 0.0010379522
C  C20  1  0.11330000  0.24480000  0.50910000  1.0 0.0010379522
C  C21  1  0.24480000  0.50910000  0.11330000  1.0 0.0010379522
C  C22  1  0.88670000  0.49090000  0.75520000  1.0 0.0010379522
C  C23  1  0.75520000  0.88670000  0.49090000  1.0 0.0010379522
C  C24  1  0.49090000  0.75520000  0.88670000  1.0 0.0010379522
C  C25  1  0.49390000  0.93780000  0.80310000  1.0 -0.1111956549
C  C26  1  0.93780000  0.80310000  0.49390000  1.0 -0.1111956549
C  C27  1  0.80310000  0.49390000  0.93780000  1.0 -0.1111956549
C  C28  1  0.06220000  0.50610000  0.19690000  1.0 -0.1111956549
C  C29  1  0.19690000  0.06220000  0.50610000  1.0 -0.1111956549
C  C30  1  0.50610000  0.19690000  0.06220000  1.0 -0.1111956549
C  C31  1  0.50610000  0.06220000  0.19690000  1.0 -0.1111956549
C  C32  1  0.06220000  0.19690000  0.50610000  1.0 -0.1111956549
C  C33  1  0.19690000  0.50610000  0.06220000  1.0 -0.1111956549
C  C34  1  0.93780000  0.49390000  0.80310000  1.0 -0.1111956549
C  C35  1  0.80310000  0.93780000  0.49390000  1.0 -0.1111956549
C  C36  1  0.49390000  0.80310000  0.93780000  1.0 -0.1111956549
C  C37  1  0.50190000  0.89270000  0.89270000  1.0 0.071996483
C  C38  1  0.89270000  0.89270000  0.50190000  1.0 0.0751858347
C  C39  1  0.89270000  0.50190000  0.89270000  1.0 0.071996483
C  C40  1  0.10730000  0.49810000  0.10730000  1.0 0.071996483
C  C41  1  0.10730000  0.10730000  0.49810000  1.0 0.071996483
C  C42  1  0.49810000  0.10730000  0.10730000  1.0 0.071996483
C  C43  1  0.46780000  0.93290000  0.03960000  1.0 -0.0107353885
C  C44  1  0.93290000  0.03960000  0.46780000  1.0 -0.0107353885
C  C45  1  0.03960000  0.46780000  0.93290000  1.0 -0.0186489883
C  C46  1  0.06710000  0.53220000  0.96040000  1.0 -0.0107353885
C  C47  1  0.96040000  0.06710000  0.53220000  1.0 -0.0107353885
C  C48  1  0.53220000  0.96040000  0.06710000  1.0 -0.0107353885
C  C49  1  0.53220000  0.06710000  0.96040000  1.0 -0.0186489883
C  C50  1  0.06710000  0.96040000  0.53220000  1.0 -0.0107353885
C  C51  1  0.96040000  0.53220000  0.06710000  1.0 -0.0107353885
C  C52  1  0.93290000  0.46780000  0.03960000  1.0 -0.0107353885
C  C53  1  0.03960000  0.93290000  0.46780000  1.0 -0.0186489883
C  C54  1  0.46780000  0.03960000  0.93290000  1.0 -0.0186489883
C  C55  1  0.48810000  0.79400000  0.79400000  1.0 -0.0655958733
C  C56  1  0.79400000  0.79400000  0.48810000  1.0 -0.0655958733
C  C57  1  0.79400000  0.48810000  0.79400000  1.0 -0.0655958733
C  C58  1  0.20600000  0.51190000  0.20600000  1.0 -0.0649727366
C  C59  1  0.20600000  0.20600000  0.51190000  1.0 -0.0649727366
C  C60  1  0.51190000  0.20600000  0.20600000  1.0 -0.0649727366
C  C61  1  0.51870000  0.91140000  0.02340000  1.0 -0.0107353885
C  C62  1  0.91140000  0.02340000  0.51870000  1.0 -0.0107353885
C  C63  1  0.02340000  0.51870000  0.91140000  1.0 -0.0107353885
C  C64  1  0.08860000  0.48130000  0.97660000  1.0 -0.0107353885
C  C65  1  0.97660000  0.08860000  0.48130000  1.0 -0.0107353885
C  C66  1  0.48130000  0.97660000  0.08860000  1.0 -0.0107353885
C  C67  1  0.48130000  0.08860000  0.97660000  1.0 -0.0107353885
C  C68  1  0.08860000  0.97660000  0.48130000  1.0 -0.0107353885
C  C69  1  0.97660000  0.48130000  0.08860000  1.0 -0.0107353885
C  C70  1  0.91140000  0.51870000  0.02340000  1.0 -0.0107353885
C  C71  1  0.02340000  0.91140000  0.51870000  1.0 -0.0107353885
C  C72  1  0.51870000  0.02340000  0.91140000  1.0 -0.0107353885
C  C73  1  0.46230000  0.85160000  0.11620000  1.0 0.0461524231
C  C74  1  0.85160000  0.11620000  0.46230000  1.0 0.0461524231
C  C75  1  0.11620000  0.46230000  0.85160000  1.0 0.0461524231
C  C76  1  0.14840000  0.53770000  0.88380000  1.0 0.0461524231
C  C77  1  0.88380000  0.14840000  0.53770000  1.0 0.0461524231
C  C78  1  0.53770000  0.88380000  0.14840000  1.0 0.0461524231
C  C79  1  0.53770000  0.14840000  0.88380000  1.0 0.0461524231
C  C80  1  0.14840000  0.88380000  0.53770000  1.0 0.0461524231
C  C81  1  0.88380000  0.53770000  0.14840000  1.0 0.0461524231
C  C82  1  0.85160000  0.46230000  0.11620000  1.0 0.0461524231
C  C83  1  0.11620000  0.85160000  0.46230000  1.0 0.0446913273
C  C84  1  0.46230000  0.11620000  0.85160000  1.0 0.0461524231
C  C85  1  0.47610000  0.89820000  0.16800000  1.0 0.0589849781
C  C86  1  0.89820000  0.16800000  0.47610000  1.0 0.0589849781
C  C87  1  0.16800000  0.47610000  0.89820000  1.0 0.0589849781
C  C88  1  0.10180000  0.52390000  0.83200000  1.0 0.0589849781
C  C89  1  0.83200000  0.10180000  0.52390000  1.0 0.0589849781
C  C90  1  0.52390000  0.83200000  0.10180000  1.0 0.0589849781
C  C91  1  0.52390000  0.10180000  0.83200000  1.0 0.0589849781
C  C92  1  0.10180000  0.83200000  0.52390000  1.0 0.0589849781
C  C93  1  0.83200000  0.52390000  0.10180000  1.0 0.0589849781
C  C94  1  0.89820000  0.47610000  0.16800000  1.0 0.0589849781
C  C95  1  0.16800000  0.89820000  0.47610000  1.0 0.0589849781
C  C96  1  0.47610000  0.16800000  0.89820000  1.0 0.0589849781
C  C97  1  0.46380000  0.80930000  0.80930000  1.0 -0.0983252093
C  C98  1  0.80930000  0.80930000  0.46380000  1.0 -0.0983252093
C  C99  1  0.80930000  0.46380000  0.80930000  1.0 -0.0983252093
C  C100  1  0.19070000  0.53620000  0.19070000  1.0 -0.0983252093
C  C101  1  0.19070000  0.19070000  0.53620000  1.0 -0.0983252093
C  C102  1  0.53620000  0.19070000  0.19070000  1.0 -0.0983252093
C  C103  1  0.46110000  0.90710000  0.90710000  1.0 0.071996483
C  C104  1  0.90710000  0.90710000  0.46110000  1.0 0.071996483
C  C105  1  0.90710000  0.46110000  0.90710000  1.0 0.071996483
C  C106  1  0.09290000  0.53890000  0.09290000  1.0 0.071996483
C  C107  1  0.09290000  0.09290000  0.53890000  1.0 0.071996483
C  C108  1  0.53890000  0.09290000  0.09290000  1.0 0.071996483
C  C109  1  0.46320000  0.94360000  0.82020000  1.0 -0.0983252093
C  C110  1  0.94360000  0.82020000  0.46320000  1.0 -0.0983252093
C  C111  1  0.82020000  0.46320000  0.94360000  1.0 -0.0983252093
C  C112  1  0.05640000  0.53680000  0.17980000  1.0 -0.0983252093
C  C113  1  0.17980000  0.05640000  0.53680000  1.0 -0.0983252093
C  C114  1  0.53680000  0.17980000  0.05640000  1.0 -0.0983252093
C  C115  1  0.53680000  0.05640000  0.17980000  1.0 -0.0983252093
C  C116  1  0.05640000  0.17980000  0.53680000  1.0 -0.0983252093
C  C117  1  0.17980000  0.53680000  0.05640000  1.0 -0.0983252093
C  C118  1  0.94360000  0.46320000  0.82020000  1.0 -0.0983252093
C  C119  1  0.82020000  0.94360000  0.46320000  1.0 -0.0983252093
C  C120  1  0.46320000  0.82020000  0.94360000  1.0 -0.0983252093
C  C121  1  0.46350000  0.89710000  0.76770000  1.0 0.0223056107
C  C122  1  0.89710000  0.76770000  0.46350000  1.0 0.0223056107
C  C123  1  0.76770000  0.46350000  0.89710000  1.0 0.0223056107
C  C124  1  0.10290000  0.53650000  0.23230000  1.0 0.0223056107
C  C125  1  0.23230000  0.10290000  0.53650000  1.0 0.0223056107
C  C126  1  0.53650000  0.23230000  0.10290000  1.0 0.0223056107
C  C127  1  0.53650000  0.10290000  0.23230000  1.0 0.0223056107
C  C128  1  0.10290000  0.23230000  0.53650000  1.0 0.0223056107
C  C129  1  0.23230000  0.53650000  0.10290000  1.0 0.0223056107
C  C130  1  0.89710000  0.46350000  0.76770000  1.0 0.0223056107
C  C131  1  0.76770000  0.89710000  0.46350000  1.0 0.0223056107
C  C132  1  0.46350000  0.76770000  0.89710000  1.0 0.0223056107
N  N1  1  0.50920000  0.94170000  0.94170000  1.0 -0.0461872599
N  N2  1  0.94170000  0.94170000  0.50920000  1.0 -0.0421293794
N  N3  1  0.94170000  0.50920000  0.94170000  1.0 -0.0461872599
N  N4  1  0.05830000  0.49080000  0.05830000  1.0 -0.0461872599
N  N5  1  0.05830000  0.05830000  0.49080000  1.0 -0.0461872599
N  N6  1  0.49080000  0.05830000  0.05830000  1.0 -0.0461872599
N  N7  1  0.46280000  0.95740000  0.95740000  1.0 -0.0262065259
N  N8  1  0.95740000  0.95740000  0.46280000  1.0 -0.0262065259
N  N9  1  0.95740000  0.46280000  0.95740000  1.0 -0.0262065259
N  N10  1  0.04260000  0.53720000  0.04260000  1.0 -0.0262065259
N  N11  1  0.04260000  0.04260000  0.53720000  1.0 -0.0262065259
N  N12  1  0.53720000  0.04260000  0.04260000  1.0 -0.0262065259
O  O1  1  0.47822000  0.88393000  0.62620000  1.0 -0.4846153095
O  O2  1  0.88393000  0.62620000  0.47822000  1.0 -0.4855381853
O  O3  1  0.62620000  0.47822000  0.88393000  1.0 -0.4846153095
O  O4  1  0.11607000  0.52178000  0.37380000  1.0 -0.4855381853
O  O5  1  0.37380000  0.11607000  0.52178000  1.0 -0.4846153095
O  O6  1  0.52178000  0.37380000  0.11607000  1.0 -0.4855381853
O  O7  1  0.52178000  0.11607000  0.37380000  1.0 -0.4846153095
O  O8  1  0.11607000  0.37380000  0.52178000  1.0 -0.4846153095
O  O9  1  0.37380000  0.52178000  0.11607000  1.0 -0.4855381853
O  O10  1  0.88393000  0.47822000  0.62620000  1.0 -0.4846153095
O  O11  1  0.62620000  0.88393000  0.47822000  1.0 -0.4855381853
O  O12  1  0.47822000  0.62620000  0.88393000  1.0 -0.4846153095
O  O13  1  0.48565000  0.00995000  0.63495000  1.0 -0.5043148479
O  O14  1  0.00995000  0.63495000  0.48565000  1.0 -0.5054222948
O  O15  1  0.63495000  0.48565000  0.00995000  1.0 -0.5043148479
O  O16  1  0.99005000  0.51435000  0.36505000  1.0 -0.5054222948
O  O17  1  0.36505000  0.99005000  0.51435000  1.0 -0.5054222948
O  O18  1  0.51435000  0.36505000  0.99005000  1.0 -0.5043148479
O  O19  1  0.51435000  0.99005000  0.36505000  1.0 -0.5054222948
O  O20  1  0.99005000  0.36505000  0.51435000  1.0 -0.5043148479
O  O21  1  0.36505000  0.51435000  0.99005000  1.0 -0.5043148479
O  O22  1  0.00995000  0.48565000  0.63495000  1.0 -0.5043148479
O  O23  1  0.63495000  0.00995000  0.48565000  1.0 -0.5043148479
O  O24  1  0.48565000  0.63495000  0.00995000  1.0 -0.5043148479
O  O25  1  0.45240000  0.77560000  0.14540000  1.0 -0.0107353885
O  O26  1  0.77560000  0.14540000  0.45240000  1.0 -0.0107353885
O  O27  1  0.14540000  0.45240000  0.77560000  1.0 -0.0107353885
O  O28  1  0.22440000  0.54760000  0.85460000  1.0 -0.0107353885
O  O29  1  0.85460000  0.22440000  0.54760000  1.0 -0.0107353885
O  O30  1  0.54760000  0.85460000  0.22440000  1.0 -0.0107353885
O  O31  1  0.54760000  0.22440000  0.85460000  1.0 -0.0107353885
O  O32  1  0.22440000  0.85460000  0.54760000  1.0 -0.0107353885
O  O33  1  0.85460000  0.54760000  0.22440000  1.0 -0.0107353885
O  O34  1  0.77560000  0.45240000  0.14540000  1.0 -0.0107353885
O  O35  1  0.14540000  0.77560000  0.45240000  1.0 -0.0107353885
O  O36  1  0.45240000  0.14540000  0.77560000  1.0 -0.0107353885
O  O37  1  0.51980000  0.75580000  0.12360000  1.0 -0.0262065259
O  O38  1  0.75580000  0.12360000  0.51980000  1.0 -0.0262065259
O  O39  1  0.12360000  0.51980000  0.75580000  1.0 -0.0186489883
O  O40  1  0.24420000  0.48020000  0.87640000  1.0 -0.0262065259
O  O41  1  0.87640000  0.24420000  0.48020000  1.0 -0.0262065259
O  O42  1  0.48020000  0.87640000  0.24420000  1.0 -0.0262065259
O  O43  1  0.48020000  0.24420000  0.87640000  1.0 -0.0186489883
O  O44  1  0.24420000  0.87640000  0.48020000  1.0 -0.0262065259
O  O45  1  0.87640000  0.48020000  0.24420000  1.0 -0.0262065259
O  O46  1  0.75580000  0.51980000  0.12360000  1.0 -0.0262065259
O  O47  1  0.12360000  0.75580000  0.51980000  1.0 -0.0262065259
O  O48  1  0.51980000  0.12360000  0.75580000  1.0 -0.0262065259
