# DDEC6 charges by PACMAN v1.1 (https://github.com/mtap-research/PACMAN-charge/)
data_APUPEH_ASR_pacman
_symmetry_space_group_name_H-M   'P 1'
_cell_length_a   26.14460000
_cell_length_b   26.14460000
_cell_length_c   26.14460000
_cell_angle_alpha   109.47100000
_cell_angle_beta   109.47100000
_cell_angle_gamma   109.47100000
_symmetry_Int_Tables_number   1
_chemical_formula_structural   CuH4(C9O4)2
_chemical_formula_sum   'Cu6 H24 C108 O48'
_cell_volume   13757.12432269
_cell_formula_units_Z   6
loop_
 _symmetry_equiv_pos_site_id
 _symmetry_equiv_pos_as_xyz
  1  'x, y, z'
loop_
 _atom_site_type_symbol
 _atom_site_label
 _atom_site_symmetry_multiplicity
 _atom_site_fract_x
 _atom_site_fract_y
 _atom_site_fract_z
 _atom_site_occupancy
 _atom_site_charge
Cu  Cu1  1  0.45673000  0.45673000  0.00000000  1.0 0.8967556316
Cu  Cu2  1  0.54327000  0.54327000  0.00000000  1.0 0.8967556316
Cu  Cu3  1  0.00000000  0.45673000  0.45673000  1.0 0.8967556316
Cu  Cu4  1  0.00000000  0.54327000  0.54327000  1.0 0.8967556316
Cu  Cu5  1  0.45673000  0.00000000  0.45673000  1.0 0.8967556316
Cu  Cu6  1  0.54327000  0.00000000  0.54327000  1.0 0.8967556316
H  H1  1  0.57120000  0.43710000  0.14170000  1.0 0.1478862101
H  H2  1  0.29540000  0.42950000  0.85830000  1.0 0.1478862101
H  H3  1  0.70460000  0.56290000  0.13410000  1.0 0.1478862101
H  H4  1  0.42880000  0.57050000  0.86590000  1.0 0.1478862101
H  H5  1  0.14170000  0.57120000  0.43710000  1.0 0.1478862101
H  H6  1  0.85830000  0.29540000  0.42950000  1.0 0.1478862101
H  H7  1  0.13410000  0.70460000  0.56290000  1.0 0.1478862101
H  H8  1  0.86590000  0.42880000  0.57050000  1.0 0.1478862101
H  H9  1  0.43710000  0.14170000  0.57120000  1.0 0.1478862101
H  H10  1  0.42950000  0.85830000  0.29540000  1.0 0.1478862101
H  H11  1  0.56290000  0.13410000  0.70460000  1.0 0.1478862101
H  H12  1  0.57050000  0.86590000  0.42880000  1.0 0.1478862101
H  H13  1  0.57050000  0.70460000  0.14170000  1.0 0.1478862101
H  H14  1  0.56290000  0.42880000  0.85830000  1.0 0.1478862101
H  H15  1  0.42950000  0.57120000  0.13410000  1.0 0.1478862101
H  H16  1  0.43710000  0.29540000  0.86590000  1.0 0.1478862101
H  H17  1  0.29540000  0.86590000  0.43710000  1.0 0.1478862101
H  H18  1  0.57120000  0.13410000  0.42950000  1.0 0.1478862101
H  H19  1  0.42880000  0.85830000  0.56290000  1.0 0.1478862101
H  H20  1  0.70460000  0.14170000  0.57050000  1.0 0.1478862101
H  H21  1  0.13410000  0.42950000  0.57120000  1.0 0.1478862101
H  H22  1  0.86590000  0.43710000  0.29540000  1.0 0.1478862101
H  H23  1  0.14170000  0.57050000  0.70460000  1.0 0.1478862101
H  H24  1  0.85830000  0.56290000  0.42880000  1.0 0.1478862101
C  C1  1  0.58272000  0.50000000  0.08272000  1.0 0.6024906743
C  C2  1  0.41728000  0.50000000  0.91728000  1.0 0.6024906743
C  C3  1  0.08272000  0.58272000  0.50000000  1.0 0.6024906743
C  C4  1  0.91728000  0.41728000  0.50000000  1.0 0.6024906743
C  C5  1  0.50000000  0.08272000  0.58272000  1.0 0.6024906743
C  C6  1  0.50000000  0.91728000  0.41728000  1.0 0.6024906743
C  C7  1  0.50000000  0.58272000  0.08272000  1.0 0.6024906743
C  C8  1  0.50000000  0.41728000  0.91728000  1.0 0.6024906743
C  C9  1  0.41728000  0.91728000  0.50000000  1.0 0.6024906743
C  C10  1  0.58272000  0.08272000  0.50000000  1.0 0.6024906743
C  C11  1  0.08272000  0.50000000  0.58272000  1.0 0.6024906743
C  C12  1  0.91728000  0.50000000  0.41728000  1.0 0.6024906743
C  C13  1  0.63269000  0.50000000  0.13269000  1.0 -0.0660782504
C  C14  1  0.36731000  0.50000000  0.86731000  1.0 -0.0660782504
C  C15  1  0.13269000  0.63269000  0.50000000  1.0 -0.0660782504
C  C16  1  0.86731000  0.36731000  0.50000000  1.0 -0.0660782504
C  C17  1  0.50000000  0.13269000  0.63269000  1.0 -0.0660782504
C  C18  1  0.50000000  0.86731000  0.36731000  1.0 -0.0660782504
C  C19  1  0.50000000  0.63269000  0.13269000  1.0 -0.0660782504
C  C20  1  0.50000000  0.36731000  0.86731000  1.0 -0.0660782504
C  C21  1  0.36731000  0.86731000  0.50000000  1.0 -0.0660782504
C  C22  1  0.63269000  0.13269000  0.50000000  1.0 -0.0660782504
C  C23  1  0.13269000  0.50000000  0.63269000  1.0 -0.0660782504
C  C24  1  0.86731000  0.50000000  0.36731000  1.0 -0.0660782504
C  C25  1  0.61367000  0.46166000  0.15663000  1.0 -0.0501065548
C  C26  1  0.30503000  0.45704000  0.84337000  1.0 -0.0501065548
C  C27  1  0.69497000  0.53834000  0.15201000  1.0 -0.0501065548
C  C28  1  0.38633000  0.54296000  0.84799000  1.0 -0.0501065548
C  C29  1  0.15663000  0.61367000  0.46166000  1.0 -0.0501065548
C  C30  1  0.84337000  0.30503000  0.45704000  1.0 -0.0501065548
C  C31  1  0.15201000  0.69497000  0.53834000  1.0 -0.0501065548
C  C32  1  0.84799000  0.38633000  0.54296000  1.0 -0.0501065548
C  C33  1  0.46166000  0.15663000  0.61367000  1.0 -0.0501065548
C  C34  1  0.45704000  0.84337000  0.30503000  1.0 -0.0501065548
C  C35  1  0.53834000  0.15201000  0.69497000  1.0 -0.0501065548
C  C36  1  0.54296000  0.84799000  0.38633000  1.0 -0.0501065548
C  C37  1  0.54296000  0.69497000  0.15663000  1.0 -0.0501065548
C  C38  1  0.53834000  0.38633000  0.84337000  1.0 -0.0501065548
C  C39  1  0.45704000  0.61367000  0.15201000  1.0 -0.0501065548
C  C40  1  0.46166000  0.30503000  0.84799000  1.0 -0.0501065548
C  C41  1  0.30503000  0.84799000  0.46166000  1.0 -0.0501065548
C  C42  1  0.61367000  0.15201000  0.45704000  1.0 -0.0501065548
C  C43  1  0.38633000  0.84337000  0.53834000  1.0 -0.0501065548
C  C44  1  0.69497000  0.15663000  0.54296000  1.0 -0.0501065548
C  C45  1  0.15201000  0.45704000  0.61367000  1.0 -0.0501065548
C  C46  1  0.84799000  0.46166000  0.30503000  1.0 -0.0501065548
C  C47  1  0.15663000  0.54296000  0.69497000  1.0 -0.0501065548
C  C48  1  0.84337000  0.53834000  0.38633000  1.0 -0.0501065548
C  C49  1  0.65916000  0.45974000  0.20426000  1.0 0.3038052577
C  C50  1  0.25548000  0.45490000  0.79574000  1.0 0.3051085948
C  C51  1  0.74452000  0.54026000  0.19942000  1.0 0.3051085948
C  C52  1  0.34084000  0.54510000  0.80058000  1.0 0.3051085948
C  C53  1  0.20426000  0.65916000  0.45974000  1.0 0.3051085948
C  C54  1  0.79574000  0.25548000  0.45490000  1.0 0.3038052577
C  C55  1  0.19942000  0.74452000  0.54026000  1.0 0.3051085948
C  C56  1  0.80058000  0.34084000  0.54510000  1.0 0.3038052577
C  C57  1  0.45974000  0.20426000  0.65916000  1.0 0.3051085948
C  C58  1  0.45490000  0.79574000  0.25548000  1.0 0.3038052577
C  C59  1  0.54026000  0.19942000  0.74452000  1.0 0.3051085948
C  C60  1  0.54510000  0.80058000  0.34084000  1.0 0.3038052577
C  C61  1  0.54510000  0.74452000  0.20426000  1.0 0.3038052577
C  C62  1  0.54026000  0.34084000  0.79574000  1.0 0.3051085948
C  C63  1  0.45490000  0.65916000  0.19942000  1.0 0.3051085948
C  C64  1  0.45974000  0.25548000  0.80058000  1.0 0.3051085948
C  C65  1  0.25548000  0.80058000  0.45974000  1.0 0.3051085948
C  C66  1  0.65916000  0.19942000  0.45490000  1.0 0.3051085948
C  C67  1  0.34084000  0.79574000  0.54026000  1.0 0.3051085948
C  C68  1  0.74452000  0.20426000  0.54510000  1.0 0.3038052577
C  C69  1  0.19942000  0.45490000  0.65916000  1.0 0.3051085948
C  C70  1  0.80058000  0.45974000  0.25548000  1.0 0.3038052577
C  C71  1  0.20426000  0.54510000  0.74452000  1.0 0.3051085948
C  C72  1  0.79574000  0.54026000  0.34084000  1.0 0.3038052577
C  C73  1  0.72317000  0.50000000  0.22317000  1.0 0.1089095246
C  C74  1  0.27683000  0.50000000  0.77683000  1.0 0.1089095246
C  C75  1  0.22317000  0.72317000  0.50000000  1.0 0.1089095246
C  C76  1  0.77683000  0.27683000  0.50000000  1.0 0.1089095246
C  C77  1  0.50000000  0.22317000  0.72317000  1.0 0.1089095246
C  C78  1  0.50000000  0.77683000  0.27683000  1.0 0.1089095246
C  C79  1  0.50000000  0.72317000  0.22317000  1.0 0.1089095246
C  C80  1  0.50000000  0.27683000  0.77683000  1.0 0.1089095246
C  C81  1  0.27683000  0.77683000  0.50000000  1.0 0.1089095246
C  C82  1  0.72317000  0.22317000  0.50000000  1.0 0.1089095246
C  C83  1  0.22317000  0.50000000  0.72317000  1.0 0.1089095246
C  C84  1  0.77683000  0.50000000  0.27683000  1.0 0.1089095246
C  C85  1  0.64100000  0.41822000  0.23262000  1.0 -0.1041937058
C  C86  1  0.18560000  0.40838000  0.76738000  1.0 -0.106793576
C  C87  1  0.81440000  0.58178000  0.22278000  1.0 -0.1224463822
C  C88  1  0.35900000  0.59162000  0.77722000  1.0 -0.106793576
C  C89  1  0.23262000  0.64100000  0.41822000  1.0 -0.106793576
C  C90  1  0.76738000  0.18560000  0.40838000  1.0 -0.1041937058
C  C91  1  0.22278000  0.81440000  0.58178000  1.0 -0.106793576
C  C92  1  0.77722000  0.35900000  0.59162000  1.0 -0.1041937058
C  C93  1  0.41822000  0.23262000  0.64100000  1.0 -0.106793576
C  C94  1  0.40838000  0.76738000  0.18560000  1.0 -0.1041937058
C  C95  1  0.58178000  0.22278000  0.81440000  1.0 -0.106793576
C  C96  1  0.59162000  0.77722000  0.35900000  1.0 -0.1041937058
C  C97  1  0.59162000  0.81440000  0.23262000  1.0 -0.1224463822
C  C98  1  0.58178000  0.35900000  0.76738000  1.0 -0.106793576
C  C99  1  0.40838000  0.64100000  0.22278000  1.0 -0.1224463822
C  C100  1  0.41822000  0.18560000  0.77722000  1.0 -0.106793576
C  C101  1  0.18560000  0.77722000  0.41822000  1.0 -0.106793576
C  C102  1  0.64100000  0.22278000  0.40838000  1.0 -0.106793576
C  C103  1  0.35900000  0.76738000  0.58178000  1.0 -0.106793576
C  C104  1  0.81440000  0.23262000  0.59162000  1.0 -0.1041937058
C  C105  1  0.22278000  0.40838000  0.64100000  1.0 -0.106793576
C  C106  1  0.77722000  0.41822000  0.18560000  1.0 -0.1041937058
C  C107  1  0.23262000  0.59162000  0.81440000  1.0 -0.106793576
C  C108  1  0.76738000  0.58178000  0.35900000  1.0 -0.1041937058
O  O1  1  0.52547000  0.46341000  0.06384000  1.0 -0.4937188592
O  O2  1  0.39957000  0.46163000  0.93616000  1.0 -0.4937188592
O  O3  1  0.60043000  0.53659000  0.06206000  1.0 -0.4937188592
O  O4  1  0.47453000  0.53837000  0.93794000  1.0 -0.4937188592
O  O5  1  0.06384000  0.52547000  0.46341000  1.0 -0.4937188592
O  O6  1  0.93616000  0.39957000  0.46163000  1.0 -0.4937188592
O  O7  1  0.06206000  0.60043000  0.53659000  1.0 -0.4937188592
O  O8  1  0.93794000  0.47453000  0.53837000  1.0 -0.4937188592
O  O9  1  0.46341000  0.06384000  0.52547000  1.0 -0.4937188592
O  O10  1  0.46163000  0.93616000  0.39957000  1.0 -0.4937188592
O  O11  1  0.53659000  0.06206000  0.60043000  1.0 -0.4937188592
O  O12  1  0.53837000  0.93794000  0.47453000  1.0 -0.4937188592
O  O13  1  0.53837000  0.60043000  0.06384000  1.0 -0.4937188592
O  O14  1  0.53659000  0.47453000  0.93616000  1.0 -0.4937188592
O  O15  1  0.46163000  0.52547000  0.06206000  1.0 -0.4937188592
O  O16  1  0.46341000  0.39957000  0.93794000  1.0 -0.4937188592
O  O17  1  0.39957000  0.93794000  0.46341000  1.0 -0.4937188592
O  O18  1  0.52547000  0.06206000  0.46163000  1.0 -0.4937188592
O  O19  1  0.47453000  0.93616000  0.53659000  1.0 -0.4937188592
O  O20  1  0.60043000  0.06384000  0.53837000  1.0 -0.4937188592
O  O21  1  0.06206000  0.46163000  0.52547000  1.0 -0.4937188592
O  O22  1  0.93794000  0.46341000  0.39957000  1.0 -0.4937188592
O  O23  1  0.06384000  0.53837000  0.60043000  1.0 -0.4937188592
O  O24  1  0.93616000  0.53659000  0.47453000  1.0 -0.4937188592
O  O25  1  0.64449000  0.42198000  0.23189000  1.0 -0.3476469682
O  O26  1  0.19009000  0.41260000  0.76811000  1.0 -0.3476469682
O  O27  1  0.80991000  0.57802000  0.22251000  1.0 -0.3476469682
O  O28  1  0.35551000  0.58740000  0.77749000  1.0 -0.3476469682
O  O29  1  0.23189000  0.64449000  0.42198000  1.0 -0.3476469682
O  O30  1  0.76811000  0.19009000  0.41260000  1.0 -0.3476469682
O  O31  1  0.22251000  0.80991000  0.57802000  1.0 -0.3476469682
O  O32  1  0.77749000  0.35551000  0.58740000  1.0 -0.3476469682
O  O33  1  0.42198000  0.23189000  0.64449000  1.0 -0.3476469682
O  O34  1  0.41260000  0.76811000  0.19009000  1.0 -0.3476469682
O  O35  1  0.57802000  0.22251000  0.80991000  1.0 -0.3476469682
O  O36  1  0.58740000  0.77749000  0.35551000  1.0 -0.3476469682
O  O37  1  0.58740000  0.80991000  0.23189000  1.0 -0.3476469682
O  O38  1  0.57802000  0.35551000  0.76811000  1.0 -0.3476469682
O  O39  1  0.41260000  0.64449000  0.22251000  1.0 -0.3476469682
O  O40  1  0.42198000  0.19009000  0.77749000  1.0 -0.3476469682
O  O41  1  0.19009000  0.77749000  0.42198000  1.0 -0.3476469682
O  O42  1  0.64449000  0.22251000  0.41260000  1.0 -0.3476469682
O  O43  1  0.35551000  0.76811000  0.57802000  1.0 -0.3476469682
O  O44  1  0.80991000  0.23189000  0.58740000  1.0 -0.3476469682
O  O45  1  0.22251000  0.41260000  0.64449000  1.0 -0.3476469682
O  O46  1  0.77749000  0.42198000  0.19009000  1.0 -0.3476469682
O  O47  1  0.23189000  0.58740000  0.80991000  1.0 -0.3476469682
O  O48  1  0.76811000  0.57802000  0.35551000  1.0 -0.3476469682
