# DDEC6 charges by PACMAN v1.1 (https://github.com/mtap-research/PACMAN-charge/)
data_AQIQIC_ASR_pacman
_symmetry_space_group_name_H-M   'P 1'
_cell_length_a   13.01430000
_cell_length_b   13.01430000
_cell_length_c   19.75500000
_cell_angle_alpha   61.08420000
_cell_angle_beta   118.91600000
_cell_angle_gamma   128.17700000
_symmetry_Int_Tables_number   1
_chemical_formula_structural   Mn2H5C15NO11
_chemical_formula_sum   'Mn8 H20 C60 N4 O44'
_cell_volume   2217.89376948
_cell_formula_units_Z   4
loop_
 _symmetry_equiv_pos_site_id
 _symmetry_equiv_pos_as_xyz
  1  'x, y, z'
loop_
 _atom_site_type_symbol
 _atom_site_label
 _atom_site_symmetry_multiplicity
 _atom_site_fract_x
 _atom_site_fract_y
 _atom_site_fract_z
 _atom_site_occupancy
 _atom_site_charge
Mn  Mn1  1  0.29303000  0.86291000  0.26406000  1.0 0.9508797031
Mn  Mn2  1  0.86291000  0.29303000  0.23594000  1.0 0.9508797031
Mn  Mn3  1  0.70697000  0.13709000  0.73594000  1.0 0.9508797031
Mn  Mn4  1  0.13709000  0.70697000  0.76406000  1.0 0.9508797031
Mn  Mn5  1  0.01074000  0.53796000  0.32526000  1.0 0.9812225651
Mn  Mn6  1  0.53796000  0.01074000  0.17474000  1.0 0.9812225651
Mn  Mn7  1  0.98926000  0.46204000  0.67474000  1.0 0.9812225651
Mn  Mn8  1  0.46204000  0.98926000  0.82526000  1.0 0.9812225651
H  H1  1  0.23920000  0.27620000  0.53940000  1.0 0.3405647527
H  H2  1  0.27620000  0.23920000  0.96060000  1.0 0.3405647527
H  H3  1  0.76080000  0.72380000  0.46060000  1.0 0.3405647527
H  H4  1  0.72380000  0.76080000  0.03940000  1.0 0.3405647527
H  H5  1  0.06660000  0.63760000  0.52880000  1.0 0.1331672248
H  H6  1  0.63760000  0.06660000  0.97120000  1.0 0.1331672248
H  H7  1  0.93340000  0.36240000  0.47120000  1.0 0.1331672248
H  H8  1  0.36240000  0.93340000  0.02880000  1.0 0.1331672248
H  H9  1  0.37200000  0.99000000  0.44380000  1.0 0.111387572
H  H10  1  0.99000000  0.37200000  0.05620000  1.0 0.111387572
H  H11  1  0.62800000  0.01000000  0.55620000  1.0 0.111387572
H  H12  1  0.01000000  0.62800000  0.94380000  1.0 0.111387572
H  H13  1  0.45360000  0.05000000  0.55960000  1.0 0.111387572
H  H14  1  0.05000000  0.45360000  0.94040000  1.0 0.111387572
H  H15  1  0.54640000  0.95000000  0.44040000  1.0 0.111387572
H  H16  1  0.95000000  0.54640000  0.05960000  1.0 0.111387572
H  H17  1  0.54040000  0.75460000  0.36760000  1.0 0.3262547802
H  H18  1  0.75460000  0.54040000  0.13240000  1.0 0.3262547802
H  H19  1  0.45960000  0.24540000  0.63240000  1.0 0.3262547802
H  H20  1  0.24540000  0.45960000  0.86760000  1.0 0.3262547802
C  C1  1  0.36349000  0.41391000  0.49510000  1.0 0.1946389328
C  C2  1  0.41391000  0.36349000  0.00490000  1.0 0.1946389328
C  C3  1  0.63651000  0.58609000  0.50490000  1.0 0.1946389328
C  C4  1  0.58609000  0.63651000  0.99510000  1.0 0.1946389328
C  C5  1  0.54546000  0.62994000  0.45090000  1.0 0.1849440585
C  C6  1  0.62994000  0.54546000  0.04910000  1.0 0.1849440585
C  C7  1  0.45454000  0.37006000  0.54910000  1.0 0.1849440585
C  C8  1  0.37006000  0.45454000  0.95090000  1.0 0.1849440585
C  C9  1  0.40793000  0.54447000  0.44440000  1.0 -0.2886382092
C  C10  1  0.54447000  0.40793000  0.05560000  1.0 -0.2886382092
C  C11  1  0.59207000  0.45553000  0.55560000  1.0 -0.2886382092
C  C12  1  0.45553000  0.59207000  0.94440000  1.0 -0.2886382092
C  C13  1  0.30820000  0.59240000  0.38520000  1.0 0.6243813734
C  C14  1  0.59240000  0.30820000  0.11480000  1.0 0.6243813734
C  C15  1  0.69180000  0.40760000  0.61480000  1.0 0.6243813734
C  C16  1  0.40760000  0.69180000  0.88520000  1.0 0.6243813734
C  C17  1  0.14400000  0.19520000  0.08950000  1.0 -0.1318127934
C  C18  1  0.19520000  0.14400000  0.41050000  1.0 -0.1318127934
C  C19  1  0.85600000  0.80480000  0.91050000  1.0 -0.1318127934
C  C20  1  0.80480000  0.85600000  0.58950000  1.0 -0.1318127934
C  C21  1  0.96250000  0.02810000  0.00530000  1.0 -0.1795312885
C  C22  1  0.02810000  0.96250000  0.49470000  1.0 -0.1795312885
C  C23  1  0.03750000  0.97190000  0.99470000  1.0 -0.1795312885
C  C24  1  0.97190000  0.03750000  0.50530000  1.0 -0.1795312885
C  C25  1  0.13370000  0.98250000  0.13410000  1.0 0.148640475
C  C26  1  0.98250000  0.13370000  0.36590000  1.0 0.148640475
C  C27  1  0.86630000  0.01750000  0.86590000  1.0 0.148640475
C  C28  1  0.01750000  0.86630000  0.63410000  1.0 0.148640475
C  C29  1  0.17239000  0.75941000  0.40621000  1.0 0.5898863773
C  C30  1  0.75941000  0.17239000  0.09379000  1.0 0.5898863773
C  C31  1  0.82761000  0.24059000  0.59379000  1.0 0.5898863773
C  C32  1  0.24059000  0.82761000  0.90621000  1.0 0.5898863773
C  C33  1  0.21330000  0.80490000  0.47659000  1.0 0.0095355406
C  C34  1  0.80490000  0.21330000  0.02341000  1.0 0.0095355406
C  C35  1  0.78670000  0.19510000  0.52341000  1.0 0.0095355406
C  C36  1  0.19510000  0.78670000  0.97659000  1.0 0.0095355406
C  C37  1  0.14365000  0.72095000  0.53532000  1.0 -0.2455443491
C  C38  1  0.72095000  0.14365000  0.96468000  1.0 -0.2455443491
C  C39  1  0.85635000  0.27905000  0.46468000  1.0 -0.2455443491
C  C40  1  0.27905000  0.85635000  0.03532000  1.0 -0.2455443491
C  C41  1  0.32780000  0.93120000  0.48430000  1.0 -0.1525449057
C  C42  1  0.93120000  0.32780000  0.01570000  1.0 -0.1525449057
C  C43  1  0.67220000  0.06880000  0.51570000  1.0 -0.1525449057
C  C44  1  0.06880000  0.67220000  0.98430000  1.0 -0.1525449057
C  C45  1  0.18595000  0.75805000  0.60452000  1.0 0.3262547802
C  C46  1  0.75805000  0.18595000  0.89548000  1.0 0.3262547802
C  C47  1  0.81405000  0.24195000  0.39548000  1.0 0.3262547802
C  C48  1  0.24195000  0.81405000  0.10452000  1.0 0.3262547802
C  C49  1  0.30637000  0.88423000  0.61268000  1.0 -0.1699773345
C  C50  1  0.88423000  0.30637000  0.88732000  1.0 -0.1699773345
C  C51  1  0.69363000  0.11577000  0.38732000  1.0 -0.1699773345
C  C52  1  0.11577000  0.69363000  0.11268000  1.0 -0.1699773345
C  C53  1  0.37463000  0.96777000  0.55300000  1.0 -0.0904394586
C  C54  1  0.96777000  0.37463000  0.94700000  1.0 -0.0904394586
C  C55  1  0.62537000  0.03223000  0.44700000  1.0 -0.0904394586
C  C56  1  0.03223000  0.62537000  0.05300000  1.0 -0.0904394586
C  C57  1  0.36756000  0.93184000  0.68462000  1.0 0.5964213114
C  C58  1  0.93184000  0.36756000  0.81538000  1.0 0.5964213114
C  C59  1  0.63244000  0.06816000  0.31538000  1.0 0.5964213114
C  C60  1  0.06816000  0.63244000  0.18462000  1.0 0.5964213114
N  N1  1  0.07730000  0.06730000  0.07240000  1.0 -0.0302129176
N  N2  1  0.06730000  0.07730000  0.42760000  1.0 -0.0302129176
N  N3  1  0.92270000  0.93270000  0.92760000  1.0 -0.0302129176
N  N4  1  0.93270000  0.92270000  0.57240000  1.0 -0.0302129176
O  O1  1  0.28330000  0.04770000  0.18870000  1.0 0.1421575572
O  O2  1  0.04770000  0.28330000  0.31130000  1.0 0.1421575572
O  O3  1  0.71670000  0.95230000  0.81130000  1.0 0.1421575572
O  O4  1  0.95230000  0.71670000  0.68870000  1.0 0.1421575572
O  O5  1  0.18624000  0.51336000  0.38474000  1.0 -0.5180488129
O  O6  1  0.51336000  0.18624000  0.11526000  1.0 -0.5180488129
O  O7  1  0.81376000  0.48664000  0.61526000  1.0 -0.5180488129
O  O8  1  0.48664000  0.81376000  0.88474000  1.0 -0.5180488129
O  O9  1  0.35511000  0.70949000  0.33970000  1.0 -0.5702818233
O  O10  1  0.70949000  0.35511000  0.16030000  1.0 -0.5702818233
O  O11  1  0.64489000  0.29051000  0.66030000  1.0 -0.5702818233
O  O12  1  0.29051000  0.64489000  0.83970000  1.0 -0.5702818233
O  O13  1  0.24450000  0.33810000  0.49800000  1.0 -0.2886382092
O  O14  1  0.33810000  0.24450000  0.00200000  1.0 -0.2886382092
O  O15  1  0.75550000  0.66190000  0.50200000  1.0 -0.2886382092
O  O16  1  0.66190000  0.75550000  0.99800000  1.0 -0.2886382092
O  O17  1  0.23955000  0.84045000  0.35650000  1.0 -0.577586462
O  O18  1  0.84045000  0.23955000  0.14350000  1.0 -0.577586462
O  O19  1  0.76045000  0.15955000  0.64350000  1.0 -0.577586462
O  O20  1  0.15955000  0.76045000  0.85650000  1.0 -0.577586462
O  O21  1  0.29567000  0.90371000  0.72313000  1.0 -0.5956537772
O  O22  1  0.90371000  0.29567000  0.77687000  1.0 -0.5956537772
O  O23  1  0.70433000  0.09629000  0.27687000  1.0 -0.5956537772
O  O24  1  0.09629000  0.70433000  0.22313000  1.0 -0.5956537772
O  O25  1  0.49296000  0.00384000  0.70700000  1.0 -0.5587444205
O  O26  1  0.00384000  0.49296000  0.79300000  1.0 -0.5587444205
O  O27  1  0.50704000  0.99616000  0.29300000  1.0 -0.5587444205
O  O28  1  0.99616000  0.50704000  0.20700000  1.0 -0.5587444205
O  O29  1  0.07422000  0.64218000  0.40270000  1.0 -0.5702818233
O  O30  1  0.64218000  0.07422000  0.09730000  1.0 -0.5702818233
O  O31  1  0.92578000  0.35782000  0.59730000  1.0 -0.5702818233
O  O32  1  0.35782000  0.92578000  0.90270000  1.0 -0.5702818233
O  O33  1  0.11725000  0.67427000  0.65880000  1.0 -0.6132217545
O  O34  1  0.67427000  0.11725000  0.84120000  1.0 -0.6132217545
O  O35  1  0.88275000  0.32573000  0.34120000  1.0 -0.6132217545
O  O36  1  0.32573000  0.88275000  0.15880000  1.0 -0.6132217545
O  O37  1  0.21730000  0.00370000  0.18710000  1.0 0.0980719727
O  O38  1  0.00370000  0.21730000  0.31290000  1.0 0.0980719727
O  O39  1  0.78270000  0.99630000  0.81290000  1.0 0.0980719727
O  O40  1  0.99630000  0.78270000  0.68710000  1.0 0.0980719727
O  O41  1  0.59280000  0.74720000  0.41240000  1.0 -0.2886382092
O  O42  1  0.74720000  0.59280000  0.08760000  1.0 -0.2886382092
O  O43  1  0.40720000  0.25280000  0.58760000  1.0 -0.2886382092
O  O44  1  0.25280000  0.40720000  0.91240000  1.0 -0.2886382092
