# DDEC6 charges by PACMAN v1.1 (https://github.com/mtap-research/PACMAN-charge/)
data_AQIXUV_ASR_pacman
_symmetry_space_group_name_H-M   'P 1'
_cell_length_a   13.70900000
_cell_length_b   17.72200000
_cell_length_c   23.81000000
_cell_angle_alpha   109.25400000
_cell_angle_beta   102.50700000
_cell_angle_gamma   88.40000000
_symmetry_Int_Tables_number   1
_chemical_formula_structural   Ni3H142C168(NO6)6
_chemical_formula_sum   'Ni3 H142 C168 N6 O36'
_cell_volume   5325.56851301
_cell_formula_units_Z   1
loop_
 _symmetry_equiv_pos_site_id
 _symmetry_equiv_pos_as_xyz
  1  'x, y, z'
loop_
 _atom_site_type_symbol
 _atom_site_label
 _atom_site_symmetry_multiplicity
 _atom_site_fract_x
 _atom_site_fract_y
 _atom_site_fract_z
 _atom_site_occupancy
 _atom_site_charge
Ni  Ni1  1  0.00000000  0.00000000  0.00000000  1.0 0.698723632
Ni  Ni2  1  0.40721000  0.15025000  0.26776000  1.0 0.7604980944
Ni  Ni3  1  0.59279000  0.84975000  0.73224000  1.0 0.7604980944
H  H1  1  0.79910000  0.90200000  0.94370000  1.0 0.1211556885
H  H2  1  0.20090000  0.09800000  0.05630000  1.0 0.1211556885
H  H3  1  0.85580000  0.11610000  0.05900000  1.0 0.1111918354
H  H4  1  0.14420000  0.88390000  0.94100000  1.0 0.1111918354
H  H5  1  0.00240000  0.27950000  0.94250000  1.0 0.1211556885
H  H6  1  0.99760000  0.72050000  0.05750000  1.0 0.1211556885
H  H7  1  0.00410000  0.25770000  0.10550000  1.0 0.1306133679
H  H8  1  0.99590000  0.74230000  0.89450000  1.0 0.1306133679
H  H9  1  0.34050000  0.25290000  0.37790000  1.0 0.1111918354
H  H10  1  0.65950000  0.74710000  0.62210000  1.0 0.1111918354
H  H11  1  0.17120000  0.88560000  0.09940000  1.0 0.1211556885
H  H12  1  0.82880000  0.11440000  0.90060000  1.0 0.1211556885
H  H13  1  0.51900000  0.07920000  0.03200000  1.0 0.1395694051
H  H14  1  0.48100000  0.92080000  0.96800000  1.0 0.1395694051
H  H15  1  0.46720000  0.92930000  0.14000000  1.0 0.1306133679
H  H16  1  0.53280000  0.07070000  0.86000000  1.0 0.1306133679
H  H17  1  0.19080000  0.75940000  0.03450000  1.0 0.1211556885
H  H18  1  0.80920000  0.24060000  0.96550000  1.0 0.1211556885
H  H19  1  0.63530000  0.90630000  0.94570000  1.0 0.147874801
H  H20  1  0.36470000  0.09370000  0.05430000  1.0 0.147874801
H  H21  1  0.48550000  0.80310000  0.07190000  1.0 0.1395694051
H  H22  1  0.51450000  0.19690000  0.92810000  1.0 0.1395694051
H  H23  1  0.00020000  0.39650000  0.14620000  1.0 0.1306133679
H  H24  1  0.99980000  0.60350000  0.85380000  1.0 0.1306133679
H  H25  1  0.49180000  0.25670000  0.13280000  1.0 0.1306133679
H  H26  1  0.50820000  0.74330000  0.86720000  1.0 0.1306133679
H  H27  1  0.22690000  0.66300000  0.94590000  1.0 0.1010070665
H  H28  1  0.77310000  0.33700000  0.05410000  1.0 0.1010070665
H  H29  1  0.23200000  0.63360000  0.00200000  1.0 0.1010070665
H  H30  1  0.76800000  0.36640000  0.99800000  1.0 0.1010070665
H  H31  1  0.69240000  0.12870000  0.06510000  1.0 0.147874801
H  H32  1  0.30760000  0.87130000  0.93490000  1.0 0.147874801
H  H33  1  0.07130000  0.52030000  0.17630000  1.0 0.1010070665
H  H34  1  0.92870000  0.47970000  0.82370000  1.0 0.1010070665
H  H35  1  0.95540000  0.53290000  0.16700000  1.0 0.1111918354
H  H36  1  0.04460000  0.46710000  0.83300000  1.0 0.1111918354
H  H37  1  0.47890000  0.35220000  0.96130000  1.0 0.1010070665
H  H38  1  0.52110000  0.64780000  0.03870000  1.0 0.1010070665
H  H39  1  0.45810000  0.41660000  0.02070000  1.0 0.1010070665
H  H40  1  0.54190000  0.58340000  0.97930000  1.0 0.1010070665
H  H41  1  0.99070000  0.41560000  0.98270000  1.0 0.147874801
H  H42  1  0.00930000  0.58440000  0.01730000  1.0 0.147874801
H  H43  1  0.29690000  0.74260000  0.18810000  1.0 0.1010070665
H  H44  1  0.70310000  0.25740000  0.81190000  1.0 0.1010070665
H  H45  1  0.26050000  0.82980000  0.21480000  1.0 0.1010070665
H  H46  1  0.73950000  0.17020000  0.78520000  1.0 0.1010070665
H  H47  1  0.91460000  0.85200000  0.14330000  1.0 0.1111918354
H  H48  1  0.08540000  0.14800000  0.85670000  1.0 0.1111918354
H  H49  1  0.83780000  0.77890000  0.12440000  1.0 0.1010070665
H  H50  1  0.16220000  0.22110000  0.87560000  1.0 0.1010070665
H  H51  1  0.78490000  0.93180000  0.29670000  1.0 0.1306133679
H  H52  1  0.21510000  0.06820000  0.70330000  1.0 0.1306133679
H  H53  1  0.67090000  0.03430000  0.30140000  1.0 0.1111918354
H  H54  1  0.32910000  0.96570000  0.69860000  1.0 0.1111918354
H  H55  1  0.54020000  0.29940000  0.29970000  1.0 0.1211556885
H  H56  1  0.45980000  0.70060000  0.70030000  1.0 0.1211556885
H  H57  1  0.55470000  0.15080000  0.38170000  1.0 0.1211556885
H  H58  1  0.44530000  0.84920000  0.61830000  1.0 0.1211556885
H  H59  1  0.38720000  0.37110000  0.45930000  1.0 0.1395694051
H  H60  1  0.61280000  0.62890000  0.54070000  1.0 0.1395694051
H  H61  1  0.77440000  0.90560000  0.12200000  1.0 0.1395694051
H  H62  1  0.22560000  0.09440000  0.87800000  1.0 0.1395694051
H  H63  1  0.43740000  0.30720000  0.87070000  1.0 0.1395694051
H  H64  1  0.56260000  0.69280000  0.12930000  1.0 0.1395694051
H  H65  1  0.51520000  0.35550000  0.85470000  1.0 0.147874801
H  H66  1  0.48480000  0.64450000  0.14530000  1.0 0.147874801
H  H67  1  0.41120000  0.32680000  0.80970000  1.0 0.1395694051
H  H68  1  0.58880000  0.67320000  0.19030000  1.0 0.1395694051
H  H69  1  0.56840000  0.51630000  0.47160000  1.0 0.1211556885
H  H70  1  0.43160000  0.48370000  0.52840000  1.0 0.1211556885
H  H71  1  0.19820000  0.26720000  0.09750000  1.0 0.1111918354
H  H72  1  0.80180000  0.73280000  0.90250000  1.0 0.1111918354
H  H73  1  0.22200000  0.58450000  0.21710000  1.0 0.1395694051
H  H74  1  0.77800000  0.41550000  0.78290000  1.0 0.1395694051
H  H75  1  0.28210000  0.63620000  0.19270000  1.0 0.1306133679
H  H76  1  0.71790000  0.36380000  0.80730000  1.0 0.1306133679
H  H77  1  0.21350000  0.56280000  0.14680000  1.0 0.147874801
H  H78  1  0.78650000  0.43720000  0.85320000  1.0 0.147874801
H  H79  1  0.66390000  0.00900000  0.12630000  1.0 0.1111918354
H  H80  1  0.33610000  0.99100000  0.87370000  1.0 0.1111918354
H  H81  1  0.50230000  0.30220000  0.05150000  1.0 0.1306133679
H  H82  1  0.49770000  0.69780000  0.94850000  1.0 0.1306133679
H  H83  1  0.20190000  0.31290000  0.01760000  1.0 0.1395694051
H  H84  1  0.79810000  0.68710000  0.98240000  1.0 0.1395694051
H  H85  1  0.58240000  0.09670000  0.45700000  1.0 0.1306133679
H  H86  1  0.41760000  0.90330000  0.54300000  1.0 0.1395694051
H  H87  1  0.28460000  0.47700000  0.03250000  1.0 0.1395694051
H  H88  1  0.71540000  0.52300000  0.96750000  1.0 0.1395694051
H  H89  1  0.28650000  0.56980000  0.04590000  1.0 0.1395694051
H  H90  1  0.71350000  0.43020000  0.95410000  1.0 0.1395694051
H  H91  1  0.38560000  0.52790000  0.06250000  1.0 0.1395694051
H  H92  1  0.61440000  0.47210000  0.93750000  1.0 0.1395694051
H  H93  1  0.29710000  0.03670000  0.30750000  1.0 0.1211556885
H  H94  1  0.70290000  0.96330000  0.69250000  1.0 0.1211556885
H  H95  1  0.59130000  0.41850000  0.37860000  1.0 0.1395694051
H  H96  1  0.40870000  0.58150000  0.62140000  1.0 0.1395694051
H  H97  1  0.43730000  0.83080000  0.23790000  1.0 0.147874801
H  H98  1  0.56270000  0.16920000  0.76210000  1.0 0.147874801
H  H99  1  0.84510000  0.59010000  0.11170000  1.0 0.1306133679
H  H100  1  0.15490000  0.40990000  0.88830000  1.0 0.1306133679
H  H101  1  0.80730000  0.67630000  0.11810000  1.0 0.1306133679
H  H102  1  0.19270000  0.32370000  0.88190000  1.0 0.1306133679
H  H103  1  0.82440000  0.64570000  0.17410000  1.0 0.147874801
H  H104  1  0.17560000  0.35430000  0.82590000  1.0 0.147874801
H  H105  1  0.07980000  0.90000000  0.18100000  1.0 0.1584696376
H  H106  1  0.92020000  0.10000000  0.81900000  1.0 0.1584696376
H  H107  1  0.15790000  0.89680000  0.23890000  1.0 0.1211556885
H  H108  1  0.84210000  0.10320000  0.76110000  1.0 0.1211556885
H  H109  1  0.04480000  0.90820000  0.24110000  1.0 0.1306133679
H  H110  1  0.95520000  0.09180000  0.75890000  1.0 0.1306133679
H  H111  1  0.38020000  0.76500000  0.37440000  1.0 0.1306133679
H  H112  1  0.61980000  0.23500000  0.62560000  1.0 0.1306133679
H  H113  1  0.31620000  0.97900000  0.38290000  1.0 0.147874801
H  H114  1  0.68380000  0.02100000  0.61710000  1.0 0.147874801
H  H115  1  0.22480000  0.61390000  0.84290000  1.0 0.1306133679
H  H116  1  0.77520000  0.38610000  0.15710000  1.0 0.1306133679
H  H117  1  0.32110000  0.60060000  0.81600000  1.0 0.1306133679
H  H118  1  0.67890000  0.39940000  0.18400000  1.0 0.1306133679
H  H119  1  0.32360000  0.66490000  0.88000000  1.0 0.1395694051
H  H120  1  0.67640000  0.33510000  0.12000000  1.0 0.1395694051
H  H121  1  0.59040000  0.88300000  0.29680000  1.0 0.1211556885
H  H122  1  0.40960000  0.11700000  0.70320000  1.0 0.1211556885
H  H123  1  0.40430000  0.96440000  0.47700000  1.0 0.1111918354
H  H124  1  0.59570000  0.03560000  0.52300000  1.0 0.1111918354
H  H125  1  0.54410000  0.81280000  0.43210000  1.0 0.1111918354
H  H126  1  0.45590000  0.18720000  0.56790000  1.0 0.1111918354
H  H127  1  0.77300000  0.96240000  0.42340000  1.0 0.3657338499
H  H128  1  0.22700000  0.03760000  0.57660000  1.0 0.3657338499
H  H129  1  0.32680000  0.48970000  0.77120000  1.0 0.1010070665
H  H130  1  0.67320000  0.51030000  0.22880000  1.0 0.1010070665
H  H131  1  0.37980000  0.40910000  0.76960000  1.0 0.1010070665
H  H132  1  0.62020000  0.59090000  0.23040000  1.0 0.1010070665
H  H133  1  0.63240000  0.55420000  0.78190000  1.0 0.147874801
H  H134  1  0.36760000  0.44580000  0.21810000  1.0 0.147874801
H  H135  1  0.70660000  0.51200000  0.69850000  1.0 0.1306133679
H  H136  1  0.29340000  0.48800000  0.30150000  1.0 0.1306133679
H  H137  1  0.46890000  0.36210000  0.60260000  1.0 0.1111918354
H  H138  1  0.53110000  0.63790000  0.39740000  1.0 0.1111918354
H  H139  1  0.39470000  0.40430000  0.68590000  1.0 0.1211556885
H  H140  1  0.60530000  0.59570000  0.31410000  1.0 0.1211556885
H  H141  1  0.57740000  0.29140000  0.55640000  1.0 0.3288522242
H  H142  1  0.42260000  0.70860000  0.44360000  1.0 0.3288522242
C  C1  1  0.77700000  0.94830000  0.96901000  1.0 0.1010070665
C  C2  1  0.22300000  0.05170000  0.03099000  1.0 0.1010070665
C  C3  1  0.00700000  0.25437000  0.01930000  1.0 -0.0499956566
C  C4  1  0.99300000  0.74563000  0.98070000  1.0 -0.0499956566
C  C5  1  0.81050000  0.07320000  0.03620000  1.0 0.0816640124
C  C6  1  0.18950000  0.92680000  0.96380000  1.0 0.0816640124
C  C7  1  0.01390000  0.16478000  0.99352000  1.0 0.5445503769
C  C8  1  0.98610000  0.83522000  0.00648000  1.0 0.5445503769
C  C9  1  0.64020000  0.01810000  0.00585000  1.0 0.1661964609
C  C10  1  0.35980000  0.98190000  0.99415000  1.0 0.1661964609
C  C11  1  0.00200000  0.30270000  0.98363000  1.0 -0.0870209904
C  C12  1  0.99800000  0.69730000  0.01637000  1.0 -0.0870209904
C  C13  1  0.31890000  0.92040000  0.12703000  1.0 -0.0395246387
C  C14  1  0.68110000  0.07960000  0.87297000  1.0 -0.0395246387
C  C15  1  0.33690000  0.76990000  0.04670000  1.0 0.2404786526
C  C16  1  0.66310000  0.23010000  0.95330000  1.0 0.2404786526
C  C17  1  0.30500000  0.00090000  0.17093000  1.0 0.5497712968
C  C18  1  0.69500000  0.99910000  0.82907000  1.0 0.5497712968
C  C19  1  0.00410000  0.28930000  0.08111000  1.0 -0.0976647557
C  C20  1  0.99590000  0.71070000  0.91889000  1.0 -0.0976647557
C  C21  1  0.58720000  0.09720000  0.21906000  1.0 0.5778843938
C  C22  1  0.41280000  0.90280000  0.78094000  1.0 0.5778843938
C  C23  1  0.99950000  0.41900000  0.06882000  1.0 0.2404786526
C  C24  1  0.00050000  0.58100000  0.93118000  1.0 0.2404786526
C  C25  1  0.39230000  0.28590000  0.37810000  1.0 0.0899095191
C  C26  1  0.60770000  0.71410000  0.62190000  1.0 0.0899095191
C  C27  1  0.34530000  0.26320000  0.12580000  1.0 -0.0499956566
C  C28  1  0.65470000  0.73680000  0.87420000  1.0 -0.0499956566
C  C29  1  0.23480000  0.86910000  0.09458000  1.0 -0.0701907919
C  C30  1  0.76520000  0.13090000  0.90542000  1.0 -0.0701907919
C  C31  1  0.53600000  0.02810000  0.01104000  1.0 -0.1229531439
C  C32  1  0.46400000  0.97190000  0.98896000  1.0 -0.1229531439
C  C33  1  0.41110000  0.89550000  0.11853000  1.0 -0.0798113832
C  C34  1  0.58890000  0.10450000  0.88147000  1.0 -0.0798113832
C  C35  1  0.24660000  0.79380000  0.05530000  1.0 -0.2305101128
C  C36  1  0.75340000  0.20620000  0.94470000  1.0 -0.2305101128
C  C37  1  0.67790000  0.95040000  0.96964000  1.0 -0.1787242638
C  C38  1  0.32210000  0.04960000  0.03036000  1.0 -0.1787242638
C  C39  1  0.42260000  0.81980000  0.07790000  1.0 -0.2228135751
C  C40  1  0.57740000  0.18020000  0.92210000  1.0 -0.2228135751
C  C41  1  0.00110000  0.37240000  0.10519000  1.0 -0.2305101128
C  C42  1  0.99890000  0.62760000  0.89481000  1.0 -0.2305101128
C  C43  1  0.95640000  0.67770000  0.15830000  1.0 0.0816640124
C  C44  1  0.04360000  0.32230000  0.84170000  1.0 0.0816640124
C  C45  1  0.38980000  0.44010000  0.94290000  1.0 -0.0395246387
C  C46  1  0.61020000  0.55990000  0.05710000  1.0 -0.0395246387
C  C47  1  0.43370000  0.26980000  0.11015000  1.0 -0.0798113832
C  C48  1  0.56630000  0.73020000  0.88985000  1.0 -0.0798113832
C  C49  1  0.33790000  0.23770000  0.17840000  1.0 0.5497712968
C  C50  1  0.66210000  0.76230000  0.82160000  1.0 0.5497712968
C  C51  1  0.27030000  0.64190000  0.97450000  1.0 -0.0582597795
C  C52  1  0.72970000  0.35810000  0.02550000  1.0 -0.0582597795
C  C53  1  0.71200000  0.08130000  0.03994000  1.0 -0.190740436
C  C54  1  0.28800000  0.91870000  0.96006000  1.0 -0.190740436
C  C55  1  0.01540000  0.54100000  0.15390000  1.0 -0.0582597795
C  C56  1  0.98460000  0.45900000  0.84610000  1.0 -0.0582597795
C  C57  1  0.03480000  0.62950000  0.16532000  1.0 -0.0499956566
C  C58  1  0.96520000  0.37050000  0.83468000  1.0 -0.0499956566
C  C59  1  0.78700000  0.90950000  0.20800000  1.0 0.2404786526
C  C60  1  0.21300000  0.09050000  0.79200000  1.0 0.2404786526
C  C61  1  0.42820000  0.38530000  0.97880000  1.0 -0.0701907919
C  C62  1  0.57180000  0.61470000  0.02120000  1.0 -0.0701907919
C  C63  1  0.99650000  0.38420000  0.00770000  1.0 -0.2127060303
C  C64  1  0.00350000  0.61580000  0.99230000  1.0 -0.2127060303
C  C65  1  0.35020000  0.31140000  0.02530000  1.0 0.2676882921
C  C66  1  0.64980000  0.68860000  0.97470000  1.0 0.2676882921
C  C67  1  0.25780000  0.77560000  0.21570000  1.0 -0.0582597795
C  C68  1  0.74220000  0.22440000  0.78430000  1.0 -0.0582597795
C  C69  1  0.31170000  0.56400000  0.94100000  1.0 -0.0499956566
C  C70  1  0.68830000  0.43600000  0.05900000  1.0 -0.0499956566
C  C71  1  0.65770000  0.03270000  0.21423000  1.0 -0.0582597795
C  C72  1  0.34230000  0.96730000  0.78577000  1.0 -0.0582597795
C  C73  1  0.40070000  0.42530000  0.88470000  1.0 0.0816640124
C  C74  1  0.59930000  0.57470000  0.11530000  1.0 0.0816640124
C  C75  1  0.89050000  0.81160000  0.15690000  1.0 -0.0701907919
C  C76  1  0.10950000  0.18840000  0.84310000  1.0 -0.0701907919
C  C77  1  0.75960000  0.94700000  0.26270000  1.0 -0.2127060303
C  C78  1  0.24040000  0.05300000  0.73730000  1.0 -0.2127060303
C  C79  1  0.37380000  0.47940000  0.85400000  1.0 -0.0499956566
C  C80  1  0.62620000  0.52060000  0.14600000  1.0 -0.0499956566
C  C81  1  0.97520000  0.75990000  0.17221000  1.0 -0.0290782833
C  C82  1  0.02480000  0.24010000  0.82779000  1.0 -0.0290782833
C  C83  1  0.15070000  0.74270000  0.19760000  1.0 -0.0395246387
C  C84  1  0.84930000  0.25730000  0.80240000  1.0 -0.0395246387
C  C85  1  0.69230000  0.00910000  0.26558000  1.0 -0.0798113832
C  C86  1  0.30770000  0.99090000  0.73442000  1.0 -0.0798113832
C  C87  1  0.50950000  0.31360000  0.33270000  1.0 0.1111918354
C  C88  1  0.49050000  0.68640000  0.66730000  1.0 0.1111918354
C  C89  1  0.34190000  0.50990000  0.97190000  1.0 0.0816640124
C  C90  1  0.65810000  0.49010000  0.02810000  1.0 0.0816640124
C  C91  1  0.50640000  0.11480000  0.38140000  1.0 0.0816640124
C  C92  1  0.49360000  0.88520000  0.61860000  1.0 0.0816640124
C  C93  1  0.41840000  0.35880000  0.42670000  1.0 -0.1787242638
C  C94  1  0.58160000  0.64120000  0.57330000  1.0 -0.1787242638
C  C95  1  0.48680000  0.41000000  0.42640000  1.0 0.1584696376
C  C96  1  0.51320000  0.59000000  0.57360000  1.0 0.1584696376
C  C97  1  0.44770000  0.03240000  0.42900000  1.0 0.1584696376
C  C98  1  0.55230000  0.96760000  0.57100000  1.0 0.1584696376
C  C99  1  0.32780000  0.55050000  0.88290000  1.0 0.0899095191
C  C100  1  0.67220000  0.44950000  0.11710000  1.0 0.0899095191
C  C101  1  0.75350000  0.93160000  0.15790000  1.0 -0.2305101128
C  C102  1  0.24650000  0.06840000  0.84210000  1.0 -0.2305101128
C  C103  1  0.44540000  0.34620000  0.85180000  1.0 -0.4514591389
C  C104  1  0.55460000  0.65380000  0.14820000  1.0 -0.4514591389
C  C105  1  0.51800000  0.48560000  0.47550000  1.0 -0.1123473691
C  C106  1  0.48200000  0.51440000  0.52450000  1.0 -0.1123473691
C  C107  1  0.25950000  0.27600000  0.08940000  1.0 -0.0870209904
C  C108  1  0.74050000  0.72400000  0.91060000  1.0 -0.0870209904
C  C109  1  0.22080000  0.60590000  0.18480000  1.0 -0.4514591389
C  C110  1  0.77920000  0.39410000  0.81520000  1.0 -0.4514591389
C  C111  1  0.68750000  0.99390000  0.16060000  1.0 -0.0798113832
C  C112  1  0.31250000  0.00610000  0.83940000  1.0 -0.0798113832
C  C113  1  0.07210000  0.79240000  0.19505000  1.0 0.0899095191
C  C114  1  0.92790000  0.20760000  0.80495000  1.0 0.0899095191
C  C115  1  0.44090000  0.29580000  0.06040000  1.0 -0.250918095
C  C116  1  0.55910000  0.70420000  0.93960000  1.0 -0.250918095
C  C117  1  0.13220000  0.66060000  0.18140000  1.0 0.0899095191
C  C118  1  0.86780000  0.33940000  0.81860000  1.0 0.0899095191
C  C119  1  0.26140000  0.30200000  0.04030000  1.0 -0.2305101128
C  C120  1  0.73860000  0.69800000  0.95970000  1.0 -0.2305101128
C  C121  1  0.52320000  0.08420000  0.42730000  1.0 -0.190740436
C  C122  1  0.47680000  0.91580000  0.57270000  1.0 -0.190740436
C  C123  1  0.32290000  0.52220000  0.03370000  1.0 -0.4708753449
C  C124  1  0.67710000  0.47780000  0.96630000  1.0 -0.4708753449
C  C125  1  0.35550000  0.04840000  0.33780000  1.0 0.0816640124
C  C126  1  0.64450000  0.95160000  0.66220000  1.0 0.0816640124
C  C127  1  0.53900000  0.38650000  0.37900000  1.0 -0.190740436
C  C128  1  0.46100000  0.61350000  0.62100000  1.0 -0.190740436
C  C129  1  0.45710000  0.82900000  0.27740000  1.0 -0.2228135751
C  C130  1  0.54290000  0.17100000  0.72260000  1.0 -0.2228135751
C  C131  1  0.84830000  0.64430000  0.13880000  1.0 -0.4514591389
C  C132  1  0.15170000  0.35570000  0.86120000  1.0 -0.4514591389
C  C133  1  0.09030000  0.88270000  0.21590000  1.0 -0.4274217905
C  C134  1  0.90970000  0.11730000  0.78410000  1.0 -0.4274217905
C  C135  1  0.42340000  0.78860000  0.35910000  1.0 -0.2426144154
C  C136  1  0.57660000  0.21140000  0.64090000  1.0 -0.2426144154
C  C137  1  0.36590000  0.01420000  0.38380000  1.0 -0.1787242638
C  C138  1  0.63410000  0.98580000  0.61620000  1.0 -0.1787242638
C  C139  1  0.29640000  0.61320000  0.85260000  1.0 -0.4448903622
C  C140  1  0.70360000  0.38680000  0.14740000  1.0 -0.4448903622
C  C141  1  0.54930000  0.85640000  0.31130000  1.0 -0.0798113832
C  C142  1  0.45070000  0.14360000  0.68870000  1.0 -0.0798113832
C  C143  1  0.45810000  0.99550000  0.47740000  1.0 -0.1408836068
C  C144  1  0.54190000  0.00450000  0.52260000  1.0 -0.1408836068
C  C145  1  0.39330000  0.79850000  0.30230000  1.0 0.2582111238
C  C146  1  0.60670000  0.20150000  0.69770000  1.0 0.2582111238
C  C147  1  0.52280000  0.81580000  0.39310000  1.0 -0.0870209904
C  C148  1  0.47720000  0.18420000  0.60690000  1.0 -0.0870209904
C  C149  1  0.58490000  0.84540000  0.36870000  1.0 -0.0499956566
C  C150  1  0.41510000  0.15460000  0.63130000  1.0 -0.0499956566
C  C151  1  0.67840000  0.88720000  0.41010000  1.0 0.5606231271
C  C152  1  0.32160000  0.11280000  0.58990000  1.0 0.5606231271
C  C153  1  0.38140000  0.46590000  0.79190000  1.0 -0.0701907919
C  C154  1  0.61860000  0.53410000  0.20810000  1.0 -0.0701907919
C  C155  1  0.59960000  0.51570000  0.74590000  1.0 -0.1958859125
C  C156  1  0.40040000  0.48430000  0.25410000  1.0 -0.1958859125
C  C157  1  0.64410000  0.49040000  0.69600000  1.0 -0.0701907919
C  C158  1  0.35590000  0.50960000  0.30400000  1.0 -0.0701907919
C  C159  1  0.59510000  0.43280000  0.64230000  1.0 -0.0499956566
C  C160  1  0.40490000  0.56720000  0.35770000  1.0 -0.0499956566
C  C161  1  0.50170000  0.40060000  0.63860000  1.0 -0.1229531439
C  C162  1  0.49830000  0.59940000  0.36140000  1.0 -0.1229531439
C  C163  1  0.45720000  0.42590000  0.68850000  1.0 -0.2228135751
C  C164  1  0.54280000  0.57410000  0.31150000  1.0 -0.2228135751
C  C165  1  0.50620000  0.48350000  0.74220000  1.0 0.2523842035
C  C166  1  0.49380000  0.51650000  0.25780000  1.0 0.2523842035
C  C167  1  0.64150000  0.39190000  0.58720000  1.0 0.5342524825
C  C168  1  0.35850000  0.60810000  0.41280000  1.0 0.5342524825
N  N1  1  0.84390000  0.00684000  0.00161000  1.0 -0.190740436
N  N2  1  0.15610000  0.99316000  0.99839000  1.0 -0.190740436
N  N3  1  0.44000000  0.26366000  0.33315000  1.0 -0.2228135751
N  N4  1  0.56000000  0.73634000  0.66685000  1.0 -0.2228135751
N  N5  1  0.42610000  0.09747000  0.33555000  1.0 -0.2228135751
N  N6  1  0.57390000  0.90253000  0.66445000  1.0 -0.2228135751
O  O1  1  0.00893000  0.12327000  0.02538000  1.0 -0.5203951271
O  O2  1  0.99107000  0.87673000  0.97462000  1.0 -0.5203951271
O  O3  1  0.38550000  0.03967000  0.20333000  1.0 -0.5286640646
O  O4  1  0.61450000  0.96033000  0.79667000  1.0 -0.5286640646
O  O5  1  0.55990000  0.13115000  0.26664000  1.0 -0.5286640646
O  O6  1  0.44010000  0.86885000  0.73336000  1.0 -0.5286640646
O  O7  1  0.40700000  0.20052000  0.19992000  1.0 -0.4987131776
O  O8  1  0.59300000  0.79948000  0.80008000  1.0 -0.4987131776
O  O9  1  0.35490000  0.69654000  0.00830000  1.0 -0.190740436
O  O10  1  0.64510000  0.30346000  0.99170000  1.0 -0.190740436
O  O11  1  0.55170000  0.11432000  0.16836000  1.0 -0.5598001154
O  O12  1  0.44830000  0.88568000  0.83164000  1.0 -0.5598001154
O  O13  1  0.02290000  0.13795000  0.93739000  1.0 -0.5802628817
O  O14  1  0.97710000  0.86205000  0.06261000  1.0 -0.5802628817
O  O15  1  0.00330000  0.50081000  0.08977000  1.0 -0.190740436
O  O16  1  0.99670000  0.49919000  0.91023000  1.0 -0.190740436
O  O17  1  0.21930000  0.02547000  0.17424000  1.0 -0.547731799
O  O18  1  0.78070000  0.97453000  0.82576000  1.0 -0.547731799
O  O19  1  0.34640000  0.33620000  0.97703000  1.0 -0.1669380487
O  O20  1  0.65360000  0.66380000  0.02297000  1.0 -0.1669380487
O  O21  1  0.85210000  0.84951000  0.21140000  1.0 -0.1787242638
O  O22  1  0.14790000  0.15049000  0.78860000  1.0 -0.1787242638
O  O23  1  0.26380000  0.25670000  0.20140000  1.0 -0.5428876103
O  O24  1  0.73620000  0.74330000  0.79860000  1.0 -0.5428876103
O  O25  1  0.29520000  0.77410000  0.27632000  1.0 -0.1637236299
O  O26  1  0.70480000  0.22590000  0.72368000  1.0 -0.1637236299
O  O27  1  0.73230000  0.93470000  0.39350000  1.0 -0.4514591389
O  O28  1  0.26770000  0.06530000  0.60650000  1.0 -0.4574266495
O  O29  1  0.70560000  0.86350000  0.45850000  1.0 -0.5598001154
O  O30  1  0.29440000  0.13650000  0.54150000  1.0 -0.5598001154
O  O31  1  0.47610000  0.50360000  0.79660000  1.0 -0.1958859125
O  O32  1  0.52390000  0.49640000  0.20340000  1.0 -0.1958859125
O  O33  1  0.71580000  0.44170000  0.59230000  1.0 -0.5203951271
O  O34  1  0.28420000  0.55830000  0.40770000  1.0 -0.5203951271
O  O35  1  0.58240000  0.32700000  0.54220000  1.0 -0.475956303
O  O36  1  0.41760000  0.67300000  0.45780000  1.0 -0.4708753449
