# DDEC6 charges by PACMAN v1.1 (https://github.com/mtap-research/PACMAN-charge/)
data_AQOLOJ_ASR_pacman
_symmetry_space_group_name_H-M   'P 1'
_cell_length_a   18.79400000
_cell_length_b   18.79400000
_cell_length_c   18.79400000
_cell_angle_alpha   90.00000000
_cell_angle_beta   90.00000000
_cell_angle_gamma   90.00000000
_symmetry_Int_Tables_number   1
_chemical_formula_structural   Co4H24C40N32Cl
_chemical_formula_sum   'Co12 H72 C120 N96 Cl3'
_cell_volume   6638.31211018
_cell_formula_units_Z   3
loop_
 _symmetry_equiv_pos_site_id
 _symmetry_equiv_pos_as_xyz
  1  'x, y, z'
loop_
 _atom_site_type_symbol
 _atom_site_label
 _atom_site_symmetry_multiplicity
 _atom_site_fract_x
 _atom_site_fract_y
 _atom_site_fract_z
 _atom_site_occupancy
 _atom_site_charge
Co  Co1  1  0.00000000  0.50000000  0.36725000  1.0 0.5011756856
Co  Co2  1  0.00000000  0.50000000  0.63275000  1.0 0.5011756856
Co  Co3  1  0.36725000  0.00000000  0.50000000  1.0 0.5011756856
Co  Co4  1  0.63275000  0.00000000  0.50000000  1.0 0.5011756856
Co  Co5  1  0.50000000  0.36725000  0.00000000  1.0 0.5011756856
Co  Co6  1  0.50000000  0.63275000  0.00000000  1.0 0.5011756856
Co  Co7  1  0.50000000  0.00000000  0.63275000  1.0 0.5011756856
Co  Co8  1  0.50000000  0.00000000  0.36725000  1.0 0.5011756856
Co  Co9  1  0.00000000  0.36725000  0.50000000  1.0 0.5011756856
Co  Co10  1  0.00000000  0.63275000  0.50000000  1.0 0.5011756856
Co  Co11  1  0.36725000  0.50000000  0.00000000  1.0 0.5011756856
Co  Co12  1  0.63275000  0.50000000  0.00000000  1.0 0.5011756856
H  H1  1  0.24130000  0.39350000  0.24130000  1.0 0.1336487694
H  H2  1  0.75870000  0.60650000  0.24130000  1.0 0.1336487694
H  H3  1  0.75870000  0.39350000  0.75870000  1.0 0.1336487694
H  H4  1  0.24130000  0.60650000  0.75870000  1.0 0.1336487694
H  H5  1  0.24130000  0.24130000  0.39350000  1.0 0.1336487694
H  H6  1  0.24130000  0.75870000  0.60650000  1.0 0.1336487694
H  H7  1  0.75870000  0.75870000  0.39350000  1.0 0.1336487694
H  H8  1  0.75870000  0.24130000  0.60650000  1.0 0.1336487694
H  H9  1  0.39350000  0.24130000  0.24130000  1.0 0.1336487694
H  H10  1  0.60650000  0.24130000  0.75870000  1.0 0.1336487694
H  H11  1  0.39350000  0.75870000  0.75870000  1.0 0.1336487694
H  H12  1  0.60650000  0.75870000  0.24130000  1.0 0.1336487694
H  H13  1  0.39350000  0.24130000  0.75870000  1.0 0.1336487694
H  H14  1  0.60650000  0.75870000  0.75870000  1.0 0.1336487694
H  H15  1  0.39350000  0.75870000  0.24130000  1.0 0.1336487694
H  H16  1  0.60650000  0.24130000  0.24130000  1.0 0.1336487694
H  H17  1  0.24130000  0.24130000  0.60650000  1.0 0.1336487694
H  H18  1  0.75870000  0.24130000  0.39350000  1.0 0.1336487694
H  H19  1  0.75870000  0.75870000  0.60650000  1.0 0.1336487694
H  H20  1  0.24130000  0.75870000  0.39350000  1.0 0.1336487694
H  H21  1  0.24130000  0.39350000  0.75870000  1.0 0.1336487694
H  H22  1  0.24130000  0.60650000  0.24130000  1.0 0.1336487694
H  H23  1  0.75870000  0.39350000  0.24130000  1.0 0.1336487694
H  H24  1  0.75870000  0.60650000  0.75870000  1.0 0.1336487694
H  H25  1  0.15340000  0.44950000  0.29210000  1.0 0.189394973
H  H26  1  0.84660000  0.55050000  0.29210000  1.0 0.189394973
H  H27  1  0.84660000  0.44950000  0.70790000  1.0 0.189394973
H  H28  1  0.15340000  0.55050000  0.70790000  1.0 0.189394973
H  H29  1  0.29210000  0.15340000  0.44950000  1.0 0.189394973
H  H30  1  0.29210000  0.84660000  0.55050000  1.0 0.189394973
H  H31  1  0.70790000  0.84660000  0.44950000  1.0 0.189394973
H  H32  1  0.70790000  0.15340000  0.55050000  1.0 0.189394973
H  H33  1  0.44950000  0.29210000  0.15340000  1.0 0.189394973
H  H34  1  0.55050000  0.29210000  0.84660000  1.0 0.189394973
H  H35  1  0.44950000  0.70790000  0.84660000  1.0 0.189394973
H  H36  1  0.55050000  0.70790000  0.15340000  1.0 0.189394973
H  H37  1  0.44950000  0.15340000  0.70790000  1.0 0.189394973
H  H38  1  0.55050000  0.84660000  0.70790000  1.0 0.189394973
H  H39  1  0.44950000  0.84660000  0.29210000  1.0 0.189394973
H  H40  1  0.55050000  0.15340000  0.29210000  1.0 0.189394973
H  H41  1  0.15340000  0.29210000  0.55050000  1.0 0.189394973
H  H42  1  0.84660000  0.29210000  0.44950000  1.0 0.189394973
H  H43  1  0.84660000  0.70790000  0.55050000  1.0 0.189394973
H  H44  1  0.15340000  0.70790000  0.44950000  1.0 0.189394973
H  H45  1  0.29210000  0.44950000  0.84660000  1.0 0.189394973
H  H46  1  0.29210000  0.55050000  0.15340000  1.0 0.189394973
H  H47  1  0.70790000  0.44950000  0.15340000  1.0 0.189394973
H  H48  1  0.70790000  0.55050000  0.84660000  1.0 0.189394973
H  H49  1  0.84660000  0.55050000  0.70790000  1.0 0.189394973
H  H50  1  0.15340000  0.44950000  0.70790000  1.0 0.189394973
H  H51  1  0.15340000  0.55050000  0.29210000  1.0 0.189394973
H  H52  1  0.84660000  0.44950000  0.29210000  1.0 0.189394973
H  H53  1  0.70790000  0.84660000  0.55050000  1.0 0.189394973
H  H54  1  0.70790000  0.15340000  0.44950000  1.0 0.189394973
H  H55  1  0.29210000  0.15340000  0.55050000  1.0 0.189394973
H  H56  1  0.29210000  0.84660000  0.44950000  1.0 0.189394973
H  H57  1  0.55050000  0.70790000  0.84660000  1.0 0.189394973
H  H58  1  0.44950000  0.70790000  0.15340000  1.0 0.189394973
H  H59  1  0.55050000  0.29210000  0.15340000  1.0 0.189394973
H  H60  1  0.44950000  0.29210000  0.84660000  1.0 0.189394973
H  H61  1  0.55050000  0.84660000  0.29210000  1.0 0.189394973
H  H62  1  0.44950000  0.15340000  0.29210000  1.0 0.189394973
H  H63  1  0.55050000  0.15340000  0.70790000  1.0 0.189394973
H  H64  1  0.44950000  0.84660000  0.70790000  1.0 0.189394973
H  H65  1  0.84660000  0.70790000  0.44950000  1.0 0.189394973
H  H66  1  0.15340000  0.70790000  0.55050000  1.0 0.189394973
H  H67  1  0.15340000  0.29210000  0.44950000  1.0 0.189394973
H  H68  1  0.84660000  0.29210000  0.55050000  1.0 0.189394973
H  H69  1  0.70790000  0.55050000  0.15340000  1.0 0.189394973
H  H70  1  0.70790000  0.44950000  0.84660000  1.0 0.189394973
H  H71  1  0.29210000  0.55050000  0.84660000  1.0 0.189394973
H  H72  1  0.29210000  0.44950000  0.15340000  1.0 0.189394973
C  C1  1  0.26235000  0.35264000  0.26235000  1.0 -0.1314684443
C  C2  1  0.73765000  0.64736000  0.26235000  1.0 -0.1314684443
C  C3  1  0.73765000  0.35264000  0.73765000  1.0 -0.1314684443
C  C4  1  0.26235000  0.64736000  0.73765000  1.0 -0.1314684443
C  C5  1  0.26235000  0.26235000  0.35264000  1.0 -0.1314684443
C  C6  1  0.26235000  0.73765000  0.64736000  1.0 -0.1314684443
C  C7  1  0.73765000  0.73765000  0.35264000  1.0 -0.1314684443
C  C8  1  0.73765000  0.26235000  0.64736000  1.0 -0.1314684443
C  C9  1  0.35264000  0.26235000  0.26235000  1.0 -0.1314684443
C  C10  1  0.64736000  0.26235000  0.73765000  1.0 -0.1314684443
C  C11  1  0.35264000  0.73765000  0.73765000  1.0 -0.1314684443
C  C12  1  0.64736000  0.73765000  0.26235000  1.0 -0.1314684443
C  C13  1  0.35264000  0.26235000  0.73765000  1.0 -0.1314684443
C  C14  1  0.64736000  0.73765000  0.73765000  1.0 -0.1314684443
C  C15  1  0.35264000  0.73765000  0.26235000  1.0 -0.1314684443
C  C16  1  0.64736000  0.26235000  0.26235000  1.0 -0.1314684443
C  C17  1  0.26235000  0.26235000  0.64736000  1.0 -0.1314684443
C  C18  1  0.73765000  0.26235000  0.35264000  1.0 -0.1314684443
C  C19  1  0.73765000  0.73765000  0.64736000  1.0 -0.1314684443
C  C20  1  0.26235000  0.73765000  0.35264000  1.0 -0.1314684443
C  C21  1  0.26235000  0.35264000  0.73765000  1.0 -0.1314684443
C  C22  1  0.26235000  0.64736000  0.26235000  1.0 -0.1314684443
C  C23  1  0.73765000  0.35264000  0.26235000  1.0 -0.1314684443
C  C24  1  0.73765000  0.64736000  0.73765000  1.0 -0.1314684443
C  C25  1  0.23188000  0.32315000  0.32315000  1.0 0.0819651349
C  C26  1  0.76812000  0.67685000  0.32315000  1.0 0.0819651349
C  C27  1  0.76812000  0.32315000  0.67685000  1.0 0.0819651349
C  C28  1  0.23188000  0.67685000  0.67685000  1.0 0.0819651349
C  C29  1  0.32315000  0.23188000  0.32315000  1.0 0.0819651349
C  C30  1  0.32315000  0.76812000  0.67685000  1.0 0.0819651349
C  C31  1  0.67685000  0.76812000  0.32315000  1.0 0.0819651349
C  C32  1  0.67685000  0.23188000  0.67685000  1.0 0.0819651349
C  C33  1  0.32315000  0.32315000  0.23188000  1.0 0.0819651349
C  C34  1  0.67685000  0.32315000  0.76812000  1.0 0.0819651349
C  C35  1  0.32315000  0.67685000  0.76812000  1.0 0.0819651349
C  C36  1  0.67685000  0.67685000  0.23188000  1.0 0.0819651349
C  C37  1  0.32315000  0.23188000  0.67685000  1.0 0.0819651349
C  C38  1  0.67685000  0.76812000  0.67685000  1.0 0.0819651349
C  C39  1  0.32315000  0.76812000  0.32315000  1.0 0.0819651349
C  C40  1  0.67685000  0.23188000  0.32315000  1.0 0.0819651349
C  C41  1  0.23188000  0.32315000  0.67685000  1.0 0.0819651349
C  C42  1  0.76812000  0.32315000  0.32315000  1.0 0.0819651349
C  C43  1  0.76812000  0.67685000  0.67685000  1.0 0.0819651349
C  C44  1  0.23188000  0.67685000  0.32315000  1.0 0.0819651349
C  C45  1  0.32315000  0.32315000  0.76812000  1.0 0.0819651349
C  C46  1  0.32315000  0.67685000  0.23188000  1.0 0.0819651349
C  C47  1  0.67685000  0.32315000  0.23188000  1.0 0.0819651349
C  C48  1  0.67685000  0.67685000  0.76812000  1.0 0.0819651349
C  C49  1  0.16761000  0.35387000  0.35387000  1.0 0.2536126892
C  C50  1  0.83239000  0.64613000  0.35387000  1.0 0.2536126892
C  C51  1  0.83239000  0.35387000  0.64613000  1.0 0.2536126892
C  C52  1  0.16761000  0.64613000  0.64613000  1.0 0.2536126892
C  C53  1  0.35387000  0.16761000  0.35387000  1.0 0.2536126892
C  C54  1  0.35387000  0.83239000  0.64613000  1.0 0.2536126892
C  C55  1  0.64613000  0.83239000  0.35387000  1.0 0.2536126892
C  C56  1  0.64613000  0.16761000  0.64613000  1.0 0.2536126892
C  C57  1  0.35387000  0.35387000  0.16761000  1.0 0.2536126892
C  C58  1  0.64613000  0.35387000  0.83239000  1.0 0.2536126892
C  C59  1  0.35387000  0.64613000  0.83239000  1.0 0.2536126892
C  C60  1  0.64613000  0.64613000  0.16761000  1.0 0.2536126892
C  C61  1  0.35387000  0.16761000  0.64613000  1.0 0.2536126892
C  C62  1  0.64613000  0.83239000  0.64613000  1.0 0.2536126892
C  C63  1  0.35387000  0.83239000  0.35387000  1.0 0.2536126892
C  C64  1  0.64613000  0.16761000  0.35387000  1.0 0.2536126892
C  C65  1  0.16761000  0.35387000  0.64613000  1.0 0.2536126892
C  C66  1  0.83239000  0.35387000  0.35387000  1.0 0.2536126892
C  C67  1  0.83239000  0.64613000  0.64613000  1.0 0.2536126892
C  C68  1  0.16761000  0.64613000  0.35387000  1.0 0.2536126892
C  C69  1  0.35387000  0.35387000  0.83239000  1.0 0.2536126892
C  C70  1  0.35387000  0.64613000  0.16761000  1.0 0.2536126892
C  C71  1  0.64613000  0.35387000  0.16761000  1.0 0.2536126892
C  C72  1  0.64613000  0.64613000  0.83239000  1.0 0.2536126892
C  C73  1  0.13710000  0.41810000  0.32830000  1.0 -0.250431241
C  C74  1  0.86290000  0.58190000  0.32830000  1.0 -0.250431241
C  C75  1  0.86290000  0.41810000  0.67170000  1.0 -0.250431241
C  C76  1  0.13710000  0.58190000  0.67170000  1.0 -0.250431241
C  C77  1  0.32830000  0.13710000  0.41810000  1.0 -0.250431241
C  C78  1  0.32830000  0.86290000  0.58190000  1.0 -0.250431241
C  C79  1  0.67170000  0.86290000  0.41810000  1.0 -0.250431241
C  C80  1  0.67170000  0.13710000  0.58190000  1.0 -0.250431241
C  C81  1  0.41810000  0.32830000  0.13710000  1.0 -0.250431241
C  C82  1  0.58190000  0.32830000  0.86290000  1.0 -0.250431241
C  C83  1  0.41810000  0.67170000  0.86290000  1.0 -0.250431241
C  C84  1  0.58190000  0.67170000  0.13710000  1.0 -0.250431241
C  C85  1  0.41810000  0.13710000  0.67170000  1.0 -0.250431241
C  C86  1  0.58190000  0.86290000  0.67170000  1.0 -0.250431241
C  C87  1  0.41810000  0.86290000  0.32830000  1.0 -0.250431241
C  C88  1  0.58190000  0.13710000  0.32830000  1.0 -0.250431241
C  C89  1  0.13710000  0.32830000  0.58190000  1.0 -0.250431241
C  C90  1  0.86290000  0.32830000  0.41810000  1.0 -0.250431241
C  C91  1  0.86290000  0.67170000  0.58190000  1.0 -0.250431241
C  C92  1  0.13710000  0.67170000  0.41810000  1.0 -0.250431241
C  C93  1  0.32830000  0.41810000  0.86290000  1.0 -0.250431241
C  C94  1  0.32830000  0.58190000  0.13710000  1.0 -0.250431241
C  C95  1  0.67170000  0.41810000  0.13710000  1.0 -0.250431241
C  C96  1  0.67170000  0.58190000  0.86290000  1.0 -0.250431241
C  C97  1  0.86290000  0.58190000  0.67170000  1.0 -0.250431241
C  C98  1  0.13710000  0.41810000  0.67170000  1.0 -0.250431241
C  C99  1  0.13710000  0.58190000  0.32830000  1.0 -0.250431241
C  C100  1  0.86290000  0.41810000  0.32830000  1.0 -0.250431241
C  C101  1  0.67170000  0.86290000  0.58190000  1.0 -0.250431241
C  C102  1  0.67170000  0.13710000  0.41810000  1.0 -0.250431241
C  C103  1  0.32830000  0.13710000  0.58190000  1.0 -0.250431241
C  C104  1  0.32830000  0.86290000  0.41810000  1.0 -0.250431241
C  C105  1  0.58190000  0.67170000  0.86290000  1.0 -0.250431241
C  C106  1  0.41810000  0.67170000  0.13710000  1.0 -0.250431241
C  C107  1  0.58190000  0.32830000  0.13710000  1.0 -0.250431241
C  C108  1  0.41810000  0.32830000  0.86290000  1.0 -0.250431241
C  C109  1  0.58190000  0.86290000  0.32830000  1.0 -0.250431241
C  C110  1  0.41810000  0.13710000  0.32830000  1.0 -0.250431241
C  C111  1  0.58190000  0.13710000  0.67170000  1.0 -0.250431241
C  C112  1  0.41810000  0.86290000  0.67170000  1.0 -0.250431241
C  C113  1  0.86290000  0.67170000  0.41810000  1.0 -0.250431241
C  C114  1  0.13710000  0.67170000  0.58190000  1.0 -0.250431241
C  C115  1  0.13710000  0.32830000  0.41810000  1.0 -0.250431241
C  C116  1  0.86290000  0.32830000  0.58190000  1.0 -0.250431241
C  C117  1  0.67170000  0.58190000  0.13710000  1.0 -0.250431241
C  C118  1  0.67170000  0.41810000  0.86290000  1.0 -0.250431241
C  C119  1  0.32830000  0.58190000  0.86290000  1.0 -0.250431241
C  C120  1  0.32830000  0.41810000  0.13710000  1.0 -0.250431241
N  N1  1  0.07569000  0.42227000  0.37154000  1.0 0.0431190982
N  N2  1  0.92431000  0.57773000  0.37154000  1.0 0.0431190982
N  N3  1  0.92431000  0.42227000  0.62846000  1.0 0.0431190982
N  N4  1  0.07569000  0.57773000  0.62846000  1.0 0.0431190982
N  N5  1  0.37154000  0.07569000  0.42227000  1.0 0.0431190982
N  N6  1  0.37154000  0.92431000  0.57773000  1.0 0.0431190982
N  N7  1  0.62846000  0.92431000  0.42227000  1.0 0.0431190982
N  N8  1  0.62846000  0.07569000  0.57773000  1.0 0.0431190982
N  N9  1  0.42227000  0.37154000  0.07569000  1.0 0.0431190982
N  N10  1  0.57773000  0.37154000  0.92431000  1.0 0.0431190982
N  N11  1  0.42227000  0.62846000  0.92431000  1.0 0.0431190982
N  N12  1  0.57773000  0.62846000  0.07569000  1.0 0.0431190982
N  N13  1  0.42227000  0.07569000  0.62846000  1.0 0.0431190982
N  N14  1  0.57773000  0.92431000  0.62846000  1.0 0.0431190982
N  N15  1  0.42227000  0.92431000  0.37154000  1.0 0.0431190982
N  N16  1  0.57773000  0.07569000  0.37154000  1.0 0.0431190982
N  N17  1  0.07569000  0.37154000  0.57773000  1.0 0.0431190982
N  N18  1  0.92431000  0.37154000  0.42227000  1.0 0.0431190982
N  N19  1  0.92431000  0.62846000  0.57773000  1.0 0.0431190982
N  N20  1  0.07569000  0.62846000  0.42227000  1.0 0.0431190982
N  N21  1  0.37154000  0.42227000  0.92431000  1.0 0.0431190982
N  N22  1  0.37154000  0.57773000  0.07569000  1.0 0.0431190982
N  N23  1  0.62846000  0.42227000  0.07569000  1.0 0.0431190982
N  N24  1  0.62846000  0.57773000  0.92431000  1.0 0.0431190982
N  N25  1  0.92431000  0.57773000  0.62846000  1.0 0.0431190982
N  N26  1  0.07569000  0.42227000  0.62846000  1.0 0.0431190982
N  N27  1  0.07569000  0.57773000  0.37154000  1.0 0.0431190982
N  N28  1  0.92431000  0.42227000  0.37154000  1.0 0.0431190982
N  N29  1  0.62846000  0.92431000  0.57773000  1.0 0.0431190982
N  N30  1  0.62846000  0.07569000  0.42227000  1.0 0.0431190982
N  N31  1  0.37154000  0.07569000  0.57773000  1.0 0.0431190982
N  N32  1  0.37154000  0.92431000  0.42227000  1.0 0.0431190982
N  N33  1  0.57773000  0.62846000  0.92431000  1.0 0.0431190982
N  N34  1  0.42227000  0.62846000  0.07569000  1.0 0.0431190982
N  N35  1  0.57773000  0.37154000  0.07569000  1.0 0.0431190982
N  N36  1  0.42227000  0.37154000  0.92431000  1.0 0.0431190982
N  N37  1  0.57773000  0.92431000  0.37154000  1.0 0.0431190982
N  N38  1  0.42227000  0.07569000  0.37154000  1.0 0.0431190982
N  N39  1  0.57773000  0.07569000  0.62846000  1.0 0.0431190982
N  N40  1  0.42227000  0.92431000  0.62846000  1.0 0.0431190982
N  N41  1  0.92431000  0.62846000  0.42227000  1.0 0.0431190982
N  N42  1  0.07569000  0.62846000  0.57773000  1.0 0.0431190982
N  N43  1  0.07569000  0.37154000  0.42227000  1.0 0.0431190982
N  N44  1  0.92431000  0.37154000  0.57773000  1.0 0.0431190982
N  N45  1  0.62846000  0.57773000  0.07569000  1.0 0.0431190982
N  N46  1  0.62846000  0.42227000  0.92431000  1.0 0.0431190982
N  N47  1  0.37154000  0.57773000  0.92431000  1.0 0.0431190982
N  N48  1  0.37154000  0.42227000  0.07569000  1.0 0.0431190982
N  N49  1  0.12670000  0.40570000  0.33010000  1.0 -0.250431241
N  N50  1  0.87330000  0.59430000  0.33010000  1.0 -0.250431241
N  N51  1  0.87330000  0.40570000  0.66990000  1.0 -0.250431241
N  N52  1  0.12670000  0.59430000  0.66990000  1.0 -0.250431241
N  N53  1  0.33010000  0.12670000  0.40570000  1.0 -0.250431241
N  N54  1  0.33010000  0.87330000  0.59430000  1.0 -0.250431241
N  N55  1  0.66990000  0.87330000  0.40570000  1.0 -0.250431241
N  N56  1  0.66990000  0.12670000  0.59430000  1.0 -0.250431241
N  N57  1  0.40570000  0.33010000  0.12670000  1.0 -0.250431241
N  N58  1  0.59430000  0.33010000  0.87330000  1.0 -0.250431241
N  N59  1  0.40570000  0.66990000  0.87330000  1.0 -0.250431241
N  N60  1  0.59430000  0.66990000  0.12670000  1.0 -0.250431241
N  N61  1  0.40570000  0.12670000  0.66990000  1.0 -0.250431241
N  N62  1  0.59430000  0.87330000  0.66990000  1.0 -0.250431241
N  N63  1  0.40570000  0.87330000  0.33010000  1.0 -0.250431241
N  N64  1  0.59430000  0.12670000  0.33010000  1.0 -0.250431241
N  N65  1  0.12670000  0.33010000  0.59430000  1.0 -0.250431241
N  N66  1  0.87330000  0.33010000  0.40570000  1.0 -0.250431241
N  N67  1  0.87330000  0.66990000  0.59430000  1.0 -0.250431241
N  N68  1  0.12670000  0.66990000  0.40570000  1.0 -0.250431241
N  N69  1  0.33010000  0.40570000  0.87330000  1.0 -0.250431241
N  N70  1  0.33010000  0.59430000  0.12670000  1.0 -0.250431241
N  N71  1  0.66990000  0.40570000  0.12670000  1.0 -0.250431241
N  N72  1  0.66990000  0.59430000  0.87330000  1.0 -0.250431241
N  N73  1  0.87330000  0.59430000  0.66990000  1.0 -0.250431241
N  N74  1  0.12670000  0.40570000  0.66990000  1.0 -0.250431241
N  N75  1  0.12670000  0.59430000  0.33010000  1.0 -0.250431241
N  N76  1  0.87330000  0.40570000  0.33010000  1.0 -0.250431241
N  N77  1  0.66990000  0.87330000  0.59430000  1.0 -0.250431241
N  N78  1  0.66990000  0.12670000  0.40570000  1.0 -0.250431241
N  N79  1  0.33010000  0.12670000  0.59430000  1.0 -0.250431241
N  N80  1  0.33010000  0.87330000  0.40570000  1.0 -0.250431241
N  N81  1  0.59430000  0.66990000  0.87330000  1.0 -0.250431241
N  N82  1  0.40570000  0.66990000  0.12670000  1.0 -0.250431241
N  N83  1  0.59430000  0.33010000  0.12670000  1.0 -0.250431241
N  N84  1  0.40570000  0.33010000  0.87330000  1.0 -0.250431241
N  N85  1  0.59430000  0.87330000  0.33010000  1.0 -0.250431241
N  N86  1  0.40570000  0.12670000  0.33010000  1.0 -0.250431241
N  N87  1  0.59430000  0.12670000  0.66990000  1.0 -0.250431241
N  N88  1  0.40570000  0.87330000  0.66990000  1.0 -0.250431241
N  N89  1  0.87330000  0.66990000  0.40570000  1.0 -0.250431241
N  N90  1  0.12670000  0.66990000  0.59430000  1.0 -0.250431241
N  N91  1  0.12670000  0.33010000  0.40570000  1.0 -0.250431241
N  N92  1  0.87330000  0.33010000  0.59430000  1.0 -0.250431241
N  N93  1  0.66990000  0.59430000  0.12670000  1.0 -0.250431241
N  N94  1  0.66990000  0.40570000  0.87330000  1.0 -0.250431241
N  N95  1  0.33010000  0.59430000  0.87330000  1.0 -0.250431241
N  N96  1  0.33010000  0.40570000  0.12670000  1.0 -0.250431241
Cl  Cl1  1  0.00000000  0.50000000  0.50000000  1.0 -0.4131933611
Cl  Cl2  1  0.50000000  0.00000000  0.50000000  1.0 -0.4131933611
Cl  Cl3  1  0.50000000  0.50000000  0.00000000  1.0 -0.4131933611
