# DDEC6 charges by PACMAN v1.1 (https://github.com/mtap-research/PACMAN-charge/)
data_AQOTIK_ASR_pacman
_symmetry_space_group_name_H-M   'P 1'
_cell_length_a   7.17000000
_cell_length_b   7.17000000
_cell_length_c   13.66200000
_cell_angle_alpha   90.00000000
_cell_angle_beta   90.00000000
_cell_angle_gamma   90.00000000
_symmetry_Int_Tables_number   1
_chemical_formula_structural   FePt(C4N)6
_chemical_formula_sum   'Fe1 Pt1 C24 N6'
_cell_volume   702.34839180
_cell_formula_units_Z   1
loop_
 _symmetry_equiv_pos_site_id
 _symmetry_equiv_pos_as_xyz
  1  'x, y, z'
loop_
 _atom_site_type_symbol
 _atom_site_label
 _atom_site_symmetry_multiplicity
 _atom_site_fract_x
 _atom_site_fract_y
 _atom_site_fract_z
 _atom_site_occupancy
 _atom_site_charge
Fe  Fe1  1  0.00000000  0.00000000  0.50000000  1.0 0.6248801568
Pt  Pt1  1  0.50000000  0.50000000  0.50000000  1.0 0.0332026141
C  C1  1  0.83870000  0.00000000  0.69500000  1.0 0.057184012
C  C2  1  0.16130000  0.00000000  0.69500000  1.0 0.057184012
C  C3  1  0.83870000  0.00000000  0.30500000  1.0 0.057184012
C  C4  1  0.16130000  0.00000000  0.30500000  1.0 0.057184012
C  C5  1  0.00000000  0.16130000  0.30500000  1.0 0.057184012
C  C6  1  0.00000000  0.83870000  0.30500000  1.0 0.057184012
C  C7  1  0.00000000  0.16130000  0.69500000  1.0 0.057184012
C  C8  1  0.00000000  0.83870000  0.69500000  1.0 0.057184012
C  C9  1  0.83420000  0.00000000  0.79890000  1.0 -0.0225258941
C  C10  1  0.16580000  0.00000000  0.79890000  1.0 -0.0225258941
C  C11  1  0.83420000  0.00000000  0.20110000  1.0 -0.0225258941
C  C12  1  0.16580000  0.00000000  0.20110000  1.0 -0.0225258941
C  C13  1  0.00000000  0.16580000  0.20110000  1.0 -0.0225258941
C  C14  1  0.00000000  0.83420000  0.20110000  1.0 -0.0225258941
C  C15  1  0.00000000  0.16580000  0.79890000  1.0 -0.0225258941
C  C16  1  0.00000000  0.83420000  0.79890000  1.0 -0.0225258941
C  C17  1  0.00000000  0.00000000  0.85180000  1.0 0.0993793291
C  C18  1  0.00000000  0.00000000  0.14820000  1.0 0.0993793291
C  C19  1  0.00000000  0.00000000  0.95760000  1.0 -0.082877685
C  C20  1  0.00000000  0.00000000  0.04240000  1.0 -0.082877685
C  C21  1  0.69560000  0.30440000  0.50000000  1.0 0.0993793291
C  C22  1  0.30440000  0.69560000  0.50000000  1.0 0.0993793291
C  C23  1  0.69560000  0.69560000  0.50000000  1.0 0.0993793291
C  C24  1  0.30440000  0.30440000  0.50000000  1.0 0.0993793291
N  N1  1  0.00000000  0.00000000  0.64610000  1.0 -0.1250849447
N  N2  1  0.00000000  0.00000000  0.35390000  1.0 -0.1250849447
N  N3  1  0.80920000  0.19080000  0.50000000  1.0 -0.2789246073
N  N4  1  0.19080000  0.80920000  0.50000000  1.0 -0.2789246073
N  N5  1  0.80920000  0.80920000  0.50000000  1.0 -0.2789246073
N  N6  1  0.19080000  0.19080000  0.50000000  1.0 -0.2789246073
