# DDEC6 charges by PACMAN v1.1 (https://github.com/mtap-research/PACMAN-charge/)
data_ARAFEF_ASR_pacman
_symmetry_space_group_name_H-M   'P 1'
_cell_length_a   13.66790000
_cell_length_b   13.66790000
_cell_length_c   13.66790000
_cell_angle_alpha   150.13500000
_cell_angle_beta   119.49600000
_cell_angle_gamma   68.92720000
_symmetry_Int_Tables_number   1
_chemical_formula_structural   CuH8(CN)8
_chemical_formula_sum   'Cu2 H16 C16 N16'
_cell_volume   1093.18220171
_cell_formula_units_Z   2
loop_
 _symmetry_equiv_pos_site_id
 _symmetry_equiv_pos_as_xyz
  1  'x, y, z'
loop_
 _atom_site_type_symbol
 _atom_site_label
 _atom_site_symmetry_multiplicity
 _atom_site_fract_x
 _atom_site_fract_y
 _atom_site_fract_z
 _atom_site_occupancy
 _atom_site_charge
Cu  Cu1  1  0.00000000  0.00000000  0.50000000  1.0 0.1493119214
Cu  Cu2  1  0.00000000  0.50000000  0.00000000  1.0 0.1493119214
H  H1  1  0.00010000  0.91140000  0.65490000  1.0 0.2660724063
H  H2  1  0.24350000  0.58860000  0.08870000  1.0 0.2660724063
H  H3  1  0.99990000  0.65480000  0.91130000  1.0 0.2660724063
H  H4  1  0.75650000  0.84520000  0.34510000  1.0 0.2660724063
H  H5  1  0.99990000  0.08860000  0.34510000  1.0 0.2660724063
H  H6  1  0.75650000  0.41140000  0.91130000  1.0 0.2660724063
H  H7  1  0.00010000  0.34520000  0.08870000  1.0 0.2660724063
H  H8  1  0.24350000  0.15480000  0.65490000  1.0 0.2660724063
H  H9  1  0.99740000  0.82380000  0.73440000  1.0 0.1026110862
H  H10  1  0.41060000  0.67620000  0.17360000  1.0 0.1026110862
H  H11  1  0.00260000  0.73700000  0.82640000  1.0 0.1026110862
H  H12  1  0.58940000  0.76300000  0.26560000  1.0 0.1026110862
H  H13  1  0.00260000  0.17620000  0.26560000  1.0 0.1026110862
H  H14  1  0.58940000  0.32380000  0.82640000  1.0 0.1026110862
H  H15  1  0.99740000  0.26300000  0.17360000  1.0 0.1026110862
H  H16  1  0.41060000  0.23700000  0.73440000  1.0 0.1026110862
C  C1  1  0.99970000  0.55350000  0.44620000  1.0 0.011725637
C  C2  1  0.39270000  0.94650000  0.44620000  1.0 0.011725637
C  C3  1  0.00030000  0.44650000  0.55380000  1.0 0.011725637
C  C4  1  0.60730000  0.05350000  0.55380000  1.0 0.011725637
C  C5  1  0.00090000  0.60930000  0.39160000  1.0 0.0593277969
C  C6  1  0.28230000  0.89070000  0.39160000  1.0 0.0593277969
C  C7  1  0.99910000  0.39070000  0.60840000  1.0 0.0593277969
C  C8  1  0.71770000  0.10930000  0.60840000  1.0 0.0593277969
C  C9  1  0.99910000  0.68890000  0.63520000  1.0 -0.1558719865
C  C10  1  0.44630000  0.81110000  0.31020000  1.0 -0.1558719865
C  C11  1  0.00090000  0.63610000  0.68980000  1.0 -0.1558719865
C  C12  1  0.55370000  0.86390000  0.36480000  1.0 -0.1558719865
C  C13  1  0.00090000  0.31110000  0.36480000  1.0 -0.1558719865
C  C14  1  0.55370000  0.18890000  0.68980000  1.0 -0.1558719865
C  C15  1  0.99910000  0.36390000  0.31020000  1.0 -0.1558719865
C  C16  1  0.44630000  0.13610000  0.63520000  1.0 -0.1558719865
N  N1  1  0.00148000  0.78188000  0.40820000  1.0 -0.0995355296
N  N2  1  0.12632000  0.71812000  0.21960000  1.0 -0.0995355296
N  N3  1  0.99852000  0.40672000  0.78040000  1.0 -0.0995355296
N  N4  1  0.87368000  0.09328000  0.59180000  1.0 -0.0995355296
N  N5  1  0.99852000  0.21812000  0.59180000  1.0 -0.0995355296
N  N6  1  0.87368000  0.28188000  0.78040000  1.0 -0.0995355296
N  N7  1  0.00148000  0.59328000  0.21960000  1.0 -0.0995355296
N  N8  1  0.12632000  0.90672000  0.40820000  1.0 -0.0995355296
N  N9  1  0.00067000  0.79397000  0.51590000  1.0 -0.187730902
N  N10  1  0.22193000  0.70603000  0.20670000  1.0 -0.187730902
N  N11  1  0.99933000  0.51523000  0.79330000  1.0 -0.187730902
N  N12  1  0.77807000  0.98477000  0.48410000  1.0 -0.181329989
N  N13  1  0.99933000  0.20603000  0.48410000  1.0 -0.187730902
N  N14  1  0.77807000  0.29397000  0.79330000  1.0 -0.187730902
N  N15  1  0.00067000  0.48477000  0.20670000  1.0 -0.181329989
N  N16  1  0.22193000  0.01523000  0.51590000  1.0 -0.187730902
