# DDEC6 charges by PACMAN v1.1 (https://github.com/mtap-research/PACMAN-charge/)
data_ARAFIJ_ASR_pacman
_symmetry_space_group_name_H-M   'P 1'
_cell_length_a   13.66330000
_cell_length_b   13.66330000
_cell_length_c   13.66330000
_cell_angle_alpha   150.00100000
_cell_angle_beta   130.03800000
_cell_angle_gamma   59.38080000
_symmetry_Int_Tables_number   1
_chemical_formula_structural   CuH8C14N10O
_chemical_formula_sum   'Cu2 H16 C28 N20 O2'
_cell_volume   968.78018615
_cell_formula_units_Z   2
loop_
 _symmetry_equiv_pos_site_id
 _symmetry_equiv_pos_as_xyz
  1  'x, y, z'
loop_
 _atom_site_type_symbol
 _atom_site_label
 _atom_site_symmetry_multiplicity
 _atom_site_fract_x
 _atom_site_fract_y
 _atom_site_fract_z
 _atom_site_occupancy
 _atom_site_charge
Cu  Cu1  1  0.00000000  0.00000000  0.50000000  1.0 0.3470862365
Cu  Cu2  1  0.00000000  0.50000000  0.00000000  1.0 0.3470862365
H  H1  1  0.01390000  0.84940000  0.60230000  1.0 0.2534782297
H  H2  1  0.25290000  0.65060000  0.16450000  1.0 0.2534782297
H  H3  1  0.98610000  0.58840000  0.83550000  1.0 0.2534782297
H  H4  1  0.74710000  0.91160000  0.39770000  1.0 0.2534782297
H  H5  1  0.98610000  0.15060000  0.39770000  1.0 0.2534782297
H  H6  1  0.74710000  0.34940000  0.83550000  1.0 0.2534782297
H  H7  1  0.01390000  0.41160000  0.16450000  1.0 0.2534782297
H  H8  1  0.25290000  0.08840000  0.60230000  1.0 0.2534782297
H  H9  1  0.01410000  0.76890000  0.69000000  1.0 0.1108374453
H  H10  1  0.42110000  0.73110000  0.24520000  1.0 0.1108374453
H  H11  1  0.98590000  0.67590000  0.75480000  1.0 0.1108374453
H  H12  1  0.57890000  0.82410000  0.31000000  1.0 0.1108374453
H  H13  1  0.98590000  0.23110000  0.31000000  1.0 0.1108374453
H  H14  1  0.57890000  0.26890000  0.75480000  1.0 0.1108374453
H  H15  1  0.01410000  0.32410000  0.24520000  1.0 0.1108374453
H  H16  1  0.42110000  0.17590000  0.69000000  1.0 0.1108374453
C  C1  1  0.00730000  0.05430000  0.95300000  1.0 0.0267393074
C  C2  1  0.39870000  0.44570000  0.95300000  1.0 0.0267393074
C  C3  1  0.99270000  0.94570000  0.04700000  1.0 0.0267393074
C  C4  1  0.60130000  0.55430000  0.04700000  1.0 0.0267393074
C  C5  1  0.01210000  0.11140000  0.90070000  1.0 0.2311348474
C  C6  1  0.28930000  0.38860000  0.90070000  1.0 0.2311348474
C  C7  1  0.98790000  0.88860000  0.09930000  1.0 0.2311348474
C  C8  1  0.71070000  0.61140000  0.09930000  1.0 0.2311348474
C  C9  1  0.00620000  0.86700000  0.81800000  1.0 -0.1512391095
C  C10  1  0.45100000  0.63300000  0.13920000  1.0 -0.1512391095
C  C11  1  0.99380000  0.81180000  0.86080000  1.0 -0.1512391095
C  C12  1  0.54900000  0.68820000  0.18200000  1.0 -0.1512391095
C  C13  1  0.99380000  0.13300000  0.18200000  1.0 -0.1512391095
C  C14  1  0.54900000  0.36700000  0.86080000  1.0 -0.1512391095
C  C15  1  0.00620000  0.18820000  0.13920000  1.0 -0.1512391095
C  C16  1  0.45100000  0.31180000  0.81800000  1.0 -0.1512391095
C  C17  1  0.33960000  0.85760000  0.48200000  1.0 -0.2195971229
C  C18  1  0.12440000  0.64240000  0.48200000  1.0 -0.2195971229
C  C19  1  0.66040000  0.14240000  0.51800000  1.0 -0.2195971229
C  C20  1  0.87560000  0.35760000  0.51800000  1.0 -0.2195971229
C  C21  1  0.26600000  0.79000000  0.47600000  1.0 0.2425867624
C  C22  1  0.18600000  0.71000000  0.47600000  1.0 0.2425867624
C  C23  1  0.73400000  0.21000000  0.52400000  1.0 0.2425867624
C  C24  1  0.81400000  0.29000000  0.52400000  1.0 0.2425867624
C  C25  1  0.54200000  0.84000000  0.70200000  1.0 -0.1080983256
C  C26  1  0.36200000  0.66000000  0.70200000  1.0 -0.1080983256
C  C27  1  0.45800000  0.16000000  0.29800000  1.0 -0.1080983256
C  C28  1  0.63800000  0.34000000  0.29800000  1.0 -0.1080983256
N  N1  1  0.01599000  0.09689000  0.73210000  1.0 -0.0946578377
N  N2  1  0.13521000  0.40311000  0.91910000  1.0 -0.0951926702
N  N3  1  0.98401000  0.71611000  0.08090000  1.0 -0.0951926702
N  N4  1  0.86479000  0.78389000  0.26790000  1.0 -0.0951926702
N  N5  1  0.98401000  0.90311000  0.26790000  1.0 -0.0946578377
N  N6  1  0.86479000  0.59689000  0.08090000  1.0 -0.0951926702
N  N7  1  0.01599000  0.28389000  0.91910000  1.0 -0.0951926702
N  N8  1  0.13521000  0.21611000  0.73210000  1.0 -0.0946578377
N  N9  1  0.01394000  0.98834000  0.71920000  1.0 -0.1953639709
N  N10  1  0.23086000  0.51166000  0.02560000  1.0 -0.1953639709
N  N11  1  0.98606000  0.70526000  0.97440000  1.0 -0.1941746467
N  N12  1  0.76914000  0.79474000  0.28080000  1.0 -0.1953639709
N  N13  1  0.98606000  0.01166000  0.28080000  1.0 -0.1953639709
N  N14  1  0.76914000  0.48834000  0.97440000  1.0 -0.1941746467
N  N15  1  0.01394000  0.29474000  0.02560000  1.0 -0.1941746467
N  N16  1  0.23086000  0.20526000  0.71920000  1.0 -0.1953639709
N  N17  1  0.40490000  0.82500000  0.57990000  1.0 -0.0336575483
N  N18  1  0.25490000  0.67500000  0.57990000  1.0 -0.0336575483
N  N19  1  0.59510000  0.17500000  0.42010000  1.0 -0.0336575483
N  N20  1  0.74510000  0.32500000  0.42010000  1.0 -0.0336575483
O  O1  1  0.15200000  0.75000000  0.40200000  1.0 -0.3179680102
O  O2  1  0.84800000  0.25000000  0.59800000  1.0 -0.3179680102
