# DDEC6 charges by PACMAN v1.1 (https://github.com/mtap-research/PACMAN-charge/)
data_ARAFOP_FSR_pacman
_symmetry_space_group_name_H-M   'P 1'
_cell_length_a   13.55970000
_cell_length_b   13.55970000
_cell_length_c   13.55970000
_cell_angle_alpha   150.14400000
_cell_angle_beta   140.63800000
_cell_angle_gamma   50.17530000
_symmetry_Int_Tables_number   1
_chemical_formula_structural   CuH8(CN)8
_chemical_formula_sum   'Cu2 H16 C16 N16'
_cell_volume   783.57407522
_cell_formula_units_Z   2
loop_
 _symmetry_equiv_pos_site_id
 _symmetry_equiv_pos_as_xyz
  1  'x, y, z'
loop_
 _atom_site_type_symbol
 _atom_site_label
 _atom_site_symmetry_multiplicity
 _atom_site_fract_x
 _atom_site_fract_y
 _atom_site_fract_z
 _atom_site_occupancy
 _atom_site_charge
Cu  Cu1  1  0.00000000  0.00000000  0.50000000  1.0 0.1640952645
Cu  Cu2  1  0.00000000  0.50000000  0.00000000  1.0 0.1640952645
H  H1  1  0.72410000  0.84780000  0.30550000  1.0 0.2616820826
H  H2  1  0.95770000  0.65220000  0.87630000  1.0 0.2616820826
H  H3  1  0.27590000  0.58140000  0.12370000  1.0 0.2616820826
H  H4  1  0.04230000  0.91860000  0.69450000  1.0 0.2616820826
H  H5  1  0.27590000  0.15220000  0.69450000  1.0 0.2616820826
H  H6  1  0.04230000  0.34780000  0.12370000  1.0 0.2616820826
H  H7  1  0.72410000  0.41860000  0.87630000  1.0 0.2616820826
H  H8  1  0.95770000  0.08140000  0.30550000  1.0 0.2616820826
H  H9  1  0.57210000  0.76310000  0.24320000  1.0 0.1047441481
H  H10  1  0.98010000  0.73690000  0.80900000  1.0 0.1047441481
H  H11  1  0.42790000  0.67110000  0.19100000  1.0 0.1047441481
H  H12  1  0.01990000  0.82890000  0.75680000  1.0 0.1047441481
H  H13  1  0.42790000  0.23690000  0.75680000  1.0 0.1047441481
H  H14  1  0.01990000  0.26310000  0.19100000  1.0 0.1047441481
H  H15  1  0.57210000  0.32890000  0.80900000  1.0 0.1047441481
H  H16  1  0.98010000  0.17110000  0.24320000  1.0 0.1047441481
C  C1  1  0.68670000  0.11390000  0.57280000  1.0 0.0812900631
C  C2  1  0.95890000  0.38610000  0.57280000  1.0 0.0812900631
C  C3  1  0.31330000  0.88610000  0.42720000  1.0 0.0812900631
C  C4  1  0.04110000  0.61390000  0.42720000  1.0 0.0812900631
C  C5  1  0.58860000  0.05600000  0.53260000  1.0 0.0199702425
C  C6  1  0.97660000  0.44400000  0.53260000  1.0 0.0199702425
C  C7  1  0.41140000  0.94400000  0.46740000  1.0 0.0199702425
C  C8  1  0.02340000  0.55600000  0.46740000  1.0 0.0199702425
C  C9  1  0.54360000  0.86370000  0.35190000  1.0 -0.1724092097
C  C10  1  0.98820000  0.63630000  0.67990000  1.0 -0.1724092097
C  C11  1  0.45640000  0.80830000  0.32010000  1.0 -0.1724092097
C  C12  1  0.01180000  0.69170000  0.64810000  1.0 -0.1724092097
C  C13  1  0.45640000  0.13630000  0.64810000  1.0 -0.1724092097
C  C14  1  0.01180000  0.36370000  0.32010000  1.0 -0.1724092097
C  C15  1  0.54360000  0.19170000  0.67990000  1.0 -0.1724092097
C  C16  1  0.98820000  0.30830000  0.35190000  1.0 -0.1724092097
N  N1  1  0.84414000  0.09664000  0.55610000  1.0 -0.0893231093
N  N2  1  0.95946000  0.40336000  0.74750000  1.0 -0.0893231093
N  N3  1  0.15586000  0.71196000  0.25250000  1.0 -0.0893231093
N  N4  1  0.04054000  0.78804000  0.44390000  1.0 -0.0893231093
N  N5  1  0.15586000  0.90336000  0.44390000  1.0 -0.0893231093
N  N6  1  0.04054000  0.59664000  0.25250000  1.0 -0.0893231093
N  N7  1  0.84414000  0.28804000  0.74750000  1.0 -0.0893231093
N  N8  1  0.95946000  0.21196000  0.55610000  1.0 -0.0893231093
N  N9  1  0.74687000  0.98827000  0.44680000  1.0 -0.1963478805
N  N10  1  0.95853000  0.51173000  0.75860000  1.0 -0.1963478805
N  N11  1  0.25313000  0.69993000  0.24140000  1.0 -0.1963478805
N  N12  1  0.04147000  0.80007000  0.55320000  1.0 -0.1963478805
N  N13  1  0.25313000  0.01173000  0.55320000  1.0 -0.1963478805
N  N14  1  0.04147000  0.48827000  0.24140000  1.0 -0.1963478805
N  N15  1  0.74687000  0.30007000  0.75860000  1.0 -0.1963478805
N  N16  1  0.95853000  0.19993000  0.44680000  1.0 -0.1963478805
