# DDEC6 charges by PACMAN v1.1 (https://github.com/mtap-research/PACMAN-charge/)
data_ARINOF_ion_pacman
_symmetry_space_group_name_H-M   'P 1'
_cell_length_a   8.05700000
_cell_length_b   12.72600000
_cell_length_c   13.50500000
_cell_angle_alpha   90.12300000
_cell_angle_beta   90.04200000
_cell_angle_gamma   90.07200000
_symmetry_Int_Tables_number   1
_chemical_formula_structural   CuH20C24N8ClO4
_chemical_formula_sum   'Cu2 H40 C48 N16 Cl2 O8'
_cell_volume   1384.70866504
_cell_formula_units_Z   2
loop_
 _symmetry_equiv_pos_site_id
 _symmetry_equiv_pos_as_xyz
  1  'x, y, z'
loop_
 _atom_site_type_symbol
 _atom_site_label
 _atom_site_symmetry_multiplicity
 _atom_site_fract_x
 _atom_site_fract_y
 _atom_site_fract_z
 _atom_site_occupancy
 _atom_site_charge
Cu  Cu1  1  0.74881000  0.75001000  0.25004000  1.0 0.2138279007
Cu  Cu2  1  0.25119000  0.24999000  0.74996000  1.0 0.2138279007
H  H1  1  0.25870000  0.81230000  0.04260000  1.0 0.128293086
H  H2  1  0.74130000  0.18770000  0.95740000  1.0 0.128293086
H  H3  1  0.67000000  0.98160000  0.20820000  1.0 0.107912548
H  H4  1  0.33000000  0.01840000  0.79180000  1.0 0.107912548
H  H5  1  0.45690000  0.07640000  0.14650000  1.0 0.1410053746
H  H6  1  0.54310000  0.92360000  0.85350000  1.0 0.1454417037
H  H7  1  0.47900000  0.72290000  0.10930000  1.0 0.1008901141
H  H8  1  0.52100000  0.27710000  0.89070000  1.0 0.1008901141
H  H9  1  0.03860000  0.64880000  0.93930000  1.0 0.1410053746
H  H10  1  0.96140000  0.35120000  0.06070000  1.0 0.1410053746
H  H11  1  0.82830000  0.71400000  0.03580000  1.0 0.1008901141
H  H12  1  0.17170000  0.28600000  0.96420000  1.0 0.1008901141
H  H13  1  0.24720000  0.53690000  0.18500000  1.0 0.128293086
H  H14  1  0.75280000  0.46310000  0.81500000  1.0 0.128293086
H  H15  1  0.02480000  0.59850000  0.27210000  1.0 0.1008901141
H  H16  1  0.97520000  0.40150000  0.72790000  1.0 0.1008901141
H  H17  1  0.25880000  0.68720000  0.45760000  1.0 0.128293086
H  H18  1  0.74120000  0.31280000  0.54240000  1.0 0.128293086
H  H19  1  0.45590000  0.42390000  0.35480000  1.0 0.1410053746
H  H20  1  0.54410000  0.57610000  0.64520000  1.0 0.1454417037
H  H21  1  0.66800000  0.51820000  0.29080000  1.0 0.107912548
H  H22  1  0.33200000  0.48180000  0.70920000  1.0 0.107912548
H  H23  1  0.47820000  0.77710000  0.39120000  1.0 0.1008901141
H  H24  1  0.52180000  0.22290000  0.60880000  1.0 0.1008901141
H  H25  1  0.04130000  0.85200000  0.56050000  1.0 0.1410053746
H  H26  1  0.95870000  0.14800000  0.43950000  1.0 0.1410053746
H  H27  1  0.82620000  0.78710000  0.46520000  1.0 0.1008901141
H  H28  1  0.17380000  0.21290000  0.53480000  1.0 0.1008901141
H  H29  1  0.24480000  0.96410000  0.31420000  1.0 0.128293086
H  H30  1  0.75520000  0.03590000  0.68580000  1.0 0.128293086
H  H31  1  0.02320000  0.90170000  0.22850000  1.0 0.1008901141
H  H32  1  0.97680000  0.09830000  0.77150000  1.0 0.1008901141
H  H33  1  0.30440000  0.94730000  0.57730000  1.0 0.107912548
H  H34  1  0.69560000  0.05270000  0.42270000  1.0 0.107912548
H  H35  1  0.19370000  0.08560000  0.04210000  1.0 0.1008901141
H  H36  1  0.80630000  0.91440000  0.95790000  1.0 0.1008901141
H  H37  1  0.19190000  0.41430000  0.45490000  1.0 0.1008901141
H  H38  1  0.80810000  0.58570000  0.54510000  1.0 0.1008901141
H  H39  1  0.30000000  0.54940000  0.92340000  1.0 0.107912548
H  H40  1  0.70000000  0.45060000  0.07660000  1.0 0.107912548
C  C1  1  0.34030000  0.84900000  0.07710000  1.0 -0.1567542365
C  C2  1  0.65970000  0.15100000  0.92290000  1.0 -0.1567542365
C  C3  1  0.32940000  0.95420000  0.08660000  1.0 0.1008901141
C  C4  1  0.67060000  0.04580000  0.91340000  1.0 0.1008901141
C  C5  1  0.58390000  0.94620000  0.17650000  1.0 0.0669606243
C  C6  1  0.41610000  0.05380000  0.82350000  1.0 0.0669606243
C  C7  1  0.45790000  0.00390000  0.13830000  1.0 -0.1898733599
C  C8  1  0.54210000  0.99610000  0.86170000  1.0 -0.2009246745
C  C9  1  0.47250000  0.79520000  0.11850000  1.0 0.031449032
C  C10  1  0.52750000  0.20480000  0.88150000  1.0 0.031449032
C  C11  1  0.16950000  0.58580000  0.05150000  1.0 0.1008901141
C  C12  1  0.83050000  0.41420000  0.94850000  1.0 0.1008901141
C  C13  1  0.04060000  0.63880000  0.00750000  1.0 -0.1804969011
C  C14  1  0.95940000  0.36120000  0.99250000  1.0 -0.1804969011
C  C15  1  0.91380000  0.67730000  0.06640000  1.0 0.0669606243
C  C16  1  0.08620000  0.32270000  0.93360000  1.0 0.0669606243
C  C17  1  0.16240000  0.57210000  0.15220000  1.0 -0.1691048938
C  C18  1  0.83760000  0.42790000  0.84780000  1.0 -0.1691048938
C  C19  1  0.02940000  0.61080000  0.20430000  1.0 0.0499703932
C  C20  1  0.97060000  0.38920000  0.79570000  1.0 0.0499703932
C  C21  1  0.33130000  0.54490000  0.41270000  1.0 0.1008901141
C  C22  1  0.66870000  0.45510000  0.58730000  1.0 0.1008901141
C  C23  1  0.34080000  0.65100000  0.42300000  1.0 -0.1567542365
C  C24  1  0.65920000  0.34900000  0.57700000  1.0 -0.1567542365
C  C25  1  0.45690000  0.49660000  0.36240000  1.0 -0.1898733599
C  C26  1  0.54310000  0.50340000  0.63760000  1.0 -0.1898733599
C  C27  1  0.58330000  0.55370000  0.32350000  1.0 0.0669606243
C  C28  1  0.41670000  0.44630000  0.67650000  1.0 0.0669606243
C  C29  1  0.47200000  0.70480000  0.38220000  1.0 0.031449032
C  C30  1  0.52800000  0.29520000  0.61780000  1.0 0.031449032
C  C31  1  0.16940000  0.91390000  0.44850000  1.0 0.1008901141
C  C32  1  0.83060000  0.08610000  0.55150000  1.0 0.1008901141
C  C33  1  0.04210000  0.86170000  0.49220000  1.0 -0.1691048938
C  C34  1  0.95790000  0.13830000  0.50780000  1.0 -0.1691048938
C  C35  1  0.91250000  0.82280000  0.43430000  1.0 0.0608551802
C  C36  1  0.08750000  0.17720000  0.56570000  1.0 0.0608551802
C  C37  1  0.16090000  0.92820000  0.34720000  1.0 -0.1691048938
C  C38  1  0.83910000  0.07180000  0.65280000  1.0 -0.1691048938
C  C39  1  0.02850000  0.88920000  0.29620000  1.0 0.0499703932
C  C40  1  0.97150000  0.11080000  0.70380000  1.0 0.0499703932
C  C41  1  0.30980000  0.94960000  0.50850000  1.0 0.0388222823
C  C42  1  0.69020000  0.05040000  0.49150000  1.0 0.0388222823
C  C43  1  0.18800000  0.01280000  0.04680000  1.0 0.031449032
C  C44  1  0.81200000  0.98720000  0.95320000  1.0 0.031449032
C  C45  1  0.18810000  0.48720000  0.45220000  1.0 0.031449032
C  C46  1  0.81190000  0.51280000  0.54780000  1.0 0.031449032
C  C47  1  0.30780000  0.54930000  0.99210000  1.0 0.031449032
C  C48  1  0.69220000  0.45070000  0.00790000  1.0 0.031449032
N  N1  1  0.59140000  0.84330000  0.17140000  1.0 -0.2009246745
N  N2  1  0.40860000  0.15670000  0.82860000  1.0 -0.2073459038
N  N3  1  0.90700000  0.66510000  0.16280000  1.0 -0.2009246745
N  N4  1  0.09300000  0.33490000  0.83720000  1.0 -0.2009246745
N  N5  1  0.59190000  0.65640000  0.32980000  1.0 -0.2073459038
N  N6  1  0.40810000  0.34360000  0.67020000  1.0 -0.2073459038
N  N7  1  0.90760000  0.83460000  0.33710000  1.0 -0.2009246745
N  N8  1  0.09240000  0.16540000  0.66290000  1.0 -0.2009246745
N  N9  1  0.06020000  0.53420000  0.48240000  1.0 -0.1898733599
N  N10  1  0.93980000  0.46580000  0.51760000  1.0 -0.1898733599
N  N11  1  0.05880000  0.96540000  0.01880000  1.0 -0.1898733599
N  N12  1  0.94120000  0.03460000  0.98120000  1.0 -0.1898733599
N  N13  1  0.44050000  0.51680000  0.03420000  1.0 -0.2073459038
N  N14  1  0.55950000  0.48320000  0.96580000  1.0 -0.2073459038
N  N15  1  0.43910000  0.98370000  0.46550000  1.0 -0.2073459038
N  N16  1  0.56090000  0.01630000  0.53450000  1.0 -0.2073459038
Cl  Cl1  1  0.22950000  0.74960000  0.75010000  1.0 1.1876209603
Cl  Cl2  1  0.77050000  0.25040000  0.24990000  1.0 1.1876209603
O  O1  1  0.14700000  0.65960000  0.75130000  1.0 -0.4144657625
O  O2  1  0.31900000  0.75430000  0.83650000  1.0 -0.4409052802
O  O3  1  0.15000000  0.83980000  0.74760000  1.0 -0.4014080984
O  O4  1  0.31900000  0.74640000  0.66440000  1.0 -0.4320152325
O  O5  1  0.85300000  0.34040000  0.24870000  1.0 -0.4144657625
O  O6  1  0.68100000  0.24570000  0.16350000  1.0 -0.4409052802
O  O7  1  0.85000000  0.16020000  0.25240000  1.0 -0.4014080984
O  O8  1  0.68100000  0.25360000  0.33560000  1.0 -0.4320152325
