# DDEC6 charges by PACMAN v1.1 (https://github.com/mtap-research/PACMAN-charge/)
data_ARINUL_ion_pacman
_symmetry_space_group_name_H-M   'P 1'
_cell_length_a   20.58600000
_cell_length_b   20.58600000
_cell_length_c   7.52200000
_cell_angle_alpha   90.00000000
_cell_angle_beta   90.00000000
_cell_angle_gamma   90.00000000
_symmetry_Int_Tables_number   1
_chemical_formula_structural   CuH28C28N8ClO4
_chemical_formula_sum   'Cu4 H112 C112 N32 Cl4 O16'
_cell_volume   3187.69870471
_cell_formula_units_Z   4
loop_
 _symmetry_equiv_pos_site_id
 _symmetry_equiv_pos_as_xyz
  1  'x, y, z'
loop_
 _atom_site_type_symbol
 _atom_site_label
 _atom_site_symmetry_multiplicity
 _atom_site_fract_x
 _atom_site_fract_y
 _atom_site_fract_z
 _atom_site_occupancy
 _atom_site_charge
Cu  Cu1  1  0.00000000  0.00000000  0.50000000  1.0 0.2177277521
Cu  Cu2  1  0.50000000  0.50000000  0.50000000  1.0 0.2177277521
Cu  Cu3  1  0.50000000  0.00000000  0.00000000  1.0 0.1885449529
Cu  Cu4  1  0.00000000  0.50000000  0.00000000  1.0 0.1885449529
H  H1  1  0.34410000  0.92360000  0.45640000  1.0 0.1382290941
H  H2  1  0.65590000  0.07640000  0.45640000  1.0 0.1382290941
H  H3  1  0.07640000  0.34410000  0.54360000  1.0 0.1382290941
H  H4  1  0.92360000  0.65590000  0.54360000  1.0 0.1382290941
H  H5  1  0.15590000  0.42360000  0.45640000  1.0 0.1382290941
H  H6  1  0.84410000  0.57640000  0.45640000  1.0 0.1382290941
H  H7  1  0.42360000  0.84410000  0.54360000  1.0 0.1382290941
H  H8  1  0.57640000  0.15590000  0.54360000  1.0 0.1382290941
H  H9  1  0.41870000  0.91660000  0.24440000  1.0 0.1061634958
H  H10  1  0.58130000  0.08340000  0.24440000  1.0 0.1061634958
H  H11  1  0.08340000  0.41870000  0.75560000  1.0 0.1061634958
H  H12  1  0.91660000  0.58130000  0.75560000  1.0 0.1061634958
H  H13  1  0.08130000  0.41660000  0.24440000  1.0 0.1061634958
H  H14  1  0.91870000  0.58340000  0.24440000  1.0 0.1061634958
H  H15  1  0.41660000  0.91870000  0.75560000  1.0 0.1061634958
H  H16  1  0.58340000  0.08130000  0.75560000  1.0 0.1061634958
H  H17  1  0.41310000  0.09870000  0.15590000  1.0 0.1029340789
H  H18  1  0.58690000  0.90130000  0.15590000  1.0 0.1029340789
H  H19  1  0.90130000  0.41310000  0.84410000  1.0 0.1029340789
H  H20  1  0.09870000  0.58690000  0.84410000  1.0 0.1029340789
H  H21  1  0.08690000  0.59870000  0.15590000  1.0 0.1029340789
H  H22  1  0.91310000  0.40130000  0.15590000  1.0 0.1029340789
H  H23  1  0.59870000  0.91310000  0.84410000  1.0 0.1029340789
H  H24  1  0.40130000  0.08690000  0.84410000  1.0 0.1029340789
H  H25  1  0.13760000  0.05040000  0.97360000  1.0 0.1294515024
H  H26  1  0.86240000  0.94960000  0.97360000  1.0 0.1294515024
H  H27  1  0.94960000  0.13760000  0.02640000  1.0 0.1294515024
H  H28  1  0.05040000  0.86240000  0.02640000  1.0 0.1294515024
H  H29  1  0.36240000  0.55040000  0.97360000  1.0 0.1294515024
H  H30  1  0.63760000  0.44960000  0.97360000  1.0 0.1294515024
H  H31  1  0.55040000  0.63760000  0.02640000  1.0 0.1294515024
H  H32  1  0.44960000  0.36240000  0.02640000  1.0 0.1294515024
H  H33  1  0.05630000  0.06330000  0.18310000  1.0 0.1029340789
H  H34  1  0.94370000  0.93670000  0.18310000  1.0 0.1029340789
H  H35  1  0.93670000  0.05630000  0.81690000  1.0 0.1029340789
H  H36  1  0.06330000  0.94370000  0.81690000  1.0 0.1029340789
H  H37  1  0.44370000  0.56330000  0.18310000  1.0 0.1029340789
H  H38  1  0.55630000  0.43670000  0.18310000  1.0 0.1029340789
H  H39  1  0.56330000  0.55630000  0.81690000  1.0 0.1029340789
H  H40  1  0.43670000  0.44370000  0.81690000  1.0 0.1029340789
H  H41  1  0.19850000  0.89800000  0.24540000  1.0 0.1382290941
H  H42  1  0.80150000  0.10200000  0.24540000  1.0 0.1382290941
H  H43  1  0.10200000  0.19850000  0.75460000  1.0 0.1382290941
H  H44  1  0.89800000  0.80150000  0.75460000  1.0 0.1382290941
H  H45  1  0.30150000  0.39800000  0.24540000  1.0 0.1382290941
H  H46  1  0.69850000  0.60200000  0.24540000  1.0 0.1382290941
H  H47  1  0.39800000  0.69850000  0.75460000  1.0 0.1382290941
H  H48  1  0.60200000  0.30150000  0.75460000  1.0 0.1382290941
H  H49  1  0.21410000  0.09390000  0.65930000  1.0 0.1382290941
H  H50  1  0.78590000  0.90610000  0.65930000  1.0 0.1382290941
H  H51  1  0.90610000  0.21410000  0.34070000  1.0 0.1382290941
H  H52  1  0.09390000  0.78590000  0.34070000  1.0 0.1382290941
H  H53  1  0.28590000  0.59390000  0.65930000  1.0 0.1382290941
H  H54  1  0.71410000  0.40610000  0.65930000  1.0 0.1382290941
H  H55  1  0.59390000  0.71410000  0.34070000  1.0 0.1382290941
H  H56  1  0.40610000  0.28590000  0.34070000  1.0 0.1382290941
H  H57  1  0.23930000  0.10690000  0.46590000  1.0 0.1294515024
H  H58  1  0.76070000  0.89310000  0.46590000  1.0 0.1294515024
H  H59  1  0.89310000  0.23930000  0.53410000  1.0 0.1294515024
H  H60  1  0.10690000  0.76070000  0.53410000  1.0 0.1294515024
H  H61  1  0.26070000  0.60690000  0.46590000  1.0 0.1294515024
H  H62  1  0.73930000  0.39310000  0.46590000  1.0 0.1294515024
H  H63  1  0.60690000  0.73930000  0.53410000  1.0 0.1294515024
H  H64  1  0.39310000  0.26070000  0.53410000  1.0 0.1294515024
H  H65  1  0.18590000  0.05410000  0.49940000  1.0 0.1382290941
H  H66  1  0.81410000  0.94590000  0.49940000  1.0 0.1382290941
H  H67  1  0.94590000  0.18590000  0.50060000  1.0 0.1382290941
H  H68  1  0.05410000  0.81410000  0.50060000  1.0 0.1382290941
H  H69  1  0.31410000  0.55410000  0.49940000  1.0 0.1382290941
H  H70  1  0.68590000  0.44590000  0.49940000  1.0 0.1382290941
H  H71  1  0.55410000  0.68590000  0.50060000  1.0 0.1382290941
H  H72  1  0.44590000  0.31410000  0.50060000  1.0 0.1382290941
H  H73  1  0.25420000  0.86900000  0.88970000  1.0 0.1631175369
H  H74  1  0.74580000  0.13100000  0.88970000  1.0 0.1631175369
H  H75  1  0.13100000  0.25420000  0.11030000  1.0 0.1631175369
H  H76  1  0.86900000  0.74580000  0.11030000  1.0 0.1631175369
H  H77  1  0.24580000  0.36900000  0.88970000  1.0 0.1631175369
H  H78  1  0.75420000  0.63100000  0.88970000  1.0 0.1631175369
H  H79  1  0.36900000  0.75420000  0.11030000  1.0 0.1631175369
H  H80  1  0.63100000  0.24580000  0.11030000  1.0 0.1631175369
H  H81  1  0.31160000  0.91900000  0.89120000  1.0 0.1382290941
H  H82  1  0.68840000  0.08100000  0.89120000  1.0 0.1382290941
H  H83  1  0.08100000  0.31160000  0.10880000  1.0 0.1382290941
H  H84  1  0.91900000  0.68840000  0.10880000  1.0 0.1382290941
H  H85  1  0.18840000  0.41900000  0.89120000  1.0 0.1382290941
H  H86  1  0.81160000  0.58100000  0.89120000  1.0 0.1382290941
H  H87  1  0.41900000  0.81160000  0.10880000  1.0 0.1382290941
H  H88  1  0.58100000  0.18840000  0.10880000  1.0 0.1382290941
H  H89  1  0.28230000  0.89390000  0.07090000  1.0 0.1458077818
H  H90  1  0.71770000  0.10610000  0.07090000  1.0 0.1458077818
H  H91  1  0.10610000  0.28230000  0.92910000  1.0 0.1458077818
H  H92  1  0.89390000  0.71770000  0.92910000  1.0 0.1458077818
H  H93  1  0.21770000  0.39390000  0.07090000  1.0 0.1458077818
H  H94  1  0.78230000  0.60610000  0.07090000  1.0 0.1458077818
H  H95  1  0.39390000  0.78230000  0.92910000  1.0 0.1458077818
H  H96  1  0.60610000  0.21770000  0.92910000  1.0 0.1458077818
H  H97  1  0.11750000  0.91540000  0.44640000  1.0 0.1029340789
H  H98  1  0.88250000  0.08460000  0.44640000  1.0 0.1029340789
H  H99  1  0.08460000  0.11750000  0.55360000  1.0 0.1029340789
H  H100  1  0.91540000  0.88250000  0.55360000  1.0 0.1029340789
H  H101  1  0.38250000  0.41540000  0.44640000  1.0 0.1029340789
H  H102  1  0.61750000  0.58460000  0.44640000  1.0 0.1029340789
H  H103  1  0.41540000  0.61750000  0.55360000  1.0 0.1029340789
H  H104  1  0.58460000  0.38250000  0.55360000  1.0 0.1029340789
H  H105  1  0.33460000  0.11240000  0.35970000  1.0 0.1294515024
H  H106  1  0.66540000  0.88760000  0.35970000  1.0 0.1294515024
H  H107  1  0.88760000  0.33460000  0.64030000  1.0 0.1294515024
H  H108  1  0.11240000  0.66540000  0.64030000  1.0 0.1294515024
H  H109  1  0.16540000  0.61240000  0.35970000  1.0 0.1294515024
H  H110  1  0.83460000  0.38760000  0.35970000  1.0 0.1294515024
H  H111  1  0.61240000  0.83460000  0.64030000  1.0 0.1294515024
H  H112  1  0.38760000  0.16540000  0.64030000  1.0 0.1294515024
C  C1  1  0.32490000  0.01780000  0.43050000  1.0 0.0724955971
C  C2  1  0.67510000  0.98220000  0.43050000  1.0 0.0724955971
C  C3  1  0.98220000  0.32490000  0.56950000  1.0 0.0724955971
C  C4  1  0.01780000  0.67510000  0.56950000  1.0 0.0724955971
C  C5  1  0.17510000  0.51780000  0.43050000  1.0 0.0724955971
C  C6  1  0.82490000  0.48220000  0.43050000  1.0 0.0724955971
C  C7  1  0.51780000  0.82490000  0.56950000  1.0 0.0724955971
C  C8  1  0.48220000  0.17510000  0.56950000  1.0 0.0724955971
C  C9  1  0.35530000  0.96080000  0.39300000  1.0 -0.1796567723
C  C10  1  0.64470000  0.03920000  0.39300000  1.0 -0.1796567723
C  C11  1  0.03920000  0.35530000  0.60700000  1.0 -0.1796567723
C  C12  1  0.96080000  0.64470000  0.60700000  1.0 -0.1796567723
C  C13  1  0.14470000  0.46080000  0.39300000  1.0 -0.1796567723
C  C14  1  0.85530000  0.53920000  0.39300000  1.0 -0.1796567723
C  C15  1  0.46080000  0.85530000  0.60700000  1.0 -0.1796567723
C  C16  1  0.53920000  0.14470000  0.60700000  1.0 -0.1796567723
C  C17  1  0.40120000  0.95740000  0.26700000  1.0 0.041764529
C  C18  1  0.59880000  0.04260000  0.26700000  1.0 0.041764529
C  C19  1  0.04260000  0.40120000  0.73300000  1.0 0.041764529
C  C20  1  0.95740000  0.59880000  0.73300000  1.0 0.041764529
C  C21  1  0.09880000  0.45740000  0.26700000  1.0 0.041764529
C  C22  1  0.90120000  0.54260000  0.26700000  1.0 0.041764529
C  C23  1  0.45740000  0.90120000  0.73300000  1.0 0.041764529
C  C24  1  0.54260000  0.09880000  0.73300000  1.0 0.041764529
C  C25  1  0.39780000  0.06210000  0.21490000  1.0 0.0334197782
C  C26  1  0.60220000  0.93790000  0.21490000  1.0 0.0334197782
C  C27  1  0.93790000  0.39780000  0.78510000  1.0 0.0334197782
C  C28  1  0.06210000  0.60220000  0.78510000  1.0 0.0334197782
C  C29  1  0.10220000  0.56210000  0.21490000  1.0 0.0334197782
C  C30  1  0.89780000  0.43790000  0.21490000  1.0 0.0334197782
C  C31  1  0.56210000  0.89780000  0.78510000  1.0 0.0334197782
C  C32  1  0.43790000  0.10220000  0.78510000  1.0 0.0334197782
C  C33  1  0.27420000  0.02570000  0.57100000  1.0 0.2416410088
C  C34  1  0.72580000  0.97430000  0.57100000  1.0 0.2416410088
C  C35  1  0.97430000  0.27420000  0.42900000  1.0 0.2416410088
C  C36  1  0.02570000  0.72580000  0.42900000  1.0 0.2416410088
C  C37  1  0.22580000  0.52570000  0.57100000  1.0 0.2416410088
C  C38  1  0.77420000  0.47430000  0.57100000  1.0 0.2416410088
C  C39  1  0.52570000  0.77420000  0.42900000  1.0 0.2416410088
C  C40  1  0.47430000  0.22580000  0.42900000  1.0 0.2416410088
C  C41  1  0.17810000  0.97230000  0.08510000  1.0 0.0632084325
C  C42  1  0.82190000  0.02770000  0.08510000  1.0 0.0632084325
C  C43  1  0.02770000  0.17810000  0.91490000  1.0 0.0632084325
C  C44  1  0.97230000  0.82190000  0.91490000  1.0 0.0632084325
C  C45  1  0.32190000  0.47230000  0.08510000  1.0 0.0632084325
C  C46  1  0.67810000  0.52770000  0.08510000  1.0 0.0632084325
C  C47  1  0.47230000  0.67810000  0.91490000  1.0 0.0632084325
C  C48  1  0.52770000  0.32190000  0.91490000  1.0 0.0632084325
C  C49  1  0.13490000  0.02180000  0.06920000  1.0 -0.1696443897
C  C50  1  0.86510000  0.97820000  0.06920000  1.0 -0.1696443897
C  C51  1  0.97820000  0.13490000  0.93080000  1.0 -0.1696443897
C  C52  1  0.02180000  0.86510000  0.93080000  1.0 -0.1696443897
C  C53  1  0.36510000  0.52180000  0.06920000  1.0 -0.1696443897
C  C54  1  0.63490000  0.47820000  0.06920000  1.0 -0.1696443897
C  C55  1  0.52180000  0.63490000  0.93080000  1.0 -0.1696443897
C  C56  1  0.47820000  0.36510000  0.93080000  1.0 -0.1696443897
C  C57  1  0.08600000  0.02970000  0.19800000  1.0 0.0058119375
C  C58  1  0.91400000  0.97030000  0.19800000  1.0 0.0058119375
C  C59  1  0.97030000  0.08600000  0.80200000  1.0 0.0058119375
C  C60  1  0.02970000  0.91400000  0.80200000  1.0 0.0058119375
C  C61  1  0.41400000  0.52970000  0.19800000  1.0 0.0058119375
C  C62  1  0.58600000  0.47030000  0.19800000  1.0 0.0058119375
C  C63  1  0.52970000  0.58600000  0.80200000  1.0 0.0058119375
C  C64  1  0.47030000  0.41400000  0.80200000  1.0 0.0058119375
C  C65  1  0.17040000  0.93290000  0.22880000  1.0 -0.1796567723
C  C66  1  0.82960000  0.06710000  0.22880000  1.0 -0.1796567723
C  C67  1  0.06710000  0.17040000  0.77120000  1.0 -0.1796567723
C  C68  1  0.93290000  0.82960000  0.77120000  1.0 -0.1796567723
C  C69  1  0.32960000  0.43290000  0.22880000  1.0 -0.1796567723
C  C70  1  0.67040000  0.56710000  0.22880000  1.0 -0.1796567723
C  C71  1  0.43290000  0.67040000  0.77120000  1.0 -0.1796567723
C  C72  1  0.56710000  0.32960000  0.77120000  1.0 -0.1796567723
C  C73  1  0.22660000  0.95840000  0.94950000  1.0 0.250799866
C  C74  1  0.77340000  0.04160000  0.94950000  1.0 0.250799866
C  C75  1  0.04160000  0.22660000  0.05050000  1.0 0.250799866
C  C76  1  0.95840000  0.77340000  0.05050000  1.0 0.250799866
C  C77  1  0.27340000  0.45840000  0.94950000  1.0 0.250799866
C  C78  1  0.72660000  0.54160000  0.94950000  1.0 0.250799866
C  C79  1  0.45840000  0.72660000  0.05050000  1.0 0.250799866
C  C80  1  0.54160000  0.27340000  0.05050000  1.0 0.250799866
C  C81  1  0.22420000  0.07420000  0.54700000  1.0 -0.4934227116
C  C82  1  0.77580000  0.92580000  0.54700000  1.0 -0.4934227116
C  C83  1  0.92580000  0.22420000  0.45300000  1.0 -0.4934227116
C  C84  1  0.07420000  0.77580000  0.45300000  1.0 -0.4934227116
C  C85  1  0.27580000  0.57420000  0.54700000  1.0 -0.4934227116
C  C86  1  0.72420000  0.42580000  0.54700000  1.0 -0.4934227116
C  C87  1  0.57420000  0.72420000  0.45300000  1.0 -0.4934227116
C  C88  1  0.42580000  0.27580000  0.45300000  1.0 -0.4934227116
C  C89  1  0.27250000  0.90570000  0.95000000  1.0 -0.5245274812
C  C90  1  0.72750000  0.09430000  0.95000000  1.0 -0.5245274812
C  C91  1  0.09430000  0.27250000  0.05000000  1.0 -0.5245274812
C  C92  1  0.90570000  0.72750000  0.05000000  1.0 -0.5245274812
C  C93  1  0.22750000  0.40570000  0.95000000  1.0 -0.5245274812
C  C94  1  0.77250000  0.59430000  0.95000000  1.0 -0.5245274812
C  C95  1  0.40570000  0.77250000  0.05000000  1.0 -0.5245274812
C  C96  1  0.59430000  0.22750000  0.05000000  1.0 -0.5245274812
C  C97  1  0.12100000  0.94400000  0.35110000  1.0 0.0724955971
C  C98  1  0.87900000  0.05600000  0.35110000  1.0 0.0724955971
C  C99  1  0.05600000  0.12100000  0.64890000  1.0 0.0724955971
C  C100  1  0.94400000  0.87900000  0.64890000  1.0 0.0724955971
C  C101  1  0.37900000  0.44400000  0.35110000  1.0 0.0724955971
C  C102  1  0.62100000  0.55600000  0.35110000  1.0 0.0724955971
C  C103  1  0.44400000  0.62100000  0.64890000  1.0 0.0724955971
C  C104  1  0.55600000  0.37900000  0.64890000  1.0 0.0724955971
C  C105  1  0.35040000  0.07080000  0.33700000  1.0 -0.1915577412
C  C106  1  0.64960000  0.92920000  0.33700000  1.0 -0.1915577412
C  C107  1  0.92920000  0.35040000  0.66300000  1.0 -0.1915577412
C  C108  1  0.07080000  0.64960000  0.66300000  1.0 -0.1915577412
C  C109  1  0.14960000  0.57080000  0.33700000  1.0 -0.1915577412
C  C110  1  0.85040000  0.42920000  0.33700000  1.0 -0.1915577412
C  C111  1  0.57080000  0.85040000  0.66300000  1.0 -0.1915577412
C  C112  1  0.42920000  0.14960000  0.66300000  1.0 -0.1915577412
N  N1  1  0.42370000  0.00590000  0.17320000  1.0 -0.1915577412
N  N2  1  0.57630000  0.99410000  0.17320000  1.0 -0.1915577412
N  N3  1  0.99410000  0.42370000  0.82680000  1.0 -0.1915577412
N  N4  1  0.00590000  0.57630000  0.82680000  1.0 -0.1915577412
N  N5  1  0.07630000  0.50590000  0.17320000  1.0 -0.1915577412
N  N6  1  0.92370000  0.49410000  0.17320000  1.0 -0.1915577412
N  N7  1  0.50590000  0.92370000  0.82680000  1.0 -0.1915577412
N  N8  1  0.49410000  0.07630000  0.82680000  1.0 -0.1915577412
N  N9  1  0.27880000  0.98840000  0.69400000  1.0 -0.2136255637
N  N10  1  0.72120000  0.01160000  0.69400000  1.0 -0.2136255637
N  N11  1  0.01160000  0.27880000  0.30600000  1.0 -0.2136255637
N  N12  1  0.98840000  0.72120000  0.30600000  1.0 -0.2136255637
N  N13  1  0.22120000  0.48840000  0.69400000  1.0 -0.2136255637
N  N14  1  0.77880000  0.51160000  0.69400000  1.0 -0.2136255637
N  N15  1  0.48840000  0.77880000  0.30600000  1.0 -0.2136255637
N  N16  1  0.51160000  0.22120000  0.30600000  1.0 -0.2136255637
N  N17  1  0.07980000  0.99090000  0.34250000  1.0 -0.2136255637
N  N18  1  0.92020000  0.00910000  0.34250000  1.0 -0.2136255637
N  N19  1  0.00910000  0.07980000  0.65750000  1.0 -0.2136255637
N  N20  1  0.99090000  0.92020000  0.65750000  1.0 -0.2136255637
N  N21  1  0.42020000  0.49090000  0.34250000  1.0 -0.2136255637
N  N22  1  0.57980000  0.50910000  0.34250000  1.0 -0.2136255637
N  N23  1  0.49090000  0.57980000  0.65750000  1.0 -0.2136255637
N  N24  1  0.50910000  0.42020000  0.65750000  1.0 -0.2136255637
N  N25  1  0.23100000  0.99760000  0.82800000  1.0 -0.2479269266
N  N26  1  0.76900000  0.00240000  0.82800000  1.0 -0.2479269266
N  N27  1  0.00240000  0.23100000  0.17200000  1.0 -0.2479269266
N  N28  1  0.99760000  0.76900000  0.17200000  1.0 -0.2479269266
N  N29  1  0.26900000  0.49760000  0.82800000  1.0 -0.2479269266
N  N30  1  0.73100000  0.50240000  0.82800000  1.0 -0.2479269266
N  N31  1  0.49760000  0.73100000  0.17200000  1.0 -0.2479269266
N  N32  1  0.50240000  0.26900000  0.17200000  1.0 -0.2479269266
Cl  Cl1  1  0.27180000  0.77180000  0.50000000  1.0 0.8485043585
Cl  Cl2  1  0.72820000  0.22820000  0.50000000  1.0 0.8485043585
Cl  Cl3  1  0.77180000  0.72820000  0.50000000  1.0 0.8485043585
Cl  Cl4  1  0.22820000  0.27180000  0.50000000  1.0 0.8485043585
O  O1  1  0.31020000  0.77810000  0.64300000  1.0 -0.3962753735
O  O2  1  0.27810000  0.81020000  0.35700000  1.0 -0.3962753735
O  O3  1  0.21940000  0.76700000  0.51800000  1.0 -0.1093710935
O  O4  1  0.26700000  0.71940000  0.48200000  1.0 -0.1093710935
O  O5  1  0.68980000  0.22190000  0.64300000  1.0 -0.3962753735
O  O6  1  0.72190000  0.18980000  0.35700000  1.0 -0.3962753735
O  O7  1  0.78060000  0.23300000  0.51800000  1.0 -0.1093710935
O  O8  1  0.73300000  0.28060000  0.48200000  1.0 -0.1093710935
O  O9  1  0.77810000  0.68980000  0.35700000  1.0 -0.3962753735
O  O10  1  0.81020000  0.72190000  0.64300000  1.0 -0.3962753735
O  O11  1  0.76700000  0.78060000  0.48200000  1.0 -0.1093710935
O  O12  1  0.71940000  0.73300000  0.51800000  1.0 -0.1093710935
O  O13  1  0.22190000  0.31020000  0.35700000  1.0 -0.3962753735
O  O14  1  0.18980000  0.27810000  0.64300000  1.0 -0.3962753735
O  O15  1  0.23300000  0.21940000  0.48200000  1.0 -0.1093710935
O  O16  1  0.28060000  0.26700000  0.51800000  1.0 -0.1093710935
