# DDEC6 charges by PACMAN v1.1 (https://github.com/mtap-research/PACMAN-charge/)
data_ARIQEA_ASR_pacman
_symmetry_space_group_name_H-M   'P 1'
_cell_length_a   8.57360000
_cell_length_b   13.07330000
_cell_length_c   21.47500000
_cell_angle_alpha   107.11000000
_cell_angle_beta   85.99100000
_cell_angle_gamma   106.12100000
_symmetry_Int_Tables_number   1
_chemical_formula_structural   EuH28C45NO6
_chemical_formula_sum   'Eu2 H56 C90 N2 O12'
_cell_volume   2209.85613903
_cell_formula_units_Z   2
loop_
 _symmetry_equiv_pos_site_id
 _symmetry_equiv_pos_as_xyz
  1  'x, y, z'
loop_
 _atom_site_type_symbol
 _atom_site_label
 _atom_site_symmetry_multiplicity
 _atom_site_fract_x
 _atom_site_fract_y
 _atom_site_fract_z
 _atom_site_occupancy
 _atom_site_charge
Eu  Eu1  1  0.15514000  0.35792000  0.50015000  1.0 2.0005868079
Eu  Eu2  1  0.84486000  0.64208000  0.49985000  1.0 2.0005868079
H  H1  1  0.86650000  0.50830000  0.30060000  1.0 0.1193221007
H  H2  1  0.87510000  0.44910000  0.18940000  1.0 0.1193221007
H  H3  1  0.12320000  0.23350000  0.19570000  1.0 0.1102423875
H  H4  1  0.11070000  0.29020000  0.30830000  1.0 0.1193221007
H  H5  1  0.05110000  0.45430000  0.09660000  1.0 0.1193221007
H  H6  1  0.07780000  0.40580000  0.98500000  1.0 0.1290032022
H  H7  1  0.01490000  0.08940000  0.98450000  1.0 0.1290032022
H  H8  1  0.98740000  0.13920000  0.09470000  1.0 0.1193221007
H  H9  1  0.77490000  0.26130000  0.92650000  1.0 0.1193221007
H  H10  1  0.11150000  0.24660000  0.79150000  1.0 0.1102423875
H  H11  1  0.95060000  0.29200000  0.72630000  1.0 0.1102423875
H  H12  1  0.61840000  0.30460000  0.86220000  1.0 0.0990278835
H  H13  1  0.96570000  0.03240000  0.80480000  1.0 0.1193221007
H  H14  1  0.77760000  0.96500000  0.68600000  1.0 0.1193221007
H  H15  1  0.41620000  0.68620000  0.66150000  1.0 0.1290032022
H  H16  1  0.27630000  0.78080000  0.74120000  1.0 0.1102423875
H  H17  1  0.62940000  0.05550000  0.76430000  1.0 0.1102423875
H  H18  1  0.12450000  0.92380000  0.74120000  1.0 0.1193221007
H  H19  1  0.48910000  0.08400000  0.87300000  1.0 0.1102423875
H  H20  1  0.34390000  0.20300000  0.93230000  1.0 0.1193221007
H  H21  1  0.45470000  0.25850000  0.77680000  1.0 0.0990278835
H  H22  1  0.84410000  0.36260000  0.67350000  1.0 0.0990278835
H  H23  1  0.67550000  0.37680000  0.59830000  1.0 0.1193221007
H  H24  1  0.28600000  0.27260000  0.70160000  1.0 0.1102423875
H  H25  1  0.42680000  0.19170000  0.75810000  1.0 0.089986332
H  H26  1  0.78050000  0.44840000  0.72930000  1.0 0.0990278835
H  H27  1  0.62250000  0.45970000  0.64950000  1.0 0.1102423875
H  H28  1  0.26870000  0.20310000  0.67830000  1.0 0.0990278835
H  H29  1  0.13350000  0.49170000  0.69940000  1.0 0.1193221007
H  H30  1  0.12490000  0.55090000  0.81060000  1.0 0.1193221007
H  H31  1  0.87680000  0.76650000  0.80430000  1.0 0.1102423875
H  H32  1  0.88930000  0.70980000  0.69170000  1.0 0.1193221007
H  H33  1  0.94890000  0.54570000  0.90340000  1.0 0.1193221007
H  H34  1  0.92220000  0.59420000  0.01500000  1.0 0.1290032022
H  H35  1  0.98510000  0.91060000  0.01550000  1.0 0.1290032022
H  H36  1  0.01260000  0.86080000  0.90530000  1.0 0.1193221007
H  H37  1  0.22510000  0.73870000  0.07350000  1.0 0.1193221007
H  H38  1  0.88850000  0.75340000  0.20850000  1.0 0.1102423875
H  H39  1  0.04940000  0.70800000  0.27370000  1.0 0.1102423875
H  H40  1  0.38160000  0.69540000  0.13780000  1.0 0.0990278835
H  H41  1  0.03430000  0.96760000  0.19520000  1.0 0.1193221007
H  H42  1  0.22240000  0.03500000  0.31400000  1.0 0.1193221007
H  H43  1  0.58380000  0.31380000  0.33850000  1.0 0.1290032022
H  H44  1  0.72370000  0.21920000  0.25880000  1.0 0.1102423875
H  H45  1  0.37060000  0.94450000  0.23570000  1.0 0.1102423875
H  H46  1  0.87550000  0.07620000  0.25880000  1.0 0.1193221007
H  H47  1  0.51090000  0.91600000  0.12700000  1.0 0.1102423875
H  H48  1  0.65610000  0.79700000  0.06770000  1.0 0.1193221007
H  H49  1  0.54530000  0.74150000  0.22320000  1.0 0.0990278835
H  H50  1  0.15590000  0.63740000  0.32650000  1.0 0.0990278835
H  H51  1  0.32450000  0.62320000  0.40170000  1.0 0.1193221007
H  H52  1  0.71400000  0.72740000  0.29840000  1.0 0.1102423875
H  H53  1  0.57320000  0.80830000  0.24190000  1.0 0.089986332
H  H54  1  0.21950000  0.55160000  0.27070000  1.0 0.0990278835
H  H55  1  0.37750000  0.54030000  0.35050000  1.0 0.1102423875
H  H56  1  0.73130000  0.79690000  0.32170000  1.0 0.0990278835
C  C1  1  0.98650000  0.44150000  0.38910000  1.0 0.6340397003
C  C2  1  0.99260000  0.40650000  0.31650000  1.0 -0.0424497814
C  C3  1  0.91870000  0.45390000  0.28000000  1.0 -0.1616488283
C  C4  1  0.92510000  0.41830000  0.21360000  1.0 -0.1616488283
C  C5  1  0.00550000  0.33570000  0.17940000  1.0 0.0717425349
C  C6  1  0.07260000  0.28880000  0.21610000  1.0 -0.1489792762
C  C7  1  0.06540000  0.32350000  0.28420000  1.0 -0.1109843401
C  C8  1  0.02180000  0.30450000  0.10820000  1.0 0.0576170196
C  C9  1  0.04500000  0.38070000  0.07400000  1.0 -0.1374068519
C  C10  1  0.05900000  0.35180000  0.00680000  1.0 -0.180162817
C  C11  1  0.04670000  0.24370000  0.97290000  1.0 0.171536986
C  C12  1  0.02200000  0.16310000  0.00720000  1.0 -0.180162817
C  C13  1  0.00700000  0.19310000  0.07280000  1.0 -0.1293954027
C  C14  1  0.81100000  0.26540000  0.88520000  1.0 -0.1678253708
C  C15  1  0.95800000  0.24540000  0.86450000  1.0 0.1551960858
C  C16  1  0.01100000  0.25660000  0.80610000  1.0 -0.2216196356
C  C17  1  0.91200000  0.28380000  0.76660000  1.0 -0.2488180993
C  C18  1  0.76300000  0.29860000  0.78480000  1.0 0.0576170196
C  C19  1  0.71700000  0.29140000  0.84640000  1.0 -0.2021365461
C  C20  1  0.14100000  0.13330000  0.87270000  1.0 0.171536986
C  C21  1  0.07300000  0.04530000  0.81650000  1.0 -0.205516651
C  C22  1  0.60500000  0.81660000  0.66170000  1.0 -0.0063592499
C  C23  1  0.67300000  0.92820000  0.69520000  1.0 -0.0909263638
C  C24  1  0.45900000  0.76200000  0.68060000  1.0 -0.0909263638
C  C25  1  0.37500000  0.81940000  0.72760000  1.0 -0.1374068519
C  C26  1  0.58400000  0.98170000  0.74140000  1.0 -0.180162817
C  C27  1  0.42900000  0.93040000  0.75530000  1.0 0.0778793248
C  C28  1  0.33300000  0.99990000  0.80290000  1.0 0.0518176856
C  C29  1  0.16500000  0.97900000  0.77930000  1.0 -0.1489792762
C  C30  1  0.69030000  0.75540000  0.60530000  1.0 0.5747660997
C  C31  1  0.38600000  0.07710000  0.85800000  1.0 -0.1218452749
C  C32  1  0.30000000  0.14780000  0.89460000  1.0 -0.2021365461
C  C33  1  0.34700000  0.33440000  0.59770000  1.0 0.4134425821
C  C34  1  0.49900000  0.28220000  0.74100000  1.0 -0.0489621042
C  C35  1  0.66600000  0.30910000  0.73260000  1.0 0.0518176856
C  C36  1  0.73220000  0.34460000  0.67910000  1.0 -0.0818932129
C  C37  1  0.63100000  0.35310000  0.63400000  1.0 -0.0489621042
C  C38  1  0.46400000  0.32610000  0.64250000  1.0 -0.0024898773
C  C39  1  0.39790000  0.29070000  0.69600000  1.0 -0.0621736485
C  C40  1  0.46600000  0.24540000  0.73630000  1.0 -0.0818932129
C  C41  1  0.61900000  0.31900000  0.75160000  1.0 0.0576170196
C  C42  1  0.67800000  0.39900000  0.71910000  1.0 -0.0712622029
C  C43  1  0.58300000  0.40600000  0.67130000  1.0 -0.0621736485
C  C44  1  0.43000000  0.33300000  0.65600000  1.0 0.002005006
C  C45  1  0.37100000  0.25200000  0.68850000  1.0 -0.0489621042
C  C46  1  0.01350000  0.55850000  0.61090000  1.0 0.6340397003
C  C47  1  0.00740000  0.59350000  0.68350000  1.0 -0.0424497814
C  C48  1  0.08130000  0.54610000  0.72000000  1.0 -0.1616488283
C  C49  1  0.07490000  0.58170000  0.78640000  1.0 -0.1616488283
C  C50  1  0.99450000  0.66430000  0.82060000  1.0 0.0717425349
C  C51  1  0.92740000  0.71120000  0.78390000  1.0 -0.1489792762
C  C52  1  0.93460000  0.67650000  0.71580000  1.0 -0.1109843401
C  C53  1  0.97820000  0.69550000  0.89180000  1.0 0.0576170196
C  C54  1  0.95500000  0.61930000  0.92600000  1.0 -0.1374068519
C  C55  1  0.94100000  0.64820000  0.99320000  1.0 -0.180162817
C  C56  1  0.95330000  0.75630000  0.02710000  1.0 0.171536986
C  C57  1  0.97800000  0.83690000  0.99280000  1.0 -0.180162817
C  C58  1  0.99300000  0.80690000  0.92720000  1.0 -0.1293954027
C  C59  1  0.18900000  0.73460000  0.11480000  1.0 -0.1678253708
C  C60  1  0.04200000  0.75460000  0.13550000  1.0 0.1551960858
C  C61  1  0.98900000  0.74340000  0.19390000  1.0 -0.2216196356
C  C62  1  0.08800000  0.71620000  0.23340000  1.0 -0.2488180993
C  C63  1  0.23700000  0.70140000  0.21520000  1.0 0.0576170196
C  C64  1  0.28300000  0.70860000  0.15360000  1.0 -0.2021365461
C  C65  1  0.85900000  0.86670000  0.12730000  1.0 0.171536986
C  C66  1  0.92700000  0.95470000  0.18350000  1.0 -0.205516651
C  C67  1  0.39500000  0.18340000  0.33830000  1.0 -0.0063592499
C  C68  1  0.32700000  0.07180000  0.30480000  1.0 -0.0909263638
C  C69  1  0.54100000  0.23800000  0.31940000  1.0 -0.0909263638
C  C70  1  0.62500000  0.18060000  0.27240000  1.0 -0.1374068519
C  C71  1  0.41600000  0.01830000  0.25860000  1.0 -0.180162817
C  C72  1  0.57100000  0.06960000  0.24470000  1.0 0.0778793248
C  C73  1  0.66700000  0.00010000  0.19710000  1.0 0.0576170196
C  C74  1  0.83500000  0.02100000  0.22070000  1.0 -0.1489792762
C  C75  1  0.30970000  0.24460000  0.39470000  1.0 0.5747660997
C  C76  1  0.61400000  0.92290000  0.14200000  1.0 -0.1218452749
C  C77  1  0.70000000  0.85220000  0.10540000  1.0 -0.2021365461
C  C78  1  0.65300000  0.66560000  0.40230000  1.0 0.4134425821
C  C79  1  0.50100000  0.71780000  0.25900000  1.0 -0.0489621042
C  C80  1  0.33400000  0.69090000  0.26740000  1.0 0.0518176856
C  C81  1  0.26780000  0.65540000  0.32090000  1.0 -0.0818932129
C  C82  1  0.36900000  0.64690000  0.36600000  1.0 -0.0489621042
C  C83  1  0.53600000  0.67390000  0.35750000  1.0 -0.0024898773
C  C84  1  0.60210000  0.70930000  0.30400000  1.0 -0.0621736485
C  C85  1  0.53400000  0.75460000  0.26370000  1.0 -0.0818932129
C  C86  1  0.38100000  0.68100000  0.24840000  1.0 0.0576170196
C  C87  1  0.32200000  0.60100000  0.28090000  1.0 -0.0712622029
C  C88  1  0.41700000  0.59400000  0.32870000  1.0 -0.0621736485
C  C89  1  0.57000000  0.66700000  0.34400000  1.0 0.002005006
C  C90  1  0.62900000  0.74800000  0.31150000  1.0 -0.0489621042
N  N1  1  0.05100000  0.20990000  0.90350000  1.0 -0.180162817
N  N2  1  0.94900000  0.79010000  0.09650000  1.0 -0.180162817
O  O1  1  0.00860000  0.38070000  0.42080000  1.0 -0.6988595722
O  O2  1  0.96470000  0.53540000  0.41540000  1.0 -0.6988595722
O  O3  1  0.19840000  0.28640000  0.59150000  1.0 -0.5404630003
O  O4  1  0.64280000  0.65310000  0.58280000  1.0 -0.6052390334
O  O5  1  0.81270000  0.81120000  0.58270000  1.0 -0.6414210794
O  O6  1  0.40600000  0.38470000  0.55480000  1.0 -0.5674605963
O  O7  1  0.99140000  0.61930000  0.57920000  1.0 -0.6988595722
O  O8  1  0.03530000  0.46460000  0.58460000  1.0 -0.6988595722
O  O9  1  0.80160000  0.71360000  0.40850000  1.0 -0.5404630003
O  O10  1  0.35720000  0.34690000  0.41720000  1.0 -0.6052390334
O  O11  1  0.18730000  0.18880000  0.41730000  1.0 -0.6414210794
O  O12  1  0.59400000  0.61530000  0.44520000  1.0 -0.5674605963
