# DDEC6 charges by PACMAN v1.1 (https://github.com/mtap-research/PACMAN-charge/)
data_ARUROX_ASR_pacman
_symmetry_space_group_name_H-M   'P 1'
_cell_length_a   12.47000000
_cell_length_b   12.47000000
_cell_length_c   13.28710000
_cell_angle_alpha   88.60230000
_cell_angle_beta   91.39770000
_cell_angle_gamma   66.66780000
_symmetry_Int_Tables_number   1
_chemical_formula_structural   AlH9C16O11
_chemical_formula_sum   'Al4 H36 C64 O44'
_cell_volume   1895.32396476
_cell_formula_units_Z   4
loop_
 _symmetry_equiv_pos_site_id
 _symmetry_equiv_pos_as_xyz
  1  'x, y, z'
loop_
 _atom_site_type_symbol
 _atom_site_label
 _atom_site_symmetry_multiplicity
 _atom_site_fract_x
 _atom_site_fract_y
 _atom_site_fract_z
 _atom_site_occupancy
 _atom_site_charge
Al  Al1  1  0.00000000  0.00000000  0.00000000  1.0 1.5782763995
Al  Al2  1  0.00000000  0.00000000  0.50000000  1.0 1.5782763995
Al  Al3  1  0.99671000  0.99671000  0.25000000  1.0 1.5708175934
Al  Al4  1  0.00329000  0.00329000  0.75000000  1.0 1.5708175934
H  H1  1  0.12800000  0.90000000  0.13090000  1.0 0.3159125633
H  H2  1  0.91880000  0.35900000  0.26370000  1.0 0.1194448909
H  H3  1  0.87870000  0.35270000  0.96330000  1.0 0.1194448909
H  H4  1  0.84190000  0.65290000  0.09540000  1.0 0.1194448909
H  H5  1  0.94900000  0.69140000  0.23410000  1.0 0.1270339526
H  H6  1  0.91500000  0.71100000  0.53390000  1.0 0.1270339526
H  H7  1  0.80970000  0.49470000  0.38010000  1.0 0.1113728426
H  H8  1  0.09800000  0.87200000  0.12980000  1.0 0.3140033446
H  H9  1  0.82500000  0.56700000  0.74400000  1.0 0.2805398144
H  H10  1  0.90000000  0.12800000  0.36910000  1.0 0.3159125633
H  H11  1  0.35900000  0.91880000  0.23630000  1.0 0.1194448909
H  H12  1  0.35270000  0.87870000  0.53670000  1.0 0.1194448909
H  H13  1  0.65290000  0.84190000  0.40460000  1.0 0.1194448909
H  H14  1  0.69140000  0.94900000  0.26590000  1.0 0.1270339526
H  H15  1  0.71100000  0.91500000  0.96610000  1.0 0.1270339526
H  H16  1  0.49470000  0.80970000  0.11990000  1.0 0.1113728426
H  H17  1  0.87200000  0.09800000  0.37020000  1.0 0.3140033446
H  H18  1  0.56700000  0.82500000  0.75600000  1.0 0.2805398144
H  H19  1  0.87200000  0.10000000  0.86910000  1.0 0.3159125633
H  H20  1  0.08120000  0.64100000  0.73630000  1.0 0.1194448909
H  H21  1  0.12130000  0.64730000  0.03670000  1.0 0.1194448909
H  H22  1  0.15810000  0.34710000  0.90460000  1.0 0.1194448909
H  H23  1  0.05100000  0.30860000  0.76590000  1.0 0.1194448909
H  H24  1  0.08500000  0.28900000  0.46610000  1.0 0.1270339526
H  H25  1  0.19030000  0.50530000  0.61990000  1.0 0.1113728426
H  H26  1  0.90200000  0.12800000  0.87020000  1.0 0.3140033446
H  H27  1  0.17500000  0.43300000  0.25600000  1.0 0.2805398144
H  H28  1  0.10000000  0.87200000  0.63090000  1.0 0.3159125633
H  H29  1  0.64100000  0.08120000  0.76370000  1.0 0.1113728426
H  H30  1  0.64730000  0.12130000  0.46330000  1.0 0.1194448909
H  H31  1  0.34710000  0.15810000  0.59540000  1.0 0.1194448909
H  H32  1  0.30860000  0.05100000  0.73410000  1.0 0.1194448909
H  H33  1  0.28900000  0.08500000  0.03390000  1.0 0.1270339526
H  H34  1  0.50530000  0.19030000  0.88010000  1.0 0.1113728426
H  H35  1  0.12800000  0.90200000  0.62980000  1.0 0.3140033446
H  H36  1  0.43300000  0.17500000  0.24400000  1.0 0.2805398144
C  C1  1  0.87520000  0.51920000  0.19600000  1.0 0.0709731317
C  C2  1  0.90180000  0.39820000  0.20110000  1.0 -0.129060035
C  C3  1  0.90320000  0.33640000  0.11630000  1.0 -0.0326096341
C  C4  1  0.87900000  0.39340000  0.02100000  1.0 -0.1117608939
C  C5  1  0.85510000  0.51450000  0.01480000  1.0 -0.021881829
C  C6  1  0.85530000  0.57410000  0.10110000  1.0 -0.129060035
C  C7  1  0.87880000  0.58140000  0.29040000  1.0 0.0828288458
C  C8  1  0.92500000  0.66760000  0.29320000  1.0 -0.1577121988
C  C9  1  0.93510000  0.71750000  0.38340000  1.0 -0.0373440415
C  C10  1  0.90370000  0.68050000  0.47330000  1.0 -0.129060035
C  C11  1  0.85530000  0.59750000  0.47200000  1.0 -0.0794682794
C  C12  1  0.84300000  0.54960000  0.38060000  1.0 -0.1897195206
C  C13  1  0.93690000  0.20810000  0.12220000  1.0 0.6407761462
C  C14  1  0.83680000  0.57440000  0.91220000  1.0 0.5515784807
C  C15  1  0.98110000  0.81450000  0.38440000  1.0 0.6407761462
C  C16  1  0.81900000  0.55880000  0.56840000  1.0 0.3961392752
C  C17  1  0.51920000  0.87520000  0.30400000  1.0 0.0709731317
C  C18  1  0.39820000  0.90180000  0.29890000  1.0 -0.129060035
C  C19  1  0.33640000  0.90320000  0.38370000  1.0 -0.0326096341
C  C20  1  0.39340000  0.87900000  0.47900000  1.0 -0.1117608939
C  C21  1  0.51450000  0.85510000  0.48520000  1.0 -0.021881829
C  C22  1  0.57410000  0.85530000  0.39890000  1.0 -0.129060035
C  C23  1  0.58140000  0.87880000  0.20960000  1.0 0.0828288458
C  C24  1  0.66760000  0.92500000  0.20680000  1.0 -0.1577121988
C  C25  1  0.71750000  0.93510000  0.11660000  1.0 -0.0373440415
C  C26  1  0.68050000  0.90370000  0.02670000  1.0 -0.129060035
C  C27  1  0.59750000  0.85530000  0.02800000  1.0 -0.0794682794
C  C28  1  0.54960000  0.84300000  0.11940000  1.0 -0.1897195206
C  C29  1  0.20810000  0.93690000  0.37780000  1.0 0.6407761462
C  C30  1  0.57440000  0.83680000  0.58780000  1.0 0.5515784807
C  C31  1  0.81450000  0.98110000  0.11560000  1.0 0.6407761462
C  C32  1  0.55880000  0.81900000  0.93160000  1.0 0.3961392752
C  C33  1  0.12480000  0.48080000  0.80400000  1.0 0.0709731317
C  C34  1  0.09820000  0.60180000  0.79890000  1.0 -0.129060035
C  C35  1  0.09680000  0.66360000  0.88370000  1.0 -0.0326096341
C  C36  1  0.12100000  0.60660000  0.97900000  1.0 -0.1117608939
C  C37  1  0.14490000  0.48550000  0.98520000  1.0 -0.021881829
C  C38  1  0.14470000  0.42590000  0.89890000  1.0 -0.129060035
C  C39  1  0.12120000  0.41860000  0.70960000  1.0 0.0828288458
C  C40  1  0.07500000  0.33240000  0.70680000  1.0 -0.1577121988
C  C41  1  0.06490000  0.28250000  0.61660000  1.0 -0.0373440415
C  C42  1  0.09630000  0.31950000  0.52670000  1.0 -0.129060035
C  C43  1  0.14470000  0.40250000  0.52800000  1.0 -0.0794682794
C  C44  1  0.15700000  0.45040000  0.61940000  1.0 -0.1897195206
C  C45  1  0.06310000  0.79190000  0.87780000  1.0 0.6407761462
C  C46  1  0.16320000  0.42560000  0.08780000  1.0 0.5515784807
C  C47  1  0.01890000  0.18550000  0.61560000  1.0 0.6407761462
C  C48  1  0.18100000  0.44120000  0.43160000  1.0 0.3961392752
C  C49  1  0.48080000  0.12480000  0.69600000  1.0 0.0709731317
C  C50  1  0.60180000  0.09820000  0.70110000  1.0 -0.129060035
C  C51  1  0.66360000  0.09680000  0.61630000  1.0 -0.0326096341
C  C52  1  0.60660000  0.12100000  0.52100000  1.0 -0.1117608939
C  C53  1  0.48550000  0.14490000  0.51480000  1.0 -0.021881829
C  C54  1  0.42590000  0.14470000  0.60110000  1.0 -0.129060035
C  C55  1  0.41860000  0.12120000  0.79040000  1.0 0.0828288458
C  C56  1  0.33240000  0.07500000  0.79320000  1.0 -0.1577121988
C  C57  1  0.28250000  0.06490000  0.88340000  1.0 -0.0373440415
C  C58  1  0.31950000  0.09630000  0.97330000  1.0 -0.129060035
C  C59  1  0.40250000  0.14470000  0.97200000  1.0 -0.0794682794
C  C60  1  0.45040000  0.15700000  0.88060000  1.0 -0.1897195206
C  C61  1  0.79190000  0.06310000  0.62220000  1.0 0.6407761462
C  C62  1  0.42560000  0.16320000  0.41220000  1.0 0.5515784807
C  C63  1  0.18550000  0.01890000  0.88440000  1.0 0.6407761462
C  C64  1  0.44120000  0.18100000  0.06840000  1.0 0.3961392752
O  O1  1  0.05910000  0.94410000  0.12870000  1.0 -0.7605633103
O  O2  1  0.93420000  0.15660000  0.04070000  1.0 -0.6186876558
O  O3  1  0.96880000  0.15560000  0.20740000  1.0 -0.6000730358
O  O4  1  0.82500000  0.52140000  0.83610000  1.0 -0.5505702459
O  O5  1  0.83460000  0.67720000  0.90770000  1.0 -0.6000730358
O  O6  1  0.97870000  0.86070000  0.46920000  1.0 -0.6186876558
O  O7  1  0.01320000  0.84460000  0.30250000  1.0 -0.6186876558
O  O8  1  0.83390000  0.59990000  0.65170000  1.0 -0.0794682794
O  O9  1  0.77520000  0.47720000  0.56090000  1.0 -0.0459248722
O  O10  1  0.87590000  0.56590000  0.64880000  1.0 -0.0794682794
O  O11  1  0.72890000  0.52890000  0.56520000  1.0 0.0010880477
O  O12  1  0.94410000  0.05910000  0.37130000  1.0 -0.7605633103
O  O13  1  0.15660000  0.93420000  0.45930000  1.0 -0.6186876558
O  O14  1  0.15560000  0.96880000  0.29260000  1.0 -0.6000730358
O  O15  1  0.52140000  0.82500000  0.66390000  1.0 -0.5505702459
O  O16  1  0.67720000  0.83460000  0.59230000  1.0 -0.6000730358
O  O17  1  0.86070000  0.97870000  0.03080000  1.0 -0.6186876558
O  O18  1  0.84460000  0.01320000  0.19750000  1.0 -0.6186876558
O  O19  1  0.59990000  0.83390000  0.84830000  1.0 -0.0794682794
O  O20  1  0.47720000  0.77520000  0.93910000  1.0 -0.0459248722
O  O21  1  0.56590000  0.87590000  0.85120000  1.0 -0.0868111216
O  O22  1  0.52890000  0.72890000  0.93480000  1.0 0.0096501912
O  O23  1  0.94090000  0.05590000  0.87130000  1.0 -0.7605633103
O  O24  1  0.06580000  0.84340000  0.95930000  1.0 -0.6186876558
O  O25  1  0.03120000  0.84440000  0.79260000  1.0 -0.6000730358
O  O26  1  0.17500000  0.47860000  0.16390000  1.0 -0.5505702459
O  O27  1  0.16540000  0.32280000  0.09230000  1.0 -0.6000730358
O  O28  1  0.02130000  0.13930000  0.53080000  1.0 -0.6186876558
O  O29  1  0.98680000  0.15540000  0.69750000  1.0 -0.6186876558
O  O30  1  0.16610000  0.40010000  0.34830000  1.0 -0.0794682794
O  O31  1  0.22480000  0.52280000  0.43910000  1.0 -0.0373440415
O  O32  1  0.12410000  0.43410000  0.35120000  1.0 -0.0868111216
O  O33  1  0.27110000  0.47110000  0.43480000  1.0 0.0010880477
O  O34  1  0.05590000  0.94090000  0.62870000  1.0 -0.7605633103
O  O35  1  0.84340000  0.06580000  0.54070000  1.0 -0.6186876558
O  O36  1  0.84440000  0.03120000  0.70740000  1.0 -0.6000730358
O  O37  1  0.47860000  0.17500000  0.33610000  1.0 -0.5505702459
O  O38  1  0.32280000  0.16540000  0.40770000  1.0 -0.6000730358
O  O39  1  0.13930000  0.02130000  0.96920000  1.0 -0.6186876558
O  O40  1  0.15540000  0.98680000  0.80250000  1.0 -0.6186876558
O  O41  1  0.40010000  0.16610000  0.15170000  1.0 -0.0794682794
O  O42  1  0.52280000  0.22480000  0.06090000  1.0 -0.0459248722
O  O43  1  0.43410000  0.12410000  0.14880000  1.0 -0.0794682794
O  O44  1  0.47110000  0.27110000  0.06520000  1.0 0.0096501912
