# DDEC6 charges by PACMAN v1.1 (https://github.com/mtap-research/PACMAN-charge/)
data_ARUYUH_ASR_pacman
_symmetry_space_group_name_H-M   'P 1'
_cell_length_a   8.93060000
_cell_length_b   9.81620000
_cell_length_c   23.28400000
_cell_angle_alpha   90.00000000
_cell_angle_beta   90.00000000
_cell_angle_gamma   90.00000000
_symmetry_Int_Tables_number   1
_chemical_formula_structural   Zn3P4(HO3)4
_chemical_formula_sum   'Zn12 P16 H16 O48'
_cell_volume   2041.18151538
_cell_formula_units_Z   4
loop_
 _symmetry_equiv_pos_site_id
 _symmetry_equiv_pos_as_xyz
  1  'x, y, z'
loop_
 _atom_site_type_symbol
 _atom_site_label
 _atom_site_symmetry_multiplicity
 _atom_site_fract_x
 _atom_site_fract_y
 _atom_site_fract_z
 _atom_site_occupancy
 _atom_site_charge
Zn  Zn1  1  0.21892000  0.44051000  0.54696000  1.0 1.1327887141
Zn  Zn2  1  0.78108000  0.94051000  0.04696000  1.0 1.1406043185
Zn  Zn3  1  0.71892000  0.44051000  0.95304000  1.0 1.1406043185
Zn  Zn4  1  0.71892000  0.05949000  0.54696000  1.0 1.1406043185
Zn  Zn5  1  0.78108000  0.55949000  0.45304000  1.0 1.1327887141
Zn  Zn6  1  0.21892000  0.05949000  0.95304000  1.0 1.1406043185
Zn  Zn7  1  0.28108000  0.55949000  0.04696000  1.0 1.1327887141
Zn  Zn8  1  0.28108000  0.94051000  0.45304000  1.0 1.1406043185
Zn  Zn9  1  0.01889000  0.25000000  0.75000000  1.0 1.1457026167
Zn  Zn10  1  0.98111000  0.75000000  0.25000000  1.0 1.1406043185
Zn  Zn11  1  0.51889000  0.25000000  0.75000000  1.0 1.1406043185
Zn  Zn12  1  0.48111000  0.75000000  0.25000000  1.0 1.1406043185
P  P1  1  0.93735000  0.28715000  0.49715000  1.0 1.1197505904
P  P2  1  0.06265000  0.78715000  0.99715000  1.0 1.1197505904
P  P3  1  0.43735000  0.28715000  0.00285000  1.0 1.1197505904
P  P4  1  0.43735000  0.21285000  0.49715000  1.0 1.1197505904
P  P5  1  0.06265000  0.71285000  0.50285000  1.0 1.1197505904
P  P6  1  0.93735000  0.21285000  0.00285000  1.0 1.1197505904
P  P7  1  0.56265000  0.71285000  0.99715000  1.0 1.1197505904
P  P8  1  0.56265000  0.78715000  0.50285000  1.0 1.1197505904
P  P9  1  0.26368000  0.42532000  0.68444000  1.0 1.2122860713
P  P10  1  0.73632000  0.92532000  0.18444000  1.0 1.2122860713
P  P11  1  0.76368000  0.42532000  0.81556000  1.0 1.2122860713
P  P12  1  0.76368000  0.07468000  0.68444000  1.0 1.217104779
P  P13  1  0.73632000  0.57468000  0.31556000  1.0 1.217104779
P  P14  1  0.26368000  0.07468000  0.81556000  1.0 1.217104779
P  P15  1  0.23632000  0.57468000  0.18444000  1.0 1.217104779
P  P16  1  0.23632000  0.92532000  0.31556000  1.0 1.2122860713
H  H1  1  0.01900000  0.29300000  0.45490000  1.0 -0.1306513889
H  H2  1  0.98100000  0.79300000  0.95490000  1.0 -0.1306513889
H  H3  1  0.51900000  0.29300000  0.04510000  1.0 -0.1306513889
H  H4  1  0.51900000  0.20700000  0.45490000  1.0 -0.1306513889
H  H5  1  0.98100000  0.70700000  0.54510000  1.0 -0.1306513889
H  H6  1  0.01900000  0.20700000  0.04510000  1.0 -0.1306513889
H  H7  1  0.48100000  0.70700000  0.95490000  1.0 -0.1306513889
H  H8  1  0.48100000  0.79300000  0.54510000  1.0 -0.1306513889
H  H9  1  0.20700000  0.53600000  0.70890000  1.0 -0.2008757578
H  H10  1  0.79300000  0.03600000  0.20890000  1.0 -0.2008757578
H  H11  1  0.70700000  0.53600000  0.79110000  1.0 -0.2008757578
H  H12  1  0.70700000  0.96400000  0.70890000  1.0 -0.2093616897
H  H13  1  0.79300000  0.46400000  0.29110000  1.0 -0.2093616897
H  H14  1  0.20700000  0.96400000  0.79110000  1.0 -0.2093616897
H  H15  1  0.29300000  0.46400000  0.20890000  1.0 -0.2093616897
H  H16  1  0.29300000  0.03600000  0.29110000  1.0 -0.2008757578
O  O1  1  0.04300000  0.32580000  0.54516000  1.0 -0.6215908067
O  O2  1  0.95700000  0.82580000  0.04516000  1.0 -0.6215908067
O  O3  1  0.54300000  0.32580000  0.95484000  1.0 -0.6215908067
O  O4  1  0.54300000  0.17420000  0.54516000  1.0 -0.6215908067
O  O5  1  0.95700000  0.67420000  0.45484000  1.0 -0.6215908067
O  O6  1  0.04300000  0.17420000  0.95484000  1.0 -0.6215908067
O  O7  1  0.45700000  0.67420000  0.04516000  1.0 -0.6215908067
O  O8  1  0.45700000  0.82580000  0.45484000  1.0 -0.6215908067
O  O9  1  0.88150000  0.14180000  0.50339000  1.0 -0.5521069901
O  O10  1  0.11850000  0.64180000  0.00339000  1.0 -0.5521069901
O  O11  1  0.38150000  0.14180000  0.99661000  1.0 -0.5521069901
O  O12  1  0.38150000  0.35820000  0.50339000  1.0 -0.5521069901
O  O13  1  0.11850000  0.85820000  0.49661000  1.0 -0.5521069901
O  O14  1  0.88150000  0.35820000  0.99661000  1.0 -0.5521069901
O  O15  1  0.61850000  0.85820000  0.00339000  1.0 -0.5521069901
O  O16  1  0.61850000  0.64180000  0.49661000  1.0 -0.5521069901
O  O17  1  0.80940000  0.38640000  0.49118000  1.0 -0.6410562458
O  O18  1  0.19060000  0.88640000  0.99118000  1.0 -0.6410562458
O  O19  1  0.30940000  0.38640000  0.00882000  1.0 -0.6410562458
O  O20  1  0.30940000  0.11360000  0.49118000  1.0 -0.6410562458
O  O21  1  0.19060000  0.61360000  0.50882000  1.0 -0.6410562458
O  O22  1  0.80940000  0.11360000  0.00882000  1.0 -0.6410562458
O  O23  1  0.69060000  0.61360000  0.99118000  1.0 -0.6410562458
O  O24  1  0.69060000  0.88640000  0.50882000  1.0 -0.6410562458
O  O25  1  0.29730000  0.46520000  0.62308000  1.0 -0.6024937567
O  O26  1  0.70270000  0.96520000  0.12308000  1.0 -0.6024937567
O  O27  1  0.79730000  0.46520000  0.87692000  1.0 -0.6024937567
O  O28  1  0.79730000  0.03480000  0.62308000  1.0 -0.6064511972
O  O29  1  0.70270000  0.53480000  0.37692000  1.0 -0.6024937567
O  O30  1  0.29730000  0.03480000  0.87692000  1.0 -0.6064511972
O  O31  1  0.20270000  0.53480000  0.12308000  1.0 -0.6024937567
O  O32  1  0.20270000  0.96520000  0.37692000  1.0 -0.6024937567
O  O33  1  0.14710000  0.31380000  0.68794000  1.0 -0.6479954111
O  O34  1  0.85290000  0.81380000  0.18794000  1.0 -0.6479954111
O  O35  1  0.64710000  0.31380000  0.81206000  1.0 -0.6479954111
O  O36  1  0.64710000  0.18620000  0.68794000  1.0 -0.6479954111
O  O37  1  0.85290000  0.68620000  0.31206000  1.0 -0.6479954111
O  O38  1  0.14710000  0.18620000  0.81206000  1.0 -0.6479954111
O  O39  1  0.35290000  0.68620000  0.18794000  1.0 -0.6479954111
O  O40  1  0.35290000  0.81380000  0.31206000  1.0 -0.6479954111
O  O41  1  0.40690000  0.39690000  0.71573000  1.0 -0.6410562458
O  O42  1  0.59310000  0.89690000  0.21573000  1.0 -0.6410562458
O  O43  1  0.90690000  0.39690000  0.78427000  1.0 -0.6410562458
O  O44  1  0.90690000  0.10310000  0.71573000  1.0 -0.6410562458
O  O45  1  0.59310000  0.60310000  0.28427000  1.0 -0.6410562458
O  O46  1  0.40690000  0.10310000  0.78427000  1.0 -0.6410562458
O  O47  1  0.09310000  0.60310000  0.21573000  1.0 -0.6410562458
O  O48  1  0.09310000  0.89690000  0.28427000  1.0 -0.6410562458
