# DDEC6 charges by PACMAN v1.1 (https://github.com/mtap-research/PACMAN-charge/)
data_ARUYUH01_FSR_pacman
_symmetry_space_group_name_H-M   'P 1'
_cell_length_a   8.93420000
_cell_length_b   9.81900000
_cell_length_c   23.32650000
_cell_angle_alpha   90.00000000
_cell_angle_beta   90.00000000
_cell_angle_gamma   90.00000000
_symmetry_Int_Tables_number   1
_chemical_formula_structural   Zn3P4(HO3)4
_chemical_formula_sum   'Zn12 P16 H16 O48'
_cell_volume   2046.31510845
_cell_formula_units_Z   4
loop_
 _symmetry_equiv_pos_site_id
 _symmetry_equiv_pos_as_xyz
  1  'x, y, z'
loop_
 _atom_site_type_symbol
 _atom_site_label
 _atom_site_symmetry_multiplicity
 _atom_site_fract_x
 _atom_site_fract_y
 _atom_site_fract_z
 _atom_site_occupancy
 _atom_site_charge
Zn  Zn1  1  0.71889000  0.55949000  0.04696000  1.0 1.1199715065
Zn  Zn2  1  0.71889000  0.94051000  0.45304000  1.0 1.1199715065
Zn  Zn3  1  0.78111000  0.44051000  0.54696000  1.0 1.1199715065
Zn  Zn4  1  0.78111000  0.05949000  0.95304000  1.0 1.1199715065
Zn  Zn5  1  0.28111000  0.44051000  0.95304000  1.0 1.1199715065
Zn  Zn6  1  0.28111000  0.05949000  0.54696000  1.0 1.1199715065
Zn  Zn7  1  0.21889000  0.55949000  0.45304000  1.0 1.1199715065
Zn  Zn8  1  0.21889000  0.94051000  0.04696000  1.0 1.1199715065
Zn  Zn9  1  0.01825000  0.75000000  0.25000000  1.0 1.1291770862
Zn  Zn10  1  0.48175000  0.25000000  0.75000000  1.0 1.1291770862
Zn  Zn11  1  0.98175000  0.25000000  0.75000000  1.0 1.1291770862
Zn  Zn12  1  0.51825000  0.75000000  0.25000000  1.0 1.1291770862
P  P1  1  0.76350000  0.57510000  0.18428000  1.0 1.0519908445
P  P2  1  0.76350000  0.92490000  0.31572000  1.0 1.0519908445
P  P3  1  0.73650000  0.42490000  0.68428000  1.0 1.0519908445
P  P4  1  0.73650000  0.07510000  0.81572000  1.0 1.0519908445
P  P5  1  0.23650000  0.42490000  0.81572000  1.0 1.0519908445
P  P6  1  0.23650000  0.07510000  0.68428000  1.0 1.0519908445
P  P7  1  0.26350000  0.57510000  0.31572000  1.0 1.0519908445
P  P8  1  0.26350000  0.92490000  0.18428000  1.0 1.0519908445
P  P9  1  0.56270000  0.28745000  0.00285000  1.0 1.0519908445
P  P10  1  0.56270000  0.21255000  0.49715000  1.0 1.0519908445
P  P11  1  0.93730000  0.71255000  0.50285000  1.0 1.0519908445
P  P12  1  0.93730000  0.78745000  0.99715000  1.0 1.0519908445
P  P13  1  0.43730000  0.71255000  0.99715000  1.0 1.0519908445
P  P14  1  0.43730000  0.78745000  0.50285000  1.0 1.0519908445
P  P15  1  0.06270000  0.28745000  0.49715000  1.0 1.0519908445
P  P16  1  0.06270000  0.21255000  0.00285000  1.0 1.0519908445
H  H1  1  0.71930000  0.49480000  0.20260000  1.0 -0.0132469775
H  H2  1  0.71930000  0.00520000  0.29740000  1.0 -0.0132469775
H  H3  1  0.78070000  0.50520000  0.70260000  1.0 -0.0132469775
H  H4  1  0.78070000  0.99480000  0.79740000  1.0 -0.0132469775
H  H5  1  0.28070000  0.50520000  0.79740000  1.0 -0.0132469775
H  H6  1  0.28070000  0.99480000  0.70260000  1.0 -0.0132469775
H  H7  1  0.21930000  0.49480000  0.29740000  1.0 -0.0132469775
H  H8  1  0.21930000  0.00520000  0.20260000  1.0 -0.0132469775
H  H9  1  0.50520000  0.29150000  0.03860000  1.0 0.0396760816
H  H10  1  0.50520000  0.20850000  0.46140000  1.0 0.0396760816
H  H11  1  0.99480000  0.70850000  0.53860000  1.0 0.0396760816
H  H12  1  0.99480000  0.79150000  0.96140000  1.0 0.0396760816
H  H13  1  0.49480000  0.70850000  0.96140000  1.0 0.0396760816
H  H14  1  0.49480000  0.79150000  0.53860000  1.0 0.0396760816
H  H15  1  0.00520000  0.29150000  0.46140000  1.0 0.0396760816
H  H16  1  0.00520000  0.20850000  0.03860000  1.0 0.0396760816
O  O1  1  0.79650000  0.53450000  0.12290000  1.0 -0.6112875788
O  O2  1  0.79650000  0.96550000  0.37710000  1.0 -0.6112875788
O  O3  1  0.70350000  0.46550000  0.62290000  1.0 -0.6112875788
O  O4  1  0.70350000  0.03450000  0.87710000  1.0 -0.6112875788
O  O5  1  0.20350000  0.46550000  0.87710000  1.0 -0.6112875788
O  O6  1  0.20350000  0.03450000  0.62290000  1.0 -0.6112875788
O  O7  1  0.29650000  0.53450000  0.37710000  1.0 -0.6112875788
O  O8  1  0.29650000  0.96550000  0.12290000  1.0 -0.6112875788
O  O9  1  0.69100000  0.38720000  0.00870000  1.0 -0.6678462698
O  O10  1  0.69100000  0.11280000  0.49130000  1.0 -0.6678462698
O  O11  1  0.80900000  0.61280000  0.50870000  1.0 -0.6678462698
O  O12  1  0.80900000  0.88720000  0.99130000  1.0 -0.6678462698
O  O13  1  0.30900000  0.61280000  0.99130000  1.0 -0.6678462698
O  O14  1  0.30900000  0.88720000  0.50870000  1.0 -0.6678462698
O  O15  1  0.19100000  0.38720000  0.49130000  1.0 -0.6678462698
O  O16  1  0.19100000  0.11280000  0.00870000  1.0 -0.6678462698
O  O17  1  0.45730000  0.32590000  0.95490000  1.0 -0.6498658995
O  O18  1  0.45730000  0.17410000  0.54510000  1.0 -0.6498658995
O  O19  1  0.04270000  0.67410000  0.45490000  1.0 -0.644627787
O  O20  1  0.04270000  0.82590000  0.04510000  1.0 -0.644627787
O  O21  1  0.54270000  0.67410000  0.04510000  1.0 -0.644627787
O  O22  1  0.54270000  0.82590000  0.45490000  1.0 -0.644627787
O  O23  1  0.95730000  0.32590000  0.54510000  1.0 -0.644627787
O  O24  1  0.95730000  0.17410000  0.95490000  1.0 -0.6498658995
O  O25  1  0.61790000  0.14230000  0.99640000  1.0 -0.5888621954
O  O26  1  0.61790000  0.35770000  0.50360000  1.0 -0.5888621954
O  O27  1  0.88210000  0.85770000  0.49640000  1.0 -0.5888621954
O  O28  1  0.88210000  0.64230000  0.00360000  1.0 -0.5888621954
O  O29  1  0.38210000  0.85770000  0.00360000  1.0 -0.5888621954
O  O30  1  0.38210000  0.64230000  0.49640000  1.0 -0.5888621954
O  O31  1  0.11790000  0.14230000  0.50360000  1.0 -0.5888621954
O  O32  1  0.11790000  0.35770000  0.99640000  1.0 -0.5888621954
O  O33  1  0.90690000  0.60380000  0.21580000  1.0 -0.6498658995
O  O34  1  0.90690000  0.89620000  0.28420000  1.0 -0.6498658995
O  O35  1  0.59310000  0.39620000  0.71580000  1.0 -0.6498658995
O  O36  1  0.59310000  0.10380000  0.78420000  1.0 -0.6498658995
O  O37  1  0.09310000  0.39620000  0.78420000  1.0 -0.6498658995
O  O38  1  0.09310000  0.10380000  0.71580000  1.0 -0.6498658995
O  O39  1  0.40690000  0.60380000  0.28420000  1.0 -0.6498658995
O  O40  1  0.40690000  0.89620000  0.21580000  1.0 -0.6498658995
O  O41  1  0.64660000  0.68650000  0.18770000  1.0 -0.6498658995
O  O42  1  0.64660000  0.81350000  0.31230000  1.0 -0.6498658995
O  O43  1  0.85340000  0.31350000  0.68770000  1.0 -0.6498658995
O  O44  1  0.85340000  0.18650000  0.81230000  1.0 -0.6498658995
O  O45  1  0.35340000  0.31350000  0.81230000  1.0 -0.6498658995
O  O46  1  0.35340000  0.18650000  0.68770000  1.0 -0.6550732626
O  O47  1  0.14660000  0.68650000  0.31230000  1.0 -0.6498658995
O  O48  1  0.14660000  0.81350000  0.18770000  1.0 -0.6498658995
