# DDEC6 charges by PACMAN v1.1 (https://github.com/mtap-research/PACMAN-charge/)
data_ASAHEJ_ASR_pacman
_symmetry_space_group_name_H-M   'P 1'
_cell_length_a   8.46030000
_cell_length_b   16.84390000
_cell_length_c   22.16050000
_cell_angle_alpha   101.20500000
_cell_angle_beta   89.89400000
_cell_angle_gamma   97.82600000
_symmetry_Int_Tables_number   1
_chemical_formula_structural   U5H28C24(N3O11)2
_chemical_formula_sum   'U10 H56 C48 N12 O44'
_cell_volume   3067.93684399
_cell_formula_units_Z   2
loop_
 _symmetry_equiv_pos_site_id
 _symmetry_equiv_pos_as_xyz
  1  'x, y, z'
loop_
 _atom_site_type_symbol
 _atom_site_label
 _atom_site_symmetry_multiplicity
 _atom_site_fract_x
 _atom_site_fract_y
 _atom_site_fract_z
 _atom_site_occupancy
 _atom_site_charge
U  U1  1  0.00000000  0.50000000  0.00000000  1.0 1.1461267254
U  U2  1  0.50000000  0.50000000  0.50000000  1.0 1.1444048664
U  U3  1  0.03673000  0.09226000  0.74508000  1.0 1.9208601893
U  U4  1  0.96327000  0.90774000  0.25492000  1.0 1.9208601893
U  U5  1  0.53752000  0.09602000  0.75740000  1.0 1.9291534206
U  U6  1  0.46248000  0.90398000  0.24260000  1.0 1.9208601893
U  U7  1  0.73948000  0.90929000  0.76780000  1.0 1.9512587568
U  U8  1  0.26052000  0.09071000  0.23220000  1.0 1.9512587568
U  U9  1  0.23585000  0.90134000  0.73438000  1.0 1.9746663353
U  U10  1  0.76415000  0.09866000  0.26562000  1.0 1.9808975241
H  H1  1  0.28080000  0.03640000  0.69570000  1.0 -0.1087993228
H  H2  1  0.71920000  0.96360000  0.30430000  1.0 -0.1087993228
H  H3  1  0.79300000  0.06850000  0.80240000  1.0 -0.0871223205
H  H4  1  0.20700000  0.93150000  0.19760000  1.0 -0.0871223205
H  H5  1  0.03440000  0.97290000  0.81790000  1.0 0.1406581421
H  H6  1  0.96560000  0.02710000  0.18210000  1.0 0.1406581421
H  H7  1  0.52710000  0.94080000  0.68460000  1.0 0.1629224798
H  H8  1  0.47290000  0.05920000  0.31540000  1.0 0.1664964041
H  H9  1  0.62080000  0.48920000  0.83800000  1.0 0.1240240317
H  H10  1  0.37920000  0.51080000  0.16200000  1.0 0.1240240317
H  H11  1  0.66410000  0.58560000  0.86300000  1.0 0.130003508
H  H12  1  0.33590000  0.41440000  0.13700000  1.0 0.130003508
H  H13  1  0.45950000  0.48660000  0.93060000  1.0 0.0901439024
H  H14  1  0.54050000  0.51340000  0.06940000  1.0 0.0901439024
H  H15  1  0.47900000  0.58470000  0.93930000  1.0 0.0901439024
H  H16  1  0.52100000  0.41530000  0.06070000  1.0 0.0901439024
H  H17  1  0.83820000  0.37130000  0.82620000  1.0 0.1406581421
H  H18  1  0.16180000  0.62870000  0.17380000  1.0 0.1406581421
H  H19  1  0.96650000  0.32910000  0.85770000  1.0 0.1406581421
H  H20  1  0.03350000  0.67090000  0.14230000  1.0 0.1406581421
H  H21  1  0.12110000  0.32130000  0.76790000  1.0 0.079241228
H  H22  1  0.87890000  0.67870000  0.23210000  1.0 0.079241228
H  H23  1  0.99220000  0.36220000  0.73570000  1.0 0.0901439024
H  H24  1  0.00780000  0.63780000  0.26430000  1.0 0.0901439024
H  H25  1  0.90370000  0.66330000  0.82280000  1.0 0.1406581421
H  H26  1  0.09630000  0.33670000  0.17720000  1.0 0.1406581421
H  H27  1  0.04000000  0.72410000  0.86530000  1.0 0.1406581421
H  H28  1  0.96000000  0.27590000  0.13470000  1.0 0.1406581421
H  H29  1  0.09160000  0.63980000  0.74310000  1.0 0.0901439024
H  H30  1  0.90840000  0.36020000  0.25690000  1.0 0.0901439024
H  H31  1  0.22770000  0.69840000  0.78730000  1.0 0.079241228
H  H32  1  0.77230000  0.30160000  0.21270000  1.0 0.079241228
H  H33  1  0.12800000  0.51330000  0.66270000  1.0 0.1240240317
H  H34  1  0.87200000  0.48670000  0.33730000  1.0 0.130003508
H  H35  1  0.11640000  0.41660000  0.63810000  1.0 0.130003508
H  H36  1  0.88360000  0.58340000  0.36190000  1.0 0.130003508
H  H37  1  0.96800000  0.51730000  0.57130000  1.0 0.0901439024
H  H38  1  0.03200000  0.48270000  0.42870000  1.0 0.0901439024
H  H39  1  0.93470000  0.41910000  0.56090000  1.0 0.0901439024
H  H40  1  0.06530000  0.58090000  0.43910000  1.0 0.0901439024
H  H41  1  0.32000000  0.33230000  0.67580000  1.0 0.1406581421
H  H42  1  0.68000000  0.66770000  0.32420000  1.0 0.1406581421
H  H43  1  0.42990000  0.27130000  0.63680000  1.0 0.1450571349
H  H44  1  0.57010000  0.72870000  0.36320000  1.0 0.1406581421
H  H45  1  0.51410000  0.36250000  0.75830000  1.0 0.0901439024
H  H46  1  0.48590000  0.63750000  0.24170000  1.0 0.0901439024
H  H47  1  0.62530000  0.30460000  0.71690000  1.0 0.079241228
H  H48  1  0.37470000  0.69540000  0.28310000  1.0 0.079241228
H  H49  1  0.39900000  0.62700000  0.67590000  1.0 0.1406581421
H  H50  1  0.60100000  0.37300000  0.32410000  1.0 0.1406581421
H  H51  1  0.54650000  0.66730000  0.64120000  1.0 0.1406581421
H  H52  1  0.45350000  0.33270000  0.35880000  1.0 0.1406581421
H  H53  1  0.71220000  0.67950000  0.72950000  1.0 0.079241228
H  H54  1  0.28780000  0.32050000  0.27050000  1.0 0.079241228
H  H55  1  0.56500000  0.63890000  0.76400000  1.0 0.0901439024
H  H56  1  0.43500000  0.36110000  0.23600000  1.0 0.0901439024
C  C1  1  0.26630000  0.44930000  0.83740000  1.0 0.5295258483
C  C2  1  0.73370000  0.55070000  0.16260000  1.0 0.5295258483
C  C3  1  0.06910000  0.51340000  0.79360000  1.0 0.5223659655
C  C4  1  0.93090000  0.48660000  0.20640000  1.0 0.5223659655
C  C5  1  0.29910000  0.59570000  0.84830000  1.0 0.5295258483
C  C6  1  0.70090000  0.40430000  0.15170000  1.0 0.5295258483
C  C7  1  0.74960000  0.40540000  0.65270000  1.0 0.5295258483
C  C8  1  0.25040000  0.59460000  0.34730000  1.0 0.5295258483
C  C9  1  0.56210000  0.48650000  0.70760000  1.0 0.5295258483
C  C10  1  0.43790000  0.51350000  0.29240000  1.0 0.5295258483
C  C11  1  0.79230000  0.55180000  0.66320000  1.0 0.5295258483
C  C12  1  0.20770000  0.44820000  0.33680000  1.0 0.5295258483
C  C13  1  0.76260000  0.51720000  0.91640000  1.0 0.5963166735
C  C14  1  0.23740000  0.48280000  0.08360000  1.0 0.5963166735
C  C15  1  0.63380000  0.53250000  0.87560000  1.0 -0.3603090414
C  C16  1  0.36620000  0.46750000  0.12440000  1.0 -0.3603090414
C  C17  1  0.47870000  0.53310000  0.90900000  1.0 -0.0477838808
C  C18  1  0.52130000  0.46690000  0.09100000  1.0 -0.0477838808
C  C19  1  0.83370000  0.24900000  0.78760000  1.0 0.6620638898
C  C20  1  0.16630000  0.75100000  0.21240000  1.0 0.6620638898
C  C21  1  0.91600000  0.33210000  0.81800000  1.0 -0.3725936928
C  C22  1  0.08400000  0.66790000  0.18200000  1.0 -0.3725936928
C  C23  1  0.04200000  0.36020000  0.77560000  1.0 -0.0241060365
C  C24  1  0.95800000  0.63980000  0.22440000  1.0 -0.0241060365
C  C25  1  0.96600000  0.77120000  0.79280000  1.0 0.6713897964
C  C26  1  0.03400000  0.22880000  0.20720000  1.0 0.6713897964
C  C27  1  0.00200000  0.70250000  0.82230000  1.0 -0.3603090414
C  C28  1  0.99800000  0.29750000  0.17770000  1.0 -0.3603090414
C  C29  1  0.12800000  0.65990000  0.78650000  1.0 -0.0277394059
C  C30  1  0.87200000  0.34010000  0.21350000  1.0 -0.0277394059
C  C31  1  0.25430000  0.48340000  0.58450000  1.0 0.5924047014
C  C32  1  0.74570000  0.51660000  0.41550000  1.0 0.5924047014
C  C33  1  0.11670000  0.46970000  0.62520000  1.0 -0.3603090414
C  C34  1  0.88330000  0.53030000  0.37480000  1.0 -0.3603090414
C  C35  1  0.96170000  0.47000000  0.59200000  1.0 -0.0477838808
C  C36  1  0.03830000  0.53000000  0.40800000  1.0 -0.0477838808
C  C37  1  0.32900000  0.22830000  0.71110000  1.0 0.6620638898
C  C38  1  0.67100000  0.77170000  0.28890000  1.0 0.6620638898
C  C39  1  0.39900000  0.29500000  0.67890000  1.0 -0.3603090414
C  C40  1  0.60100000  0.70500000  0.32110000  1.0 -0.3603090414
C  C41  1  0.54400000  0.34130000  0.71560000  1.0 -0.0277394059
C  C42  1  0.45600000  0.65870000  0.28440000  1.0 -0.0277394059
C  C43  1  0.46400000  0.75010000  0.71150000  1.0 0.6753367564
C  C44  1  0.53600000  0.24990000  0.28850000  1.0 0.6753367564
C  C45  1  0.49900000  0.66600000  0.68190000  1.0 -0.3725936928
C  C46  1  0.50100000  0.33400000  0.31810000  1.0 -0.3725936928
C  C47  1  0.61300000  0.63970000  0.72330000  1.0 -0.0241060365
C  C48  1  0.38700000  0.36030000  0.27670000  1.0 -0.0241060365
N  N1  1  0.35390000  0.52550000  0.85930000  1.0 -0.2607593307
N  N2  1  0.64610000  0.47450000  0.14070000  1.0 -0.2607593307
N  N3  1  0.12390000  0.44330000  0.80460000  1.0 -0.2607593307
N  N4  1  0.87610000  0.55670000  0.19540000  1.0 -0.2607593307
N  N5  1  0.15670000  0.58960000  0.81550000  1.0 -0.2549310097
N  N6  1  0.84330000  0.41040000  0.18450000  1.0 -0.2607593307
N  N7  1  0.84050000  0.47600000  0.64140000  1.0 -0.2607593307
N  N8  1  0.15950000  0.52400000  0.35860000  1.0 -0.2607593307
N  N9  1  0.61040000  0.41070000  0.68580000  1.0 -0.2607593307
N  N10  1  0.38960000  0.58930000  0.31420000  1.0 -0.2607593307
N  N11  1  0.65310000  0.55700000  0.69630000  1.0 -0.2607593307
N  N12  1  0.34690000  0.44300000  0.30370000  1.0 -0.2607593307
O  O1  1  0.89770000  0.55890000  0.91630000  1.0 -0.6108096857
O  O2  1  0.10230000  0.44110000  0.08370000  1.0 -0.6108096857
O  O3  1  0.73400000  0.46340000  0.94840000  1.0 -0.5758620718
O  O4  1  0.26600000  0.53660000  0.05160000  1.0 -0.5758620718
O  O5  1  0.89710000  0.20780000  0.74280000  1.0 -0.6398554363
O  O6  1  0.10290000  0.79220000  0.25720000  1.0 -0.6398554363
O  O7  1  0.70810000  0.22070000  0.81050000  1.0 -0.5985418577
O  O8  1  0.29190000  0.77930000  0.18950000  1.0 -0.5985418577
O  O9  1  0.85350000  0.80800000  0.81350000  1.0 -0.6108096857
O  O10  1  0.14650000  0.19200000  0.18650000  1.0 -0.6108096857
O  O11  1  0.04840000  0.78830000  0.74890000  1.0 -0.6398554363
O  O12  1  0.95160000  0.21170000  0.25110000  1.0 -0.6398554363
O  O13  1  0.31550000  0.38650000  0.84720000  1.0 -0.5135556826
O  O14  1  0.68450000  0.61350000  0.15280000  1.0 -0.5135556826
O  O15  1  0.94360000  0.51140000  0.76480000  1.0 -0.5213835258
O  O16  1  0.05640000  0.48860000  0.23520000  1.0 -0.5213835258
O  O17  1  0.38030000  0.66260000  0.86840000  1.0 -0.5213835258
O  O18  1  0.61970000  0.33740000  0.13160000  1.0 -0.5213835258
O  O19  1  0.36590000  0.44140000  0.58310000  1.0 -0.5985418577
O  O20  1  0.63410000  0.55860000  0.41690000  1.0 -0.5985418577
O  O21  1  0.25270000  0.53600000  0.55180000  1.0 -0.5692718247
O  O22  1  0.74730000  0.46400000  0.44820000  1.0 -0.5692718247
O  O23  1  0.40200000  0.21120000  0.75490000  1.0 -0.6263896444
O  O24  1  0.59800000  0.78880000  0.24510000  1.0 -0.6263896444
O  O25  1  0.19600000  0.19020000  0.69290000  1.0 -0.5985418577
O  O26  1  0.80400000  0.80980000  0.30710000  1.0 -0.5985418577
O  O27  1  0.35250000  0.77820000  0.68920000  1.0 -0.6108096857
O  O28  1  0.64750000  0.22180000  0.31080000  1.0 -0.6108096857
O  O29  1  0.54890000  0.79140000  0.75620000  1.0 -0.6468396404
O  O30  1  0.45110000  0.20860000  0.24380000  1.0 -0.6468396404
O  O31  1  0.79350000  0.33790000  0.63310000  1.0 -0.5213835258
O  O32  1  0.20650000  0.66210000  0.36690000  1.0 -0.5213835258
O  O33  1  0.43910000  0.49470000  0.73730000  1.0 -0.5324174979
O  O34  1  0.56090000  0.50530000  0.26270000  1.0 -0.5324174979
O  O35  1  0.87570000  0.61360000  0.65250000  1.0 -0.5048525849
O  O36  1  0.12430000  0.38640000  0.34750000  1.0 -0.5048525849
O  O37  1  0.27600000  0.04050000  0.73410000  1.0 -1.0475568989
O  O38  1  0.72400000  0.95950000  0.26590000  1.0 -1.0633263805
O  O39  1  0.78300000  0.05260000  0.76410000  1.0 -1.0448235491
O  O40  1  0.21700000  0.94740000  0.23590000  1.0 -1.0475568989
O  O41  1  0.01500000  0.96130000  0.77980000  1.0 -1.125913006
O  O42  1  0.98500000  0.03870000  0.22020000  1.0 -1.125913006
O  O43  1  0.51230000  0.94870000  0.72270000  1.0 -1.125913006
O  O44  1  0.48770000  0.05130000  0.27730000  1.0 -1.1137709835
