# DDEC6 charges by PACMAN v1.1 (https://github.com/mtap-research/PACMAN-charge/)
data_ASANAL_ASR_pacman
_symmetry_space_group_name_H-M   'P 1'
_cell_length_a   10.96630000
_cell_length_b   30.59200000
_cell_length_c   11.99100000
_cell_angle_alpha   90.00000000
_cell_angle_beta   117.55700000
_cell_angle_gamma   90.00000000
_symmetry_Int_Tables_number   1
_chemical_formula_structural   CdH40C31(NO)4
_chemical_formula_sum   'Cd4 H160 C124 N16 O16'
_cell_volume   3566.37604877
_cell_formula_units_Z   4
loop_
 _symmetry_equiv_pos_site_id
 _symmetry_equiv_pos_as_xyz
  1  'x, y, z'
loop_
 _atom_site_type_symbol
 _atom_site_label
 _atom_site_symmetry_multiplicity
 _atom_site_fract_x
 _atom_site_fract_y
 _atom_site_fract_z
 _atom_site_occupancy
 _atom_site_charge
Cd  Cd1  1  0.30931000  0.23698000  0.58074000  1.0 0.808543776
Cd  Cd2  1  0.69069000  0.73698000  0.91926000  1.0 0.808543776
Cd  Cd3  1  0.69069000  0.76302000  0.41926000  1.0 0.808543776
Cd  Cd4  1  0.30931000  0.26302000  0.08074000  1.0 0.808543776
H  H1  1  0.35100000  0.33670000  0.67660000  1.0 0.1082323231
H  H2  1  0.64900000  0.83670000  0.82340000  1.0 0.1082323231
H  H3  1  0.64900000  0.66330000  0.32340000  1.0 0.1082323231
H  H4  1  0.35100000  0.16330000  0.17660000  1.0 0.1082323231
H  H5  1  0.27440000  0.40800000  0.61570000  1.0 0.1185117037
H  H6  1  0.72560000  0.90800000  0.88430000  1.0 0.1185117037
H  H7  1  0.72560000  0.59200000  0.38430000  1.0 0.1185117037
H  H8  1  0.27440000  0.09200000  0.11570000  1.0 0.1185117037
H  H9  1  0.00600000  0.36160000  0.27670000  1.0 0.138505739
H  H10  1  0.99400000  0.86160000  0.22330000  1.0 0.138505739
H  H11  1  0.99400000  0.63840000  0.72330000  1.0 0.138505739
H  H12  1  0.00600000  0.13840000  0.77670000  1.0 0.138505739
H  H13  1  0.08700000  0.29330000  0.34550000  1.0 0.1082323231
H  H14  1  0.91300000  0.79330000  0.15450000  1.0 0.1082323231
H  H15  1  0.91300000  0.70670000  0.65450000  1.0 0.1082323231
H  H16  1  0.08700000  0.20670000  0.84550000  1.0 0.1082323231
H  H17  1  0.94520000  0.42440000  0.31690000  1.0 0.0777018427
H  H18  1  0.05480000  0.92440000  0.18310000  1.0 0.0777018427
H  H19  1  0.05480000  0.57560000  0.68310000  1.0 0.0777018427
H  H20  1  0.94520000  0.07560000  0.81690000  1.0 0.0777018427
H  H21  1  0.07500000  0.44400000  0.30590000  1.0 0.0980531432
H  H22  1  0.92500000  0.94400000  0.19410000  1.0 0.0980531432
H  H23  1  0.92500000  0.55600000  0.69410000  1.0 0.0980531432
H  H24  1  0.07500000  0.05600000  0.80590000  1.0 0.0980531432
H  H25  1  0.54560000  0.16380000  0.62740000  1.0 0.1185117037
H  H26  1  0.45440000  0.66380000  0.87260000  1.0 0.1185117037
H  H27  1  0.45440000  0.83620000  0.37260000  1.0 0.1185117037
H  H28  1  0.54560000  0.33620000  0.12740000  1.0 0.1185117037
H  H29  1  0.60980000  0.09340000  0.69760000  1.0 0.138505739
H  H30  1  0.39020000  0.59340000  0.80240000  1.0 0.138505739
H  H31  1  0.39020000  0.90660000  0.30240000  1.0 0.138505739
H  H32  1  0.60980000  0.40660000  0.19760000  1.0 0.138505739
H  H33  1  0.29630000  0.08640000  0.77810000  1.0 0.1280715492
H  H34  1  0.70370000  0.58640000  0.72190000  1.0 0.1280715492
H  H35  1  0.70370000  0.91360000  0.22190000  1.0 0.1280715492
H  H36  1  0.29630000  0.41360000  0.27810000  1.0 0.1280715492
H  H37  1  0.23260000  0.15660000  0.70040000  1.0 0.1082323231
H  H38  1  0.76740000  0.65660000  0.79960000  1.0 0.1082323231
H  H39  1  0.76740000  0.84340000  0.29960000  1.0 0.1082323231
H  H40  1  0.23260000  0.34340000  0.20040000  1.0 0.1082323231
H  H41  1  0.59500000  0.03050000  0.81220000  1.0 0.1082323231
H  H42  1  0.40500000  0.53050000  0.68780000  1.0 0.1082323231
H  H43  1  0.40500000  0.96950000  0.18780000  1.0 0.1082323231
H  H44  1  0.59500000  0.46950000  0.31220000  1.0 0.1082323231
H  H45  1  0.44770000  0.01460000  0.70660000  1.0 0.1185117037
H  H46  1  0.55230000  0.51460000  0.79340000  1.0 0.1185117037
H  H47  1  0.55230000  0.98540000  0.29340000  1.0 0.1185117037
H  H48  1  0.44770000  0.48540000  0.20660000  1.0 0.1185117037
H  H49  1  0.57900000  0.35180000  0.55040000  1.0 0.0905247581
H  H50  1  0.42100000  0.85180000  0.94960000  1.0 0.0905247581
H  H51  1  0.42100000  0.64820000  0.44960000  1.0 0.0905247581
H  H52  1  0.57900000  0.14820000  0.05040000  1.0 0.0905247581
H  H53  1  0.64670000  0.34840000  0.70080000  1.0 0.1082323231
H  H54  1  0.35330000  0.84840000  0.79920000  1.0 0.1082323231
H  H55  1  0.35330000  0.65160000  0.29920000  1.0 0.1082323231
H  H56  1  0.64670000  0.15160000  0.20080000  1.0 0.1082323231
H  H57  1  0.77090000  0.40030000  0.64230000  1.0 0.0519485021
H  H58  1  0.22910000  0.90030000  0.85770000  1.0 0.0519485021
H  H59  1  0.22910000  0.59970000  0.35770000  1.0 0.0519485021
H  H60  1  0.77090000  0.09970000  0.14230000  1.0 0.0519485021
H  H61  1  0.73070000  0.36920000  0.45120000  1.0 0.0905247581
H  H62  1  0.26930000  0.86920000  0.04880000  1.0 0.0905247581
H  H63  1  0.26930000  0.63080000  0.54880000  1.0 0.0905247581
H  H64  1  0.73070000  0.13080000  0.95120000  1.0 0.0905247581
H  H65  1  0.89250000  0.37700000  0.53710000  1.0 0.0905247581
H  H66  1  0.10750000  0.87700000  0.96290000  1.0 0.0905247581
H  H67  1  0.10750000  0.62300000  0.46290000  1.0 0.0905247581
H  H68  1  0.89250000  0.12300000  0.03710000  1.0 0.0905247581
H  H69  1  0.63250000  0.29310000  0.42860000  1.0 0.1082323231
H  H70  1  0.36750000  0.79310000  0.07140000  1.0 0.1082323231
H  H71  1  0.36750000  0.70690000  0.57140000  1.0 0.1082323231
H  H72  1  0.63250000  0.20690000  0.92860000  1.0 0.1082323231
H  H73  1  0.73160000  0.25310000  0.50290000  1.0 0.1185117037
H  H74  1  0.26840000  0.75310000  0.99710000  1.0 0.1185117037
H  H75  1  0.26840000  0.74690000  0.49710000  1.0 0.1185117037
H  H76  1  0.73160000  0.24690000  0.00290000  1.0 0.1185117037
H  H77  1  0.85510000  0.30550000  0.44830000  1.0 0.071020574
H  H78  1  0.14490000  0.80550000  0.05170000  1.0 0.071020574
H  H79  1  0.14490000  0.69450000  0.55170000  1.0 0.071020574
H  H80  1  0.85510000  0.19450000  0.94830000  1.0 0.071020574
H  H81  1  0.79720000  0.28550000  0.81480000  1.0 0.1082323231
H  H82  1  0.20280000  0.78550000  0.68520000  1.0 0.1082323231
H  H83  1  0.20280000  0.71450000  0.18520000  1.0 0.1082323231
H  H84  1  0.79720000  0.21450000  0.31480000  1.0 0.1082323231
H  H85  1  0.83110000  0.24810000  0.73970000  1.0 0.0980531432
H  H86  1  0.16890000  0.74810000  0.76030000  1.0 0.0980531432
H  H87  1  0.16890000  0.75190000  0.26030000  1.0 0.0980531432
H  H88  1  0.83110000  0.25190000  0.23970000  1.0 0.0980531432
H  H89  1  0.04610000  0.31450000  0.65140000  1.0 0.0980531432
H  H90  1  0.95390000  0.81450000  0.84860000  1.0 0.0980531432
H  H91  1  0.95390000  0.68550000  0.34860000  1.0 0.0980531432
H  H92  1  0.04610000  0.18550000  0.15140000  1.0 0.0980531432
H  H93  1  0.98470000  0.26620000  0.63860000  1.0 0.1082323231
H  H94  1  0.01530000  0.76620000  0.86140000  1.0 0.1082323231
H  H95  1  0.01530000  0.73380000  0.36140000  1.0 0.1082323231
H  H96  1  0.98470000  0.23380000  0.13860000  1.0 0.1082323231
H  H97  1  0.04340000  0.51150000  0.32610000  1.0 0.0980531432
H  H98  1  0.95660000  0.01150000  0.17390000  1.0 0.0980531432
H  H99  1  0.95660000  0.48850000  0.67390000  1.0 0.0980531432
H  H100  1  0.04340000  0.98850000  0.82610000  1.0 0.0980531432
H  H101  1  0.89800000  0.49970000  0.32110000  1.0 0.0615661975
H  H102  1  0.10200000  0.99970000  0.17890000  1.0 0.0615661975
H  H103  1  0.10200000  0.50030000  0.67890000  1.0 0.0615661975
H  H104  1  0.89800000  0.00030000  0.82110000  1.0 0.0615661975
H  H105  1  0.88330000  0.45370000  0.46670000  1.0 0.0615661975
H  H106  1  0.11670000  0.95370000  0.03330000  1.0 0.0615661975
H  H107  1  0.11670000  0.54630000  0.53330000  1.0 0.0615661975
H  H108  1  0.88330000  0.04630000  0.96670000  1.0 0.0615661975
H  H109  1  0.01440000  0.42900000  0.57290000  1.0 0.0777018427
H  H110  1  0.98560000  0.92900000  0.92710000  1.0 0.0777018427
H  H111  1  0.98560000  0.57100000  0.42710000  1.0 0.0777018427
H  H112  1  0.01440000  0.07100000  0.07290000  1.0 0.0777018427
H  H113  1  0.64660000  0.03450000  0.02190000  1.0 0.0980531432
H  H114  1  0.35340000  0.53450000  0.47810000  1.0 0.0980531432
H  H115  1  0.35340000  0.96550000  0.97810000  1.0 0.0980531432
H  H116  1  0.64660000  0.46550000  0.52190000  1.0 0.0980531432
H  H117  1  0.53830000  0.07390000  0.98610000  1.0 0.1082323231
H  H118  1  0.46170000  0.57390000  0.51390000  1.0 0.1082323231
H  H119  1  0.46170000  0.92610000  0.01390000  1.0 0.1082323231
H  H120  1  0.53830000  0.42610000  0.48610000  1.0 0.1082323231
H  H121  1  0.43110000  0.95630000  0.82310000  1.0 0.1082323231
H  H122  1  0.56890000  0.45630000  0.67690000  1.0 0.1082323231
H  H123  1  0.56890000  0.04370000  0.17690000  1.0 0.1082323231
H  H124  1  0.43110000  0.54370000  0.32310000  1.0 0.1082323231
H  H125  1  0.58500000  0.96680000  0.92810000  1.0 0.0905247581
H  H126  1  0.41500000  0.46680000  0.57190000  1.0 0.0905247581
H  H127  1  0.41500000  0.03320000  0.07190000  1.0 0.0905247581
H  H128  1  0.58500000  0.53320000  0.42810000  1.0 0.0905247581
H  H129  1  0.99300000  0.37270000  0.77340000  1.0 0.0980531432
H  H130  1  0.00700000  0.87270000  0.72660000  1.0 0.0980531432
H  H131  1  0.00700000  0.62730000  0.22660000  1.0 0.0980531432
H  H132  1  0.99300000  0.12730000  0.27340000  1.0 0.0980531432
H  H133  1  0.89240000  0.36110000  0.83280000  1.0 0.1082323231
H  H134  1  0.10760000  0.86110000  0.66720000  1.0 0.1082323231
H  H135  1  0.10760000  0.63890000  0.16720000  1.0 0.1082323231
H  H136  1  0.89240000  0.13890000  0.33280000  1.0 0.1082323231
H  H137  1  0.10600000  0.45200000  0.32270000  1.0 0.0980531432
H  H138  1  0.89400000  0.95200000  0.17730000  1.0 0.0980531432
H  H139  1  0.89400000  0.54800000  0.67730000  1.0 0.0980531432
H  H140  1  0.10600000  0.04800000  0.82270000  1.0 0.0980531432
H  H141  1  0.23570000  0.45620000  0.46030000  1.0 0.071020574
H  H142  1  0.76430000  0.95620000  0.03970000  1.0 0.071020574
H  H143  1  0.76430000  0.54380000  0.53970000  1.0 0.071020574
H  H144  1  0.23570000  0.04380000  0.96030000  1.0 0.071020574
H  H145  1  0.11220000  0.53200000  0.44880000  1.0 0.0615661975
H  H146  1  0.88780000  0.03200000  0.05120000  1.0 0.0615661975
H  H147  1  0.88780000  0.46800000  0.55120000  1.0 0.0615661975
H  H148  1  0.11220000  0.96800000  0.94880000  1.0 0.0615661975
H  H149  1  0.00560000  0.51360000  0.31230000  1.0 0.0905247581
H  H150  1  0.99440000  0.01360000  0.18770000  1.0 0.0905247581
H  H151  1  0.99440000  0.48640000  0.68770000  1.0 0.0905247581
H  H152  1  0.00560000  0.98640000  0.81230000  1.0 0.0905247581
H  H153  1  0.12840000  0.44160000  0.61900000  1.0 0.071020574
H  H154  1  0.87160000  0.94160000  0.88100000  1.0 0.071020574
H  H155  1  0.87160000  0.55840000  0.38100000  1.0 0.071020574
H  H156  1  0.12840000  0.05840000  0.11900000  1.0 0.071020574
H  H157  1  0.17210000  0.49120000  0.61350000  1.0 0.0519485021
H  H158  1  0.82790000  0.99120000  0.88650000  1.0 0.0519485021
H  H159  1  0.82790000  0.50880000  0.38650000  1.0 0.0519485021
H  H160  1  0.17210000  0.00880000  0.11350000  1.0 0.0519485021
C  C1  1  0.27960000  0.34190000  0.59410000  1.0 0.071020574
C  C2  1  0.72040000  0.84190000  0.90590000  1.0 0.071020574
C  C3  1  0.72040000  0.65810000  0.40590000  1.0 0.071020574
C  C4  1  0.27960000  0.15810000  0.09410000  1.0 0.071020574
C  C5  1  0.23520000  0.38430000  0.55870000  1.0 -0.3231764837
C  C6  1  0.76480000  0.88430000  0.94130000  1.0 -0.3231764837
C  C7  1  0.76480000  0.61570000  0.44130000  1.0 -0.3231764837
C  C8  1  0.23520000  0.11570000  0.05870000  1.0 -0.3231764837
C  C9  1  0.13100000  0.39150000  0.43660000  1.0 0.1185117037
C  C10  1  0.86900000  0.89150000  0.06340000  1.0 0.1185117037
C  C11  1  0.86900000  0.60850000  0.56340000  1.0 0.1185117037
C  C12  1  0.13100000  0.10850000  0.93660000  1.0 0.1185117037
C  C13  1  0.07760000  0.35750000  0.35990000  1.0 -0.2403933137
C  C14  1  0.92240000  0.85750000  0.14010000  1.0 -0.2403933137
C  C15  1  0.92240000  0.64250000  0.64010000  1.0 -0.2403933137
C  C16  1  0.07760000  0.14250000  0.85990000  1.0 -0.2403933137
C  C17  1  0.12650000  0.31710000  0.40200000  1.0 0.0615661975
C  C18  1  0.87350000  0.81710000  0.09800000  1.0 0.0615661975
C  C19  1  0.87350000  0.68290000  0.59800000  1.0 0.0615661975
C  C20  1  0.12650000  0.18290000  0.90200000  1.0 0.0615661975
C  C21  1  0.04340000  0.43270000  0.36540000  1.0 -0.1253032341
C  C22  1  0.95660000  0.93270000  0.13460000  1.0 -0.1253032341
C  C23  1  0.95660000  0.56730000  0.63460000  1.0 -0.1253032341
C  C24  1  0.04340000  0.06730000  0.86540000  1.0 -0.1253032341
C  C25  1  0.49200000  0.14770000  0.65670000  1.0 0.0615661975
C  C26  1  0.50800000  0.64770000  0.84330000  1.0 0.0615661975
C  C27  1  0.50800000  0.85230000  0.34330000  1.0 0.0615661975
C  C28  1  0.49200000  0.35230000  0.15670000  1.0 0.0615661975
C  C29  1  0.53030000  0.10560000  0.69790000  1.0 -0.2047982916
C  C30  1  0.46970000  0.60560000  0.80210000  1.0 -0.2047982916
C  C31  1  0.46970000  0.89440000  0.30210000  1.0 -0.2047982916
C  C32  1  0.53030000  0.39440000  0.19790000  1.0 -0.2047982916
C  C33  1  0.45540000  0.08130000  0.73910000  1.0 0.1280715492
C  C34  1  0.54460000  0.58130000  0.76090000  1.0 0.1280715492
C  C35  1  0.54460000  0.91870000  0.26090000  1.0 0.1280715492
C  C36  1  0.45540000  0.41870000  0.23910000  1.0 0.1280715492
C  C37  1  0.34720000  0.10140000  0.74400000  1.0 -0.2134725555
C  C38  1  0.65280000  0.60140000  0.75600000  1.0 -0.2134725555
C  C39  1  0.65280000  0.89860000  0.25600000  1.0 -0.2134725555
C  C40  1  0.34720000  0.39860000  0.24400000  1.0 -0.2134725555
C  C41  1  0.31100000  0.14380000  0.69960000  1.0 0.0777018427
C  C42  1  0.68900000  0.64380000  0.80040000  1.0 0.0777018427
C  C43  1  0.68900000  0.85620000  0.30040000  1.0 0.0777018427
C  C44  1  0.31100000  0.35620000  0.19960000  1.0 0.071020574
C  C45  1  0.49460000  0.03400000  0.78060000  1.0 -0.1881495259
C  C46  1  0.50540000  0.53400000  0.71940000  1.0 -0.1881495259
C  C47  1  0.50540000  0.96600000  0.21940000  1.0 -0.1881495259
C  C48  1  0.49460000  0.46600000  0.28060000  1.0 -0.1881495259
C  C49  1  0.56140000  0.26836000  0.60950000  1.0 0.5176921085
C  C50  1  0.43860000  0.76836000  0.89050000  1.0 0.5176921085
C  C51  1  0.43860000  0.73164000  0.39050000  1.0 0.5176921085
C  C52  1  0.56140000  0.23164000  0.10950000  1.0 0.5176921085
C  C53  1  0.68660000  0.29319000  0.61970000  1.0 0.071020574
C  C54  1  0.31340000  0.79319000  0.88030000  1.0 0.071020574
C  C55  1  0.31340000  0.70681000  0.38030000  1.0 0.071020574
C  C56  1  0.68660000  0.20681000  0.11970000  1.0 0.071020574
C  C57  1  0.66200000  0.34246000  0.62710000  1.0 -0.2624027601
C  C58  1  0.33800000  0.84246000  0.87290000  1.0 -0.2624027601
C  C59  1  0.33800000  0.65754000  0.37290000  1.0 -0.2624027601
C  C60  1  0.66200000  0.15754000  0.12710000  1.0 -0.2624027601
C  C61  1  0.78850000  0.36830000  0.63900000  1.0 0.0615661975
C  C62  1  0.21150000  0.86830000  0.86100000  1.0 0.0615661975
C  C63  1  0.21150000  0.63170000  0.36100000  1.0 0.0615661975
C  C64  1  0.78850000  0.13170000  0.13900000  1.0 0.0615661975
C  C65  1  0.81220000  0.35990000  0.52920000  1.0 -0.3062763169
C  C66  1  0.18780000  0.85990000  0.97080000  1.0 -0.3062763169
C  C67  1  0.18780000  0.64010000  0.47080000  1.0 -0.3062763169
C  C68  1  0.81220000  0.14010000  0.02920000  1.0 -0.3062763169
C  C69  1  0.71420000  0.28470000  0.50760000  1.0 -0.2677533544
C  C70  1  0.28580000  0.78470000  0.99240000  1.0 -0.2677533544
C  C71  1  0.28580000  0.71530000  0.49240000  1.0 -0.2677533544
C  C72  1  0.71420000  0.21530000  0.00760000  1.0 -0.2677533544
C  C73  1  0.83820000  0.31110000  0.52220000  1.0 0.071020574
C  C74  1  0.16180000  0.81110000  0.97780000  1.0 0.071020574
C  C75  1  0.16180000  0.68890000  0.47780000  1.0 0.071020574
C  C76  1  0.83820000  0.18890000  0.02220000  1.0 0.071020574
C  C77  1  0.06670000  0.29368000  0.88030000  1.0 0.5103061543
C  C78  1  0.93330000  0.79368000  0.61970000  1.0 0.5103061543
C  C79  1  0.93330000  0.70632000  0.11970000  1.0 0.5103061543
C  C80  1  0.06670000  0.20632000  0.38030000  1.0 0.5103061543
C  C81  1  0.81400000  0.27981000  0.74180000  1.0 -0.2677533544
C  C82  1  0.18600000  0.77981000  0.75820000  1.0 -0.2757777278
C  C83  1  0.18600000  0.72019000  0.25820000  1.0 -0.2757777278
C  C84  1  0.81400000  0.22019000  0.24180000  1.0 -0.2757777278
C  C85  1  0.96540000  0.29760000  0.64290000  1.0 -0.2624027601
C  C86  1  0.03460000  0.79760000  0.85710000  1.0 -0.2624027601
C  C87  1  0.03460000  0.70240000  0.35710000  1.0 -0.2624027601
C  C88  1  0.96540000  0.20240000  0.14290000  1.0 -0.2624027601
C  C89  1  0.94170000  0.30576000  0.75690000  1.0 0.071020574
C  C90  1  0.05830000  0.80576000  0.74310000  1.0 0.071020574
C  C91  1  0.05830000  0.69424000  0.24310000  1.0 0.071020574
C  C92  1  0.94170000  0.19424000  0.25690000  1.0 0.071020574
C  C93  1  0.99700000  0.50450000  0.37800000  1.0 -0.1106303134
C  C94  1  0.00300000  0.00450000  0.12200000  1.0 -0.1106303134
C  C95  1  0.00300000  0.49550000  0.62200000  1.0 -0.1106303134
C  C96  1  0.99700000  0.99550000  0.87800000  1.0 -0.1106303134
C  C97  1  0.98230000  0.45680000  0.52610000  1.0 -0.0889438047
C  C98  1  0.01770000  0.95680000  0.97390000  1.0 -0.0889438047
C  C99  1  0.01770000  0.54320000  0.47390000  1.0 -0.0889438047
C  C100  1  0.98230000  0.04320000  0.02610000  1.0 -0.0889438047
C  C101  1  0.54940000  0.04180000  0.99700000  1.0 -0.165774773
C  C102  1  0.45060000  0.54180000  0.50300000  1.0 -0.1641105517
C  C103  1  0.45060000  0.95820000  0.00300000  1.0 -0.1641105517
C  C104  1  0.54940000  0.45820000  0.49700000  1.0 -0.165774773
C  C105  1  0.48670000  0.97280000  0.90150000  1.0 -0.1465793505
C  C106  1  0.51330000  0.47280000  0.59850000  1.0 -0.1465793505
C  C107  1  0.51330000  0.02720000  0.09850000  1.0 -0.1465793505
C  C108  1  0.48670000  0.52720000  0.40150000  1.0 -0.1465793505
C  C109  1  0.91170000  0.35530000  0.76130000  1.0 -0.2677533544
C  C110  1  0.08830000  0.85530000  0.73870000  1.0 -0.2677533544
C  C111  1  0.08830000  0.64470000  0.23870000  1.0 -0.2677533544
C  C112  1  0.91170000  0.14470000  0.26130000  1.0 -0.2624027601
C  C113  1  0.13920000  0.44570000  0.41320000  1.0 -0.1106303134
C  C114  1  0.86080000  0.94570000  0.08680000  1.0 -0.1106303134
C  C115  1  0.86080000  0.55430000  0.58680000  1.0 -0.1106303134
C  C116  1  0.13920000  0.05430000  0.91320000  1.0 -0.1106303134
C  C117  1  0.03000000  0.51330000  0.40300000  1.0 -0.1194958585
C  C118  1  0.97000000  0.01330000  0.09700000  1.0 -0.1194958585
C  C119  1  0.97000000  0.48670000  0.59700000  1.0 -0.1194958585
C  C120  1  0.03000000  0.98670000  0.90300000  1.0 -0.1194958585
C  C121  1  0.09540000  0.47000000  0.57590000  1.0 -0.0515521887
C  C122  1  0.90460000  0.97000000  0.92410000  1.0 -0.0515521887
C  C123  1  0.90460000  0.53000000  0.42410000  1.0 -0.0515521887
C  C124  1  0.09540000  0.03000000  0.07590000  1.0 -0.0515521887
N  N1  1  0.22550000  0.30807000  0.51640000  1.0 -0.2403933137
N  N2  1  0.77450000  0.80807000  0.98360000  1.0 -0.2403933137
N  N3  1  0.77450000  0.69193000  0.48360000  1.0 -0.2403933137
N  N4  1  0.22550000  0.19193000  0.01640000  1.0 -0.2403933137
N  N5  1  0.38190000  0.16700000  0.65630000  1.0 -0.2166422188
N  N6  1  0.61810000  0.66700000  0.84370000  1.0 -0.2166422188
N  N7  1  0.61810000  0.83300000  0.34370000  1.0 -0.2166422188
N  N8  1  0.38190000  0.33300000  0.15630000  1.0 -0.2166422188
N  N9  1  0.45920000  0.01995000  0.87820000  1.0 -0.1106303134
N  N10  1  0.54080000  0.51995000  0.62180000  1.0 -0.1106303134
N  N11  1  0.54080000  0.98005000  0.12180000  1.0 -0.1106303134
N  N12  1  0.45920000  0.48005000  0.37820000  1.0 -0.1106303134
N  N13  1  0.05890000  0.46540000  0.45560000  1.0 0.0103050655
N  N14  1  0.94110000  0.96540000  0.04440000  1.0 0.0103050655
N  N15  1  0.94110000  0.53460000  0.54440000  1.0 0.0103050655
N  N16  1  0.05890000  0.03460000  0.95560000  1.0 0.0103050655
O  O1  1  0.52820000  0.27214000  0.69580000  1.0 -0.5514237984
O  O2  1  0.47180000  0.77214000  0.80420000  1.0 -0.5514237984
O  O3  1  0.47180000  0.72786000  0.30420000  1.0 -0.5514237984
O  O4  1  0.52820000  0.22786000  0.19580000  1.0 -0.5514237984
O  O5  1  0.49100000  0.24518000  0.51460000  1.0 -0.5514237984
O  O6  1  0.50900000  0.74518000  0.98540000  1.0 -0.5514237984
O  O7  1  0.50900000  0.75482000  0.48540000  1.0 -0.5514237984
O  O8  1  0.49100000  0.25482000  0.01460000  1.0 -0.5514237984
O  O9  1  0.05660000  0.28817000  0.97830000  1.0 -0.5644622102
O  O10  1  0.94340000  0.78817000  0.52170000  1.0 -0.5644622102
O  O11  1  0.94340000  0.71183000  0.02170000  1.0 -0.5644622102
O  O12  1  0.05660000  0.21183000  0.47830000  1.0 -0.5644622102
O  O13  1  0.18130000  0.28998000  0.88000000  1.0 -0.5419188841
O  O14  1  0.81870000  0.78998000  0.62000000  1.0 -0.5419188841
O  O15  1  0.81870000  0.71002000  0.12000000  1.0 -0.5419188841
O  O16  1  0.18130000  0.21002000  0.38000000  1.0 -0.5419188841
