# DDEC6 charges by PACMAN v1.1 (https://github.com/mtap-research/PACMAN-charge/)
data_ASIQEA_ion_pacman
_symmetry_space_group_name_H-M   'P 1'
_cell_length_a   18.00100000
_cell_length_b   18.00100000
_cell_length_c   12.94600000
_cell_angle_alpha   90.00000000
_cell_angle_beta   90.00000000
_cell_angle_gamma   90.00000000
_symmetry_Int_Tables_number   1
_chemical_formula_structural   Cu2Mo12PH36C52(NO3)16
_chemical_formula_sum   'Cu4 Mo24 P2 H72 C104 N32 O96'
_cell_volume   4194.97006895
_cell_formula_units_Z   2
loop_
 _symmetry_equiv_pos_site_id
 _symmetry_equiv_pos_as_xyz
  1  'x, y, z'
loop_
 _atom_site_type_symbol
 _atom_site_label
 _atom_site_symmetry_multiplicity
 _atom_site_fract_x
 _atom_site_fract_y
 _atom_site_fract_z
 _atom_site_occupancy
 _atom_site_charge
Cu  Cu1  1  0.75000000  0.75000000  0.25000000  1.0 0.7214730204
Cu  Cu2  1  0.25000000  0.25000000  0.25000000  1.0 0.7214730204
Cu  Cu3  1  0.25000000  0.75000000  0.75000000  1.0 0.7214730204
Cu  Cu4  1  0.75000000  0.25000000  0.75000000  1.0 0.7214730204
Mo  Mo1  1  0.91730000  0.88442000  0.80767000  1.0 2.2531518162
Mo  Mo2  1  0.08270000  0.11558000  0.80767000  1.0 2.2531518162
Mo  Mo3  1  0.88442000  0.08270000  0.19233000  1.0 2.2531518162
Mo  Mo4  1  0.11558000  0.91730000  0.19233000  1.0 2.2531518162
Mo  Mo5  1  0.02188000  0.80303000  0.99167000  1.0 2.2129286498
Mo  Mo6  1  0.97812000  0.19697000  0.99167000  1.0 2.2129286498
Mo  Mo7  1  0.80303000  0.97812000  0.00833000  1.0 2.2129286498
Mo  Mo8  1  0.19697000  0.02188000  0.00833000  1.0 2.2129286498
Mo  Mo9  1  0.10563000  0.91075000  0.80731000  1.0 2.2531518162
Mo  Mo10  1  0.89437000  0.08925000  0.80731000  1.0 2.2531518162
Mo  Mo11  1  0.91075000  0.89437000  0.19269000  1.0 2.2531518162
Mo  Mo12  1  0.08925000  0.10563000  0.19269000  1.0 2.2531518162
Mo  Mo13  1  0.61558000  0.41730000  0.30767000  1.0 2.2531518162
Mo  Mo14  1  0.38442000  0.58270000  0.30767000  1.0 2.2531518162
Mo  Mo15  1  0.58270000  0.61558000  0.69233000  1.0 2.2531518162
Mo  Mo16  1  0.41730000  0.38442000  0.69233000  1.0 2.2531518162
Mo  Mo17  1  0.69697000  0.52188000  0.49167000  1.0 2.2129286498
Mo  Mo18  1  0.30303000  0.47812000  0.49167000  1.0 2.2129286498
Mo  Mo19  1  0.47812000  0.69697000  0.50833000  1.0 2.2129286498
Mo  Mo20  1  0.52188000  0.30303000  0.50833000  1.0 2.2129286498
Mo  Mo21  1  0.58925000  0.60563000  0.30731000  1.0 2.2531518162
Mo  Mo22  1  0.41075000  0.39437000  0.30731000  1.0 2.2531518162
Mo  Mo23  1  0.39437000  0.58925000  0.69269000  1.0 2.2531518162
Mo  Mo24  1  0.60563000  0.41075000  0.69269000  1.0 2.2531518162
P  P1  1  0.00000000  0.00000000  0.00000000  1.0 1.5079619259
P  P2  1  0.50000000  0.50000000  0.50000000  1.0 1.5079619259
H  H1  1  0.74890000  0.57470000  0.22810000  1.0 0.1407803328
H  H2  1  0.25110000  0.42530000  0.22810000  1.0 0.1407803328
H  H3  1  0.07470000  0.75110000  0.72810000  1.0 0.1407803328
H  H4  1  0.92530000  0.24890000  0.72810000  1.0 0.1407803328
H  H5  1  0.75110000  0.92530000  0.27190000  1.0 0.1407803328
H  H6  1  0.24890000  0.07470000  0.27190000  1.0 0.1407803328
H  H7  1  0.42530000  0.74890000  0.77190000  1.0 0.1407803328
H  H8  1  0.57470000  0.25110000  0.77190000  1.0 0.1407803328
H  H9  1  0.79650000  0.45260000  0.08030000  1.0 0.1745438099
H  H10  1  0.20350000  0.54740000  0.08030000  1.0 0.1745438099
H  H11  1  0.95260000  0.70350000  0.58030000  1.0 0.1745438099
H  H12  1  0.04740000  0.29650000  0.58030000  1.0 0.1745438099
H  H13  1  0.70350000  0.04740000  0.41970000  1.0 0.1745438099
H  H14  1  0.29650000  0.95260000  0.41970000  1.0 0.1745438099
H  H15  1  0.54740000  0.79650000  0.91970000  1.0 0.1745438099
H  H16  1  0.45260000  0.20350000  0.91970000  1.0 0.1745438099
H  H17  1  0.81450000  0.36010000  0.92280000  1.0 0.1328338914
H  H18  1  0.18550000  0.63990000  0.92280000  1.0 0.1328338914
H  H19  1  0.86010000  0.68550000  0.42280000  1.0 0.1328338914
H  H20  1  0.13990000  0.31450000  0.42280000  1.0 0.1328338914
H  H21  1  0.68550000  0.13990000  0.57720000  1.0 0.1328338914
H  H22  1  0.31450000  0.86010000  0.57720000  1.0 0.1328338914
H  H23  1  0.63990000  0.81450000  0.07720000  1.0 0.1328338914
H  H24  1  0.36010000  0.18550000  0.07720000  1.0 0.1328338914
H  H25  1  0.71300000  0.17050000  0.96790000  1.0 0.1407803328
H  H26  1  0.28700000  0.82950000  0.96790000  1.0 0.1407803328
H  H27  1  0.67050000  0.78700000  0.46790000  1.0 0.1407803328
H  H28  1  0.32950000  0.21300000  0.46790000  1.0 0.1407803328
H  H29  1  0.78700000  0.32950000  0.53210000  1.0 0.1407803328
H  H30  1  0.21300000  0.67050000  0.53210000  1.0 0.1407803328
H  H31  1  0.82950000  0.71300000  0.03210000  1.0 0.1407803328
H  H32  1  0.17050000  0.28700000  0.03210000  1.0 0.1407803328
H  H33  1  0.87180000  0.26470000  0.21250000  1.0 0.1407803328
H  H34  1  0.12820000  0.73530000  0.21250000  1.0 0.1407803328
H  H35  1  0.76470000  0.62820000  0.71250000  1.0 0.1407803328
H  H36  1  0.23530000  0.37180000  0.71250000  1.0 0.1407803328
H  H37  1  0.62820000  0.23530000  0.28750000  1.0 0.1407803328
H  H38  1  0.37180000  0.76470000  0.28750000  1.0 0.1407803328
H  H39  1  0.73530000  0.87180000  0.78750000  1.0 0.1407803328
H  H40  1  0.26470000  0.12820000  0.78750000  1.0 0.1407803328
H  H41  1  0.91860000  0.46340000  0.33880000  1.0 0.1514994603
H  H42  1  0.08140000  0.53660000  0.33880000  1.0 0.1514994603
H  H43  1  0.96340000  0.58140000  0.83880000  1.0 0.1514994603
H  H44  1  0.03660000  0.41860000  0.83880000  1.0 0.1514994603
H  H45  1  0.58140000  0.03660000  0.16120000  1.0 0.1514994603
H  H46  1  0.41860000  0.96340000  0.16120000  1.0 0.1514994603
H  H47  1  0.53660000  0.91860000  0.66120000  1.0 0.1514994603
H  H48  1  0.46340000  0.08140000  0.66120000  1.0 0.1514994603
H  H49  1  0.75010000  0.21700000  0.13690000  1.0 0.1514994603
H  H50  1  0.24990000  0.78300000  0.13690000  1.0 0.1514994603
H  H51  1  0.71700000  0.74990000  0.63690000  1.0 0.1514994603
H  H52  1  0.28300000  0.25010000  0.63690000  1.0 0.1514994603
H  H53  1  0.74990000  0.28300000  0.36310000  1.0 0.1514994603
H  H54  1  0.25010000  0.71700000  0.36310000  1.0 0.1514994603
H  H55  1  0.78300000  0.75010000  0.86310000  1.0 0.1514994603
H  H56  1  0.21700000  0.24990000  0.86310000  1.0 0.1514994603
H  H57  1  0.92050000  0.70700000  0.20690000  1.0 0.1514994603
H  H58  1  0.07950000  0.29300000  0.20690000  1.0 0.1514994603
H  H59  1  0.20700000  0.57950000  0.70690000  1.0 0.1514994603
H  H60  1  0.79300000  0.42050000  0.70690000  1.0 0.1514994603
H  H61  1  0.57950000  0.79300000  0.29310000  1.0 0.1514994603
H  H62  1  0.42050000  0.20700000  0.29310000  1.0 0.1514994603
H  H63  1  0.29300000  0.92050000  0.79310000  1.0 0.1514994603
H  H64  1  0.70700000  0.07950000  0.79310000  1.0 0.1514994603
H  H65  1  0.96630000  0.58060000  0.18780000  1.0 0.1514994603
H  H66  1  0.03370000  0.41940000  0.18780000  1.0 0.1514994603
H  H67  1  0.08060000  0.53370000  0.68780000  1.0 0.1514994603
H  H68  1  0.91940000  0.46630000  0.68780000  1.0 0.1514994603
H  H69  1  0.53370000  0.91940000  0.31220000  1.0 0.1514994603
H  H70  1  0.46630000  0.08060000  0.31220000  1.0 0.1514994603
H  H71  1  0.41940000  0.96630000  0.81220000  1.0 0.1514994603
H  H72  1  0.58060000  0.03370000  0.81220000  1.0 0.1514994603
C  C1  1  0.82780000  0.35130000  0.13550000  1.0 0.2079964884
C  C2  1  0.17220000  0.64870000  0.13550000  1.0 0.2079964884
C  C3  1  0.85130000  0.67220000  0.63550000  1.0 0.2079964884
C  C4  1  0.14870000  0.32780000  0.63550000  1.0 0.2079964884
C  C5  1  0.67220000  0.14870000  0.36450000  1.0 0.2079964884
C  C6  1  0.32780000  0.85130000  0.36450000  1.0 0.2079964884
C  C7  1  0.64870000  0.82780000  0.86450000  1.0 0.2079964884
C  C8  1  0.35130000  0.17220000  0.86450000  1.0 0.2079964884
C  C9  1  0.79720000  0.59210000  0.22090000  1.0 0.1407803328
C  C10  1  0.20280000  0.40790000  0.22090000  1.0 0.1407803328
C  C11  1  0.09210000  0.70280000  0.72090000  1.0 0.1407803328
C  C12  1  0.90790000  0.29720000  0.72090000  1.0 0.1407803328
C  C13  1  0.70280000  0.90790000  0.27910000  1.0 0.1407803328
C  C14  1  0.29720000  0.09210000  0.27910000  1.0 0.1407803328
C  C15  1  0.40790000  0.79720000  0.77910000  1.0 0.1407803328
C  C16  1  0.59210000  0.20280000  0.77910000  1.0 0.1407803328
C  C17  1  0.90120000  0.35760000  0.28960000  1.0 0.0178846059
C  C18  1  0.09880000  0.64240000  0.28960000  1.0 0.0178846059
C  C19  1  0.85760000  0.59880000  0.78960000  1.0 0.0178846059
C  C20  1  0.14240000  0.40120000  0.78960000  1.0 0.0178846059
C  C21  1  0.59880000  0.14240000  0.21040000  1.0 0.0178846059
C  C22  1  0.40120000  0.85760000  0.21040000  1.0 0.0178846059
C  C23  1  0.64240000  0.90120000  0.71040000  1.0 0.0178846059
C  C24  1  0.35760000  0.09880000  0.71040000  1.0 0.0178846059
C  C25  1  0.82280000  0.42880000  0.13250000  1.0 -0.2016594439
C  C26  1  0.17720000  0.57120000  0.13250000  1.0 -0.2016594439
C  C27  1  0.92880000  0.67720000  0.63250000  1.0 -0.2016594439
C  C28  1  0.07120000  0.32280000  0.63250000  1.0 -0.2016594439
C  C29  1  0.67720000  0.07120000  0.36750000  1.0 -0.2016594439
C  C30  1  0.32280000  0.92880000  0.36750000  1.0 -0.2016594439
C  C31  1  0.57120000  0.82280000  0.86750000  1.0 -0.2016594439
C  C32  1  0.42880000  0.17720000  0.86750000  1.0 -0.2016594439
C  C33  1  0.85800000  0.46880000  0.20890000  1.0 0.1862075597
C  C34  1  0.14200000  0.53120000  0.20890000  1.0 0.1862075597
C  C35  1  0.96880000  0.64200000  0.70890000  1.0 0.1862075597
C  C36  1  0.03120000  0.35800000  0.70890000  1.0 0.1862075597
C  C37  1  0.64200000  0.03120000  0.29110000  1.0 0.1862075597
C  C38  1  0.35800000  0.96880000  0.29110000  1.0 0.1862075597
C  C39  1  0.53120000  0.85800000  0.79110000  1.0 0.1862075597
C  C40  1  0.46880000  0.14200000  0.79110000  1.0 0.1862075597
C  C41  1  0.79380000  0.31860000  0.95460000  1.0 0.1514994603
C  C42  1  0.20620000  0.68140000  0.95460000  1.0 0.1514994603
C  C43  1  0.81860000  0.70620000  0.45460000  1.0 0.1514994603
C  C44  1  0.18140000  0.29380000  0.45460000  1.0 0.1514994603
C  C45  1  0.70620000  0.18140000  0.54540000  1.0 0.1514994603
C  C46  1  0.29380000  0.81860000  0.54540000  1.0 0.1514994603
C  C47  1  0.68140000  0.79380000  0.04540000  1.0 0.1514994603
C  C48  1  0.31860000  0.20620000  0.04540000  1.0 0.1514994603
C  C49  1  0.73840000  0.21470000  0.97990000  1.0 -0.0044587013
C  C50  1  0.26160000  0.78530000  0.97990000  1.0 -0.0044587013
C  C51  1  0.71470000  0.76160000  0.47990000  1.0 -0.0044587013
C  C52  1  0.28530000  0.23840000  0.47990000  1.0 -0.0044587013
C  C53  1  0.76160000  0.28530000  0.52010000  1.0 -0.0044587013
C  C54  1  0.23840000  0.71470000  0.52010000  1.0 -0.0044587013
C  C55  1  0.78530000  0.73840000  0.02010000  1.0 -0.0044587013
C  C56  1  0.21470000  0.26160000  0.02010000  1.0 -0.0044587013
C  C57  1  0.86760000  0.31620000  0.21240000  1.0 -0.1632306567
C  C58  1  0.13240000  0.68380000  0.21240000  1.0 -0.1632306567
C  C59  1  0.81620000  0.63240000  0.71240000  1.0 -0.1632306567
C  C60  1  0.18380000  0.36760000  0.71240000  1.0 -0.1632306567
C  C61  1  0.63240000  0.18380000  0.28760000  1.0 -0.1632306567
C  C62  1  0.36760000  0.81620000  0.28760000  1.0 -0.1632306567
C  C63  1  0.68380000  0.86760000  0.78760000  1.0 -0.1632306567
C  C64  1  0.31620000  0.13240000  0.78760000  1.0 -0.1632306567
C  C65  1  0.89620000  0.43510000  0.28740000  1.0 -0.1785401731
C  C66  1  0.10380000  0.56490000  0.28740000  1.0 -0.1785401731
C  C67  1  0.93510000  0.60380000  0.78740000  1.0 -0.1785401731
C  C68  1  0.06490000  0.39620000  0.78740000  1.0 -0.1785401731
C  C69  1  0.60380000  0.06490000  0.21260000  1.0 -0.1785401731
C  C70  1  0.39620000  0.93510000  0.21260000  1.0 -0.1785401731
C  C71  1  0.56490000  0.89620000  0.71260000  1.0 -0.1785401731
C  C72  1  0.43510000  0.10380000  0.71260000  1.0 -0.1785401731
C  C73  1  0.75840000  0.24010000  0.07370000  1.0 -0.0503103874
C  C74  1  0.24160000  0.75990000  0.07370000  1.0 -0.0503103874
C  C75  1  0.74010000  0.74160000  0.57370000  1.0 -0.0503103874
C  C76  1  0.25990000  0.25840000  0.57370000  1.0 -0.0503103874
C  C77  1  0.74160000  0.25990000  0.42630000  1.0 -0.0503103874
C  C78  1  0.25840000  0.74010000  0.42630000  1.0 -0.0503103874
C  C79  1  0.75990000  0.75840000  0.92630000  1.0 -0.0503103874
C  C80  1  0.24010000  0.24160000  0.92630000  1.0 -0.0503103874
C  C81  1  0.89150000  0.66430000  0.20920000  1.0 -0.0065002536
C  C82  1  0.10850000  0.33570000  0.20920000  1.0 -0.0065002536
C  C83  1  0.16430000  0.60850000  0.70920000  1.0 -0.0065002536
C  C84  1  0.83570000  0.39150000  0.70920000  1.0 -0.0065002536
C  C85  1  0.60850000  0.83570000  0.29080000  1.0 -0.0065002536
C  C86  1  0.39150000  0.16430000  0.29080000  1.0 -0.0065002536
C  C87  1  0.33570000  0.89150000  0.79080000  1.0 -0.0065002536
C  C88  1  0.66430000  0.10850000  0.79080000  1.0 -0.0065002536
C  C89  1  0.91720000  0.59470000  0.19840000  1.0 -0.0629461288
C  C90  1  0.08280000  0.40530000  0.19840000  1.0 -0.0629461288
C  C91  1  0.09470000  0.58280000  0.69840000  1.0 -0.0629461288
C  C92  1  0.90530000  0.41720000  0.69840000  1.0 -0.0629461288
C  C93  1  0.58280000  0.90530000  0.30160000  1.0 -0.0629461288
C  C94  1  0.41720000  0.09470000  0.30160000  1.0 -0.0629461288
C  C95  1  0.40530000  0.91720000  0.80160000  1.0 -0.0629461288
C  C96  1  0.59470000  0.08280000  0.80160000  1.0 -0.0629461288
C  C97  1  0.94610000  0.32180000  0.37350000  1.0 0.537454483
C  C98  1  0.05390000  0.67820000  0.37350000  1.0 0.537454483
C  C99  1  0.82180000  0.55390000  0.87350000  1.0 0.537454483
C  C100  1  0.17820000  0.44610000  0.87350000  1.0 0.537454483
C  C101  1  0.55390000  0.17820000  0.12650000  1.0 0.537454483
C  C102  1  0.44610000  0.82180000  0.12650000  1.0 0.537454483
C  C103  1  0.67820000  0.94610000  0.62650000  1.0 0.537454483
C  C104  1  0.32180000  0.05390000  0.62650000  1.0 0.537454483
N  N1  1  0.79370000  0.30740000  0.05750000  1.0 0.0178846059
N  N2  1  0.20630000  0.69260000  0.05750000  1.0 0.0178846059
N  N3  1  0.80740000  0.70630000  0.55750000  1.0 0.0178846059
N  N4  1  0.19260000  0.29370000  0.55750000  1.0 0.0178846059
N  N5  1  0.70630000  0.19260000  0.44250000  1.0 0.0178846059
N  N6  1  0.29370000  0.80740000  0.44250000  1.0 0.0178846059
N  N7  1  0.69260000  0.79370000  0.94250000  1.0 0.0178846059
N  N8  1  0.30740000  0.20630000  0.94250000  1.0 0.0178846059
N  N9  1  0.76120000  0.26400000  0.90390000  1.0 -0.2560734555
N  N10  1  0.23880000  0.73600000  0.90390000  1.0 -0.2560734555
N  N11  1  0.76400000  0.73880000  0.40390000  1.0 -0.2560734555
N  N12  1  0.23600000  0.26120000  0.40390000  1.0 -0.2560734555
N  N13  1  0.73880000  0.23600000  0.59610000  1.0 -0.2560734555
N  N14  1  0.26120000  0.76400000  0.59610000  1.0 -0.2560734555
N  N15  1  0.73600000  0.76120000  0.09610000  1.0 -0.2560734555
N  N16  1  0.26400000  0.23880000  0.09610000  1.0 -0.2560734555
N  N17  1  0.81610000  0.66290000  0.22420000  1.0 -0.2709346145
N  N18  1  0.18390000  0.33710000  0.22420000  1.0 -0.2709346145
N  N19  1  0.16290000  0.68390000  0.72420000  1.0 -0.2709346145
N  N20  1  0.83710000  0.31610000  0.72420000  1.0 -0.2709346145
N  N21  1  0.68390000  0.83710000  0.27580000  1.0 -0.2709346145
N  N22  1  0.31610000  0.16290000  0.27580000  1.0 -0.2709346145
N  N23  1  0.33710000  0.81610000  0.77580000  1.0 -0.2709346145
N  N24  1  0.66290000  0.18390000  0.77580000  1.0 -0.2709346145
N  N25  1  0.85650000  0.54850000  0.20600000  1.0 0.0178846059
N  N26  1  0.14350000  0.45150000  0.20600000  1.0 0.0178846059
N  N27  1  0.04850000  0.64350000  0.70600000  1.0 0.0178846059
N  N28  1  0.95150000  0.35650000  0.70600000  1.0 0.0178846059
N  N29  1  0.64350000  0.95150000  0.29400000  1.0 0.0178846059
N  N30  1  0.35650000  0.04850000  0.29400000  1.0 0.0178846059
N  N31  1  0.45150000  0.85650000  0.79400000  1.0 0.0178846059
N  N32  1  0.54850000  0.14350000  0.79400000  1.0 0.0178846059
O  O1  1  0.94880000  0.24970000  0.37790000  1.0 -0.5501363531
O  O2  1  0.05120000  0.75030000  0.37790000  1.0 -0.5501363531
O  O3  1  0.74970000  0.55120000  0.87790000  1.0 -0.5501363531
O  O4  1  0.25030000  0.44880000  0.87790000  1.0 -0.5501363531
O  O5  1  0.55120000  0.25030000  0.12210000  1.0 -0.5501363531
O  O6  1  0.44880000  0.74970000  0.12210000  1.0 -0.5501363531
O  O7  1  0.75030000  0.94880000  0.62210000  1.0 -0.5501363531
O  O8  1  0.24970000  0.05120000  0.62210000  1.0 -0.5501363531
O  O9  1  0.98450000  0.35980000  0.43090000  1.0 -0.5553755566
O  O10  1  0.01550000  0.64020000  0.43090000  1.0 -0.5553755566
O  O11  1  0.85980000  0.51550000  0.93090000  1.0 -0.5553755566
O  O12  1  0.14020000  0.48450000  0.93090000  1.0 -0.5553755566
O  O13  1  0.51550000  0.14020000  0.06910000  1.0 -0.5553755566
O  O14  1  0.48450000  0.85980000  0.06910000  1.0 -0.5553755566
O  O15  1  0.64020000  0.98450000  0.56910000  1.0 -0.5553755566
O  O16  1  0.35980000  0.01550000  0.56910000  1.0 -0.5553755566
O  O17  1  0.86257000  0.84460000  0.71380000  1.0 -0.5896363288
O  O18  1  0.13743000  0.15540000  0.71380000  1.0 -0.5896363288
O  O19  1  0.84460000  0.13743000  0.28620000  1.0 -0.5896363288
O  O20  1  0.15540000  0.86257000  0.28620000  1.0 -0.5896363288
O  O21  1  0.94536000  0.80101000  0.88560000  1.0 -0.8125458463
O  O22  1  0.05464000  0.19899000  0.88560000  1.0 -0.8125458463
O  O23  1  0.80101000  0.05464000  0.11440000  1.0 -0.8125458463
O  O24  1  0.19899000  0.94536000  0.11440000  1.0 -0.8125458463
O  O25  1  0.01274000  0.88199000  0.74070000  1.0 -0.8621499642
O  O26  1  0.98726000  0.11801000  0.74070000  1.0 -0.8621499642
O  O27  1  0.88199000  0.98726000  0.25930000  1.0 -0.8621499642
O  O28  1  0.11801000  0.01274000  0.25930000  1.0 -0.8621499642
O  O29  1  0.84508000  0.91187000  0.90750000  1.0 -0.847699737
O  O30  1  0.15492000  0.08813000  0.90750000  1.0 -0.847699737
O  O31  1  0.91187000  0.15492000  0.09250000  1.0 -0.847699737
O  O32  1  0.08813000  0.84508000  0.09250000  1.0 -0.847699737
O  O33  1  0.00776000  0.93122000  0.93150000  1.0 -0.9249205619
O  O34  1  0.99224000  0.06878000  0.93150000  1.0 -0.9249205619
O  O35  1  0.93122000  0.99224000  0.06850000  1.0 -0.9249205619
O  O36  1  0.06878000  0.00776000  0.06850000  1.0 -0.9256681829
O  O37  1  0.91143000  0.99026000  0.76710000  1.0 -0.847699737
O  O38  1  0.08857000  0.00974000  0.76710000  1.0 -0.847699737
O  O39  1  0.99026000  0.08857000  0.23290000  1.0 -0.847699737
O  O40  1  0.00974000  0.91143000  0.23290000  1.0 -0.847699737
O  O41  1  0.09255000  0.81874000  0.88780000  1.0 -0.847699737
O  O42  1  0.90745000  0.18126000  0.88780000  1.0 -0.847699737
O  O43  1  0.81874000  0.90745000  0.11220000  1.0 -0.847699737
O  O44  1  0.18126000  0.09255000  0.11220000  1.0 -0.847699737
O  O45  1  0.03050000  0.70950000  0.01370000  1.0 -0.6111156373
O  O46  1  0.96950000  0.29050000  0.01370000  1.0 -0.6111156373
O  O47  1  0.70950000  0.96950000  0.98630000  1.0 -0.6111156373
O  O48  1  0.29050000  0.03050000  0.98630000  1.0 -0.6111156373
O  O49  1  0.94451000  0.83095000  0.08910000  1.0 -0.8262081623
O  O50  1  0.05549000  0.16905000  0.08910000  1.0 -0.8262081623
O  O51  1  0.83095000  0.05549000  0.91090000  1.0 -0.8262081623
O  O52  1  0.16905000  0.94451000  0.91090000  1.0 -0.8262081623
O  O53  1  0.16693000  0.87750000  0.71880000  1.0 -0.5999592572
O  O54  1  0.83307000  0.12250000  0.71880000  1.0 -0.5999592572
O  O55  1  0.87750000  0.83307000  0.28120000  1.0 -0.5999592572
O  O56  1  0.12250000  0.16693000  0.28120000  1.0 -0.5999592572
O  O57  1  0.65540000  0.36257000  0.21380000  1.0 -0.5896363288
O  O58  1  0.34460000  0.63743000  0.21380000  1.0 -0.5896363288
O  O59  1  0.63743000  0.65540000  0.78620000  1.0 -0.5896363288
O  O60  1  0.36257000  0.34460000  0.78620000  1.0 -0.5896363288
O  O61  1  0.69899000  0.44536000  0.38560000  1.0 -0.8125458463
O  O62  1  0.30101000  0.55464000  0.38560000  1.0 -0.8125458463
O  O63  1  0.55464000  0.69899000  0.61440000  1.0 -0.8125458463
O  O64  1  0.44536000  0.30101000  0.61440000  1.0 -0.8125458463
O  O65  1  0.61801000  0.51274000  0.24070000  1.0 -0.8621499642
O  O66  1  0.38199000  0.48726000  0.24070000  1.0 -0.8621499642
O  O67  1  0.48726000  0.61801000  0.75930000  1.0 -0.8621499642
O  O68  1  0.51274000  0.38199000  0.75930000  1.0 -0.8621499642
O  O69  1  0.58813000  0.34508000  0.40750000  1.0 -0.847699737
O  O70  1  0.41187000  0.65492000  0.40750000  1.0 -0.847699737
O  O71  1  0.65492000  0.58813000  0.59250000  1.0 -0.847699737
O  O72  1  0.34508000  0.41187000  0.59250000  1.0 -0.847699737
O  O73  1  0.56878000  0.50776000  0.43150000  1.0 -0.9256681829
O  O74  1  0.43122000  0.49224000  0.43150000  1.0 -0.9256681829
O  O75  1  0.49224000  0.56878000  0.56850000  1.0 -0.9256681829
O  O76  1  0.50776000  0.43122000  0.56850000  1.0 -0.9256681829
O  O77  1  0.50974000  0.41143000  0.26710000  1.0 -0.847699737
O  O78  1  0.49026000  0.58857000  0.26710000  1.0 -0.847699737
O  O79  1  0.58857000  0.50974000  0.73290000  1.0 -0.847699737
O  O80  1  0.41143000  0.49026000  0.73290000  1.0 -0.847699737
O  O81  1  0.68126000  0.59255000  0.38780000  1.0 -0.847699737
O  O82  1  0.31874000  0.40745000  0.38780000  1.0 -0.847699737
O  O83  1  0.40745000  0.68126000  0.61220000  1.0 -0.847699737
O  O84  1  0.59255000  0.31874000  0.61220000  1.0 -0.847699737
O  O85  1  0.79050000  0.53050000  0.51370000  1.0 -0.6111156373
O  O86  1  0.20950000  0.46950000  0.51370000  1.0 -0.6111156373
O  O87  1  0.46950000  0.79050000  0.48630000  1.0 -0.6111156373
O  O88  1  0.53050000  0.20950000  0.48630000  1.0 -0.6111156373
O  O89  1  0.66905000  0.44451000  0.58910000  1.0 -0.8262081623
O  O90  1  0.33095000  0.55549000  0.58910000  1.0 -0.8262081623
O  O91  1  0.55549000  0.66905000  0.41090000  1.0 -0.8262081623
O  O92  1  0.44451000  0.33095000  0.41090000  1.0 -0.8262081623
O  O93  1  0.62250000  0.66693000  0.21880000  1.0 -0.5999592572
O  O94  1  0.37750000  0.33307000  0.21880000  1.0 -0.5999592572
O  O95  1  0.33307000  0.62250000  0.78120000  1.0 -0.5999592572
O  O96  1  0.66693000  0.37750000  0.78120000  1.0 -0.5999592572
