# DDEC6 charges by PACMAN v1.1 (https://github.com/mtap-research/PACMAN-charge/)
data_ASIVEF_ASR_pacman
_symmetry_space_group_name_H-M   'P 1'
_cell_length_a   26.02340000
_cell_length_b   26.02340000
_cell_length_c   26.02340000
_cell_angle_alpha   136.36700000
_cell_angle_beta   97.93870000
_cell_angle_gamma   97.93870000
_symmetry_Int_Tables_number   1
_chemical_formula_structural   Cu6H56C92N8O29
_chemical_formula_sum   'Cu12 H112 C184 N16 O58'
_cell_volume   11289.87178629
_cell_formula_units_Z   2
loop_
 _symmetry_equiv_pos_site_id
 _symmetry_equiv_pos_as_xyz
  1  'x, y, z'
loop_
 _atom_site_type_symbol
 _atom_site_label
 _atom_site_symmetry_multiplicity
 _atom_site_fract_x
 _atom_site_fract_y
 _atom_site_fract_z
 _atom_site_occupancy
 _atom_site_charge
Cu  Cu1  1  0.53849000  0.53849000  0.00000000  1.0 0.504010229
Cu  Cu2  1  0.46151000  0.46151000  0.00000000  1.0 0.504010229
Cu  Cu3  1  0.49373000  0.42987000  0.43124000  1.0 0.7480645017
Cu  Cu4  1  0.50627000  0.93751000  0.93614000  1.0 0.7480645017
Cu  Cu5  1  0.00137000  0.57013000  0.06386000  1.0 0.7480645017
Cu  Cu6  1  0.99863000  0.06249000  0.56876000  1.0 0.7480645017
Cu  Cu7  1  0.50627000  0.57013000  0.56876000  1.0 0.7480645017
Cu  Cu8  1  0.49373000  0.06249000  0.06386000  1.0 0.7480645017
Cu  Cu9  1  0.99863000  0.42987000  0.93614000  1.0 0.7480645017
Cu  Cu10  1  0.00137000  0.93751000  0.43124000  1.0 0.7480645017
Cu  Cu11  1  0.03790000  0.50000000  0.53790000  1.0 0.8427945064
Cu  Cu12  1  0.96210000  0.50000000  0.46210000  1.0 0.8427945064
H  H1  1  0.46810000  0.41110000  0.76280000  1.0 0.1283402917
H  H2  1  0.53190000  0.29470000  0.94300000  1.0 0.1283402917
H  H3  1  0.35170000  0.58890000  0.05700000  1.0 0.1283402917
H  H4  1  0.64830000  0.70530000  0.23720000  1.0 0.1283402917
H  H5  1  0.53190000  0.58890000  0.23720000  1.0 0.1283402917
H  H6  1  0.46810000  0.70530000  0.05700000  1.0 0.1283402917
H  H7  1  0.64830000  0.41110000  0.94300000  1.0 0.1283402917
H  H8  1  0.35170000  0.29470000  0.76280000  1.0 0.1283402917
H  H9  1  0.74670000  0.44190000  0.52340000  1.0 0.1283402917
H  H10  1  0.25330000  0.77670000  0.69520000  1.0 0.1283402917
H  H11  1  0.08150000  0.55810000  0.30480000  1.0 0.1283402917
H  H12  1  0.91850000  0.22330000  0.47660000  1.0 0.1283402917
H  H13  1  0.25330000  0.55810000  0.47660000  1.0 0.1283402917
H  H14  1  0.74670000  0.22330000  0.30480000  1.0 0.1283402917
H  H15  1  0.91850000  0.44190000  0.69520000  1.0 0.1283402917
H  H16  1  0.08150000  0.77670000  0.52340000  1.0 0.1283402917
H  H17  1  0.42140000  0.47240000  0.72100000  1.0 0.1179761826
H  H18  1  0.57860000  0.29960000  0.05100000  1.0 0.1179761826
H  H19  1  0.24860000  0.52760000  0.94900000  1.0 0.1179761826
H  H20  1  0.75140000  0.70040000  0.27900000  1.0 0.1179761826
H  H21  1  0.57860000  0.52760000  0.27900000  1.0 0.1179761826
H  H22  1  0.42140000  0.70040000  0.94900000  1.0 0.1179761826
H  H23  1  0.75140000  0.47240000  0.05100000  1.0 0.1179761826
H  H24  1  0.24860000  0.29960000  0.72100000  1.0 0.1179761826
H  H25  1  0.77630000  0.56710000  0.74340000  1.0 0.2895269157
H  H26  1  0.22370000  0.96710000  0.79080000  1.0 0.2895269157
H  H27  1  0.17630000  0.43290000  0.20920000  1.0 0.2895269157
H  H28  1  0.82370000  0.03290000  0.25660000  1.0 0.2895269157
H  H29  1  0.22370000  0.43290000  0.25660000  1.0 0.2895269157
H  H30  1  0.77630000  0.03290000  0.20920000  1.0 0.2895269157
H  H31  1  0.82370000  0.56710000  0.79080000  1.0 0.2895269157
H  H32  1  0.17630000  0.96710000  0.74340000  1.0 0.2895269157
H  H33  1  0.84960000  0.54830000  0.58430000  1.0 0.1507312381
H  H34  1  0.15040000  0.73470000  0.69870000  1.0 0.1507312381
H  H35  1  0.03600000  0.45170000  0.30130000  1.0 0.1507312381
H  H36  1  0.96400000  0.26530000  0.41570000  1.0 0.1507312381
H  H37  1  0.15040000  0.45170000  0.41570000  1.0 0.1507312381
H  H38  1  0.84960000  0.26530000  0.30130000  1.0 0.1507312381
H  H39  1  0.96400000  0.54830000  0.69870000  1.0 0.1507312381
H  H40  1  0.03600000  0.73470000  0.58430000  1.0 0.1507312381
H  H41  1  0.46130000  0.52190000  0.67900000  1.0 0.1283402917
H  H42  1  0.53870000  0.21770000  0.06060000  1.0 0.1283402917
H  H43  1  0.15710000  0.47810000  0.93940000  1.0 0.1283402917
H  H44  1  0.84290000  0.78230000  0.32100000  1.0 0.1283402917
H  H45  1  0.53870000  0.47810000  0.32100000  1.0 0.1283402917
H  H46  1  0.46130000  0.78230000  0.93940000  1.0 0.1283402917
H  H47  1  0.84290000  0.52190000  0.06060000  1.0 0.1283402917
H  H48  1  0.15710000  0.21770000  0.67900000  1.0 0.1283402917
H  H49  1  0.40400000  0.25740000  0.52140000  1.0 0.1085248213
H  H50  1  0.59600000  0.11740000  0.85340000  1.0 0.1085248213
H  H51  1  0.26400000  0.74260000  0.14660000  1.0 0.1085248213
H  H52  1  0.73600000  0.88260000  0.47860000  1.0 0.1085248213
H  H53  1  0.59600000  0.74260000  0.47860000  1.0 0.1085248213
H  H54  1  0.40400000  0.88260000  0.14660000  1.0 0.1085248213
H  H55  1  0.73600000  0.25740000  0.85340000  1.0 0.1085248213
H  H56  1  0.26400000  0.11740000  0.52140000  1.0 0.1085248213
H  H57  1  0.44640000  0.30730000  0.47970000  1.0 0.1283402917
H  H58  1  0.55360000  0.03330000  0.86090000  1.0 0.1283402917
H  H59  1  0.17240000  0.69270000  0.13910000  1.0 0.1283402917
H  H60  1  0.82760000  0.96670000  0.52030000  1.0 0.1283402917
H  H61  1  0.55360000  0.69270000  0.52030000  1.0 0.1283402917
H  H62  1  0.44640000  0.96670000  0.13910000  1.0 0.1283402917
H  H63  1  0.82760000  0.30730000  0.86090000  1.0 0.1283402917
H  H64  1  0.17240000  0.03330000  0.47970000  1.0 0.1283402917
H  H65  1  0.65560000  0.43210000  0.47830000  1.0 0.1283402917
H  H66  1  0.34440000  0.82270000  0.77650000  1.0 0.1283402917
H  H67  1  0.04620000  0.56790000  0.22350000  1.0 0.1283402917
H  H68  1  0.95380000  0.17730000  0.52170000  1.0 0.1283402917
H  H69  1  0.34440000  0.56790000  0.52170000  1.0 0.1283402917
H  H70  1  0.65560000  0.17730000  0.22350000  1.0 0.1283402917
H  H71  1  0.95380000  0.43210000  0.77650000  1.0 0.1283402917
H  H72  1  0.04620000  0.82270000  0.47830000  1.0 0.1283402917
H  H73  1  0.77020000  0.65400000  0.73980000  1.0 0.1179761826
H  H74  1  0.22980000  0.96960000  0.88380000  1.0 0.1179761826
H  H75  1  0.08580000  0.34600000  0.11620000  1.0 0.1179761826
H  H76  1  0.91420000  0.03040000  0.26020000  1.0 0.1179761826
H  H77  1  0.22980000  0.34600000  0.26020000  1.0 0.1179761826
H  H78  1  0.77020000  0.03040000  0.11620000  1.0 0.1179761826
H  H79  1  0.91420000  0.65400000  0.88380000  1.0 0.1179761826
H  H80  1  0.08580000  0.96960000  0.73980000  1.0 0.1179761826
H  H81  1  0.67490000  0.64400000  0.69790000  1.0 0.1389525799
H  H82  1  0.32510000  0.02300000  0.96910000  1.0 0.1389525799
H  H83  1  0.05390000  0.35600000  0.03090000  1.0 0.1389525799
H  H84  1  0.94610000  0.97700000  0.30210000  1.0 0.1389525799
H  H85  1  0.32510000  0.35600000  0.30210000  1.0 0.1389525799
H  H86  1  0.67490000  0.97700000  0.03090000  1.0 0.1389525799
H  H87  1  0.94610000  0.64400000  0.96910000  1.0 0.1389525799
H  H88  1  0.05390000  0.02300000  0.69790000  1.0 0.1389525799
H  H89  1  0.45660000  0.25800000  0.33360000  1.0 0.1389525799
H  H90  1  0.54340000  0.87700000  0.80140000  1.0 0.1389525799
H  H91  1  0.07560000  0.74200000  0.19860000  1.0 0.1389525799
H  H92  1  0.92440000  0.12300000  0.66640000  1.0 0.1389525799
H  H93  1  0.54340000  0.74200000  0.66640000  1.0 0.1389525799
H  H94  1  0.45660000  0.12300000  0.19860000  1.0 0.1389525799
H  H95  1  0.92440000  0.25800000  0.80140000  1.0 0.1389525799
H  H96  1  0.07560000  0.87700000  0.33360000  1.0 0.1389525799
H  H97  1  0.48130000  0.34040000  0.26790000  1.0 0.1283402917
H  H98  1  0.51870000  0.78660000  0.85910000  1.0 0.1283402917
H  H99  1  0.92750000  0.65960000  0.14090000  1.0 0.1283402917
H  H100  1  0.07250000  0.21340000  0.73210000  1.0 0.1283402917
H  H101  1  0.51870000  0.65960000  0.73210000  1.0 0.1283402917
H  H102  1  0.48130000  0.21340000  0.14090000  1.0 0.1283402917
H  H103  1  0.07250000  0.34040000  0.85910000  1.0 0.1283402917
H  H104  1  0.92750000  0.78660000  0.26790000  1.0 0.1283402917
H  H105  1  0.27760000  0.20100000  0.52260000  1.0 0.2811886059
H  H106  1  0.72240000  0.24500000  0.92340000  1.0 0.2811886059
H  H107  1  0.32160000  0.79900000  0.07660000  1.0 0.2811886059
H  H108  1  0.67840000  0.75500000  0.47740000  1.0 0.2811886059
H  H109  1  0.72240000  0.79900000  0.47740000  1.0 0.2811886059
H  H110  1  0.27760000  0.75500000  0.07660000  1.0 0.2811886059
H  H111  1  0.67840000  0.20100000  0.92340000  1.0 0.2811886059
H  H112  1  0.32160000  0.24500000  0.52260000  1.0 0.2811886059
C  C1  1  0.90970000  0.54440000  0.63470000  1.0 -0.0199166168
C  C2  1  0.09030000  0.72500000  0.63470000  1.0 -0.0199166168
C  C3  1  0.09030000  0.45560000  0.36530000  1.0 -0.0199166168
C  C4  1  0.90970000  0.27500000  0.36530000  1.0 -0.0199166168
C  C5  1  0.82550000  0.55750000  0.66040000  1.0 -0.0071799447
C  C6  1  0.17450000  0.83490000  0.73200000  1.0 -0.0071799447
C  C7  1  0.10290000  0.44250000  0.26800000  1.0 -0.0071799447
C  C8  1  0.89710000  0.16510000  0.33960000  1.0 -0.0071799447
C  C9  1  0.17450000  0.44250000  0.33960000  1.0 -0.0071799447
C  C10  1  0.82550000  0.16510000  0.26800000  1.0 -0.0071799447
C  C11  1  0.89710000  0.55750000  0.73200000  1.0 -0.0071799447
C  C12  1  0.10290000  0.83490000  0.66040000  1.0 -0.0071799447
C  C13  1  0.59860000  0.52650000  0.55630000  1.0 0.5622515367
C  C14  1  0.40140000  0.95770000  0.92790000  1.0 0.5622515367
C  C15  1  0.02980000  0.47350000  0.07210000  1.0 0.5622515367
C  C16  1  0.97020000  0.04230000  0.44370000  1.0 0.5622515367
C  C17  1  0.40140000  0.47350000  0.44370000  1.0 0.5622515367
C  C18  1  0.59860000  0.04230000  0.07210000  1.0 0.5622515367
C  C19  1  0.97020000  0.52650000  0.92790000  1.0 0.5622515367
C  C20  1  0.02980000  0.95770000  0.55630000  1.0 0.5622515367
C  C21  1  0.43170000  0.37810000  0.73940000  1.0 -0.1675637154
C  C22  1  0.56830000  0.30770000  0.94640000  1.0 -0.1675637154
C  C23  1  0.36130000  0.62190000  0.05360000  1.0 -0.1675637154
C  C24  1  0.63870000  0.69230000  0.26060000  1.0 -0.1675637154
C  C25  1  0.56830000  0.62190000  0.26060000  1.0 -0.1675637154
C  C26  1  0.43170000  0.69230000  0.05360000  1.0 -0.1675637154
C  C27  1  0.63870000  0.37810000  0.94640000  1.0 -0.1675637154
C  C28  1  0.36130000  0.30770000  0.73940000  1.0 -0.1675637154
C  C29  1  0.41640000  0.36350000  0.62770000  1.0 0.0806614361
C  C30  1  0.58360000  0.21130000  0.94710000  1.0 0.0806614361
C  C31  1  0.26420000  0.63650000  0.05290000  1.0 0.0806614361
C  C32  1  0.73580000  0.78870000  0.37230000  1.0 0.0806614361
C  C33  1  0.58360000  0.63650000  0.37230000  1.0 0.0806614361
C  C34  1  0.41640000  0.78870000  0.05290000  1.0 0.0806614361
C  C35  1  0.73580000  0.36350000  0.94710000  1.0 0.0806614361
C  C36  1  0.26420000  0.21130000  0.62770000  1.0 0.0806614361
C  C37  1  0.39510000  0.34070000  0.66600000  1.0 -0.0071799447
C  C38  1  0.60490000  0.27090000  0.94560000  1.0 -0.0071799447
C  C39  1  0.32530000  0.65930000  0.05440000  1.0 -0.0071799447
C  C40  1  0.67470000  0.72910000  0.33400000  1.0 -0.0071799447
C  C41  1  0.60490000  0.65930000  0.33400000  1.0 -0.0071799447
C  C42  1  0.39510000  0.72910000  0.05440000  1.0 -0.0071799447
C  C43  1  0.67470000  0.34070000  0.94560000  1.0 -0.0071799447
C  C44  1  0.32530000  0.27090000  0.66600000  1.0 -0.0071799447
C  C45  1  0.47060000  0.44070000  0.54110000  1.0 0.5809728192
C  C46  1  0.52940000  0.07050000  0.97010000  1.0 0.5809728192
C  C47  1  0.10040000  0.55930000  0.02990000  1.0 0.5809728192
C  C48  1  0.89960000  0.92950000  0.45890000  1.0 0.5809728192
C  C49  1  0.52940000  0.55930000  0.45890000  1.0 0.5809728192
C  C50  1  0.47060000  0.92950000  0.02990000  1.0 0.5809728192
C  C51  1  0.89960000  0.44070000  0.97010000  1.0 0.5809728192
C  C52  1  0.10040000  0.07050000  0.54110000  1.0 0.5809728192
C  C53  1  0.73360000  0.48290000  0.55830000  1.0 -0.1354924433
C  C54  1  0.26640000  0.82470000  0.74930000  1.0 -0.1354924433
C  C55  1  0.07540000  0.51710000  0.25070000  1.0 -0.1354924433
C  C56  1  0.92460000  0.17530000  0.44170000  1.0 -0.1354924433
C  C57  1  0.26640000  0.51710000  0.44170000  1.0 -0.1354924433
C  C58  1  0.73360000  0.17530000  0.25070000  1.0 -0.1354924433
C  C59  1  0.92460000  0.48290000  0.74930000  1.0 -0.1354924433
C  C60  1  0.07540000  0.82470000  0.55830000  1.0 -0.1347012682
C  C61  1  0.42730000  0.43830000  0.67280000  1.0 -0.1509166065
C  C62  1  0.57270000  0.24550000  0.01100000  1.0 -0.1509166065
C  C63  1  0.23450000  0.56170000  0.98900000  1.0 -0.1562088965
C  C64  1  0.76550000  0.75450000  0.32720000  1.0 -0.1562088965
C  C65  1  0.57270000  0.56170000  0.32720000  1.0 -0.1509166065
C  C66  1  0.42730000  0.75450000  0.98900000  1.0 -0.1509166065
C  C67  1  0.76550000  0.43830000  0.01100000  1.0 -0.1509166065
C  C68  1  0.23450000  0.24550000  0.67280000  1.0 -0.1509166065
C  C69  1  0.40970000  0.36220000  0.77190000  1.0 -0.1131426184
C  C70  1  0.59030000  0.36220000  0.95250000  1.0 -0.1131426184
C  C71  1  0.40970000  0.63780000  0.04750000  1.0 -0.1131426184
C  C72  1  0.59030000  0.63780000  0.22810000  1.0 -0.1131426184
C  C73  1  0.94500000  0.53390000  0.58890000  1.0 0.5864602314
C  C74  1  0.05500000  0.64390000  0.58890000  1.0 0.5864602314
C  C75  1  0.05500000  0.46610000  0.41110000  1.0 0.5864602314
C  C76  1  0.94500000  0.35610000  0.41110000  1.0 0.5864602314
C  C77  1  0.44490000  0.41560000  0.86050000  1.0 0.4722594308
C  C78  1  0.55510000  0.41560000  0.97070000  1.0 0.4722594308
C  C79  1  0.44490000  0.58440000  0.02930000  1.0 0.4722594308
C  C80  1  0.55510000  0.58440000  0.13950000  1.0 0.4722594308
C  C81  1  0.76500000  0.54720000  0.63200000  1.0 0.0688895495
C  C82  1  0.23500000  0.86700000  0.78220000  1.0 0.0688895495
C  C83  1  0.08480000  0.45280000  0.21780000  1.0 0.0688895495
C  C84  1  0.91520000  0.13300000  0.36800000  1.0 0.0688895495
C  C85  1  0.23500000  0.45280000  0.36800000  1.0 0.0688895495
C  C86  1  0.76500000  0.13300000  0.21780000  1.0 0.0688895495
C  C87  1  0.91520000  0.54720000  0.78220000  1.0 0.0688895495
C  C88  1  0.08480000  0.86700000  0.63200000  1.0 0.0688895495
C  C89  1  0.86060000  0.54980000  0.62100000  1.0 -0.1509166065
C  C90  1  0.13940000  0.76040000  0.68920000  1.0 -0.1509166065
C  C91  1  0.07120000  0.45020000  0.31080000  1.0 -0.1509166065
C  C92  1  0.92880000  0.23960000  0.37900000  1.0 -0.1509166065
C  C93  1  0.13940000  0.45020000  0.37900000  1.0 -0.1509166065
C  C94  1  0.86060000  0.23960000  0.31080000  1.0 -0.1509166065
C  C95  1  0.92880000  0.54980000  0.68920000  1.0 -0.1509166065
C  C96  1  0.07120000  0.76040000  0.62100000  1.0 -0.1509166065
C  C97  1  0.44900000  0.46790000  0.64610000  1.0 -0.1010137014
C  C98  1  0.55100000  0.19710000  0.01890000  1.0 -0.1010137014
C  C99  1  0.17820000  0.53210000  0.98110000  1.0 -0.1010137014
C  C100  1  0.82180000  0.80290000  0.35390000  1.0 -0.1010137014
C  C101  1  0.55100000  0.53210000  0.35390000  1.0 -0.1010137014
C  C102  1  0.44900000  0.80290000  0.98110000  1.0 -0.1010137014
C  C103  1  0.82180000  0.46790000  0.01890000  1.0 -0.1010137014
C  C104  1  0.17820000  0.19710000  0.64610000  1.0 -0.1010137014
C  C105  1  0.45050000  0.41300000  0.57150000  1.0 -0.0071799447
C  C106  1  0.54950000  0.12100000  0.96250000  1.0 -0.0071799447
C  C107  1  0.15850000  0.58700000  0.03750000  1.0 -0.0071799447
C  C108  1  0.84150000  0.87900000  0.42850000  1.0 -0.0071799447
C  C109  1  0.54950000  0.58700000  0.42850000  1.0 -0.0071799447
C  C110  1  0.45050000  0.87900000  0.03750000  1.0 -0.0071799447
C  C111  1  0.84150000  0.41300000  0.96250000  1.0 -0.0071799447
C  C112  1  0.15850000  0.12100000  0.57150000  1.0 -0.0071799447
C  C113  1  0.41720000  0.31150000  0.55510000  1.0 -0.2002725298
C  C114  1  0.58280000  0.13790000  0.89430000  1.0 -0.2002725298
C  C115  1  0.24360000  0.68850000  0.10570000  1.0 -0.2002725298
C  C116  1  0.75640000  0.86210000  0.44490000  1.0 -0.2002725298
C  C117  1  0.58280000  0.68850000  0.44490000  1.0 -0.2002725298
C  C118  1  0.41720000  0.86210000  0.10570000  1.0 -0.2002725298
C  C119  1  0.75640000  0.31150000  0.89430000  1.0 -0.2002725298
C  C120  1  0.24360000  0.13790000  0.55510000  1.0 -0.2002725298
C  C121  1  0.44010000  0.34120000  0.52770000  1.0 -0.0620625843
C  C122  1  0.55990000  0.08760000  0.90110000  1.0 -0.0620625843
C  C123  1  0.18650000  0.65880000  0.09890000  1.0 -0.0620625843
C  C124  1  0.81350000  0.91240000  0.47230000  1.0 -0.0620625843
C  C125  1  0.55990000  0.65880000  0.47230000  1.0 -0.0620625843
C  C126  1  0.44010000  0.91240000  0.09890000  1.0 -0.0620625843
C  C127  1  0.81350000  0.34120000  0.90110000  1.0 -0.0620625843
C  C128  1  0.18650000  0.08760000  0.52770000  1.0 -0.0620625843
C  C129  1  0.67800000  0.47630000  0.53150000  1.0 -0.0909359282
C  C130  1  0.32200000  0.85350000  0.79830000  1.0 -0.0909359282
C  C131  1  0.05520000  0.52370000  0.20170000  1.0 -0.0909359282
C  C132  1  0.94480000  0.14650000  0.46850000  1.0 -0.0909359282
C  C133  1  0.32200000  0.52370000  0.46850000  1.0 -0.0909359282
C  C134  1  0.67800000  0.14650000  0.20170000  1.0 -0.0909359282
C  C135  1  0.94480000  0.47630000  0.79830000  1.0 -0.0909359282
C  C136  1  0.05520000  0.85350000  0.53150000  1.0 -0.0909359282
C  C137  1  0.84300000  0.56370000  0.72070000  1.0 0.2005544887
C  C138  1  0.15700000  0.87770000  0.72070000  1.0 0.1946796016
C  C139  1  0.15700000  0.43630000  0.27930000  1.0 0.1946796016
C  C140  1  0.84300000  0.12230000  0.27930000  1.0 0.1946796016
C  C141  1  0.34140000  0.28080000  0.62220000  1.0 0.2005544887
C  C142  1  0.65860000  0.28080000  0.93940000  1.0 0.2005544887
C  C143  1  0.34140000  0.71920000  0.06060000  1.0 0.2005544887
C  C144  1  0.65860000  0.71920000  0.37780000  1.0 0.2005544887
C  C145  1  0.65840000  0.53660000  0.58580000  1.0 -0.0071799447
C  C146  1  0.34160000  0.92740000  0.87820000  1.0 -0.0071799447
C  C147  1  0.04920000  0.46340000  0.12180000  1.0 -0.0071799447
C  C148  1  0.95080000  0.07260000  0.41420000  1.0 -0.0071799447
C  C149  1  0.34160000  0.46340000  0.41420000  1.0 -0.0071799447
C  C150  1  0.65840000  0.07260000  0.12180000  1.0 -0.0071799447
C  C151  1  0.95080000  0.53660000  0.87820000  1.0 -0.0071799447
C  C152  1  0.04920000  0.92740000  0.58580000  1.0 -0.0071799447
C  C153  1  0.74660000  0.60930000  0.68750000  1.0 -0.1675637154
C  C154  1  0.25340000  0.94090000  0.86270000  1.0 -0.1675637154
C  C155  1  0.07820000  0.39070000  0.13730000  1.0 -0.1675637154
C  C156  1  0.92180000  0.05910000  0.31250000  1.0 -0.1675637154
C  C157  1  0.25340000  0.39070000  0.31250000  1.0 -0.1675637154
C  C158  1  0.74660000  0.05910000  0.13730000  1.0 -0.1675637154
C  C159  1  0.92180000  0.60930000  0.86270000  1.0 -0.1675637154
C  C160  1  0.07820000  0.94090000  0.68750000  1.0 -0.1675637154
C  C161  1  0.68870000  0.60390000  0.66280000  1.0 -0.1010137014
C  C162  1  0.31130000  0.97410000  0.91520000  1.0 -0.1010137014
C  C163  1  0.05890000  0.39610000  0.08480000  1.0 -0.1010137014
C  C164  1  0.94110000  0.02590000  0.33720000  1.0 -0.1010137014
C  C165  1  0.31130000  0.39610000  0.33720000  1.0 -0.1010137014
C  C166  1  0.68870000  0.02590000  0.08480000  1.0 -0.1010137014
C  C167  1  0.94110000  0.60390000  0.91520000  1.0 -0.1010137014
C  C168  1  0.05890000  0.97410000  0.66280000  1.0 -0.1010137014
C  C169  1  0.47030000  0.25444000  0.30034000  1.0 0.0462230943
C  C170  1  0.52970000  0.83004000  0.78414000  1.0 0.0462230943
C  C171  1  0.04590000  0.74556000  0.21586000  1.0 0.0462230943
C  C172  1  0.95410000  0.16996000  0.69966000  1.0 0.0462230943
C  C173  1  0.52970000  0.74556000  0.69966000  1.0 0.0462230943
C  C174  1  0.47030000  0.16996000  0.21586000  1.0 0.0462230943
C  C175  1  0.95410000  0.25444000  0.78414000  1.0 0.0462230943
C  C176  1  0.04590000  0.83004000  0.30034000  1.0 0.0462230943
C  C177  1  0.48540000  0.30230000  0.26310000  1.0 0.0688895495
C  C178  1  0.51460000  0.77770000  0.81690000  1.0 0.0688895495
C  C179  1  0.96080000  0.69770000  0.18310000  1.0 0.0688895495
C  C180  1  0.03920000  0.22230000  0.73690000  1.0 0.0688895495
C  C181  1  0.51460000  0.69770000  0.73690000  1.0 0.0688895495
C  C182  1  0.48540000  0.22230000  0.18310000  1.0 0.0688895495
C  C183  1  0.03920000  0.30230000  0.81690000  1.0 0.0688895495
C  C184  1  0.96080000  0.77770000  0.26310000  1.0 0.0688895495
N  N1  1  0.30870000  0.24140000  0.55010000  1.0 -0.5576922311
N  N2  1  0.69130000  0.24140000  0.93270000  1.0 -0.5576922311
N  N3  1  0.30870000  0.75860000  0.06730000  1.0 -0.5576922311
N  N4  1  0.69130000  0.75860000  0.44990000  1.0 -0.5576922311
N  N5  1  0.80690000  0.56110000  0.75420000  1.0 -0.5978688015
N  N6  1  0.19310000  0.94730000  0.75420000  1.0 -0.5978688015
N  N7  1  0.19310000  0.43890000  0.24580000  1.0 -0.5978688015
N  N8  1  0.80690000  0.05270000  0.24580000  1.0 -0.5978688015
N  N9  1  0.49050000  0.31620000  0.31870000  1.0 -0.1675637154
N  N10  1  0.50950000  0.82820000  0.82570000  1.0 -0.1675637154
N  N11  1  0.00250000  0.68380000  0.17430000  1.0 -0.1675637154
N  N12  1  0.99750000  0.17180000  0.68130000  1.0 -0.1675637154
N  N13  1  0.50950000  0.68380000  0.68130000  1.0 -0.1675637154
N  N14  1  0.49050000  0.17180000  0.17430000  1.0 -0.1675637154
N  N15  1  0.99750000  0.31620000  0.82570000  1.0 -0.1675637154
N  N16  1  0.00250000  0.82820000  0.31870000  1.0 -0.1675637154
O  O1  1  0.47374000  0.39428000  0.47206000  1.0 -0.5099648276
O  O2  1  0.52626000  0.99832000  0.92054000  1.0 -0.5099648276
O  O3  1  0.07778000  0.60572000  0.07946000  1.0 -0.5099648276
O  O4  1  0.92222000  0.00168000  0.52794000  1.0 -0.5099648276
O  O5  1  0.52626000  0.60572000  0.52794000  1.0 -0.5099648276
O  O6  1  0.47374000  0.00168000  0.07946000  1.0 -0.5099648276
O  O7  1  0.92222000  0.39428000  0.92054000  1.0 -0.5099648276
O  O8  1  0.07778000  0.99832000  0.47206000  1.0 -0.5099648276
O  O9  1  0.99265000  0.53339000  0.60686000  1.0 -0.5099648276
O  O10  1  0.00735000  0.61421000  0.54074000  1.0 -0.5099648276
O  O11  1  0.07347000  0.46661000  0.45926000  1.0 -0.5099648276
O  O12  1  0.92653000  0.38579000  0.39314000  1.0 -0.5099648276
O  O13  1  0.00735000  0.46661000  0.39314000  1.0 -0.5099648276
O  O14  1  0.99265000  0.38579000  0.45926000  1.0 -0.5099648276
O  O15  1  0.92653000  0.53339000  0.54074000  1.0 -0.5099648276
O  O16  1  0.07347000  0.61421000  0.60686000  1.0 -0.5099648276
O  O17  1  0.49412000  0.46719000  0.89033000  1.0 -0.6324151257
O  O18  1  0.50588000  0.39621000  0.97307000  1.0 -0.6324151257
O  O19  1  0.42314000  0.53281000  0.02693000  1.0 -0.6388457431
O  O20  1  0.57686000  0.60379000  0.10967000  1.0 -0.6324151257
O  O21  1  0.50588000  0.53281000  0.10967000  1.0 -0.6324151257
O  O22  1  0.49412000  0.60379000  0.02693000  1.0 -0.6324151257
O  O23  1  0.57686000  0.46719000  0.97307000  1.0 -0.6324151257
O  O24  1  0.42314000  0.39621000  0.89033000  1.0 -0.6324151257
O  O25  1  0.58407000  0.58278000  0.60489000  1.0 -0.4762562601
O  O26  1  0.41593000  0.02082000  0.99871000  1.0 -0.4762562601
O  O27  1  0.02211000  0.41722000  0.00129000  1.0 -0.4762562601
O  O28  1  0.97789000  0.97918000  0.39511000  1.0 -0.4762562601
O  O29  1  0.41593000  0.41722000  0.39511000  1.0 -0.4762562601
O  O30  1  0.58407000  0.97918000  0.00129000  1.0 -0.4762562601
O  O31  1  0.97789000  0.58278000  0.99871000  1.0 -0.4762562601
O  O32  1  0.02211000  0.02082000  0.60489000  1.0 -0.4762562601
O  O33  1  0.48173000  0.51553000  0.59240000  1.0 -0.5175699009
O  O34  1  0.51827000  0.11067000  0.03380000  1.0 -0.5175699009
O  O35  1  0.07687000  0.48447000  0.96620000  1.0 -0.5175699009
O  O36  1  0.92313000  0.88933000  0.40760000  1.0 -0.5175699009
O  O37  1  0.51827000  0.48447000  0.40760000  1.0 -0.5175699009
O  O38  1  0.48173000  0.88933000  0.96620000  1.0 -0.5175699009
O  O39  1  0.92313000  0.51553000  0.03380000  1.0 -0.5175699009
O  O40  1  0.07687000  0.11067000  0.59240000  1.0 -0.5175699009
O  O41  1  0.57068000  0.45859000  0.48469000  1.0 -0.5099648276
O  O42  1  0.42932000  0.91401000  0.88791000  1.0 -0.5099648276
O  O43  1  0.02610000  0.54141000  0.11209000  1.0 -0.5099648276
O  O44  1  0.97390000  0.08599000  0.51531000  1.0 -0.5099648276
O  O45  1  0.42932000  0.54141000  0.51531000  1.0 -0.5099648276
O  O46  1  0.57068000  0.08599000  0.11209000  1.0 -0.5099648276
O  O47  1  0.97390000  0.45859000  0.88791000  1.0 -0.5099648276
O  O48  1  0.02610000  0.91401000  0.48469000  1.0 -0.5099648276
O  O49  1  0.60380000  0.60380000  0.00000000  1.0 0.1026094691
O  O50  1  0.39620000  0.39620000  0.00000000  1.0 0.1026094691
O  O51  1  0.61460000  0.62280000  0.03240000  1.0 -0.0199166168
O  O52  1  0.38540000  0.41780000  0.00820000  1.0 -0.0199166168
O  O53  1  0.40960000  0.37720000  0.99180000  1.0 -0.037866726
O  O54  1  0.59040000  0.58220000  0.96760000  1.0 -0.037866726
O  O55  1  0.38540000  0.37720000  0.96760000  1.0 -0.037866726
O  O56  1  0.61460000  0.58220000  0.99180000  1.0 -0.037866726
O  O57  1  0.59040000  0.62280000  0.00820000  1.0 -0.037866726
O  O58  1  0.40960000  0.41780000  0.03240000  1.0 -0.037866726
