# DDEC6 charges by PACMAN v1.1 (https://github.com/mtap-research/PACMAN-charge/)
data_ASOHUL_ASR_pacman
_symmetry_space_group_name_H-M   'P 1'
_cell_length_a   6.87450000
_cell_length_b   11.93030000
_cell_length_c   17.69560000
_cell_angle_alpha   90.00000000
_cell_angle_beta   90.00000000
_cell_angle_gamma   90.00000000
_symmetry_Int_Tables_number   1
_chemical_formula_structural   VC8O5
_chemical_formula_sum   'V4 C32 O20'
_cell_volume   1451.30193277
_cell_formula_units_Z   4
loop_
 _symmetry_equiv_pos_site_id
 _symmetry_equiv_pos_as_xyz
  1  'x, y, z'
loop_
 _atom_site_type_symbol
 _atom_site_label
 _atom_site_symmetry_multiplicity
 _atom_site_fract_x
 _atom_site_fract_y
 _atom_site_fract_z
 _atom_site_occupancy
 _atom_site_charge
V  V1  1  0.00000000  0.00000000  0.00000000  1.0 1.7249743702
V  V2  1  0.00000000  0.50000000  0.50000000  1.0 1.7298569841
V  V3  1  0.50000000  0.00000000  0.00000000  1.0 1.7298569841
V  V4  1  0.50000000  0.50000000  0.50000000  1.0 1.7298569841
C  C1  1  0.25000000  0.85710000  0.10090000  1.0 0.6397685024
C  C2  1  0.75000000  0.35710000  0.39910000  1.0 0.6397685024
C  C3  1  0.75000000  0.14290000  0.89910000  1.0 0.6397685024
C  C4  1  0.25000000  0.64290000  0.60090000  1.0 0.6397685024
C  C5  1  0.25000000  0.78960000  0.17260000  1.0 -0.0204833162
C  C6  1  0.75000000  0.28960000  0.32740000  1.0 -0.0204833162
C  C7  1  0.75000000  0.21040000  0.82740000  1.0 -0.0204833162
C  C8  1  0.25000000  0.71040000  0.67260000  1.0 -0.0204833162
C  C9  1  0.07430000  0.76060000  0.20680000  1.0 0.0301546699
C  C10  1  0.92570000  0.26060000  0.29320000  1.0 0.0301546699
C  C11  1  0.57430000  0.23940000  0.79320000  1.0 0.0301546699
C  C12  1  0.42570000  0.73940000  0.70680000  1.0 0.0301546699
C  C13  1  0.92570000  0.23940000  0.79320000  1.0 0.0301546699
C  C14  1  0.07430000  0.73940000  0.70680000  1.0 0.0301546699
C  C15  1  0.42570000  0.76060000  0.20680000  1.0 0.0301546699
C  C16  1  0.57430000  0.26060000  0.29320000  1.0 0.0301546699
C  C17  1  0.07430000  0.70290000  0.27430000  1.0 0.0301546699
C  C18  1  0.92570000  0.20290000  0.22570000  1.0 0.0301546699
C  C19  1  0.57430000  0.29710000  0.72570000  1.0 0.0301546699
C  C20  1  0.42570000  0.79710000  0.77430000  1.0 0.0301546699
C  C21  1  0.92570000  0.29710000  0.72570000  1.0 0.0301546699
C  C22  1  0.07430000  0.79710000  0.77430000  1.0 0.0301546699
C  C23  1  0.42570000  0.70290000  0.27430000  1.0 0.0301546699
C  C24  1  0.57430000  0.20290000  0.22570000  1.0 0.0301546699
C  C25  1  0.25000000  0.67470000  0.30830000  1.0 -0.0020485195
C  C26  1  0.75000000  0.17470000  0.19170000  1.0 -0.0020485195
C  C27  1  0.75000000  0.32530000  0.69170000  1.0 -0.0020485195
C  C28  1  0.25000000  0.82530000  0.80830000  1.0 -0.0020485195
C  C29  1  0.25000000  0.61360000  0.38360000  1.0 0.6340370687
C  C30  1  0.75000000  0.11360000  0.11640000  1.0 0.6340370687
C  C31  1  0.75000000  0.38640000  0.61640000  1.0 0.6340370687
C  C32  1  0.25000000  0.88640000  0.88360000  1.0 0.6340370687
O  O1  1  0.08640000  0.88310000  0.07407000  1.0 -0.5289599833
O  O2  1  0.91360000  0.38310000  0.42593000  1.0 -0.5289599833
O  O3  1  0.58640000  0.11690000  0.92593000  1.0 -0.5289599833
O  O4  1  0.41360000  0.61690000  0.57407000  1.0 -0.5289599833
O  O5  1  0.91360000  0.11690000  0.92593000  1.0 -0.5289599833
O  O6  1  0.08640000  0.61690000  0.57407000  1.0 -0.5289599833
O  O7  1  0.41360000  0.88310000  0.07407000  1.0 -0.5289599833
O  O8  1  0.58640000  0.38310000  0.42593000  1.0 -0.5289599833
O  O9  1  0.25000000  0.07380000  0.00640000  1.0 -0.9606268443
O  O10  1  0.75000000  0.57380000  0.49360000  1.0 -0.9606268443
O  O11  1  0.75000000  0.92620000  0.99360000  1.0 -0.971067631
O  O12  1  0.25000000  0.42620000  0.50640000  1.0 -0.9606268443
O  O13  1  0.08590000  0.59100000  0.41147000  1.0 -0.539685869
O  O14  1  0.91410000  0.09100000  0.08853000  1.0 -0.539685869
O  O15  1  0.58590000  0.40900000  0.58853000  1.0 -0.539685869
O  O16  1  0.41410000  0.90900000  0.91147000  1.0 -0.539685869
O  O17  1  0.91410000  0.40900000  0.58853000  1.0 -0.539685869
O  O18  1  0.08590000  0.90900000  0.91147000  1.0 -0.539685869
O  O19  1  0.41410000  0.59100000  0.41147000  1.0 -0.539685869
O  O20  1  0.58590000  0.09100000  0.08853000  1.0 -0.539685869
