# DDEC6 charges by PACMAN v1.1 (https://github.com/mtap-research/PACMAN-charge/)
data_ATEJOA_FSR_pacman
_symmetry_space_group_name_H-M   'P 1'
_cell_length_a   9.54120000
_cell_length_b   12.84200000
_cell_length_c   14.45500000
_cell_angle_alpha   116.31600000
_cell_angle_beta   109.19900000
_cell_angle_gamma   90.15000000
_symmetry_Int_Tables_number   1
_chemical_formula_structural   GdH20C33NO16
_chemical_formula_sum   'Gd2 H40 C66 N2 O32'
_cell_volume   1476.06874834
_cell_formula_units_Z   2
loop_
 _symmetry_equiv_pos_site_id
 _symmetry_equiv_pos_as_xyz
  1  'x, y, z'
loop_
 _atom_site_type_symbol
 _atom_site_label
 _atom_site_symmetry_multiplicity
 _atom_site_fract_x
 _atom_site_fract_y
 _atom_site_fract_z
 _atom_site_occupancy
 _atom_site_charge
Gd  Gd1  1  0.76872000  0.51858000  0.53731000  1.0 1.3671237006
Gd  Gd2  1  0.23128000  0.48142000  0.46269000  1.0 1.3671237006
H  H1  1  0.45790000  0.82480000  0.84280000  1.0 0.1314711436
H  H2  1  0.54210000  0.17520000  0.15720000  1.0 0.1314711436
H  H3  1  0.53080000  0.92500000  0.03460000  1.0 0.1402337972
H  H4  1  0.46920000  0.07500000  0.96540000  1.0 0.1402337972
H  H5  1  0.49350000  0.61070000  0.03480000  1.0 0.1402337972
H  H6  1  0.50650000  0.38930000  0.96520000  1.0 0.1402337972
H  H7  1  0.39040000  0.51720000  0.84250000  1.0 0.1314711436
H  H8  1  0.60960000  0.48280000  0.15750000  1.0 0.1314711436
H  H9  1  0.77820000  0.81640000  0.34070000  1.0 0.1107016602
H  H10  1  0.22180000  0.18360000  0.65930000  1.0 0.1107016602
H  H11  1  0.56460000  0.02430000  0.34170000  1.0 0.120811425
H  H12  1  0.43540000  0.97570000  0.65830000  1.0 0.120811425
H  H13  1  0.27420000  0.65870000  0.25620000  1.0 0.1402337972
H  H14  1  0.72580000  0.34130000  0.74380000  1.0 0.1402337972
H  H15  1  0.32270000  0.73100000  0.14960000  1.0 0.1314711436
H  H16  1  0.67730000  0.26900000  0.85040000  1.0 0.1314711436
H  H17  1  0.72240000  0.72620000  0.43680000  1.0 0.120811425
H  H18  1  0.27760000  0.27380000  0.56320000  1.0 0.120811425
H  H19  1  0.71620000  0.21070000  0.43620000  1.0 0.1314711436
H  H20  1  0.28380000  0.78930000  0.56380000  1.0 0.1314711436
H  H21  1  0.82070000  0.91430000  0.14790000  1.0 0.120811425
H  H22  1  0.17930000  0.08570000  0.85210000  1.0 0.120811425
H  H23  1  0.98460000  0.09830000  0.25880000  1.0 0.1314711436
H  H24  1  0.01540000  0.90170000  0.74120000  1.0 0.1314711436
H  H25  1  0.59800000  0.81550000  0.33880000  1.0 0.1107016602
H  H26  1  0.40200000  0.18450000  0.66120000  1.0 0.1107016602
H  H27  1  0.73750000  0.01870000  0.34080000  1.0 0.1107016602
H  H28  1  0.26250000  0.98130000  0.65920000  1.0 0.1107016602
H  H29  1  0.98020000  0.64880000  0.25260000  1.0 0.1402337972
H  H30  1  0.01980000  0.35120000  0.74740000  1.0 0.1402337972
H  H31  1  0.82860000  0.76380000  0.16910000  1.0 0.1402337972
H  H32  1  0.17140000  0.23620000  0.83090000  1.0 0.1402337972
H  H33  1  0.72380000  0.75300000  0.43480000  1.0 0.1501605485
H  H34  1  0.27620000  0.24700000  0.56520000  1.0 0.1501605485
H  H35  1  0.71710000  0.19640000  0.42690000  1.0 0.1501605485
H  H36  1  0.28290000  0.80360000  0.57310000  1.0 0.1501605485
H  H37  1  0.33090000  0.90960000  0.16770000  1.0 0.1402337972
H  H38  1  0.66910000  0.09040000  0.83230000  1.0 0.1402337972
H  H39  1  0.27960000  0.09550000  0.25360000  1.0 0.1501605485
H  H40  1  0.72040000  0.90450000  0.74640000  1.0 0.1501605485
C  C1  1  0.34810000  0.59920000  0.69700000  1.0 0.4718042983
C  C2  1  0.65190000  0.40080000  0.30300000  1.0 0.4718042983
C  C3  1  0.41180000  0.66130000  0.82350000  1.0 -0.0388293193
C  C4  1  0.58820000  0.33870000  0.17650000  1.0 -0.0388293193
C  C5  1  0.45950000  0.78290000  0.88160000  1.0 -0.0605974869
C  C6  1  0.54050000  0.21710000  0.11840000  1.0 -0.0605974869
C  C7  1  0.50960000  0.84300000  0.99700000  1.0 -0.1908875332
C  C8  1  0.49040000  0.15700000  0.00300000  1.0 -0.1908875332
C  C9  1  0.52800000  0.77810000  0.05620000  1.0 0.1728673353
C  C10  1  0.47200000  0.22190000  0.94380000  1.0 0.1728673353
C  C11  1  0.48320000  0.65450000  0.99690000  1.0 -0.1908875332
C  C12  1  0.51680000  0.34550000  0.00310000  1.0 -0.1908875332
C  C13  1  0.42320000  0.59840000  0.88130000  1.0 -0.0605974869
C  C14  1  0.57680000  0.40160000  0.11870000  1.0 -0.0605974869
C  C15  1  0.67730000  0.78060000  0.32130000  1.0 -0.0605974869
C  C16  1  0.32270000  0.21940000  0.67870000  1.0 -0.0605974869
C  C17  1  0.64350000  0.03980000  0.31970000  1.0 -0.0710411148
C  C18  1  0.35650000  0.96020000  0.68030000  1.0 -0.0710411148
C  C19  1  0.46190000  0.62850000  0.41980000  1.0 0.2227648272
C  C20  1  0.53810000  0.37150000  0.58020000  1.0 0.2227648272
C  C21  1  0.49360000  0.68510000  0.35720000  1.0 -0.1202940694
C  C22  1  0.50640000  0.31490000  0.64280000  1.0 -0.1202940694
C  C23  1  0.37270000  0.68780000  0.27080000  1.0 -0.1421882512
C  C24  1  0.62730000  0.31220000  0.72920000  1.0 -0.1421882512
C  C25  1  0.40200000  0.73330000  0.20920000  1.0 -0.1908875332
C  C26  1  0.59800000  0.26670000  0.79080000  1.0 -0.1908875332
C  C27  1  0.54980000  0.78420000  0.23270000  1.0 0.0702433101
C  C28  1  0.45020000  0.21580000  0.76730000  1.0 0.0702433101
C  C29  1  0.64410000  0.73040000  0.38040000  1.0 -0.0794620962
C  C30  1  0.35590000  0.26960000  0.61960000  1.0 -0.0794620962
C  C31  1  0.96200000  0.29370000  0.42300000  1.0 0.2482970468
C  C32  1  0.03800000  0.70630000  0.57700000  1.0 0.2482970468
C  C33  1  0.86370000  0.17190000  0.35640000  1.0 -0.1202940694
C  C34  1  0.13630000  0.82810000  0.64360000  1.0 -0.1202940694
C  C35  1  0.73750000  0.15000000  0.37950000  1.0 -0.0794620962
C  C36  1  0.26250000  0.85000000  0.62050000  1.0 -0.0794620962
C  C37  1  0.67170000  0.95070000  0.23160000  1.0 0.0770164466
C  C38  1  0.32830000  0.04930000  0.76840000  1.0 0.0770164466
C  C39  1  0.80160000  0.97330000  0.20690000  1.0 -0.2045953796
C  C40  1  0.19840000  0.02670000  0.79310000  1.0 -0.2045953796
C  C41  1  0.89930000  0.08450000  0.27220000  1.0 -0.161502205
C  C42  1  0.10070000  0.91550000  0.72780000  1.0 -0.161502205
C  C43  1  0.95400000  0.62320000  0.42340000  1.0 0.2482970468
C  C44  1  0.04600000  0.37680000  0.57660000  1.0 0.2482970468
C  C45  1  0.87100000  0.68600000  0.35910000  1.0 -0.1421882512
C  C46  1  0.12900000  0.31400000  0.64090000  1.0 -0.1421882512
C  C47  1  0.90400000  0.68500000  0.27400000  1.0 -0.1511679219
C  C48  1  0.09600000  0.31500000  0.72600000  1.0 -0.1511679219
C  C49  1  0.80600000  0.74800000  0.22000000  1.0 -0.1511679219
C  C50  1  0.19400000  0.25200000  0.78000000  1.0 -0.1511679219
C  C51  1  0.74800000  0.74400000  0.37500000  1.0 -0.0794620962
C  C52  1  0.25200000  0.25600000  0.62500000  1.0 -0.0794620962
C  C53  1  0.46700000  0.29610000  0.42110000  1.0 0.2421355917
C  C54  1  0.53300000  0.70390000  0.57890000  1.0 0.2421355917
C  C55  1  0.48400000  0.16700000  0.35600000  1.0 -0.1333138497
C  C56  1  0.51600000  0.83300000  0.64400000  1.0 -0.1333138497
C  C57  1  0.63300000  0.13900000  0.37400000  1.0 -0.0945429282
C  C58  1  0.36700000  0.86100000  0.62600000  1.0 -0.0945429282
C  C59  1  0.40800000  0.97400000  0.21900000  1.0 -0.1732684897
C  C60  1  0.59200000  0.02600000  0.78100000  1.0 -0.1732684897
C  C61  1  0.37800000  0.08200000  0.27400000  1.0 -0.1202940694
C  C62  1  0.62200000  0.91800000  0.72600000  1.0 -0.1202940694
C  C63  1  0.69800000  0.77700000  0.24300000  1.0 0.0280462773
C  C64  1  0.30200000  0.22300000  0.75700000  1.0 0.0280462773
C  C65  1  0.54400000  0.96400000  0.23900000  1.0 0.0066024967
C  C66  1  0.45600000  0.03600000  0.76100000  1.0 0.0066024967
N  N1  1  0.58530000  0.83610000  0.17210000  1.0 0.0003407373
N  N2  1  0.41470000  0.16390000  0.82790000  1.0 0.0003407373
O  O1  1  0.40460000  0.63630000  0.64800000  1.0 -0.234546356
O  O2  1  0.59540000  0.36370000  0.35200000  1.0 -0.234546356
O  O3  1  0.24200000  0.51280000  0.64950000  1.0 -0.23539757
O  O4  1  0.75800000  0.48720000  0.35050000  1.0 -0.23539757
O  O5  1  0.32870000  0.60510000  0.40770000  1.0 -0.24952342
O  O6  1  0.67130000  0.39490000  0.59230000  1.0 -0.24952342
O  O7  1  0.57230000  0.60880000  0.48650000  1.0 -0.0279633926
O  O8  1  0.42770000  0.39120000  0.51350000  1.0 -0.0279633926
O  O9  1  0.91500000  0.37760000  0.48600000  1.0 -0.0215076749
O  O10  1  0.08500000  0.62240000  0.51400000  1.0 -0.0215076749
O  O11  1  0.07980000  0.30100000  0.40820000  1.0 -0.2619446651
O  O12  1  0.92020000  0.69900000  0.59180000  1.0 -0.2619446651
O  O13  1  0.71600000  0.65220000  0.70120000  1.0 -0.24952342
O  O14  1  0.28400000  0.34780000  0.29880000  1.0 -0.24952342
O  O15  1  0.98380000  0.54710000  0.70170000  1.0 -0.2245604621
O  O16  1  0.01620000  0.45290000  0.29830000  1.0 -0.2245604621
O  O17  1  0.40440000  0.51610000  0.65180000  1.0 -0.24952342
O  O18  1  0.59560000  0.48390000  0.34820000  1.0 -0.24952342
O  O19  1  0.24510000  0.63620000  0.64770000  1.0 -0.24952342
O  O20  1  0.75490000  0.36380000  0.35230000  1.0 -0.24952342
O  O21  1  0.91380000  0.60460000  0.47940000  1.0 0.0419568567
O  O22  1  0.08620000  0.39540000  0.52060000  1.0 0.0419568567
O  O23  1  0.08000000  0.60390000  0.40770000  1.0 -0.2619446651
O  O24  1  0.92000000  0.39610000  0.59230000  1.0 -0.2619446651
O  O25  1  0.56800000  0.37480000  0.48120000  1.0 0.0280462773
O  O26  1  0.43200000  0.62520000  0.51880000  1.0 0.0280462773
O  O27  1  0.32800000  0.30050000  0.40470000  1.0 -0.2619446651
O  O28  1  0.67200000  0.69950000  0.59530000  1.0 -0.2619446651
O  O29  1  0.71100000  0.54510000  0.69620000  1.0 -0.2619446651
O  O30  1  0.28900000  0.45490000  0.30380000  1.0 -0.2619446651
O  O31  1  0.98700000  0.64690000  0.69500000  1.0 -0.2619446651
O  O32  1  0.01300000  0.35310000  0.30500000  1.0 -0.2619446651
