# DDEC6 charges by PACMAN v1.1 (https://github.com/mtap-research/PACMAN-charge/)
data_ATEYED_ion_pacman
_symmetry_space_group_name_H-M   'P 1'
_cell_length_a   15.41550000
_cell_length_b   15.41550000
_cell_length_c   24.74600000
_cell_angle_alpha   62.83280000
_cell_angle_beta   117.16700000
_cell_angle_gamma   131.69500000
_symmetry_Int_Tables_number   1
_chemical_formula_structural   CoH28C28S2(N4O5)2
_chemical_formula_sum   'Co2 H56 C56 S4 N16 O20'
_cell_volume   3801.73094816
_cell_formula_units_Z   2
loop_
 _symmetry_equiv_pos_site_id
 _symmetry_equiv_pos_as_xyz
  1  'x, y, z'
loop_
 _atom_site_type_symbol
 _atom_site_label
 _atom_site_symmetry_multiplicity
 _atom_site_fract_x
 _atom_site_fract_y
 _atom_site_fract_z
 _atom_site_occupancy
 _atom_site_charge
Co  Co1  1  0.50000000  0.00000000  0.50000000  1.0 0.7103123044
Co  Co2  1  0.00000000  0.50000000  0.00000000  1.0 0.7103123044
H  H1  1  0.22740000  0.87200000  0.49770000  1.0 0.1107759555
H  H2  1  0.87200000  0.22740000  0.00230000  1.0 0.1107759555
H  H3  1  0.77260000  0.12800000  0.50230000  1.0 0.1107759555
H  H4  1  0.12800000  0.77260000  0.99770000  1.0 0.1107759555
H  H5  1  0.50350000  0.12750000  0.58240000  1.0 0.1281866257
H  H6  1  0.12750000  0.50350000  0.91760000  1.0 0.1281866257
H  H7  1  0.49650000  0.87250000  0.41760000  1.0 0.1281866257
H  H8  1  0.87250000  0.49650000  0.08240000  1.0 0.1281866257
H  H9  1  0.32730000  0.06450000  0.60400000  1.0 0.1396447723
H  H10  1  0.06450000  0.32730000  0.89600000  1.0 0.1396447723
H  H11  1  0.67270000  0.93550000  0.39600000  1.0 0.1396447723
H  H12  1  0.93550000  0.67270000  0.10400000  1.0 0.1396447723
H  H13  1  0.06040000  0.80720000  0.53370000  1.0 0.1396447723
H  H14  1  0.80720000  0.06040000  0.96630000  1.0 0.1396447723
H  H15  1  0.93960000  0.19280000  0.46630000  1.0 0.1396447723
H  H16  1  0.19280000  0.93960000  0.03370000  1.0 0.1396447723
H  H17  1  0.10510000  0.83630000  0.59810000  1.0 0.1576117326
H  H18  1  0.83630000  0.10510000  0.90190000  1.0 0.1576117326
H  H19  1  0.89490000  0.16370000  0.40190000  1.0 0.1576117326
H  H20  1  0.16370000  0.89490000  0.09810000  1.0 0.1576117326
H  H21  1  0.09300000  0.01520000  0.44170000  1.0 0.1281866257
H  H22  1  0.01520000  0.09300000  0.05830000  1.0 0.1281866257
H  H23  1  0.90700000  0.98480000  0.55830000  1.0 0.1281866257
H  H24  1  0.98480000  0.90700000  0.94170000  1.0 0.1281866257
H  H25  1  0.00000000  0.88980000  0.60220000  1.0 0.1396447723
H  H26  1  0.88980000  0.00000000  0.89780000  1.0 0.1396447723
H  H27  1  0.00000000  0.11020000  0.39780000  1.0 0.1396447723
H  H28  1  0.11020000  0.00000000  0.10220000  1.0 0.1396447723
H  H29  1  0.36240000  0.71880000  0.49570000  1.0 0.1281866257
H  H30  1  0.71880000  0.36240000  0.00430000  1.0 0.1281866257
H  H31  1  0.63760000  0.28120000  0.50430000  1.0 0.1281866257
H  H32  1  0.28120000  0.63760000  0.99570000  1.0 0.1281866257
H  H33  1  0.45850000  0.83550000  0.63680000  1.0 0.1281866257
H  H34  1  0.83550000  0.45850000  0.86320000  1.0 0.1281866257
H  H35  1  0.54150000  0.16450000  0.36320000  1.0 0.1281866257
H  H36  1  0.16450000  0.54150000  0.13680000  1.0 0.1281866257
H  H37  1  0.30630000  0.54750000  0.58500000  1.0 0.1164485372
H  H38  1  0.54750000  0.30630000  0.91500000  1.0 0.1164485372
H  H39  1  0.69370000  0.45250000  0.41500000  1.0 0.1164485372
H  H40  1  0.45250000  0.69370000  0.08500000  1.0 0.1164485372
H  H41  1  0.39300000  0.64780000  0.72320000  1.0 0.1665893172
H  H42  1  0.64780000  0.39300000  0.77680000  1.0 0.1665893172
H  H43  1  0.60700000  0.35220000  0.27680000  1.0 0.1665893172
H  H44  1  0.35220000  0.60700000  0.22320000  1.0 0.1665893172
H  H45  1  0.27580000  0.53720000  0.69600000  1.0 0.1452490036
H  H46  1  0.53720000  0.27580000  0.80400000  1.0 0.1396447723
H  H47  1  0.72420000  0.46280000  0.30400000  1.0 0.1396447723
H  H48  1  0.46280000  0.72420000  0.19600000  1.0 0.1396447723
H  H49  1  0.59020000  0.68380000  0.72890000  1.0 0.1452490036
H  H50  1  0.68380000  0.59020000  0.77110000  1.0 0.1452490036
H  H51  1  0.40980000  0.31620000  0.27110000  1.0 0.1452490036
H  H52  1  0.31620000  0.40980000  0.22890000  1.0 0.1452490036
H  H53  1  0.27330000  0.36730000  0.72800000  1.0 0.1281866257
H  H54  1  0.36730000  0.27330000  0.77200000  1.0 0.1281866257
H  H55  1  0.72670000  0.63270000  0.27200000  1.0 0.1281866257
H  H56  1  0.63270000  0.72670000  0.22800000  1.0 0.1281866257
C  C1  1  0.27505000  0.92835000  0.52150000  1.0 0.1107759555
C  C2  1  0.92835000  0.27505000  0.97850000  1.0 0.1164485372
C  C3  1  0.72495000  0.07165000  0.47850000  1.0 0.1164485372
C  C4  1  0.07165000  0.72495000  0.02150000  1.0 0.1164485372
C  C5  1  0.42518000  0.06762000  0.56780000  1.0 -0.0106141355
C  C6  1  0.06762000  0.42518000  0.93220000  1.0 -0.0106141355
C  C7  1  0.57482000  0.93238000  0.43220000  1.0 -0.0106141355
C  C8  1  0.93238000  0.57482000  0.06780000  1.0 -0.0106141355
C  C9  1  0.32830000  0.03330000  0.58000000  1.0 -0.0611529572
C  C10  1  0.03330000  0.32830000  0.92000000  1.0 -0.0611529572
C  C11  1  0.67170000  0.96670000  0.42000000  1.0 -0.0611529572
C  C12  1  0.96670000  0.67170000  0.08000000  1.0 -0.0611529572
C  C13  1  0.10858000  0.87182000  0.55450000  1.0 -0.1602812882
C  C14  1  0.87182000  0.10858000  0.94550000  1.0 -0.1602812882
C  C15  1  0.89142000  0.12818000  0.44550000  1.0 -0.1602812882
C  C16  1  0.12818000  0.89142000  0.05450000  1.0 -0.1602812882
C  C17  1  0.05525000  0.94115000  0.52610000  1.0 0.0962997166
C  C18  1  0.94115000  0.05525000  0.97390000  1.0 0.0962997166
C  C19  1  0.94475000  0.05885000  0.47390000  1.0 0.0962997166
C  C20  1  0.05885000  0.94475000  0.02610000  1.0 0.0962997166
C  C21  1  0.05522000  0.00858000  0.46520000  1.0 -0.1305681008
C  C22  1  0.00858000  0.05522000  0.03480000  1.0 -0.1305681008
C  C23  1  0.94478000  0.99142000  0.53480000  1.0 -0.1305681008
C  C24  1  0.99142000  0.94478000  0.96520000  1.0 -0.1305681008
C  C25  1  0.99985000  0.93375000  0.56100000  1.0 -0.1213552697
C  C26  1  0.93375000  0.99985000  0.93900000  1.0 -0.1213552697
C  C27  1  0.00015000  0.06625000  0.43900000  1.0 -0.1213552697
C  C28  1  0.06625000  0.00015000  0.06100000  1.0 -0.1213552697
C  C29  1  0.37465000  0.72115000  0.53560000  1.0 -0.0106141355
C  C30  1  0.72115000  0.37465000  0.96440000  1.0 -0.0106141355
C  C31  1  0.62535000  0.27885000  0.46440000  1.0 -0.0106141355
C  C32  1  0.27885000  0.62535000  0.03560000  1.0 -0.0106141355
C  C33  1  0.42690000  0.78510000  0.61240000  1.0 0.1281866257
C  C34  1  0.78510000  0.42690000  0.88760000  1.0 0.1281866257
C  C35  1  0.57310000  0.21490000  0.38760000  1.0 0.1281866257
C  C36  1  0.21490000  0.57310000  0.11240000  1.0 0.1281866257
C  C37  1  0.34320000  0.62580000  0.58470000  1.0 -0.1113584178
C  C38  1  0.62580000  0.34320000  0.91530000  1.0 -0.1113584178
C  C39  1  0.65680000  0.37420000  0.41530000  1.0 -0.1113584178
C  C40  1  0.37420000  0.65680000  0.08470000  1.0 -0.1113584178
C  C41  1  0.36030000  0.59630000  0.69700000  1.0 -0.1708520825
C  C42  1  0.59630000  0.36030000  0.80300000  1.0 -0.1708520825
C  C43  1  0.63970000  0.40370000  0.30300000  1.0 -0.1708520825
C  C44  1  0.40370000  0.63970000  0.19700000  1.0 -0.1708520825
C  C45  1  0.54500000  0.60100000  0.73740000  1.0 -0.1213552697
C  C46  1  0.60100000  0.54500000  0.76260000  1.0 -0.1213552697
C  C47  1  0.45500000  0.39900000  0.26260000  1.0 -0.1213552697
C  C48  1  0.39900000  0.45500000  0.23740000  1.0 -0.1213552697
C  C49  1  0.42120000  0.53480000  0.72450000  1.0 0.0831188571
C  C50  1  0.53480000  0.42120000  0.77550000  1.0 0.0831188571
C  C51  1  0.57880000  0.46520000  0.27550000  1.0 0.0831188571
C  C52  1  0.46520000  0.57880000  0.22450000  1.0 0.0831188571
C  C53  1  0.35610000  0.41250000  0.73700000  1.0 -0.1435685431
C  C54  1  0.41250000  0.35610000  0.76300000  1.0 -0.1461639281
C  C55  1  0.64390000  0.58750000  0.26300000  1.0 -0.1435685431
C  C56  1  0.58750000  0.64390000  0.23700000  1.0 -0.1435685431
S  S1  1  0.99887000  0.36201000  0.24723000  1.0 1.2613407945
S  S2  1  0.36201000  0.99887000  0.25277000  1.0 1.2613407945
S  S3  1  0.00113000  0.63799000  0.75277000  1.0 1.2613407945
S  S4  1  0.63799000  0.00113000  0.74723000  1.0 1.2613407945
N  N1  1  0.39134000  0.00146000  0.53082000  1.0 -0.2923448334
N  N2  1  0.00146000  0.39134000  0.96918000  1.0 -0.2923448334
N  N3  1  0.60866000  0.99854000  0.46918000  1.0 -0.2923448334
N  N4  1  0.99854000  0.60866000  0.03082000  1.0 -0.2923448334
N  N5  1  0.23232000  0.94388000  0.55028000  1.0 0.0065312823
N  N6  1  0.94388000  0.23232000  0.94972000  1.0 0.0065312823
N  N7  1  0.76768000  0.05612000  0.44972000  1.0 0.0033574966
N  N8  1  0.05612000  0.76768000  0.05028000  1.0 0.0033574966
N  N9  1  0.42659000  0.82041000  0.55311000  1.0 -0.2791576113
N  N10  1  0.82041000  0.42659000  0.94689000  1.0 -0.2791576113
N  N11  1  0.57341000  0.17959000  0.44689000  1.0 -0.2791576113
N  N12  1  0.17959000  0.57341000  0.05311000  1.0 -0.2791576113
N  N13  1  0.37638000  0.66802000  0.63327000  1.0 0.0228686382
N  N14  1  0.66802000  0.37638000  0.86673000  1.0 0.0228686382
N  N15  1  0.62362000  0.33198000  0.36673000  1.0 0.0228686382
N  N16  1  0.33198000  0.62362000  0.13327000  1.0 0.0228686382
O  O1  1  0.35629000  0.92991000  0.42017000  1.0 -0.0611529572
O  O2  1  0.92991000  0.35629000  0.07983000  1.0 -0.0477385919
O  O3  1  0.64371000  0.07009000  0.57983000  1.0 -0.0611529572
O  O4  1  0.07009000  0.64371000  0.92017000  1.0 -0.0611529572
O  O5  1  0.86730000  0.28210000  0.24000000  1.0 -0.539391684
O  O6  1  0.03550000  0.48010000  0.22930000  1.0 -0.6029204709
O  O7  1  0.04502000  0.32558000  0.31000000  1.0 -0.6051591362
O  O8  1  0.02449000  0.33991000  0.20674000  1.0 -0.5470702375
O  O9  1  0.28210000  0.86730000  0.26000000  1.0 -0.539391684
O  O10  1  0.48010000  0.03550000  0.27070000  1.0 -0.6029204709
O  O11  1  0.32558000  0.04502000  0.19000000  1.0 -0.6029204709
O  O12  1  0.33991000  0.02449000  0.29326000  1.0 -0.5470702375
O  O13  1  0.13270000  0.71790000  0.76000000  1.0 -0.539391684
O  O14  1  0.96450000  0.51990000  0.77070000  1.0 -0.6029204709
O  O15  1  0.95498000  0.67442000  0.69000000  1.0 -0.6029204709
O  O16  1  0.97551000  0.66009000  0.79326000  1.0 -0.5470702375
O  O17  1  0.71790000  0.13270000  0.74000000  1.0 -0.539391684
O  O18  1  0.51990000  0.96450000  0.72930000  1.0 -0.6029204709
O  O19  1  0.67442000  0.95498000  0.81000000  1.0 -0.6029204709
O  O20  1  0.66009000  0.97551000  0.70674000  1.0 -0.5470702375
