# DDEC6 charges by PACMAN v1.1 (https://github.com/mtap-research/PACMAN-charge/)
data_ATEZEG_ASR_pacman
_symmetry_space_group_name_H-M   'P 1'
_cell_length_a   21.80280000
_cell_length_b   21.80280000
_cell_length_c   17.62900000
_cell_angle_alpha   79.36220000
_cell_angle_beta   100.63800000
_cell_angle_gamma   96.31370000
_symmetry_Int_Tables_number   1
_chemical_formula_structural   Yb3H54C88O17
_chemical_formula_sum   'Yb6 H108 C176 O34'
_cell_volume   8069.55685625
_cell_formula_units_Z   2
loop_
 _symmetry_equiv_pos_site_id
 _symmetry_equiv_pos_as_xyz
  1  'x, y, z'
loop_
 _atom_site_type_symbol
 _atom_site_label
 _atom_site_symmetry_multiplicity
 _atom_site_fract_x
 _atom_site_fract_y
 _atom_site_fract_z
 _atom_site_occupancy
 _atom_site_charge
Yb  Yb1  1  0.69301000  0.69301000  0.25000000  1.0 2.0384821038
Yb  Yb2  1  0.30699000  0.30699000  0.75000000  1.0 2.0384821038
Yb  Yb3  1  0.75722000  0.78650000  0.45743000  1.0 2.0384821038
Yb  Yb4  1  0.78650000  0.75722000  0.04257000  1.0 2.0384821038
Yb  Yb5  1  0.24278000  0.21350000  0.54257000  1.0 2.0384821038
Yb  Yb6  1  0.21350000  0.24278000  0.95743000  1.0 2.0384821038
H  H1  1  0.58400000  0.63340000  0.24040000  1.0 0.4092430214
H  H2  1  0.63340000  0.58400000  0.25960000  1.0 0.4092430214
H  H3  1  0.41600000  0.36660000  0.75960000  1.0 0.4092430214
H  H4  1  0.36660000  0.41600000  0.74040000  1.0 0.4092430214
H  H5  1  0.76890000  0.13650000  0.16550000  1.0 0.1091503791
H  H6  1  0.13650000  0.76890000  0.33450000  1.0 0.1091503791
H  H7  1  0.23110000  0.86350000  0.83450000  1.0 0.1091503791
H  H8  1  0.86350000  0.23110000  0.66550000  1.0 0.1091503791
H  H9  1  0.58740000  0.07560000  0.09790000  1.0 0.1091503791
H  H10  1  0.07560000  0.58740000  0.40210000  1.0 0.1091503791
H  H11  1  0.41260000  0.92440000  0.90210000  1.0 0.1091503791
H  H12  1  0.92440000  0.41260000  0.59790000  1.0 0.1091503791
H  H13  1  0.64310000  0.25670000  0.04460000  1.0 0.1091503791
H  H14  1  0.25670000  0.64310000  0.45540000  1.0 0.1091503791
H  H15  1  0.35690000  0.74330000  0.95540000  1.0 0.1091503791
H  H16  1  0.74330000  0.35690000  0.54460000  1.0 0.1091503791
H  H17  1  0.64410000  0.98870000  0.08240000  1.0 0.1091503791
H  H18  1  0.98870000  0.64410000  0.41760000  1.0 0.1091503791
H  H19  1  0.35590000  0.01130000  0.91760000  1.0 0.1091503791
H  H20  1  0.01130000  0.35590000  0.58240000  1.0 0.1091503791
H  H21  1  0.66480000  0.88740000  0.13300000  1.0 0.1201955134
H  H22  1  0.88740000  0.66480000  0.36700000  1.0 0.1201955134
H  H23  1  0.33520000  0.11260000  0.86700000  1.0 0.1201955134
H  H24  1  0.11260000  0.33520000  0.63300000  1.0 0.1267592887
H  H25  1  0.77010000  0.94350000  0.32410000  1.0 0.1201955134
H  H26  1  0.94350000  0.77010000  0.17590000  1.0 0.1201955134
H  H27  1  0.22990000  0.05650000  0.67590000  1.0 0.1201955134
H  H28  1  0.05650000  0.22990000  0.82410000  1.0 0.1201955134
H  H29  1  0.75080000  0.04780000  0.26920000  1.0 0.1091503791
H  H30  1  0.04780000  0.75080000  0.23080000  1.0 0.1091503791
H  H31  1  0.24920000  0.95220000  0.73080000  1.0 0.1091503791
H  H32  1  0.95220000  0.24920000  0.76920000  1.0 0.1091503791
H  H33  1  0.56410000  0.24870000  0.94130000  1.0 0.1091503791
H  H34  1  0.24870000  0.56410000  0.55870000  1.0 0.1091503791
H  H35  1  0.43590000  0.75130000  0.05870000  1.0 0.1091503791
H  H36  1  0.75130000  0.43590000  0.44130000  1.0 0.1091503791
H  H37  1  0.46570000  0.27570000  0.88610000  1.0 0.1201955134
H  H38  1  0.27570000  0.46570000  0.61390000  1.0 0.1201955134
H  H39  1  0.53430000  0.72430000  0.11390000  1.0 0.1201955134
H  H40  1  0.72430000  0.53430000  0.38610000  1.0 0.1201955134
H  H41  1  0.39390000  0.15170000  0.05250000  1.0 0.1091503791
H  H42  1  0.15170000  0.39390000  0.44750000  1.0 0.1091503791
H  H43  1  0.60610000  0.84830000  0.94750000  1.0 0.1091503791
H  H44  1  0.84830000  0.60610000  0.55250000  1.0 0.1091503791
H  H45  1  0.49650000  0.12450000  0.10690000  1.0 0.1091503791
H  H46  1  0.12450000  0.49650000  0.39310000  1.0 0.1091503791
H  H47  1  0.50350000  0.87550000  0.89310000  1.0 0.1091503791
H  H48  1  0.87550000  0.50350000  0.60690000  1.0 0.1091503791
H  H49  1  0.71240000  0.32340000  0.11920000  1.0 0.1091503791
H  H50  1  0.32340000  0.71240000  0.38080000  1.0 0.1091503791
H  H51  1  0.28760000  0.67660000  0.88080000  1.0 0.1091503791
H  H52  1  0.67660000  0.28760000  0.61920000  1.0 0.1091503791
H  H53  1  0.88190000  0.39170000  0.07260000  1.0 0.0996476204
H  H54  1  0.39170000  0.88190000  0.42740000  1.0 0.0996476204
H  H55  1  0.11810000  0.60830000  0.92740000  1.0 0.0996476204
H  H56  1  0.60830000  0.11810000  0.57260000  1.0 0.0996476204
H  H57  1  0.82800000  0.21020000  0.06890000  1.0 0.1091503791
H  H58  1  0.21020000  0.82800000  0.43110000  1.0 0.1091503791
H  H59  1  0.17200000  0.78980000  0.93110000  1.0 0.1091503791
H  H60  1  0.78980000  0.17200000  0.56890000  1.0 0.1091503791
H  H61  1  0.97460000  0.35580000  0.10310000  1.0 0.0889040421
H  H62  1  0.35580000  0.97460000  0.39690000  1.0 0.0889040421
H  H63  1  0.02540000  0.64420000  0.89690000  1.0 0.0889040421
H  H64  1  0.64420000  0.02540000  0.60310000  1.0 0.0889040421
H  H65  1  0.06920000  0.34660000  0.06470000  1.0 0.0996476204
H  H66  1  0.34660000  0.06920000  0.43530000  1.0 0.0996476204
H  H67  1  0.93080000  0.65340000  0.93530000  1.0 0.0996476204
H  H68  1  0.65340000  0.93080000  0.56470000  1.0 0.0996476204
H  H69  1  0.98850000  0.20250000  0.96390000  1.0 0.0996476204
H  H70  1  0.20250000  0.98850000  0.53610000  1.0 0.0996476204
H  H71  1  0.01150000  0.79750000  0.03610000  1.0 0.0996476204
H  H72  1  0.79750000  0.01150000  0.46390000  1.0 0.0996476204
H  H73  1  0.89260000  0.21700000  0.99030000  1.0 0.0996476204
H  H74  1  0.21700000  0.89260000  0.50970000  1.0 0.0996476204
H  H75  1  0.10740000  0.78300000  0.00970000  1.0 0.0996476204
H  H76  1  0.78300000  0.10740000  0.49030000  1.0 0.0996476204
H  H77  1  0.82760000  0.48140000  0.02570000  1.0 0.1091503791
H  H78  1  0.48140000  0.82760000  0.47430000  1.0 0.1091503791
H  H79  1  0.17240000  0.51860000  0.97430000  1.0 0.1091503791
H  H80  1  0.51860000  0.17240000  0.52570000  1.0 0.1091503791
H  H81  1  0.80620000  0.57980000  0.03590000  1.0 0.1267592887
H  H82  1  0.57980000  0.80620000  0.46410000  1.0 0.1267592887
H  H83  1  0.19380000  0.42020000  0.96410000  1.0 0.1267592887
H  H84  1  0.42020000  0.19380000  0.53590000  1.0 0.1267592887
H  H85  1  0.71160000  0.50000000  0.21040000  1.0 0.1091503791
H  H86  1  0.50000000  0.71160000  0.28960000  1.0 0.1091503791
H  H87  1  0.28840000  0.50000000  0.78960000  1.0 0.1091503791
H  H88  1  0.50000000  0.28840000  0.71040000  1.0 0.1091503791
H  H89  1  0.72880000  0.40340000  0.19110000  1.0 0.1091503791
H  H90  1  0.40340000  0.72880000  0.30890000  1.0 0.1091503791
H  H91  1  0.27120000  0.59660000  0.80890000  1.0 0.1091503791
H  H92  1  0.59660000  0.27120000  0.69110000  1.0 0.1091503791
H  H93  1  0.95090000  0.37750000  0.00320000  1.0 0.0801412298
H  H94  1  0.37750000  0.95090000  0.49680000  1.0 0.0801412298
H  H95  1  0.04910000  0.62250000  0.99680000  1.0 0.0801412298
H  H96  1  0.62250000  0.04910000  0.50320000  1.0 0.0801412298
H  H97  1  0.03930000  0.35970000  0.95690000  1.0 0.0996476204
H  H98  1  0.35970000  0.03930000  0.54310000  1.0 0.0996476204
H  H99  1  0.96070000  0.64030000  0.04310000  1.0 0.0996476204
H  H100  1  0.64030000  0.96070000  0.45690000  1.0 0.0996476204
H  H101  1  0.01050000  0.17910000  0.04720000  1.0 0.0996476204
H  H102  1  0.17910000  0.01050000  0.45280000  1.0 0.0996476204
H  H103  1  0.98950000  0.82090000  0.95280000  1.0 0.0996476204
H  H104  1  0.82090000  0.98950000  0.54720000  1.0 0.0996476204
H  H105  1  0.94180000  0.20440000  0.12200000  1.0 0.0996476204
H  H106  1  0.20440000  0.94180000  0.37800000  1.0 0.0996476204
H  H107  1  0.05820000  0.79560000  0.87800000  1.0 0.0996476204
H  H108  1  0.79560000  0.05820000  0.62200000  1.0 0.0996476204
C  C1  1  0.71330000  0.20410000  0.10280000  1.0 0.0801412298
C  C2  1  0.20410000  0.71330000  0.39720000  1.0 0.0801412298
C  C3  1  0.28670000  0.79590000  0.89720000  1.0 0.0801412298
C  C4  1  0.79590000  0.28670000  0.60280000  1.0 0.0801412298
C  C5  1  0.72890000  0.14450000  0.13870000  1.0 -0.2285620034
C  C6  1  0.14450000  0.72890000  0.36130000  1.0 -0.2285620034
C  C7  1  0.27110000  0.85550000  0.86130000  1.0 -0.2285620034
C  C8  1  0.85550000  0.27110000  0.63870000  1.0 -0.2285620034
C  C9  1  0.67790000  0.09470000  0.13160000  1.0 0.0801412298
C  C10  1  0.09470000  0.67790000  0.36840000  1.0 0.0801412298
C  C11  1  0.32210000  0.90530000  0.86840000  1.0 0.0801412298
C  C12  1  0.90530000  0.32210000  0.63160000  1.0 0.0801412298
C  C13  1  0.61900000  0.10780000  0.09810000  1.0 -0.1954323945
C  C14  1  0.10780000  0.61900000  0.40190000  1.0 -0.1954323945
C  C15  1  0.38100000  0.89220000  0.90190000  1.0 -0.1954323945
C  C16  1  0.89220000  0.38100000  0.59810000  1.0 -0.1954323945
C  C17  1  0.60440000  0.16780000  0.06430000  1.0 0.0697685677
C  C18  1  0.16780000  0.60440000  0.43570000  1.0 0.0697685677
C  C19  1  0.39560000  0.83220000  0.93570000  1.0 0.0697685677
C  C20  1  0.83220000  0.39560000  0.56430000  1.0 0.0697685677
C  C21  1  0.65220000  0.21600000  0.06710000  1.0 -0.2134675288
C  C22  1  0.21600000  0.65220000  0.43290000  1.0 -0.2134675288
C  C23  1  0.34780000  0.78400000  0.93290000  1.0 -0.2134675288
C  C24  1  0.78400000  0.34780000  0.56710000  1.0 -0.2134675288
C  C25  1  0.69420000  0.02880000  0.17070000  1.0 0.0697685677
C  C26  1  0.02880000  0.69420000  0.32930000  1.0 0.0697685677
C  C27  1  0.30580000  0.97120000  0.82930000  1.0 0.0697685677
C  C28  1  0.97120000  0.30580000  0.67070000  1.0 0.0697685677
C  C29  1  0.66950000  0.97990000  0.13100000  1.0 -0.1545934637
C  C30  1  0.97990000  0.66950000  0.36900000  1.0 -0.1545934637
C  C31  1  0.33050000  0.02010000  0.86900000  1.0 -0.1545934637
C  C32  1  0.02010000  0.33050000  0.63100000  1.0 -0.1545934637
C  C33  1  0.68150000  0.91950000  0.16080000  1.0 -0.1015463215
C  C34  1  0.91950000  0.68150000  0.33920000  1.0 -0.1015463215
C  C35  1  0.31850000  0.08050000  0.83920000  1.0 -0.1015463215
C  C36  1  0.08050000  0.31850000  0.66080000  1.0 -0.1015463215
C  C37  1  0.71850000  0.90670000  0.23230000  1.0 -0.0268755795
C  C38  1  0.90670000  0.71850000  0.26770000  1.0 -0.0268755795
C  C39  1  0.28150000  0.09330000  0.76770000  1.0 -0.0268755795
C  C40  1  0.09330000  0.28150000  0.73230000  1.0 -0.0268755795
C  C41  1  0.74510000  0.95330000  0.27540000  1.0 -0.1060641581
C  C42  1  0.95330000  0.74510000  0.22460000  1.0 -0.1060641581
C  C43  1  0.25490000  0.04670000  0.72460000  1.0 -0.1060641581
C  C44  1  0.04670000  0.25490000  0.77540000  1.0 -0.1060641581
C  C45  1  0.73290000  0.01550000  0.24260000  1.0 -0.1662134488
C  C46  1  0.01550000  0.73290000  0.25740000  1.0 -0.1662134488
C  C47  1  0.26710000  0.98450000  0.75740000  1.0 -0.1662134488
C  C48  1  0.98450000  0.26710000  0.74260000  1.0 -0.1662134488
C  C49  1  0.72730000  0.83850000  0.26280000  1.0 0.6284470896
C  C50  1  0.83850000  0.72730000  0.23720000  1.0 0.6284470896
C  C51  1  0.27270000  0.16150000  0.73720000  1.0 0.6284470896
C  C52  1  0.16150000  0.27270000  0.76280000  1.0 0.6284470896
C  C53  1  0.53740000  0.18160000  0.02840000  1.0 0.0697685677
C  C54  1  0.18160000  0.53740000  0.47160000  1.0 0.0697685677
C  C55  1  0.46260000  0.81840000  0.97160000  1.0 0.0697685677
C  C56  1  0.81840000  0.46260000  0.52840000  1.0 0.0697685677
C  C57  1  0.52970000  0.22890000  0.96270000  1.0 -0.1591693868
C  C58  1  0.22890000  0.52970000  0.53730000  1.0 -0.1591693868
C  C59  1  0.47030000  0.77110000  0.03730000  1.0 -0.1591693868
C  C60  1  0.77110000  0.47030000  0.46270000  1.0 -0.1591693868
C  C61  1  0.47110000  0.24530000  0.93080000  1.0 -0.0913598709
C  C62  1  0.24530000  0.47110000  0.56920000  1.0 -0.0913598709
C  C63  1  0.52890000  0.75470000  0.06920000  1.0 -0.0913598709
C  C64  1  0.75470000  0.52890000  0.43080000  1.0 -0.0913598709
C  C65  1  0.42140000  0.21940000  0.96160000  1.0 -0.0495987218
C  C66  1  0.21940000  0.42140000  0.53840000  1.0 -0.0495987218
C  C67  1  0.57860000  0.78060000  0.03840000  1.0 -0.0495987218
C  C68  1  0.78060000  0.57860000  0.46160000  1.0 -0.0495987218
C  C69  1  0.42820000  0.17080000  0.03050000  1.0 -0.0913598709
C  C70  1  0.17080000  0.42820000  0.46950000  1.0 -0.0913598709
C  C71  1  0.57180000  0.82920000  0.96950000  1.0 -0.0913598709
C  C72  1  0.82920000  0.57180000  0.53050000  1.0 -0.0913598709
C  C73  1  0.48960000  0.15460000  0.06200000  1.0 -0.1545934637
C  C74  1  0.15460000  0.48960000  0.43800000  1.0 -0.1591693868
C  C75  1  0.51040000  0.84540000  0.93800000  1.0 -0.1591693868
C  C76  1  0.84540000  0.51040000  0.56200000  1.0 -0.1545934637
C  C77  1  0.35680000  0.23880000  0.93210000  1.0 0.65714952
C  C78  1  0.23880000  0.35680000  0.56790000  1.0 0.65714952
C  C79  1  0.64320000  0.76120000  0.06790000  1.0 0.65714952
C  C80  1  0.76120000  0.64320000  0.43210000  1.0 0.65714952
C  C81  1  0.76190000  0.25710000  0.09690000  1.0 0.0801412298
C  C82  1  0.25710000  0.76190000  0.40310000  1.0 0.0801412298
C  C83  1  0.23810000  0.74290000  0.90310000  1.0 0.0801412298
C  C84  1  0.74290000  0.23810000  0.59690000  1.0 0.0801412298
C  C85  1  0.75030000  0.31770000  0.10570000  1.0 -0.2134675288
C  C86  1  0.31770000  0.75030000  0.39430000  1.0 -0.2134675288
C  C87  1  0.24970000  0.68230000  0.89430000  1.0 -0.2134675288
C  C88  1  0.68230000  0.24970000  0.60570000  1.0 -0.2134675288
C  C89  1  0.79310000  0.36830000  0.09500000  1.0 0.0697685677
C  C90  1  0.36830000  0.79310000  0.40500000  1.0 0.0697685677
C  C91  1  0.20690000  0.63170000  0.90500000  1.0 0.0697685677
C  C92  1  0.63170000  0.20690000  0.59500000  1.0 0.0697685677
C  C93  1  0.85170000  0.35830000  0.07790000  1.0 -0.2187202185
C  C94  1  0.35830000  0.85170000  0.42210000  1.0 -0.2187202185
C  C95  1  0.14830000  0.64170000  0.92210000  1.0 -0.2187202185
C  C96  1  0.64170000  0.14830000  0.57790000  1.0 -0.2187202185
C  C97  1  0.86460000  0.30020000  0.06890000  1.0 0.0697685677
C  C98  1  0.30020000  0.86460000  0.43110000  1.0 0.0697685677
C  C99  1  0.13540000  0.69980000  0.93110000  1.0 0.0697685677
C  C100  1  0.69980000  0.13540000  0.56890000  1.0 0.0697685677
C  C101  1  0.81960000  0.24920000  0.07690000  1.0 -0.2187202185
C  C102  1  0.24920000  0.81960000  0.42310000  1.0 -0.2285620034
C  C103  1  0.18040000  0.75080000  0.92310000  1.0 -0.2285620034
C  C104  1  0.75080000  0.18040000  0.57690000  1.0 -0.2187202185
C  C105  1  0.92590000  0.29090000  0.04930000  1.0 0.0226012471
C  C106  1  0.29090000  0.92590000  0.45070000  1.0 0.0226012471
C  C107  1  0.07410000  0.70910000  0.95070000  1.0 0.0226012471
C  C108  1  0.70910000  0.07410000  0.54930000  1.0 0.0226012471
C  C109  1  0.97700000  0.32600000  0.07250000  1.0 -0.0913598709
C  C110  1  0.32600000  0.97700000  0.42750000  1.0 -0.0913598709
C  C111  1  0.02300000  0.67400000  0.92750000  1.0 -0.0913598709
C  C112  1  0.67400000  0.02300000  0.57250000  1.0 -0.0913598709
C  C113  1  0.03440000  0.31940000  0.05210000  1.0 -0.0495987218
C  C114  1  0.31940000  0.03440000  0.44790000  1.0 -0.0495987218
C  C115  1  0.96560000  0.68060000  0.94790000  1.0 -0.0495987218
C  C116  1  0.68060000  0.96560000  0.55210000  1.0 -0.0495987218
C  C117  1  0.98560000  0.23460000  0.99090000  1.0 -0.0689389396
C  C118  1  0.23460000  0.98560000  0.50910000  1.0 -0.0689389396
C  C119  1  0.01440000  0.76540000  0.00910000  1.0 -0.0689389396
C  C120  1  0.76540000  0.01440000  0.49090000  1.0 -0.0689389396
C  C121  1  0.92800000  0.24220000  0.00660000  1.0 -0.1015463215
C  C122  1  0.24220000  0.92800000  0.49340000  1.0 -0.1015463215
C  C123  1  0.07200000  0.75780000  0.99340000  1.0 -0.1015463215
C  C124  1  0.75780000  0.07200000  0.50660000  1.0 -0.1015463215
C  C125  1  0.03820000  0.27000000  0.01160000  1.0 -0.0231975759
C  C126  1  0.27000000  0.03820000  0.48840000  1.0 -0.0231975759
C  C127  1  0.96180000  0.73000000  0.98840000  1.0 -0.0231975759
C  C128  1  0.73000000  0.96180000  0.51160000  1.0 -0.0231975759
C  C129  1  0.10140000  0.26040000  0.99400000  1.0 0.5052954296
C  C130  1  0.26040000  0.10140000  0.50600000  1.0 0.5040468316
C  C131  1  0.89860000  0.73960000  0.00600000  1.0 0.5040468316
C  C132  1  0.73960000  0.89860000  0.49400000  1.0 0.5040468316
C  C133  1  0.77960000  0.43020000  0.10570000  1.0 0.06120904
C  C134  1  0.43020000  0.77960000  0.39430000  1.0 0.06120904
C  C135  1  0.22040000  0.56980000  0.89430000  1.0 0.06120904
C  C136  1  0.56980000  0.22040000  0.60570000  1.0 0.06120904
C  C137  1  0.80260000  0.48540000  0.06180000  1.0 -0.1591693868
C  C138  1  0.48540000  0.80260000  0.43820000  1.0 -0.1591693868
C  C139  1  0.19740000  0.51460000  0.93820000  1.0 -0.1591693868
C  C140  1  0.51460000  0.19740000  0.56180000  1.0 -0.1591693868
C  C141  1  0.79130000  0.54490000  0.06810000  1.0 -0.1015463215
C  C142  1  0.54490000  0.79130000  0.43190000  1.0 -0.1015463215
C  C143  1  0.20870000  0.45510000  0.93190000  1.0 -0.1015463215
C  C144  1  0.45510000  0.20870000  0.56810000  1.0 -0.1015463215
C  C145  1  0.75510000  0.55090000  0.12670000  1.0 -0.0495987218
C  C146  1  0.55090000  0.75510000  0.37330000  1.0 -0.0495987218
C  C147  1  0.24490000  0.44910000  0.87330000  1.0 -0.0495987218
C  C148  1  0.44910000  0.24490000  0.62670000  1.0 -0.0495987218
C  C149  1  0.73410000  0.49690000  0.17140000  1.0 -0.1015463215
C  C150  1  0.49690000  0.73410000  0.32860000  1.0 -0.1015463215
C  C151  1  0.26590000  0.50310000  0.82860000  1.0 -0.1015463215
C  C152  1  0.50310000  0.26590000  0.67140000  1.0 -0.1015463215
C  C153  1  0.74510000  0.43850000  0.16040000  1.0 -0.1591693868
C  C154  1  0.43850000  0.74510000  0.33960000  1.0 -0.1591693868
C  C155  1  0.25490000  0.56150000  0.83960000  1.0 -0.1591693868
C  C156  1  0.56150000  0.25490000  0.66040000  1.0 -0.1591693868
C  C157  1  0.74250000  0.61410000  0.13700000  1.0 0.65714952
C  C158  1  0.61410000  0.74250000  0.36300000  1.0 0.65714952
C  C159  1  0.25750000  0.38590000  0.86300000  1.0 0.65714952
C  C160  1  0.38590000  0.25750000  0.63700000  1.0 0.65714952
C  C161  1  0.96320000  0.33700000  0.01240000  1.0 -0.0578596962
C  C162  1  0.33700000  0.96320000  0.48760000  1.0 -0.0495987218
C  C163  1  0.03680000  0.66300000  0.98760000  1.0 -0.0578596962
C  C164  1  0.66300000  0.03680000  0.51240000  1.0 -0.0578596962
C  C165  1  0.01810000  0.32810000  0.98760000  1.0 -0.1015463215
C  C166  1  0.32810000  0.01810000  0.51240000  1.0 -0.1015463215
C  C167  1  0.98190000  0.67190000  0.01240000  1.0 -0.1015463215
C  C168  1  0.67190000  0.98190000  0.48760000  1.0 -0.1015463215
C  C169  1  0.00230000  0.22010000  0.04680000  1.0 -0.0443650941
C  C170  1  0.22010000  0.00230000  0.45320000  1.0 -0.0443650941
C  C171  1  0.99770000  0.77990000  0.95320000  1.0 -0.0495987218
C  C172  1  0.77990000  0.99770000  0.54680000  1.0 -0.0443650941
C  C173  1  0.95520000  0.23220000  0.08050000  1.0 -0.1060641581
C  C174  1  0.23220000  0.95520000  0.41950000  1.0 -0.1060641581
C  C175  1  0.04480000  0.76780000  0.91950000  1.0 -0.1015463215
C  C176  1  0.76780000  0.04480000  0.58050000  1.0 -0.1060641581
O  O1  1  0.75670000  0.82830000  0.33560000  1.0 -0.7634333034
O  O2  1  0.82830000  0.75670000  0.16440000  1.0 -0.7634333034
O  O3  1  0.24330000  0.17170000  0.66440000  1.0 -0.7634333034
O  O4  1  0.17170000  0.24330000  0.83560000  1.0 -0.7634333034
O  O5  1  0.70714000  0.79972000  0.22700000  1.0 -0.555409338
O  O6  1  0.79972000  0.70714000  0.27300000  1.0 -0.555409338
O  O7  1  0.29286000  0.20028000  0.77300000  1.0 -0.555409338
O  O8  1  0.20028000  0.29286000  0.72700000  1.0 -0.555409338
O  O9  1  0.35401000  0.28219000  0.86960000  1.0 -0.7709192296
O  O10  1  0.28219000  0.35401000  0.63040000  1.0 -0.7709192296
O  O11  1  0.64599000  0.71781000  0.13040000  1.0 -0.7709192296
O  O12  1  0.71781000  0.64599000  0.36960000  1.0 -0.7709192296
O  O13  1  0.31220000  0.21800000  0.96190000  1.0 -0.6453208586
O  O14  1  0.21800000  0.31220000  0.53810000  1.0 -0.6440695782
O  O15  1  0.68780000  0.78200000  0.03810000  1.0 -0.6453208586
O  O16  1  0.78200000  0.68780000  0.46190000  1.0 -0.6440695782
O  O17  1  0.14190000  0.30450000  0.98330000  1.0 -0.5966477056
O  O18  1  0.30450000  0.14190000  0.51670000  1.0 -0.5966477056
O  O19  1  0.85810000  0.69550000  0.01670000  1.0 -0.5966477056
O  O20  1  0.69550000  0.85810000  0.48330000  1.0 -0.5966477056
O  O21  1  0.11290000  0.20730000  0.98610000  1.0 -0.6204951068
O  O22  1  0.20730000  0.11290000  0.51390000  1.0 -0.6204951068
O  O23  1  0.88710000  0.79270000  0.01390000  1.0 -0.6204951068
O  O24  1  0.79270000  0.88710000  0.48610000  1.0 -0.6204951068
O  O25  1  0.75200000  0.66180000  0.08260000  1.0 -0.7546974679
O  O26  1  0.66180000  0.75200000  0.41740000  1.0 -0.7546974679
O  O27  1  0.24800000  0.33820000  0.91740000  1.0 -0.7546974679
O  O28  1  0.33820000  0.24800000  0.58260000  1.0 -0.7546974679
O  O29  1  0.72482000  0.61578000  0.19820000  1.0 -0.6440695782
O  O30  1  0.61578000  0.72482000  0.30180000  1.0 -0.6440695782
O  O31  1  0.27518000  0.38422000  0.80180000  1.0 -0.6440695782
O  O32  1  0.38422000  0.27518000  0.69820000  1.0 -0.6440695782
O  O33  1  0.61810000  0.61810000  0.25000000  1.0 -0.8014557918
O  O34  1  0.38190000  0.38190000  0.75000000  1.0 -0.8014557918
