# DDEC6 charges by PACMAN v1.1 (https://github.com/mtap-research/PACMAN-charge/)
data_ATEZIK_ASR_pacman
_symmetry_space_group_name_H-M   'P 1'
_cell_length_a   21.64620000
_cell_length_b   21.64620000
_cell_length_c   18.69200000
_cell_angle_alpha   79.42450000
_cell_angle_beta   100.57600000
_cell_angle_gamma   96.50940000
_symmetry_Int_Tables_number   1
_chemical_formula_structural   Lu3H52(C11O2)8
_chemical_formula_sum   'Lu6 H104 C176 O32'
_cell_volume   8434.43920955
_cell_formula_units_Z   2
loop_
 _symmetry_equiv_pos_site_id
 _symmetry_equiv_pos_as_xyz
  1  'x, y, z'
loop_
 _atom_site_type_symbol
 _atom_site_label
 _atom_site_symmetry_multiplicity
 _atom_site_fract_x
 _atom_site_fract_y
 _atom_site_fract_z
 _atom_site_occupancy
 _atom_site_charge
Lu  Lu1  1  0.69645000  0.69645000  0.25000000  1.0 1.6351967597
Lu  Lu2  1  0.30355000  0.30355000  0.75000000  1.0 1.6349617982
Lu  Lu3  1  0.75956000  0.78868000  0.45093000  1.0 1.5201907301
Lu  Lu4  1  0.78868000  0.75956000  0.04907000  1.0 1.5201907301
Lu  Lu5  1  0.24044000  0.21132000  0.54907000  1.0 1.5201907301
Lu  Lu6  1  0.21132000  0.24044000  0.95093000  1.0 1.5201907301
H  H1  1  0.76570000  0.13830000  0.15710000  1.0 0.1180307513
H  H2  1  0.13830000  0.76570000  0.34290000  1.0 0.1180307513
H  H3  1  0.23430000  0.86170000  0.84290000  1.0 0.1180307513
H  H4  1  0.86170000  0.23430000  0.65710000  1.0 0.1180307513
H  H5  1  0.58660000  0.07800000  0.10100000  1.0 0.1094539559
H  H6  1  0.07800000  0.58660000  0.39900000  1.0 0.1094539559
H  H7  1  0.41340000  0.92200000  0.89900000  1.0 0.1094539559
H  H8  1  0.92200000  0.41340000  0.60100000  1.0 0.1094539559
H  H9  1  0.64090000  0.25830000  0.04590000  1.0 0.1094539559
H  H10  1  0.25830000  0.64090000  0.45410000  1.0 0.1094539559
H  H11  1  0.35910000  0.74170000  0.95410000  1.0 0.1094539559
H  H12  1  0.74170000  0.35910000  0.54590000  1.0 0.1094539559
H  H13  1  0.64490000  0.99110000  0.08910000  1.0 0.1094539559
H  H14  1  0.99110000  0.64490000  0.41090000  1.0 0.1007275957
H  H15  1  0.35510000  0.00890000  0.91090000  1.0 0.1094539559
H  H16  1  0.00890000  0.35510000  0.58910000  1.0 0.1094539559
H  H17  1  0.67040000  0.88880000  0.13740000  1.0 0.1180307513
H  H18  1  0.88880000  0.67040000  0.36260000  1.0 0.1180307513
H  H19  1  0.32960000  0.11120000  0.86260000  1.0 0.1180307513
H  H20  1  0.11120000  0.32960000  0.63740000  1.0 0.1180307513
H  H21  1  0.76660000  0.95100000  0.32090000  1.0 0.1180307513
H  H22  1  0.95100000  0.76660000  0.17910000  1.0 0.1180307513
H  H23  1  0.23340000  0.04900000  0.67910000  1.0 0.1180307513
H  H24  1  0.04900000  0.23340000  0.82090000  1.0 0.1180307513
H  H25  1  0.74770000  0.05410000  0.26170000  1.0 0.1094539559
H  H26  1  0.05410000  0.74770000  0.23830000  1.0 0.1094539559
H  H27  1  0.25230000  0.94590000  0.73830000  1.0 0.1094539559
H  H28  1  0.94590000  0.25230000  0.76170000  1.0 0.1094539559
H  H29  1  0.56470000  0.24630000  0.94100000  1.0 0.1094539559
H  H30  1  0.24630000  0.56470000  0.55900000  1.0 0.1094539559
H  H31  1  0.43530000  0.75370000  0.05900000  1.0 0.1094539559
H  H32  1  0.75370000  0.43530000  0.44100000  1.0 0.1094539559
H  H33  1  0.46460000  0.26800000  0.88220000  1.0 0.1258121052
H  H34  1  0.26800000  0.46460000  0.61780000  1.0 0.1258121052
H  H35  1  0.53540000  0.73200000  0.11780000  1.0 0.1258121052
H  H36  1  0.73200000  0.53540000  0.38220000  1.0 0.1258121052
H  H37  1  0.39080000  0.15460000  0.04050000  1.0 0.1180307513
H  H38  1  0.15460000  0.39080000  0.45950000  1.0 0.1180307513
H  H39  1  0.60920000  0.84540000  0.95950000  1.0 0.1180307513
H  H40  1  0.84540000  0.60920000  0.54050000  1.0 0.1180307513
H  H41  1  0.49120000  0.13180000  0.10450000  1.0 0.1180307513
H  H42  1  0.13180000  0.49120000  0.39550000  1.0 0.1180307513
H  H43  1  0.50880000  0.86820000  0.89550000  1.0 0.1180307513
H  H44  1  0.86820000  0.50880000  0.60450000  1.0 0.1180307513
H  H45  1  0.70930000  0.32510000  0.11520000  1.0 0.1094539559
H  H46  1  0.32510000  0.70930000  0.38480000  1.0 0.1094539559
H  H47  1  0.29070000  0.67490000  0.88480000  1.0 0.1094539559
H  H48  1  0.67490000  0.29070000  0.61520000  1.0 0.1094539559
H  H49  1  0.88070000  0.39210000  0.07290000  1.0 0.1007275957
H  H50  1  0.39210000  0.88070000  0.42710000  1.0 0.1007275957
H  H51  1  0.11930000  0.60790000  0.92710000  1.0 0.1007275957
H  H52  1  0.60790000  0.11930000  0.57290000  1.0 0.1007275957
H  H53  1  0.82770000  0.20950000  0.07570000  1.0 0.1007275957
H  H54  1  0.20950000  0.82770000  0.42430000  1.0 0.1007275957
H  H55  1  0.17230000  0.79050000  0.92430000  1.0 0.1007275957
H  H56  1  0.79050000  0.17230000  0.57570000  1.0 0.1007275957
H  H57  1  0.97400000  0.35880000  0.08890000  1.0 0.091997991
H  H58  1  0.35880000  0.97400000  0.41110000  1.0 0.091997991
H  H59  1  0.02600000  0.64120000  0.91110000  1.0 0.091997991
H  H60  1  0.64120000  0.02600000  0.58890000  1.0 0.091997991
H  H61  1  0.06990000  0.34370000  0.05530000  1.0 0.1007275957
H  H62  1  0.34370000  0.06990000  0.44470000  1.0 0.1007275957
H  H63  1  0.93010000  0.65630000  0.94470000  1.0 0.1007275957
H  H64  1  0.65630000  0.93010000  0.55530000  1.0 0.1007275957
H  H65  1  0.99270000  0.18970000  0.98620000  1.0 0.1007275957
H  H66  1  0.18970000  0.99270000  0.51380000  1.0 0.1007275957
H  H67  1  0.00730000  0.81030000  0.01380000  1.0 0.1007275957
H  H68  1  0.81030000  0.00730000  0.48620000  1.0 0.1007275957
H  H69  1  0.89440000  0.20980000  0.00350000  1.0 0.091997991
H  H70  1  0.20980000  0.89440000  0.49650000  1.0 0.091997991
H  H71  1  0.10560000  0.79020000  0.99650000  1.0 0.091997991
H  H72  1  0.79020000  0.10560000  0.50350000  1.0 0.091997991
H  H73  1  0.82460000  0.48120000  0.02620000  1.0 0.1094539559
H  H74  1  0.48120000  0.82460000  0.47380000  1.0 0.1094539559
H  H75  1  0.17540000  0.51880000  0.97380000  1.0 0.1094539559
H  H76  1  0.51880000  0.17540000  0.52620000  1.0 0.1094539559
H  H77  1  0.80200000  0.58220000  0.03820000  1.0 0.1180307513
H  H78  1  0.58220000  0.80200000  0.46180000  1.0 0.1180307513
H  H79  1  0.19800000  0.41780000  0.96180000  1.0 0.1180307513
H  H80  1  0.41780000  0.19800000  0.53820000  1.0 0.1180307513
H  H81  1  0.71230000  0.50550000  0.20700000  1.0 0.1180307513
H  H82  1  0.50550000  0.71230000  0.29300000  1.0 0.1180307513
H  H83  1  0.28770000  0.49450000  0.79300000  1.0 0.1180307513
H  H84  1  0.49450000  0.28770000  0.70700000  1.0 0.1180307513
H  H85  1  0.73010000  0.40570000  0.18990000  1.0 0.1094539559
H  H86  1  0.40570000  0.73010000  0.31010000  1.0 0.1094539559
H  H87  1  0.26990000  0.59430000  0.81010000  1.0 0.1094539559
H  H88  1  0.59430000  0.26990000  0.68990000  1.0 0.1094539559
H  H89  1  0.93280000  0.37000000  0.97610000  1.0 0.091997991
H  H90  1  0.37000000  0.93280000  0.52390000  1.0 0.091997991
H  H91  1  0.06720000  0.63000000  0.02390000  1.0 0.091997991
H  H92  1  0.63000000  0.06720000  0.47610000  1.0 0.091997991
H  H93  1  0.03610000  0.36330000  0.96220000  1.0 0.1007275957
H  H94  1  0.36330000  0.03610000  0.53780000  1.0 0.1007275957
H  H95  1  0.96390000  0.63670000  0.03780000  1.0 0.1007275957
H  H96  1  0.63670000  0.96390000  0.46220000  1.0 0.1007275957
H  H97  1  0.02860000  0.18340000  0.07860000  1.0 0.1007275957
H  H98  1  0.18340000  0.02860000  0.42140000  1.0 0.1007275957
H  H99  1  0.97140000  0.81660000  0.92140000  1.0 0.1007275957
H  H100  1  0.81660000  0.97140000  0.57860000  1.0 0.1007275957
H  H101  1  0.93300000  0.20240000  0.10700000  1.0 0.091997991
H  H102  1  0.20240000  0.93300000  0.39300000  1.0 0.091997991
H  H103  1  0.06700000  0.79760000  0.89300000  1.0 0.1007275957
H  H104  1  0.79760000  0.06700000  0.60700000  1.0 0.091997991
C  C1  1  0.71142000  0.20718000  0.10140000  1.0 0.0715369814
C  C2  1  0.20718000  0.71142000  0.39860000  1.0 0.0715369814
C  C3  1  0.28858000  0.79282000  0.89860000  1.0 0.0715369814
C  C4  1  0.79282000  0.28858000  0.60140000  1.0 0.0715369814
C  C5  1  0.72473000  0.14627000  0.13420000  1.0 -0.2008008764
C  C6  1  0.14627000  0.72473000  0.36580000  1.0 -0.2008008764
C  C7  1  0.27527000  0.85373000  0.86580000  1.0 -0.2008008764
C  C8  1  0.85373000  0.27527000  0.63420000  1.0 -0.2008008764
C  C9  1  0.67830000  0.09790000  0.13340000  1.0 0.0715369814
C  C10  1  0.09790000  0.67830000  0.36660000  1.0 0.0715369814
C  C11  1  0.32170000  0.90210000  0.86660000  1.0 0.0715369814
C  C12  1  0.90210000  0.32170000  0.63340000  1.0 0.0715369814
C  C13  1  0.61834000  0.11066000  0.10050000  1.0 -0.2008008764
C  C14  1  0.11066000  0.61834000  0.39950000  1.0 -0.2008008764
C  C15  1  0.38166000  0.88934000  0.89950000  1.0 -0.2008008764
C  C16  1  0.88934000  0.38166000  0.60050000  1.0 -0.2008008764
C  C17  1  0.60340000  0.17100000  0.06620000  1.0 0.0610201223
C  C18  1  0.17100000  0.60340000  0.43380000  1.0 0.0610201223
C  C19  1  0.39660000  0.82900000  0.93380000  1.0 0.0610201223
C  C20  1  0.82900000  0.39660000  0.56620000  1.0 0.0610201223
C  C21  1  0.65021000  0.21759000  0.06800000  1.0 -0.1916569775
C  C22  1  0.21759000  0.65021000  0.43200000  1.0 -0.1916569775
C  C23  1  0.34979000  0.78241000  0.93200000  1.0 -0.1916569775
C  C24  1  0.78241000  0.34979000  0.56800000  1.0 -0.1916569775
C  C25  1  0.69326000  0.03174000  0.17070000  1.0 0.0610201223
C  C26  1  0.03174000  0.69326000  0.32930000  1.0 0.0610201223
C  C27  1  0.30674000  0.96826000  0.82930000  1.0 0.0610201223
C  C28  1  0.96826000  0.30674000  0.67070000  1.0 0.0610201223
C  C29  1  0.67030000  0.98310000  0.13500000  1.0 -0.1430942422
C  C30  1  0.98310000  0.67030000  0.36500000  1.0 -0.1430942422
C  C31  1  0.32970000  0.01690000  0.86500000  1.0 -0.1430942422
C  C32  1  0.01690000  0.32970000  0.63500000  1.0 -0.1430942422
C  C33  1  0.68360000  0.92120000  0.16470000  1.0 -0.106532301
C  C34  1  0.92120000  0.68360000  0.33530000  1.0 -0.106532301
C  C35  1  0.31640000  0.07880000  0.83530000  1.0 -0.106532301
C  C36  1  0.07880000  0.31640000  0.66470000  1.0 -0.106532301
C  C37  1  0.71740000  0.90880000  0.23720000  1.0 -0.0426991071
C  C38  1  0.90880000  0.71740000  0.26280000  1.0 -0.0452097027
C  C39  1  0.28260000  0.09120000  0.76280000  1.0 -0.0426991071
C  C40  1  0.09120000  0.28260000  0.73720000  1.0 -0.0426991071
C  C41  1  0.74240000  0.95820000  0.27410000  1.0 -0.0995544921
C  C42  1  0.95820000  0.74240000  0.22590000  1.0 -0.0995544921
C  C43  1  0.25760000  0.04180000  0.72590000  1.0 -0.0995544921
C  C44  1  0.04180000  0.25760000  0.77410000  1.0 -0.0995544921
C  C45  1  0.73020000  0.02020000  0.23840000  1.0 -0.1542320257
C  C46  1  0.02020000  0.73020000  0.26160000  1.0 -0.1542320257
C  C47  1  0.26980000  0.97980000  0.76160000  1.0 -0.1542320257
C  C48  1  0.97980000  0.26980000  0.73840000  1.0 -0.1542320257
C  C49  1  0.73000000  0.84260000  0.26960000  1.0 0.6091655338
C  C50  1  0.84260000  0.73000000  0.23040000  1.0 0.6091655338
C  C51  1  0.27000000  0.15740000  0.73040000  1.0 0.6091655338
C  C52  1  0.15740000  0.27000000  0.76960000  1.0 0.6091655338
C  C53  1  0.53894000  0.18506000  0.02890000  1.0 0.0715369814
C  C54  1  0.18506000  0.53894000  0.47110000  1.0 0.0715369814
C  C55  1  0.46106000  0.81494000  0.97110000  1.0 0.0715369814
C  C56  1  0.81494000  0.46106000  0.52890000  1.0 0.0715369814
C  C57  1  0.53000000  0.22740000  0.96210000  1.0 -0.1627148023
C  C58  1  0.22740000  0.53000000  0.53790000  1.0 -0.1627148023
C  C59  1  0.47000000  0.77260000  0.03790000  1.0 -0.1627148023
C  C60  1  0.77260000  0.47000000  0.46210000  1.0 -0.1627148023
C  C61  1  0.46960000  0.24100000  0.92740000  1.0 -0.0907451313
C  C62  1  0.24100000  0.46960000  0.57260000  1.0 -0.0907451313
C  C63  1  0.53040000  0.75900000  0.07260000  1.0 -0.0907451313
C  C64  1  0.75900000  0.53040000  0.42740000  1.0 -0.0907451313
C  C65  1  0.41892000  0.21708000  0.95640000  1.0 -0.0709871016
C  C66  1  0.21708000  0.41892000  0.54360000  1.0 -0.0709871016
C  C67  1  0.58108000  0.78292000  0.04360000  1.0 -0.0709871016
C  C68  1  0.78292000  0.58108000  0.45640000  1.0 -0.0709871016
C  C69  1  0.42630000  0.17390000  0.02150000  1.0 -0.0907451313
C  C70  1  0.17390000  0.42630000  0.47850000  1.0 -0.0907451313
C  C71  1  0.57370000  0.82610000  0.97850000  1.0 -0.0907451313
C  C72  1  0.82610000  0.57370000  0.52150000  1.0 -0.0907451313
C  C73  1  0.48670000  0.15890000  0.05950000  1.0 -0.1627148023
C  C74  1  0.15890000  0.48670000  0.44050000  1.0 -0.1627148023
C  C75  1  0.51330000  0.84110000  0.94050000  1.0 -0.1627148023
C  C76  1  0.84110000  0.51330000  0.55950000  1.0 -0.1627148023
C  C77  1  0.35607000  0.23653000  0.92090000  1.0 0.6211249823
C  C78  1  0.23653000  0.35607000  0.57910000  1.0 0.6211249823
C  C79  1  0.64393000  0.76347000  0.07910000  1.0 0.6211249823
C  C80  1  0.76347000  0.64393000  0.42090000  1.0 0.6211249823
C  C81  1  0.76115000  0.25945000  0.09780000  1.0 0.0715369814
C  C82  1  0.25945000  0.76115000  0.40220000  1.0 0.0715369814
C  C83  1  0.23885000  0.74055000  0.90220000  1.0 0.0715369814
C  C84  1  0.74055000  0.23885000  0.59780000  1.0 0.0715369814
C  C85  1  0.74846000  0.31894000  0.10540000  1.0 -0.2008008764
C  C86  1  0.31894000  0.74846000  0.39460000  1.0 -0.2008008764
C  C87  1  0.25154000  0.68106000  0.89460000  1.0 -0.2008008764
C  C88  1  0.68106000  0.25154000  0.60540000  1.0 -0.2008008764
C  C89  1  0.79335000  0.36905000  0.09840000  1.0 0.0755180413
C  C90  1  0.36905000  0.79335000  0.40160000  1.0 0.0755180413
C  C91  1  0.20665000  0.63095000  0.90160000  1.0 0.0755180413
C  C92  1  0.63095000  0.20665000  0.59840000  1.0 0.0755180413
C  C93  1  0.85039000  0.35841000  0.07940000  1.0 -0.2102489477
C  C94  1  0.35841000  0.85039000  0.42060000  1.0 -0.2102489477
C  C95  1  0.14961000  0.64159000  0.92060000  1.0 -0.2102489477
C  C96  1  0.64159000  0.14961000  0.57940000  1.0 -0.2102489477
C  C97  1  0.86319000  0.29881000  0.07000000  1.0 0.0610201223
C  C98  1  0.29881000  0.86319000  0.43000000  1.0 0.0610201223
C  C99  1  0.13681000  0.70119000  0.93000000  1.0 0.0610201223
C  C100  1  0.70119000  0.13681000  0.57000000  1.0 0.0610201223
C  C101  1  0.81934000  0.24966000  0.08030000  1.0 -0.2102489477
C  C102  1  0.24966000  0.81934000  0.41970000  1.0 -0.2102489477
C  C103  1  0.18066000  0.75034000  0.91970000  1.0 -0.2102489477
C  C104  1  0.75034000  0.18066000  0.58030000  1.0 -0.2102489477
C  C105  1  0.92440000  0.28860000  0.04640000  1.0 0.0019055031
C  C106  1  0.28860000  0.92440000  0.45360000  1.0 0.0019055031
C  C107  1  0.07560000  0.71140000  0.95360000  1.0 0.0019055031
C  C108  1  0.71140000  0.07560000  0.54640000  1.0 0.0019055031
C  C109  1  0.97600000  0.32620000  0.06350000  1.0 -0.0709871016
C  C110  1  0.32620000  0.97600000  0.43650000  1.0 -0.0709871016
C  C111  1  0.02400000  0.67380000  0.93650000  1.0 -0.0709871016
C  C112  1  0.67380000  0.02400000  0.56350000  1.0 -0.0709871016
C  C113  1  0.03400000  0.31700000  0.04350000  1.0 -0.0795406184
C  C114  1  0.31700000  0.03400000  0.45650000  1.0 -0.0795406184
C  C115  1  0.96600000  0.68300000  0.95650000  1.0 -0.0795406184
C  C116  1  0.68300000  0.96600000  0.54350000  1.0 -0.0795406184
C  C117  1  0.98810000  0.22750000  0.00070000  1.0 -0.0587158651
C  C118  1  0.22750000  0.98810000  0.49930000  1.0 -0.0587158651
C  C119  1  0.01190000  0.77250000  0.99930000  1.0 -0.0587158651
C  C120  1  0.77250000  0.01190000  0.50070000  1.0 -0.0587158651
C  C121  1  0.92940000  0.23740000  0.01500000  1.0 -0.0907451313
C  C122  1  0.23740000  0.92940000  0.48500000  1.0 -0.0907451313
C  C123  1  0.07060000  0.76260000  0.98500000  1.0 -0.0995544921
C  C124  1  0.76260000  0.07060000  0.51500000  1.0 -0.0907451313
C  C125  1  0.03640000  0.26820000  0.00650000  1.0 -0.0209230919
C  C126  1  0.26820000  0.03640000  0.49350000  1.0 -0.0209230919
C  C127  1  0.96360000  0.73180000  0.99350000  1.0 -0.0209230919
C  C128  1  0.73180000  0.96360000  0.50650000  1.0 -0.0209230919
C  C129  1  0.09990000  0.25890000  0.98510000  1.0 0.4886185819
C  C130  1  0.25890000  0.09990000  0.51490000  1.0 0.4886185819
C  C131  1  0.90010000  0.74110000  0.01490000  1.0 0.4886185819
C  C132  1  0.74110000  0.90010000  0.48510000  1.0 0.4886185819
C  C133  1  0.77930000  0.43190000  0.10660000  1.0 0.0610201223
C  C134  1  0.43190000  0.77930000  0.39340000  1.0 0.0610201223
C  C135  1  0.22070000  0.56810000  0.89340000  1.0 0.0610201223
C  C136  1  0.56810000  0.22070000  0.60660000  1.0 0.0610201223
C  C137  1  0.80120000  0.48540000  0.06180000  1.0 -0.1627148023
C  C138  1  0.48540000  0.80120000  0.43820000  1.0 -0.1627148023
C  C139  1  0.19880000  0.51460000  0.93820000  1.0 -0.1627148023
C  C140  1  0.51460000  0.19880000  0.56180000  1.0 -0.1627148023
C  C141  1  0.78830000  0.54670000  0.06940000  1.0 -0.0995544921
C  C142  1  0.54670000  0.78830000  0.43060000  1.0 -0.0995544921
C  C143  1  0.21170000  0.45330000  0.93060000  1.0 -0.0995544921
C  C144  1  0.45330000  0.21170000  0.56940000  1.0 -0.0995544921
C  C145  1  0.75517000  0.55283000  0.12340000  1.0 -0.0426991071
C  C146  1  0.55283000  0.75517000  0.37660000  1.0 -0.0426991071
C  C147  1  0.24483000  0.44717000  0.87660000  1.0 -0.0426991071
C  C148  1  0.44717000  0.24483000  0.62340000  1.0 -0.0426991071
C  C149  1  0.73390000  0.50090000  0.16990000  1.0 -0.106532301
C  C150  1  0.50090000  0.73390000  0.33010000  1.0 -0.106532301
C  C151  1  0.26610000  0.49910000  0.83010000  1.0 -0.106532301
C  C152  1  0.49910000  0.26610000  0.66990000  1.0 -0.106532301
C  C153  1  0.74550000  0.44090000  0.15980000  1.0 -0.1627148023
C  C154  1  0.44090000  0.74550000  0.34020000  1.0 -0.1627148023
C  C155  1  0.25450000  0.55910000  0.84020000  1.0 -0.1627148023
C  C156  1  0.55910000  0.25450000  0.65980000  1.0 -0.1627148023
C  C157  1  0.74630000  0.61830000  0.13490000  1.0 0.6091655338
C  C158  1  0.61830000  0.74630000  0.36510000  1.0 0.6091655338
C  C159  1  0.25370000  0.38170000  0.86510000  1.0 0.6091655338
C  C160  1  0.38170000  0.25370000  0.63490000  1.0 0.6091655338
C  C161  1  0.95360000  0.33440000  0.99900000  1.0 -0.0995544921
C  C162  1  0.33440000  0.95360000  0.50100000  1.0 -0.0995544921
C  C163  1  0.04640000  0.66560000  0.00100000  1.0 -0.106532301
C  C164  1  0.66560000  0.04640000  0.49900000  1.0 -0.0995544921
C  C165  1  0.01260000  0.32900000  0.98490000  1.0 -0.0795406184
C  C166  1  0.32900000  0.01260000  0.51510000  1.0 -0.0795406184
C  C167  1  0.98740000  0.67100000  0.01510000  1.0 -0.0795406184
C  C168  1  0.67100000  0.98740000  0.48490000  1.0 -0.0795406184
C  C169  1  0.00950000  0.22030000  0.05790000  1.0 -0.0709871016
C  C170  1  0.22030000  0.00950000  0.44210000  1.0 -0.0709871016
C  C171  1  0.99050000  0.77970000  0.94210000  1.0 -0.0709871016
C  C172  1  0.77970000  0.99050000  0.55790000  1.0 -0.0709871016
C  C173  1  0.95280000  0.23280000  0.07490000  1.0 -0.0587158651
C  C174  1  0.23280000  0.95280000  0.42510000  1.0 -0.0587158651
C  C175  1  0.04720000  0.76720000  0.92510000  1.0 -0.0587158651
C  C176  1  0.76720000  0.04720000  0.57490000  1.0 -0.0587158651
O  O1  1  0.75816000  0.83484000  0.33540000  1.0 -0.5997773415
O  O2  1  0.83484000  0.75816000  0.16460000  1.0 -0.5997773415
O  O3  1  0.24184000  0.16516000  0.66460000  1.0 -0.5997773415
O  O4  1  0.16516000  0.24184000  0.83540000  1.0 -0.5997773415
O  O5  1  0.71022000  0.80098000  0.23330000  1.0 -0.5559060728
O  O6  1  0.80098000  0.71022000  0.26670000  1.0 -0.5559060728
O  O7  1  0.28978000  0.19902000  0.76670000  1.0 -0.5559060728
O  O8  1  0.19902000  0.28978000  0.73330000  1.0 -0.5559060728
O  O9  1  0.35422000  0.27538000  0.86090000  1.0 -0.5997773415
O  O10  1  0.27538000  0.35422000  0.63910000  1.0 -0.5997773415
O  O11  1  0.64578000  0.72462000  0.13910000  1.0 -0.5997773415
O  O12  1  0.72462000  0.64578000  0.36090000  1.0 -0.5997773415
O  O13  1  0.31054000  0.21806000  0.95260000  1.0 -0.5791869616
O  O14  1  0.21806000  0.31054000  0.54740000  1.0 -0.5791869616
O  O15  1  0.68946000  0.78194000  0.04740000  1.0 -0.5791869616
O  O16  1  0.78194000  0.68946000  0.45260000  1.0 -0.5791869616
O  O17  1  0.13430000  0.30450000  0.96720000  1.0 -0.4924991658
O  O18  1  0.30450000  0.13430000  0.53280000  1.0 -0.4924991658
O  O19  1  0.86570000  0.69550000  0.03280000  1.0 -0.4924991658
O  O20  1  0.69550000  0.86570000  0.46720000  1.0 -0.4924991658
O  O21  1  0.11010000  0.20450000  0.97990000  1.0 -0.5355343675
O  O22  1  0.20450000  0.11010000  0.52010000  1.0 -0.5346438145
O  O23  1  0.88990000  0.79550000  0.02010000  1.0 -0.5346438145
O  O24  1  0.79550000  0.88990000  0.47990000  1.0 -0.5355343675
O  O25  1  0.75488000  0.66226000  0.08830000  1.0 -0.5035248255
O  O26  1  0.66226000  0.75488000  0.41170000  1.0 -0.506346271
O  O27  1  0.24512000  0.33774000  0.91170000  1.0 -0.506346271
O  O28  1  0.33774000  0.24512000  0.58830000  1.0 -0.506346271
O  O29  1  0.72773000  0.62127000  0.19800000  1.0 -0.6585209674
O  O30  1  0.62127000  0.72773000  0.30200000  1.0 -0.6585209674
O  O31  1  0.27227000  0.37873000  0.80200000  1.0 -0.6585209674
O  O32  1  0.37873000  0.27227000  0.69800000  1.0 -0.6585209674
