# DDEC6 charges by PACMAN v1.1 (https://github.com/mtap-research/PACMAN-charge/)
data_ATIBIO_ASR_pacman
_symmetry_space_group_name_H-M   'P 1'
_cell_length_a   11.68800000
_cell_length_b   10.24380000
_cell_length_c   18.75300000
_cell_angle_alpha   90.00000000
_cell_angle_beta   127.40800000
_cell_angle_gamma   90.00000000
_symmetry_Int_Tables_number   1
_chemical_formula_structural   MnC3O4
_chemical_formula_sum   'Mn12 C36 O48'
_cell_volume   1783.49915110
_cell_formula_units_Z   12
loop_
 _symmetry_equiv_pos_site_id
 _symmetry_equiv_pos_as_xyz
  1  'x, y, z'
loop_
 _atom_site_type_symbol
 _atom_site_label
 _atom_site_symmetry_multiplicity
 _atom_site_fract_x
 _atom_site_fract_y
 _atom_site_fract_z
 _atom_site_occupancy
 _atom_site_charge
Mn  Mn1  1  0.62455000  0.91357000  0.87020000  1.0 1.0472841843
Mn  Mn2  1  0.37545000  0.41357000  0.62980000  1.0 1.0472841843
Mn  Mn3  1  0.37545000  0.08643000  0.12980000  1.0 1.0472841843
Mn  Mn4  1  0.62455000  0.58643000  0.37020000  1.0 1.0472841843
Mn  Mn5  1  0.42539000  0.10038000  0.68512000  1.0 1.0472841843
Mn  Mn6  1  0.57461000  0.60038000  0.81488000  1.0 1.0472841843
Mn  Mn7  1  0.57461000  0.89962000  0.31488000  1.0 1.0472841843
Mn  Mn8  1  0.42539000  0.39962000  0.18512000  1.0 1.0472841843
Mn  Mn9  1  0.50000000  0.00000000  0.00000000  1.0 1.0135412797
Mn  Mn10  1  0.50000000  0.50000000  0.50000000  1.0 1.0135412797
Mn  Mn11  1  0.00000000  0.00000000  0.00000000  1.0 1.0754367098
Mn  Mn12  1  0.00000000  0.50000000  0.50000000  1.0 1.0722162708
C  C1  1  0.49250000  0.81490000  0.67110000  1.0 0.7666349097
C  C2  1  0.50750000  0.31490000  0.82890000  1.0 0.7666349097
C  C3  1  0.50750000  0.18510000  0.32890000  1.0 0.7666349097
C  C4  1  0.49250000  0.68510000  0.17110000  1.0 0.7666349097
C  C5  1  0.30760000  0.00920000  0.78790000  1.0 0.6435955002
C  C6  1  0.69240000  0.50920000  0.71210000  1.0 0.6435955002
C  C7  1  0.69240000  0.99080000  0.21210000  1.0 0.6435955002
C  C8  1  0.30760000  0.49080000  0.28790000  1.0 0.6435955002
C  C9  1  0.51820000  0.71440000  0.94780000  1.0 0.7285700201
C  C10  1  0.48180000  0.21440000  0.55220000  1.0 0.7285700201
C  C11  1  0.48180000  0.28560000  0.05220000  1.0 0.7285700201
C  C12  1  0.51820000  0.78560000  0.44780000  1.0 0.7285700201
C  C13  1  0.76130000  0.11900000  0.80960000  1.0 0.7862744316
C  C14  1  0.23870000  0.61900000  0.69040000  1.0 0.7802629455
C  C15  1  0.23870000  0.88100000  0.19040000  1.0 0.7862744316
C  C16  1  0.76130000  0.38100000  0.30960000  1.0 0.7862744316
C  C17  1  0.77480000  0.09970000  0.03220000  1.0 0.7997376307
C  C18  1  0.22520000  0.59970000  0.46780000  1.0 0.7997376307
C  C19  1  0.22520000  0.90030000  0.96780000  1.0 0.7997376307
C  C20  1  0.77480000  0.40030000  0.53220000  1.0 0.7997376307
C  C21  1  0.88030000  0.71990000  0.94960000  1.0 0.7285700201
C  C22  1  0.11970000  0.21990000  0.55040000  1.0 0.7285700201
C  C23  1  0.11970000  0.28010000  0.05040000  1.0 0.7285700201
C  C24  1  0.88030000  0.78010000  0.44960000  1.0 0.7285700201
C  C25  1  0.16900000  0.01500000  0.71600000  1.0 -0.5309975759
C  C26  1  0.83100000  0.51500000  0.78400000  1.0 -0.5309975759
C  C27  1  0.83100000  0.98500000  0.28400000  1.0 -0.537341477
C  C28  1  0.16900000  0.48500000  0.21600000  1.0 -0.5309975759
C  C29  1  0.43100000  0.59950000  0.93760000  1.0 -0.3334617431
C  C30  1  0.56900000  0.09950000  0.56240000  1.0 -0.3334617431
C  C31  1  0.56900000  0.40050000  0.06240000  1.0 -0.3450511411
C  C32  1  0.43100000  0.90050000  0.43760000  1.0 -0.3334617431
C  C33  1  0.02400000  0.67000000  0.00900000  1.0 -0.41913567
C  C34  1  0.97600000  0.17000000  0.49100000  1.0 -0.41913567
C  C35  1  0.97600000  0.33000000  0.99100000  1.0 -0.41913567
C  C36  1  0.02400000  0.83000000  0.50900000  1.0 -0.4352453069
O  O1  1  0.55680000  0.79180000  0.75383000  1.0 -0.5913269535
O  O2  1  0.44320000  0.29180000  0.74617000  1.0 -0.5913269535
O  O3  1  0.44320000  0.20820000  0.24617000  1.0 -0.5913269535
O  O4  1  0.55680000  0.70820000  0.25383000  1.0 -0.5913269535
O  O5  1  0.44100000  0.92260000  0.63380000  1.0 -0.4578181947
O  O6  1  0.55900000  0.42260000  0.86620000  1.0 -0.4542524532
O  O7  1  0.55900000  0.07740000  0.36620000  1.0 -0.4542524532
O  O8  1  0.44100000  0.57740000  0.13380000  1.0 -0.4542524532
O  O9  1  0.41000000  0.00170000  0.78130000  1.0 -0.5681528465
O  O10  1  0.59000000  0.50170000  0.71870000  1.0 -0.5681528465
O  O11  1  0.59000000  0.99830000  0.21870000  1.0 -0.5681528465
O  O12  1  0.41000000  0.49830000  0.28130000  1.0 -0.5681528465
O  O13  1  0.32280000  0.99850000  0.85840000  1.0 -0.43081882
O  O14  1  0.67720000  0.49850000  0.64160000  1.0 -0.43081882
O  O15  1  0.67720000  0.00150000  0.14160000  1.0 -0.43081882
O  O16  1  0.32280000  0.50150000  0.35840000  1.0 -0.43081882
O  O17  1  0.54320000  0.73720000  0.89180000  1.0 -0.5999288813
O  O18  1  0.45680000  0.23720000  0.60820000  1.0 -0.5999288813
O  O19  1  0.45680000  0.26280000  0.10820000  1.0 -0.5999288813
O  O20  1  0.54320000  0.76280000  0.39180000  1.0 -0.5999288813
O  O21  1  0.52150000  0.79360000  0.99770000  1.0 -0.4761117265
O  O22  1  0.47850000  0.29360000  0.50230000  1.0 -0.4761117265
O  O23  1  0.47850000  0.20640000  0.00230000  1.0 -0.4761117265
O  O24  1  0.52150000  0.70640000  0.49770000  1.0 -0.4761117265
O  O25  1  0.65480000  0.07130000  0.80200000  1.0 -0.6059664759
O  O26  1  0.34520000  0.57130000  0.69800000  1.0 -0.5999288813
O  O27  1  0.34520000  0.92870000  0.19800000  1.0 -0.6059664759
O  O28  1  0.65480000  0.42870000  0.30200000  1.0 -0.6059664759
O  O29  1  0.88990000  0.09880000  0.87260000  1.0 -0.4578181947
O  O30  1  0.11010000  0.59880000  0.62740000  1.0 -0.4542524532
O  O31  1  0.11010000  0.90120000  0.12740000  1.0 -0.4542524532
O  O32  1  0.88990000  0.40120000  0.37260000  1.0 -0.4578181947
O  O33  1  0.66350000  0.02800000  0.97830000  1.0 -0.6331303135
O  O34  1  0.33650000  0.52800000  0.52170000  1.0 -0.6331303135
O  O35  1  0.33650000  0.97200000  0.02170000  1.0 -0.6331303135
O  O36  1  0.66350000  0.47200000  0.47830000  1.0 -0.6331303135
O  O37  1  0.88120000  0.10320000  0.03340000  1.0 -0.4578181947
O  O38  1  0.11880000  0.60320000  0.46660000  1.0 -0.4578181947
O  O39  1  0.11880000  0.89680000  0.96660000  1.0 -0.4578181947
O  O40  1  0.88120000  0.39680000  0.53340000  1.0 -0.4578181947
O  O41  1  0.84230000  0.83860000  0.94220000  1.0 -0.6059664759
O  O42  1  0.15770000  0.33860000  0.55780000  1.0 -0.6059664759
O  O43  1  0.15770000  0.16140000  0.05780000  1.0 -0.6059664759
O  O44  1  0.84230000  0.66140000  0.44220000  1.0 -0.6059664759
O  O45  1  0.79810000  0.62610000  0.90920000  1.0 -0.41913567
O  O46  1  0.20190000  0.12610000  0.59080000  1.0 -0.41913567
O  O47  1  0.20190000  0.37390000  0.09080000  1.0 -0.41913567
O  O48  1  0.79810000  0.87390000  0.40920000  1.0 -0.41913567
