# DDEC6 charges by PACMAN v1.1 (https://github.com/mtap-research/PACMAN-charge/)
data_ATIJUJ_ASR_pacman
_symmetry_space_group_name_H-M   'P 1'
_cell_length_a   6.26310000
_cell_length_b   23.92830000
_cell_length_c   23.92830000
_cell_angle_alpha   60.75260000
_cell_angle_beta   84.99470000
_cell_angle_gamma   95.00530000
_symmetry_Int_Tables_number   1
_chemical_formula_structural   CoPH9C6NO3
_chemical_formula_sum   'Co6 P6 H54 C36 N6 O18'
_cell_volume   3081.94655952
_cell_formula_units_Z   6
loop_
 _symmetry_equiv_pos_site_id
 _symmetry_equiv_pos_as_xyz
  1  'x, y, z'
loop_
 _atom_site_type_symbol
 _atom_site_label
 _atom_site_symmetry_multiplicity
 _atom_site_fract_x
 _atom_site_fract_y
 _atom_site_fract_z
 _atom_site_occupancy
 _atom_site_charge
Co  Co1  1  0.33980000  0.72237000  0.67227000  1.0 0.9124592063
Co  Co2  1  0.01207000  0.67227000  0.60536000  1.0 0.9124592063
Co  Co3  1  0.61743000  0.60536000  0.72237000  1.0 0.8927771267
Co  Co4  1  0.66020000  0.27763000  0.32773000  1.0 0.8927771267
Co  Co5  1  0.98793000  0.32773000  0.39464000  1.0 0.918796849
Co  Co6  1  0.38257000  0.39464000  0.27763000  1.0 0.9124592063
P  P1  1  0.82629000  0.75812000  0.66845000  1.0 1.2383298593
P  P2  1  0.49474000  0.66845000  0.57343000  1.0 1.2383298593
P  P3  1  0.06817000  0.57343000  0.75812000  1.0 1.2383298593
P  P4  1  0.17371000  0.24188000  0.33155000  1.0 1.2383298593
P  P5  1  0.50526000  0.33155000  0.42657000  1.0 1.2383298593
P  P6  1  0.93183000  0.42657000  0.24188000  1.0 1.2383298593
H  H1  1  0.46387000  0.82223000  0.51493000  1.0 0.0503512998
H  H2  1  0.23402000  0.84695000  0.54786000  1.0 0.0697481153
H  H3  1  0.43944000  0.94374000  0.44592000  1.0 0.0885885832
H  H4  1  0.69835000  0.92853000  0.47977000  1.0 0.0885885832
H  H5  1  0.45941000  0.96209000  0.61868000  1.0 0.0885885832
H  H6  1  0.71501000  0.94235000  0.59203000  1.0 0.0885885832
H  H7  1  0.26588000  0.85528000  0.65246000  1.0 0.0615172428
H  H8  1  0.52877000  0.84263000  0.68385000  1.0 0.0195805687
H  H9  1  0.97880000  0.51493000  0.66284000  1.0 0.0697481153
H  H10  1  0.78187000  0.54786000  0.60520000  1.0 0.0615172428
H  H11  1  0.88536000  0.44592000  0.61034000  1.0 0.0885885832
H  H12  1  0.17812000  0.47977000  0.59170000  1.0 0.0885885832
H  H13  1  0.07808000  0.61868000  0.41923000  1.0 0.0885885832
H  H14  1  0.30704000  0.59203000  0.46562000  1.0 0.0971057691
H  H15  1  0.91834000  0.65246000  0.49226000  1.0 0.0503512998
H  H16  1  0.21262000  0.68385000  0.47351000  1.0 0.0503512998
H  H17  1  0.64164000  0.66284000  0.82223000  1.0 0.0615172428
H  H18  1  0.38707000  0.60520000  0.84695000  1.0 0.0615172428
H  H19  1  0.49569000  0.61034000  0.94374000  1.0 0.0885885832
H  H20  1  0.76982000  0.59170000  0.92853000  1.0 0.0971057691
H  H21  1  0.49732000  0.41923000  0.96209000  1.0 0.0885885832
H  H22  1  0.77266000  0.46562000  0.94235000  1.0 0.0971057691
H  H23  1  0.41060000  0.49226000  0.85528000  1.0 0.03147185
H  H24  1  0.68613000  0.47351000  0.84263000  1.0 0.0503512998
H  H25  1  0.76603000  0.15276000  0.45288000  1.0 0.0615172428
H  H26  1  0.53495000  0.17818000  0.48449000  1.0 0.0812166748
H  H27  1  0.30173000  0.07156000  0.52028000  1.0 0.0971057691
H  H28  1  0.56073000  0.05616000  0.55405000  1.0 0.0885885832
H  H29  1  0.28494000  0.05654000  0.40858000  1.0 0.0971057691
H  H30  1  0.54256000  0.03888000  0.38050000  1.0 0.0885885832
H  H31  1  0.47233000  0.15684000  0.31596000  1.0 0.0503512998
H  H32  1  0.73444000  0.14518000  0.34790000  1.0 0.03147185
H  H33  1  0.21891000  0.45288000  0.39436000  1.0 0.0615172428
H  H34  1  0.01944000  0.48449000  0.33733000  1.0 0.0697481153
H  H35  1  0.82201000  0.52028000  0.40816000  1.0 0.0971057691
H  H36  1  0.11479000  0.55405000  0.38979000  1.0 0.0885885832
H  H37  1  0.69352000  0.40858000  0.53488000  1.0 0.0812166748
H  H38  1  0.92306000  0.38050000  0.58061000  1.0 0.0812166748
H  H39  1  0.78829000  0.31596000  0.52720000  1.0 0.03147185
H  H40  1  0.08234000  0.34790000  0.50692000  1.0 0.0503512998
H  H41  1  0.61327000  0.39436000  0.15276000  1.0 0.0697481153
H  H42  1  0.35677000  0.33733000  0.17818000  1.0 0.0812166748
H  H43  1  0.23017000  0.40816000  0.07156000  1.0 0.0971057691
H  H44  1  0.50458000  0.38979000  0.05616000  1.0 0.0885885832
H  H45  1  0.22840000  0.53488000  0.05654000  1.0 0.0885885832
H  H46  1  0.50368000  0.58061000  0.03888000  1.0 0.0885885832
H  H47  1  0.31549000  0.52720000  0.15684000  1.0 0.0195805687
H  H48  1  0.58926000  0.50692000  0.14518000  1.0 0.0615172428
H  H49  1  0.73525000  0.79460000  0.73539000  1.0 0.3566900608
H  H50  1  0.68064000  0.76057000  0.49266000  1.0 0.3761964259
H  H51  1  0.27403000  0.49529000  0.78761000  1.0 0.3517712273
H  H52  1  0.93641000  0.20859000  0.28612000  1.0 0.3517712273
H  H53  1  0.43254000  0.31131000  0.52794000  1.0 0.3517712273
H  H54  1  0.06121000  0.53057000  0.20160000  1.0 0.3566900608
C  C1  1  0.72760000  0.81000000  0.59820000  1.0 -0.5585173252
C  C2  1  0.41814000  0.85169000  0.53867000  1.0 -0.0195813644
C  C3  1  0.51561000  0.92427000  0.49224000  1.0 -0.1896922553
C  C4  1  0.46967000  0.96367000  0.52486000  1.0 0.03147185
C  C5  1  0.53114000  0.93511000  0.59509000  1.0 -0.1896922553
C  C6  1  0.44891000  0.86261000  0.63818000  1.0 -0.0195813644
C  C7  1  0.32580000  0.59820000  0.59180000  1.0 -0.5111000024
C  C8  1  0.95681000  0.53867000  0.60964000  1.0 -0.0195813644
C  C9  1  0.00785000  0.49224000  0.58349000  1.0 -0.1896922553
C  C10  1  0.99453000  0.52486000  0.51147000  1.0 0.03147185
C  C11  1  0.12623000  0.59509000  0.46980000  1.0 -0.1839015963
C  C12  1  0.08709000  0.63818000  0.49921000  1.0 -0.0270003212
C  C13  1  0.91760000  0.59180000  0.81000000  1.0 -0.5111000024
C  C14  1  0.56645000  0.60964000  0.85169000  1.0 -0.0195813644
C  C15  1  0.59134000  0.58349000  0.92427000  1.0 -0.1896922553
C  C16  1  0.50600000  0.51147000  0.96367000  1.0 0.0380627406
C  C17  1  0.59603000  0.46980000  0.93511000  1.0 -0.1896922553
C  C18  1  0.58630000  0.49921000  0.86261000  1.0 -0.0270003212
C  C19  1  0.27240000  0.19000000  0.40180000  1.0 -0.5111000024
C  C20  1  0.58186000  0.14831000  0.46133000  1.0 -0.0195813644
C  C21  1  0.48439000  0.07573000  0.50776000  1.0 -0.1896922553
C  C22  1  0.53033000  0.03633000  0.47514000  1.0 0.03147185
C  C23  1  0.46886000  0.06489000  0.40491000  1.0 -0.1896922553
C  C24  1  0.55109000  0.13739000  0.36182000  1.0 -0.0270003212
C  C25  1  0.67420000  0.40180000  0.40820000  1.0 -0.5434008124
C  C26  1  0.04319000  0.46133000  0.39036000  1.0 -0.0195813644
C  C27  1  0.99215000  0.50776000  0.41651000  1.0 -0.1896922553
C  C28  1  0.00547000  0.47514000  0.48853000  1.0 0.03147185
C  C29  1  0.87377000  0.40491000  0.53020000  1.0 -0.1896922553
C  C30  1  0.91291000  0.36182000  0.50079000  1.0 -0.0195813644
C  C31  1  0.08240000  0.40820000  0.19000000  1.0 -0.5326504591
C  C32  1  0.43355000  0.39036000  0.14831000  1.0 -0.0195813644
C  C33  1  0.40866000  0.41651000  0.07573000  1.0 -0.1896922553
C  C34  1  0.49400000  0.48853000  0.03633000  1.0 0.0380627406
C  C35  1  0.40397000  0.53020000  0.06489000  1.0 -0.1896922553
C  C36  1  0.41370000  0.50079000  0.13739000  1.0 -0.0195813644
N  N1  1  0.50104000  0.82437000  0.60375000  1.0 -0.0687304447
N  N2  1  0.10479000  0.60375000  0.57188000  1.0 -0.0687304447
N  N3  1  0.67667000  0.57188000  0.82437000  1.0 -0.0687304447
N  N4  1  0.49896000  0.17563000  0.39625000  1.0 -0.0637817974
N  N5  1  0.89521000  0.39625000  0.42812000  1.0 -0.0687304447
N  N6  1  0.32333000  0.42812000  0.17563000  1.0 -0.0687304447
O  O1  1  0.88563000  0.78643000  0.71404000  1.0 -0.6368957045
O  O2  1  0.04074000  0.73677000  0.64845000  1.0 -0.7168241921
O  O3  1  0.64511000  0.69527000  0.70124000  1.0 -0.7492658975
O  O4  1  0.59967000  0.71404000  0.49953000  1.0 -0.6312821987
O  O5  1  0.68919000  0.64845000  0.61478000  1.0 -0.7292080703
O  O6  1  0.34635000  0.70124000  0.60349000  1.0 -0.7492658975
O  O7  1  0.09920000  0.49953000  0.78643000  1.0 -0.6312821987
O  O8  1  0.30397000  0.61478000  0.73677000  1.0 -0.7369798752
O  O9  1  0.94984000  0.60349000  0.69527000  1.0 -0.7369798752
O  O10  1  0.11437000  0.21357000  0.28596000  1.0 -0.6312821987
O  O11  1  0.95926000  0.26323000  0.35155000  1.0 -0.7369798752
O  O12  1  0.35489000  0.30473000  0.29876000  1.0 -0.7369798752
O  O13  1  0.40033000  0.28596000  0.50047000  1.0 -0.6312821987
O  O14  1  0.31081000  0.35155000  0.38522000  1.0 -0.7168241921
O  O15  1  0.65365000  0.29876000  0.39651000  1.0 -0.7292080703
O  O16  1  0.90080000  0.50047000  0.21357000  1.0 -0.6312821987
O  O17  1  0.69603000  0.38522000  0.26323000  1.0 -0.7132037762
O  O18  1  0.05016000  0.39651000  0.30473000  1.0 -0.7492658975
