# DDEC6 charges by PACMAN v1.1 (https://github.com/mtap-research/PACMAN-charge/)
data_ATIXAE_FSR_pacman
_symmetry_space_group_name_H-M   'P 1'
_cell_length_a   8.32190000
_cell_length_b   15.43180000
_cell_length_c   29.34660000
_cell_angle_alpha   90.00000000
_cell_angle_beta   102.99400000
_cell_angle_gamma   90.00000000
_symmetry_Int_Tables_number   1
_chemical_formula_structural   TbH18C28S3N3O8
_chemical_formula_sum   'Tb4 H72 C112 S12 N12 O32'
_cell_volume   3672.24206854
_cell_formula_units_Z   4
loop_
 _symmetry_equiv_pos_site_id
 _symmetry_equiv_pos_as_xyz
  1  'x, y, z'
loop_
 _atom_site_type_symbol
 _atom_site_label
 _atom_site_symmetry_multiplicity
 _atom_site_fract_x
 _atom_site_fract_y
 _atom_site_fract_z
 _atom_site_occupancy
 _atom_site_charge
Tb  Tb1  1  0.05897000  0.51306000  0.78583000  1.0 1.9562709461
Tb  Tb2  1  0.05897000  0.98694000  0.28583000  1.0 1.9562709461
Tb  Tb3  1  0.94103000  0.01306000  0.71417000  1.0 1.9562709461
Tb  Tb4  1  0.94103000  0.48694000  0.21417000  1.0 1.9562709461
H  H1  1  0.96590000  0.34050000  0.91470000  1.0 0.1301504392
H  H2  1  0.96590000  0.15950000  0.41470000  1.0 0.1301504392
H  H3  1  0.89120000  0.22010000  0.95390000  1.0 0.1201311402
H  H4  1  0.89120000  0.27990000  0.45390000  1.0 0.1201311402
H  H5  1  0.66560000  0.11730000  0.82920000  1.0 0.1301504392
H  H6  1  0.66560000  0.38270000  0.32920000  1.0 0.1301504392
H  H7  1  0.74900000  0.23260000  0.78710000  1.0 0.1301504392
H  H8  1  0.74900000  0.26740000  0.28710000  1.0 0.1301504392
H  H9  1  0.97170000  0.10240000  0.04430000  1.0 0.1201311402
H  H10  1  0.97170000  0.39760000  0.54430000  1.0 0.1201311402
H  H11  1  0.06750000  0.09430000  0.12710000  1.0 0.1201311402
H  H12  1  0.06750000  0.40570000  0.62710000  1.0 0.1201311402
H  H13  1  0.74540000  0.89990000  0.13080000  1.0 0.1301504392
H  H14  1  0.74540000  0.60010000  0.63080000  1.0 0.1301504392
H  H15  1  0.66040000  0.90120000  0.04990000  1.0 0.1201311402
H  H16  1  0.66040000  0.59880000  0.54990000  1.0 0.1201311402
H  H17  1  0.58350000  0.78760000  0.94940000  1.0 0.1130187269
H  H18  1  0.58350000  0.71240000  0.44940000  1.0 0.1130187269
H  H19  1  0.43870000  0.66780000  0.91030000  1.0 0.1301504392
H  H20  1  0.43870000  0.83220000  0.41030000  1.0 0.1301504392
H  H21  1  0.27140000  0.81680000  0.79510000  1.0 0.1301504392
H  H22  1  0.27140000  0.68320000  0.29510000  1.0 0.1301504392
H  H23  1  0.40560000  0.93580000  0.83520000  1.0 0.1201311402
H  H24  1  0.40560000  0.56420000  0.33520000  1.0 0.1201311402
H  H25  1  0.49710000  0.56240000  0.76260000  1.0 0.1606771256
H  H26  1  0.49710000  0.93760000  0.26260000  1.0 0.1606771256
H  H27  1  0.59230000  0.49000000  0.73980000  1.0 0.1722470112
H  H28  1  0.59230000  0.01000000  0.23980000  1.0 0.1722470112
H  H29  1  0.39530000  0.49540000  0.72550000  1.0 0.1777355689
H  H30  1  0.39530000  0.00460000  0.22550000  1.0 0.1777355689
H  H31  1  0.59190000  0.45960000  0.87530000  1.0 0.1777355689
H  H32  1  0.59190000  0.04040000  0.37530000  1.0 0.1777355689
H  H33  1  0.70340000  0.50160000  0.84320000  1.0 0.1722470112
H  H34  1  0.70340000  0.99840000  0.34320000  1.0 0.1722470112
H  H35  1  0.53520000  0.54760000  0.84750000  1.0 0.1777355689
H  H36  1  0.53520000  0.95240000  0.34750000  1.0 0.1777355689
H  H37  1  0.03410000  0.84050000  0.58530000  1.0 0.1301504392
H  H38  1  0.03410000  0.65950000  0.08530000  1.0 0.1301504392
H  H39  1  0.10880000  0.72010000  0.54610000  1.0 0.1201311402
H  H40  1  0.10880000  0.77990000  0.04610000  1.0 0.1201311402
H  H41  1  0.33440000  0.61730000  0.67080000  1.0 0.1301504392
H  H42  1  0.33440000  0.88270000  0.17080000  1.0 0.1301504392
H  H43  1  0.25100000  0.73260000  0.71290000  1.0 0.1301504392
H  H44  1  0.25100000  0.76740000  0.21290000  1.0 0.1301504392
H  H45  1  0.02830000  0.60240000  0.45570000  1.0 0.1201311402
H  H46  1  0.02830000  0.89760000  0.95570000  1.0 0.1201311402
H  H47  1  0.93250000  0.59430000  0.37290000  1.0 0.1201311402
H  H48  1  0.93250000  0.90570000  0.87290000  1.0 0.1201311402
H  H49  1  0.25460000  0.39990000  0.36920000  1.0 0.1301504392
H  H50  1  0.25460000  0.10010000  0.86920000  1.0 0.1301504392
H  H51  1  0.33960000  0.40120000  0.45010000  1.0 0.1201311402
H  H52  1  0.33960000  0.09880000  0.95010000  1.0 0.1201311402
H  H53  1  0.41650000  0.28760000  0.55060000  1.0 0.1130187269
H  H54  1  0.41650000  0.21240000  0.05060000  1.0 0.1130187269
H  H55  1  0.56130000  0.16780000  0.58970000  1.0 0.1301504392
H  H56  1  0.56130000  0.33220000  0.08970000  1.0 0.1301504392
H  H57  1  0.72860000  0.31680000  0.70490000  1.0 0.1301504392
H  H58  1  0.72860000  0.18320000  0.20490000  1.0 0.1301504392
H  H59  1  0.59440000  0.43580000  0.66480000  1.0 0.1201311402
H  H60  1  0.59440000  0.06420000  0.16480000  1.0 0.1201311402
H  H61  1  0.50290000  0.06240000  0.73740000  1.0 0.1606771256
H  H62  1  0.50290000  0.43760000  0.23740000  1.0 0.1606771256
H  H63  1  0.40770000  0.99000000  0.76020000  1.0 0.1722470112
H  H64  1  0.40770000  0.51000000  0.26020000  1.0 0.1722470112
H  H65  1  0.60470000  0.99540000  0.77450000  1.0 0.1777355689
H  H66  1  0.60470000  0.50460000  0.27450000  1.0 0.1777355689
H  H67  1  0.40810000  0.95960000  0.62470000  1.0 0.1777355689
H  H68  1  0.40810000  0.54040000  0.12470000  1.0 0.1777355689
H  H69  1  0.29660000  0.00160000  0.65680000  1.0 0.1722470112
H  H70  1  0.29660000  0.49840000  0.15680000  1.0 0.1722470112
H  H71  1  0.46480000  0.04760000  0.65250000  1.0 0.1777355689
H  H72  1  0.46480000  0.45240000  0.15250000  1.0 0.1777355689
C  C1  1  0.91240000  0.37840000  0.82340000  1.0 0.5297359805
C  C2  1  0.91240000  0.12160000  0.32340000  1.0 0.5297359805
C  C3  1  0.86510000  0.30190000  0.84910000  1.0 -0.0003763734
C  C4  1  0.86510000  0.19810000  0.34910000  1.0 -0.0003763734
C  C5  1  0.90500000  0.29490000  0.89700000  1.0 -0.107678917
C  C6  1  0.90500000  0.20510000  0.39700000  1.0 -0.107678917
C  C7  1  0.86080000  0.22380000  0.92080000  1.0 -0.107678917
C  C8  1  0.86080000  0.27620000  0.42080000  1.0 -0.107678917
C  C9  1  0.76600000  0.15590000  0.89300000  1.0 0.0064556742
C  C10  1  0.76600000  0.34410000  0.39300000  1.0 0.0064556742
C  C11  1  0.72830000  0.16290000  0.84630000  1.0 -0.0876247089
C  C12  1  0.72830000  0.33710000  0.34630000  1.0 -0.0876247089
C  C13  1  0.77430000  0.23160000  0.82030000  1.0 -0.0425167923
C  C14  1  0.77430000  0.26840000  0.32030000  1.0 -0.0425167923
C  C15  1  0.72600000  0.08050000  0.92000000  1.0 0.3839586358
C  C16  1  0.72600000  0.41950000  0.42000000  1.0 0.3839586358
C  C17  1  0.74480000  0.00900000  0.98880000  1.0 0.3574063312
C  C18  1  0.74480000  0.49100000  0.48880000  1.0 0.3574063312
C  C19  1  0.60380000  0.94800000  0.92080000  1.0 0.3839586358
C  C20  1  0.60380000  0.55200000  0.42080000  1.0 0.3839586358
C  C21  1  0.80390000  0.00440000  0.03890000  1.0 0.0020621419
C  C22  1  0.80390000  0.49560000  0.53890000  1.0 0.0020621419
C  C23  1  0.92580000  0.06100000  0.06180000  1.0 -0.107678917
C  C24  1  0.92580000  0.43900000  0.56180000  1.0 -0.107678917
C  C25  1  0.98240000  0.05690000  0.11140000  1.0 -0.059930774
C  C26  1  0.98240000  0.44310000  0.61140000  1.0 -0.059930774
C  C27  1  0.90930000  0.99580000  0.13730000  1.0 -0.0208229609
C  C28  1  0.90930000  0.50420000  0.63730000  1.0 -0.0208229609
C  C29  1  0.79260000  0.94100000  0.11360000  1.0 -0.0876247089
C  C30  1  0.79260000  0.55900000  0.61360000  1.0 -0.0876247089
C  C31  1  0.73920000  0.94210000  0.06520000  1.0 -0.0998396669
C  C32  1  0.73920000  0.55790000  0.56520000  1.0 -0.0998396669
C  C33  1  0.96610000  0.99350000  0.18810000  1.0 0.5489733051
C  C34  1  0.96610000  0.50650000  0.68810000  1.0 0.5489733051
C  C35  1  0.51570000  0.87320000  0.89470000  1.0 0.0160187389
C  C36  1  0.51570000  0.62680000  0.39470000  1.0 0.0160187389
C  C37  1  0.52120000  0.79350000  0.91820000  1.0 -0.0998396669
C  C38  1  0.52120000  0.70650000  0.41820000  1.0 -0.0998396669
C  C39  1  0.43280000  0.72210000  0.89480000  1.0 -0.0998396669
C  C40  1  0.43280000  0.77790000  0.39480000  1.0 -0.0998396669
C  C41  1  0.33890000  0.72940000  0.85090000  1.0 0.0020621419
C  C42  1  0.33890000  0.77060000  0.35090000  1.0 0.0020621419
C  C43  1  0.33250000  0.81110000  0.82650000  1.0 -0.059930774
C  C44  1  0.33250000  0.68890000  0.32650000  1.0 -0.059930774
C  C45  1  0.41600000  0.88070000  0.85000000  1.0 -0.0876247089
C  C46  1  0.41600000  0.61930000  0.35000000  1.0 -0.0876247089
C  C47  1  0.25450000  0.65250000  0.82650000  1.0 0.5398713629
C  C48  1  0.25450000  0.84750000  0.32650000  1.0 0.5398713629
C  C49  1  0.49210000  0.50260000  0.75110000  1.0 -0.5900344346
C  C50  1  0.49210000  0.99740000  0.25110000  1.0 -0.5900344346
C  C51  1  0.59040000  0.49180000  0.84640000  1.0 -0.5524682273
C  C52  1  0.59040000  0.00820000  0.34640000  1.0 -0.5524682273
C  C53  1  0.84050000  0.73490000  0.73350000  1.0 -0.2127171141
C  C54  1  0.84050000  0.76510000  0.23350000  1.0 -0.2127171141
C  C55  1  0.72330000  0.75750000  0.81330000  1.0 -0.4706211109
C  C56  1  0.72330000  0.74250000  0.31330000  1.0 -0.4706211109
C  C57  1  0.08760000  0.87840000  0.67660000  1.0 0.5297359805
C  C58  1  0.08760000  0.62160000  0.17660000  1.0 0.5297359805
C  C59  1  0.13490000  0.80190000  0.65090000  1.0 -0.0003763734
C  C60  1  0.13490000  0.69810000  0.15090000  1.0 -0.0003763734
C  C61  1  0.09500000  0.79490000  0.60300000  1.0 -0.107678917
C  C62  1  0.09500000  0.70510000  0.10300000  1.0 -0.107678917
C  C63  1  0.13920000  0.72380000  0.57920000  1.0 -0.107678917
C  C64  1  0.13920000  0.77620000  0.07920000  1.0 -0.107678917
C  C65  1  0.23400000  0.65590000  0.60700000  1.0 0.0064556742
C  C66  1  0.23400000  0.84410000  0.10700000  1.0 0.0064556742
C  C67  1  0.27170000  0.66290000  0.65370000  1.0 -0.0876247089
C  C68  1  0.27170000  0.83710000  0.15370000  1.0 -0.0876247089
C  C69  1  0.22570000  0.73160000  0.67970000  1.0 -0.0425167923
C  C70  1  0.22570000  0.76840000  0.17970000  1.0 -0.0425167923
C  C71  1  0.27400000  0.58050000  0.58000000  1.0 0.3839586358
C  C72  1  0.27400000  0.91950000  0.08000000  1.0 0.3839586358
C  C73  1  0.25520000  0.50900000  0.51120000  1.0 0.3574063312
C  C74  1  0.25520000  0.99100000  0.01120000  1.0 0.3574063312
C  C75  1  0.39620000  0.44800000  0.57920000  1.0 0.3839586358
C  C76  1  0.39620000  0.05200000  0.07920000  1.0 0.3839586358
C  C77  1  0.19610000  0.50440000  0.46110000  1.0 0.0020621419
C  C78  1  0.19610000  0.99560000  0.96110000  1.0 0.0020621419
C  C79  1  0.07420000  0.56100000  0.43820000  1.0 -0.107678917
C  C80  1  0.07420000  0.93900000  0.93820000  1.0 -0.107678917
C  C81  1  0.01760000  0.55690000  0.38860000  1.0 -0.059930774
C  C82  1  0.01760000  0.94310000  0.88860000  1.0 -0.059930774
C  C83  1  0.09070000  0.49580000  0.36270000  1.0 -0.0208229609
C  C84  1  0.09070000  0.00420000  0.86270000  1.0 -0.0208229609
C  C85  1  0.20740000  0.44100000  0.38640000  1.0 -0.0876247089
C  C86  1  0.20740000  0.05900000  0.88640000  1.0 -0.0876247089
C  C87  1  0.26080000  0.44210000  0.43480000  1.0 -0.0998396669
C  C88  1  0.26080000  0.05790000  0.93480000  1.0 -0.0998396669
C  C89  1  0.03390000  0.49350000  0.31190000  1.0 0.5489733051
C  C90  1  0.03390000  0.00650000  0.81190000  1.0 0.5489733051
C  C91  1  0.48430000  0.37320000  0.60530000  1.0 0.0160187389
C  C92  1  0.48430000  0.12680000  0.10530000  1.0 0.0160187389
C  C93  1  0.47880000  0.29350000  0.58180000  1.0 -0.0998396669
C  C94  1  0.47880000  0.20650000  0.08180000  1.0 -0.0998396669
C  C95  1  0.56720000  0.22210000  0.60520000  1.0 -0.0998396669
C  C96  1  0.56720000  0.27790000  0.10520000  1.0 -0.0998396669
C  C97  1  0.66110000  0.22940000  0.64910000  1.0 0.0020621419
C  C98  1  0.66110000  0.27060000  0.14910000  1.0 0.0020621419
C  C99  1  0.66750000  0.31110000  0.67350000  1.0 -0.059930774
C  C100  1  0.66750000  0.18890000  0.17350000  1.0 -0.059930774
C  C101  1  0.58400000  0.38070000  0.65000000  1.0 -0.0876247089
C  C102  1  0.58400000  0.11930000  0.15000000  1.0 -0.0876247089
C  C103  1  0.74550000  0.15250000  0.67350000  1.0 0.5398713629
C  C104  1  0.74550000  0.34750000  0.17350000  1.0 0.5398713629
C  C105  1  0.50790000  0.00260000  0.74890000  1.0 -0.5900344346
C  C106  1  0.50790000  0.49740000  0.24890000  1.0 -0.5900344346
C  C107  1  0.40960000  0.99180000  0.65360000  1.0 -0.5524682273
C  C108  1  0.40960000  0.50820000  0.15360000  1.0 -0.5524682273
C  C109  1  0.15950000  0.23490000  0.76650000  1.0 -0.2127171141
C  C110  1  0.15950000  0.26510000  0.26650000  1.0 -0.2127171141
C  C111  1  0.27670000  0.25750000  0.68670000  1.0 -0.4706211109
C  C112  1  0.27670000  0.24250000  0.18670000  1.0 -0.4706211109
S  S1  1  0.47990000  0.43020000  0.79730000  1.0 0.7320169787
S  S2  1  0.47990000  0.06980000  0.29730000  1.0 0.7320169787
S  S3  1  0.88160000  0.71520000  0.79700000  1.0 0.4418814163
S  S4  1  0.88160000  0.78480000  0.29700000  1.0 0.4418814163
S  S5  1  0.74160000  0.68560000  0.77860000  1.0 0.3903904016
S  S6  1  0.74160000  0.81440000  0.27860000  1.0 0.3903904016
S  S7  1  0.52010000  0.93020000  0.70270000  1.0 0.7320169787
S  S8  1  0.52010000  0.56980000  0.20270000  1.0 0.7320169787
S  S9  1  0.11840000  0.21520000  0.70300000  1.0 0.4418814163
S  S10  1  0.11840000  0.28480000  0.20300000  1.0 0.4418814163
S  S11  1  0.25840000  0.18560000  0.72140000  1.0 0.3903904016
S  S12  1  0.25840000  0.31440000  0.22140000  1.0 0.3903904016
N  N1  1  0.77730000  0.08130000  0.96560000  1.0 -0.4099302857
N  N2  1  0.77730000  0.41870000  0.46560000  1.0 -0.4099302857
N  N3  1  0.65810000  0.94170000  0.96710000  1.0 -0.4099302857
N  N4  1  0.65810000  0.55830000  0.46710000  1.0 -0.4099302857
N  N5  1  0.63430000  0.01570000  0.89380000  1.0 -0.4099302857
N  N6  1  0.63430000  0.48430000  0.39380000  1.0 -0.4099302857
N  N7  1  0.22270000  0.58130000  0.53440000  1.0 -0.4099302857
N  N8  1  0.22270000  0.91870000  0.03440000  1.0 -0.4099302857
N  N9  1  0.34190000  0.44170000  0.53290000  1.0 -0.4099302857
N  N10  1  0.34190000  0.05830000  0.03290000  1.0 -0.4099302857
N  N11  1  0.36570000  0.51570000  0.60620000  1.0 -0.4099302857
N  N12  1  0.36570000  0.98430000  0.10620000  1.0 -0.4099302857
O  O1  1  0.00670000  0.43510000  0.85040000  1.0 -0.6326551904
O  O2  1  0.00670000  0.06490000  0.35040000  1.0 -0.6326551904
O  O3  1  0.88130000  0.38570000  0.78090000  1.0 -0.5665841668
O  O4  1  0.88130000  0.11430000  0.28090000  1.0 -0.5665841668
O  O5  1  0.09570000  0.03600000  0.20940000  1.0 -0.6137340237
O  O6  1  0.09570000  0.46400000  0.70940000  1.0 -0.6137340237
O  O7  1  0.88150000  0.95550000  0.21110000  1.0 -0.5665841668
O  O8  1  0.88150000  0.54450000  0.71110000  1.0 -0.5665841668
O  O9  1  0.21690000  0.59370000  0.85270000  1.0 -0.5900344346
O  O10  1  0.21690000  0.90630000  0.35270000  1.0 -0.5900344346
O  O11  1  0.21280000  0.64900000  0.78230000  1.0 -0.6164103914
O  O12  1  0.21280000  0.85100000  0.28230000  1.0 -0.6164103914
O  O13  1  0.29800000  0.43320000  0.80260000  1.0 -0.6591669489
O  O14  1  0.29800000  0.06680000  0.30260000  1.0 -0.6591669489
O  O15  1  0.86440000  0.61380000  0.80180000  1.0 -0.4549611081
O  O16  1  0.86440000  0.88620000  0.30180000  1.0 -0.4555078913
O  O17  1  0.99330000  0.93510000  0.64960000  1.0 -0.6326551904
O  O18  1  0.99330000  0.56490000  0.14960000  1.0 -0.6326551904
O  O19  1  0.11870000  0.88570000  0.71910000  1.0 -0.5648065377
O  O20  1  0.11870000  0.61430000  0.21910000  1.0 -0.5648065377
O  O21  1  0.90430000  0.53600000  0.29060000  1.0 -0.6137340237
O  O22  1  0.90430000  0.96400000  0.79060000  1.0 -0.6137340237
O  O23  1  0.11850000  0.45550000  0.28890000  1.0 -0.5665841668
O  O24  1  0.11850000  0.04450000  0.78890000  1.0 -0.5665841668
O  O25  1  0.78310000  0.09370000  0.64730000  1.0 -0.5900344346
O  O26  1  0.78310000  0.40630000  0.14730000  1.0 -0.5900344346
O  O27  1  0.78720000  0.14900000  0.71770000  1.0 -0.6164103914
O  O28  1  0.78720000  0.35100000  0.21770000  1.0 -0.6164103914
O  O29  1  0.70200000  0.93320000  0.69740000  1.0 -0.6591669489
O  O30  1  0.70200000  0.56680000  0.19740000  1.0 -0.6591669489
O  O31  1  0.13560000  0.11380000  0.69820000  1.0 -0.4549611081
O  O32  1  0.13560000  0.38620000  0.19820000  1.0 -0.4549611081
