# DDEC6 charges by PACMAN v1.1 (https://github.com/mtap-research/PACMAN-charge/)
data_ATOMOO_ASR_pacman
_symmetry_space_group_name_H-M   'P 1'
_cell_length_a   31.71870000
_cell_length_b   31.71870000
_cell_length_c   16.86060000
_cell_angle_alpha   90.00000000
_cell_angle_beta   90.00000000
_cell_angle_gamma   120.00000000
_symmetry_Int_Tables_number   1
_chemical_formula_structural   Ni6H96Ir3C144N12(Cl3O13)2
_chemical_formula_sum   'Ni6 H96 Ir3 C144 N12 Cl6 O26'
_cell_volume   14690.42687374
_cell_formula_units_Z   1
loop_
 _symmetry_equiv_pos_site_id
 _symmetry_equiv_pos_as_xyz
  1  'x, y, z'
loop_
 _atom_site_type_symbol
 _atom_site_label
 _atom_site_symmetry_multiplicity
 _atom_site_fract_x
 _atom_site_fract_y
 _atom_site_fract_z
 _atom_site_occupancy
 _atom_site_charge
Ni  Ni1  1  0.29719000  0.70281000  0.00000000  1.0 0.8612018016
Ni  Ni2  1  0.40562000  0.70281000  0.00000000  1.0 0.8612018016
Ni  Ni3  1  0.29719000  0.59438000  0.00000000  1.0 0.8612018016
Ni  Ni4  1  0.70281000  0.29719000  0.00000000  1.0 0.8612018016
Ni  Ni5  1  0.59438000  0.29719000  0.00000000  1.0 0.8612018016
Ni  Ni6  1  0.70281000  0.40562000  0.00000000  1.0 0.8612018016
H  H1  1  0.19010000  0.65740000  0.81920000  1.0 0.1446222402
H  H2  1  0.13150000  0.62860000  0.71800000  1.0 0.1197806262
H  H3  1  0.33410000  0.67690000  0.04630000  1.0 0.0147175538
H  H4  1  0.46730000  0.80990000  0.81920000  1.0 0.1446222402
H  H5  1  0.49710000  0.86850000  0.71800000  1.0 0.1197806262
H  H6  1  0.34280000  0.66590000  0.04630000  1.0 0.0147175538
H  H7  1  0.34260000  0.53270000  0.81920000  1.0 0.1446222402
H  H8  1  0.37140000  0.50290000  0.71800000  1.0 0.1197806262
H  H9  1  0.32310000  0.65720000  0.04630000  1.0 0.0147175538
H  H10  1  0.80990000  0.34260000  0.81920000  1.0 0.1446222402
H  H11  1  0.86850000  0.37140000  0.71800000  1.0 0.1197806262
H  H12  1  0.66590000  0.32310000  0.04630000  1.0 0.0147175538
H  H13  1  0.53270000  0.19010000  0.81920000  1.0 0.1446222402
H  H14  1  0.50290000  0.13150000  0.71800000  1.0 0.1197806262
H  H15  1  0.65720000  0.33410000  0.04630000  1.0 0.0147175538
H  H16  1  0.65740000  0.46730000  0.81920000  1.0 0.1446222402
H  H17  1  0.62860000  0.49710000  0.71800000  1.0 0.1197806262
H  H18  1  0.67690000  0.34280000  0.04630000  1.0 0.0157763559
H  H19  1  0.53270000  0.34260000  0.18080000  1.0 0.1446222402
H  H20  1  0.50290000  0.37140000  0.28200000  1.0 0.1197806262
H  H21  1  0.65720000  0.32310000  0.95370000  1.0 0.0157763559
H  H22  1  0.65740000  0.19010000  0.18080000  1.0 0.1446222402
H  H23  1  0.62860000  0.13150000  0.28200000  1.0 0.1197806262
H  H24  1  0.67690000  0.33410000  0.95370000  1.0 0.0157763559
H  H25  1  0.80990000  0.46730000  0.18080000  1.0 0.1446222402
H  H26  1  0.86850000  0.49710000  0.28200000  1.0 0.1197806262
H  H27  1  0.66590000  0.34280000  0.95370000  1.0 0.0157763559
H  H28  1  0.46730000  0.65740000  0.18080000  1.0 0.1446222402
H  H29  1  0.49710000  0.62860000  0.28200000  1.0 0.1197806262
H  H30  1  0.34280000  0.67690000  0.95370000  1.0 0.0157763559
H  H31  1  0.34260000  0.80990000  0.18080000  1.0 0.1446222402
H  H32  1  0.37140000  0.86850000  0.28200000  1.0 0.1197806262
H  H33  1  0.32310000  0.66590000  0.95370000  1.0 0.0157763559
H  H34  1  0.19010000  0.53270000  0.18080000  1.0 0.1446222402
H  H35  1  0.13150000  0.50290000  0.28200000  1.0 0.1197806262
H  H36  1  0.33410000  0.65720000  0.95370000  1.0 0.0157763559
H  H37  1  0.80990000  0.34260000  0.18080000  1.0 0.1446222402
H  H38  1  0.86850000  0.37140000  0.28200000  1.0 0.1197806262
H  H39  1  0.66590000  0.32310000  0.95370000  1.0 0.0157763559
H  H40  1  0.53270000  0.19010000  0.18080000  1.0 0.1446222402
H  H41  1  0.50290000  0.13150000  0.28200000  1.0 0.1197806262
H  H42  1  0.65720000  0.33410000  0.95370000  1.0 0.0157763559
H  H43  1  0.65740000  0.46730000  0.18080000  1.0 0.1446222402
H  H44  1  0.62860000  0.49710000  0.28200000  1.0 0.1197806262
H  H45  1  0.67690000  0.34280000  0.95370000  1.0 0.0157763559
H  H46  1  0.19010000  0.65740000  0.18080000  1.0 0.1446222402
H  H47  1  0.13150000  0.62860000  0.28200000  1.0 0.1197806262
H  H48  1  0.33410000  0.67690000  0.95370000  1.0 0.0157763559
H  H49  1  0.46730000  0.80990000  0.18080000  1.0 0.1446222402
H  H50  1  0.49710000  0.86850000  0.28200000  1.0 0.1197806262
H  H51  1  0.34280000  0.66590000  0.95370000  1.0 0.0157763559
H  H52  1  0.34260000  0.53270000  0.18080000  1.0 0.1446222402
H  H53  1  0.37140000  0.50290000  0.28200000  1.0 0.1197806262
H  H54  1  0.32310000  0.65720000  0.95370000  1.0 0.0157763559
H  H55  1  0.46730000  0.65740000  0.81920000  1.0 0.1446222402
H  H56  1  0.49710000  0.62860000  0.71800000  1.0 0.1197806262
H  H57  1  0.34280000  0.67690000  0.04630000  1.0 0.0147175538
H  H58  1  0.34260000  0.80990000  0.81920000  1.0 0.1446222402
H  H59  1  0.37140000  0.86850000  0.71800000  1.0 0.1197806262
H  H60  1  0.32310000  0.66590000  0.04630000  1.0 0.0147175538
H  H61  1  0.19010000  0.53270000  0.81920000  1.0 0.1446222402
H  H62  1  0.13150000  0.50290000  0.71800000  1.0 0.1197806262
H  H63  1  0.33410000  0.65720000  0.04630000  1.0 0.0147175538
H  H64  1  0.53270000  0.34260000  0.81920000  1.0 0.1446222402
H  H65  1  0.50290000  0.37140000  0.71800000  1.0 0.1197806262
H  H66  1  0.65720000  0.32310000  0.04630000  1.0 0.0147175538
H  H67  1  0.65740000  0.19010000  0.81920000  1.0 0.1446222402
H  H68  1  0.62860000  0.13150000  0.71800000  1.0 0.1197806262
H  H69  1  0.67690000  0.33410000  0.04630000  1.0 0.0147175538
H  H70  1  0.80990000  0.46730000  0.81920000  1.0 0.1446222402
H  H71  1  0.86850000  0.49710000  0.71800000  1.0 0.1197806262
H  H72  1  0.66590000  0.34280000  0.04630000  1.0 0.0157763559
H  H73  1  0.04450000  0.52225000  0.79530000  1.0 0.1331464853
H  H74  1  0.18270000  0.59135000  0.57160000  1.0 0.1331464853
H  H75  1  0.47775000  0.95550000  0.79530000  1.0 0.1331464853
H  H76  1  0.40865000  0.81730000  0.57160000  1.0 0.1331464853
H  H77  1  0.47775000  0.52225000  0.79530000  1.0 0.1331464853
H  H78  1  0.40865000  0.59135000  0.57160000  1.0 0.1331464853
H  H79  1  0.95550000  0.47775000  0.79530000  1.0 0.1331464853
H  H80  1  0.81730000  0.40865000  0.57160000  1.0 0.1331464853
H  H81  1  0.52225000  0.04450000  0.79530000  1.0 0.1331464853
H  H82  1  0.59135000  0.18270000  0.57160000  1.0 0.1331464853
H  H83  1  0.52225000  0.47775000  0.79530000  1.0 0.1331464853
H  H84  1  0.59135000  0.40865000  0.57160000  1.0 0.1331464853
H  H85  1  0.52225000  0.47775000  0.20470000  1.0 0.1331464853
H  H86  1  0.59135000  0.40865000  0.42840000  1.0 0.1331464853
H  H87  1  0.52225000  0.04450000  0.20470000  1.0 0.1331464853
H  H88  1  0.59135000  0.18270000  0.42840000  1.0 0.1331464853
H  H89  1  0.95550000  0.47775000  0.20470000  1.0 0.1331464853
H  H90  1  0.81730000  0.40865000  0.42840000  1.0 0.1331464853
H  H91  1  0.47775000  0.52225000  0.20470000  1.0 0.1331464853
H  H92  1  0.40865000  0.59135000  0.42840000  1.0 0.1331464853
H  H93  1  0.47775000  0.95550000  0.20470000  1.0 0.1331464853
H  H94  1  0.40865000  0.81730000  0.42840000  1.0 0.1331464853
H  H95  1  0.04450000  0.52225000  0.20470000  1.0 0.1331464853
H  H96  1  0.18270000  0.59135000  0.42840000  1.0 0.1331464853
Ir  Ir1  1  0.00000000  0.50000000  0.50000000  1.0 0.8712757118
Ir  Ir2  1  0.50000000  0.00000000  0.50000000  1.0 0.8712757118
Ir  Ir3  1  0.50000000  0.50000000  0.50000000  1.0 0.8712757118
C  C1  1  0.17930000  0.62600000  0.79770000  1.0 -0.0740485949
C  C2  1  0.14340000  0.60840000  0.73740000  1.0 -0.1503084712
C  C3  1  0.44670000  0.82070000  0.79770000  1.0 -0.0740485949
C  C4  1  0.46500000  0.85660000  0.73740000  1.0 -0.1503084712
C  C5  1  0.37400000  0.55330000  0.79770000  1.0 -0.0740485949
C  C6  1  0.39160000  0.53500000  0.73740000  1.0 -0.1503084712
C  C7  1  0.82070000  0.37400000  0.79770000  1.0 -0.0740485949
C  C8  1  0.85660000  0.39160000  0.73740000  1.0 -0.1503084712
C  C9  1  0.55330000  0.17930000  0.79770000  1.0 -0.0740485949
C  C10  1  0.53500000  0.14340000  0.73740000  1.0 -0.1503084712
C  C11  1  0.62600000  0.44670000  0.79770000  1.0 -0.0740485949
C  C12  1  0.60840000  0.46500000  0.73740000  1.0 -0.1503084712
C  C13  1  0.55330000  0.37400000  0.20230000  1.0 -0.0740485949
C  C14  1  0.53500000  0.39160000  0.26260000  1.0 -0.1503084712
C  C15  1  0.62600000  0.17930000  0.20230000  1.0 -0.0740485949
C  C16  1  0.60840000  0.14340000  0.26260000  1.0 -0.1503084712
C  C17  1  0.82070000  0.44670000  0.20230000  1.0 -0.0740485949
C  C18  1  0.85660000  0.46500000  0.26260000  1.0 -0.1503084712
C  C19  1  0.44670000  0.62600000  0.20230000  1.0 -0.0740485949
C  C20  1  0.46500000  0.60840000  0.26260000  1.0 -0.1503084712
C  C21  1  0.37400000  0.82070000  0.20230000  1.0 -0.0740485949
C  C22  1  0.39160000  0.85660000  0.26260000  1.0 -0.1503084712
C  C23  1  0.17930000  0.55330000  0.20230000  1.0 -0.0740485949
C  C24  1  0.14340000  0.53500000  0.26260000  1.0 -0.1503084712
C  C25  1  0.82070000  0.37400000  0.20230000  1.0 -0.0740485949
C  C26  1  0.85660000  0.39160000  0.26260000  1.0 -0.1503084712
C  C27  1  0.55330000  0.17930000  0.20230000  1.0 -0.0740485949
C  C28  1  0.53500000  0.14340000  0.26260000  1.0 -0.1503084712
C  C29  1  0.62600000  0.44670000  0.20230000  1.0 -0.0740485949
C  C30  1  0.60840000  0.46500000  0.26260000  1.0 -0.1503084712
C  C31  1  0.17930000  0.62600000  0.20230000  1.0 -0.0740485949
C  C32  1  0.14340000  0.60840000  0.26260000  1.0 -0.1503084712
C  C33  1  0.44670000  0.82070000  0.20230000  1.0 -0.0740485949
C  C34  1  0.46500000  0.85660000  0.26260000  1.0 -0.1503084712
C  C35  1  0.37400000  0.55330000  0.20230000  1.0 -0.0740485949
C  C36  1  0.39160000  0.53500000  0.26260000  1.0 -0.1503084712
C  C37  1  0.44670000  0.62600000  0.79770000  1.0 -0.0740485949
C  C38  1  0.46500000  0.60840000  0.73740000  1.0 -0.1503084712
C  C39  1  0.37400000  0.82070000  0.79770000  1.0 -0.0740485949
C  C40  1  0.39160000  0.85660000  0.73740000  1.0 -0.1503084712
C  C41  1  0.17930000  0.55330000  0.79770000  1.0 -0.0740485949
C  C42  1  0.14340000  0.53500000  0.73740000  1.0 -0.1503084712
C  C43  1  0.55330000  0.37400000  0.79770000  1.0 -0.0740485949
C  C44  1  0.53500000  0.39160000  0.73740000  1.0 -0.1503084712
C  C45  1  0.62600000  0.17930000  0.79770000  1.0 -0.0740485949
C  C46  1  0.60840000  0.14340000  0.73740000  1.0 -0.1503084712
C  C47  1  0.82070000  0.44670000  0.79770000  1.0 -0.0740485949
C  C48  1  0.85660000  0.46500000  0.73740000  1.0 -0.1503084712
C  C49  1  0.02420000  0.51210000  0.74970000  1.0 -0.1732348563
C  C50  1  0.12590000  0.56295000  0.70710000  1.0 0.0612906457
C  C51  1  0.23590000  0.61795000  0.89120000  1.0 0.5124983179
C  C52  1  0.19870000  0.59935000  0.82580000  1.0 -0.0113846852
C  C53  1  0.15480000  0.57740000  0.53820000  1.0 -0.1608294286
C  C54  1  0.08870000  0.54435000  0.64430000  1.0 -0.048295935
C  C55  1  0.10360000  0.55180000  0.56410000  1.0 0.1483677657
C  C56  1  0.04040000  0.52020000  0.66830000  1.0 0.1483677657
C  C57  1  0.48790000  0.97580000  0.74970000  1.0 -0.1732348563
C  C58  1  0.43705000  0.87410000  0.70710000  1.0 0.0612906457
C  C59  1  0.38205000  0.76410000  0.89120000  1.0 0.5124983179
C  C60  1  0.40065000  0.80130000  0.82580000  1.0 -0.0113846852
C  C61  1  0.42260000  0.84520000  0.53820000  1.0 -0.1608294286
C  C62  1  0.45565000  0.91130000  0.64430000  1.0 -0.048295935
C  C63  1  0.44820000  0.89640000  0.56410000  1.0 0.1483677657
C  C64  1  0.47980000  0.95960000  0.66830000  1.0 0.1483677657
C  C65  1  0.48790000  0.51210000  0.74970000  1.0 -0.1732348563
C  C66  1  0.43705000  0.56295000  0.70710000  1.0 0.0612906457
C  C67  1  0.38205000  0.61795000  0.89120000  1.0 0.5124983179
C  C68  1  0.40065000  0.59935000  0.82580000  1.0 -0.0113846852
C  C69  1  0.42260000  0.57740000  0.53820000  1.0 -0.1608294286
C  C70  1  0.45565000  0.54435000  0.64430000  1.0 -0.048295935
C  C71  1  0.44820000  0.55180000  0.56410000  1.0 0.1483677657
C  C72  1  0.47980000  0.52020000  0.66830000  1.0 0.1483677657
C  C73  1  0.97580000  0.48790000  0.74970000  1.0 -0.1732348563
C  C74  1  0.87410000  0.43705000  0.70710000  1.0 0.0612906457
C  C75  1  0.76410000  0.38205000  0.89120000  1.0 0.5124983179
C  C76  1  0.80130000  0.40065000  0.82580000  1.0 -0.0113846852
C  C77  1  0.84520000  0.42260000  0.53820000  1.0 -0.1608294286
C  C78  1  0.91130000  0.45565000  0.64430000  1.0 -0.048295935
C  C79  1  0.89640000  0.44820000  0.56410000  1.0 0.1483677657
C  C80  1  0.95960000  0.47980000  0.66830000  1.0 0.1483677657
C  C81  1  0.51210000  0.02420000  0.74970000  1.0 -0.1732348563
C  C82  1  0.56295000  0.12590000  0.70710000  1.0 0.0612906457
C  C83  1  0.61795000  0.23590000  0.89120000  1.0 0.5124983179
C  C84  1  0.59935000  0.19870000  0.82580000  1.0 -0.0113846852
C  C85  1  0.57740000  0.15480000  0.53820000  1.0 -0.1608294286
C  C86  1  0.54435000  0.08870000  0.64430000  1.0 -0.048295935
C  C87  1  0.55180000  0.10360000  0.56410000  1.0 0.1483677657
C  C88  1  0.52020000  0.04040000  0.66830000  1.0 0.1483677657
C  C89  1  0.51210000  0.48790000  0.74970000  1.0 -0.1732348563
C  C90  1  0.56295000  0.43705000  0.70710000  1.0 0.0612906457
C  C91  1  0.61795000  0.38205000  0.89120000  1.0 0.5124983179
C  C92  1  0.59935000  0.40065000  0.82580000  1.0 -0.0113846852
C  C93  1  0.57740000  0.42260000  0.53820000  1.0 -0.1608294286
C  C94  1  0.54435000  0.45565000  0.64430000  1.0 -0.048295935
C  C95  1  0.55180000  0.44820000  0.56410000  1.0 0.1483677657
C  C96  1  0.52020000  0.47980000  0.66830000  1.0 0.1483677657
C  C97  1  0.51210000  0.48790000  0.25030000  1.0 -0.1732348563
C  C98  1  0.56295000  0.43705000  0.29290000  1.0 0.0612906457
C  C99  1  0.61795000  0.38205000  0.10880000  1.0 0.5124983179
C  C100  1  0.59935000  0.40065000  0.17420000  1.0 -0.0113846852
C  C101  1  0.57740000  0.42260000  0.46180000  1.0 -0.1608294286
C  C102  1  0.54435000  0.45565000  0.35570000  1.0 -0.048295935
C  C103  1  0.55180000  0.44820000  0.43590000  1.0 0.1483677657
C  C104  1  0.52020000  0.47980000  0.33170000  1.0 0.1483677657
C  C105  1  0.51210000  0.02420000  0.25030000  1.0 -0.1732348563
C  C106  1  0.56295000  0.12590000  0.29290000  1.0 0.0612906457
C  C107  1  0.61795000  0.23590000  0.10880000  1.0 0.5124983179
C  C108  1  0.59935000  0.19870000  0.17420000  1.0 -0.0113846852
C  C109  1  0.57740000  0.15480000  0.46180000  1.0 -0.1608294286
C  C110  1  0.54435000  0.08870000  0.35570000  1.0 -0.048295935
C  C111  1  0.55180000  0.10360000  0.43590000  1.0 0.1483677657
C  C112  1  0.52020000  0.04040000  0.33170000  1.0 0.1483677657
C  C113  1  0.97580000  0.48790000  0.25030000  1.0 -0.1732348563
C  C114  1  0.87410000  0.43705000  0.29290000  1.0 0.0612906457
C  C115  1  0.76410000  0.38205000  0.10880000  1.0 0.5124983179
C  C116  1  0.80130000  0.40065000  0.17420000  1.0 -0.0113846852
C  C117  1  0.84520000  0.42260000  0.46180000  1.0 -0.1608294286
C  C118  1  0.91130000  0.45565000  0.35570000  1.0 -0.048295935
C  C119  1  0.89640000  0.44820000  0.43590000  1.0 0.1483677657
C  C120  1  0.95960000  0.47980000  0.33170000  1.0 0.1483677657
C  C121  1  0.48790000  0.51210000  0.25030000  1.0 -0.1732348563
C  C122  1  0.43705000  0.56295000  0.29290000  1.0 0.0612906457
C  C123  1  0.38205000  0.61795000  0.10880000  1.0 0.5124983179
C  C124  1  0.40065000  0.59935000  0.17420000  1.0 -0.0113846852
C  C125  1  0.42260000  0.57740000  0.46180000  1.0 -0.1608294286
C  C126  1  0.45565000  0.54435000  0.35570000  1.0 -0.048295935
C  C127  1  0.44820000  0.55180000  0.43590000  1.0 0.1483677657
C  C128  1  0.47980000  0.52020000  0.33170000  1.0 0.1483677657
C  C129  1  0.48790000  0.97580000  0.25030000  1.0 -0.1732348563
C  C130  1  0.43705000  0.87410000  0.29290000  1.0 0.0612906457
C  C131  1  0.38205000  0.76410000  0.10880000  1.0 0.5124983179
C  C132  1  0.40065000  0.80130000  0.17420000  1.0 -0.0113846852
C  C133  1  0.42260000  0.84520000  0.46180000  1.0 -0.1608294286
C  C134  1  0.45565000  0.91130000  0.35570000  1.0 -0.048295935
C  C135  1  0.44820000  0.89640000  0.43590000  1.0 0.1483677657
C  C136  1  0.47980000  0.95960000  0.33170000  1.0 0.1483677657
C  C137  1  0.02420000  0.51210000  0.25030000  1.0 -0.1732348563
C  C138  1  0.12590000  0.56295000  0.29290000  1.0 0.0612906457
C  C139  1  0.23590000  0.61795000  0.10880000  1.0 0.5124983179
C  C140  1  0.19870000  0.59935000  0.17420000  1.0 -0.0113846852
C  C141  1  0.15480000  0.57740000  0.46180000  1.0 -0.1608294286
C  C142  1  0.08870000  0.54435000  0.35570000  1.0 -0.048295935
C  C143  1  0.10360000  0.55180000  0.43590000  1.0 0.1483677657
C  C144  1  0.04040000  0.52020000  0.33170000  1.0 0.1483677657
N  N1  1  0.00000000  0.50000000  0.62030000  1.0 -0.2616548004
N  N2  1  0.50000000  0.00000000  0.62030000  1.0 -0.2616548004
N  N3  1  0.50000000  0.50000000  0.62030000  1.0 -0.2616548004
N  N4  1  0.50000000  0.50000000  0.37970000  1.0 -0.2616548004
N  N5  1  0.50000000  0.00000000  0.37970000  1.0 -0.2616548004
N  N6  1  0.00000000  0.50000000  0.37970000  1.0 -0.2616548004
N  N7  1  0.07390000  0.53695000  0.50000000  1.0 -0.2443239477
N  N8  1  0.46305000  0.92610000  0.50000000  1.0 -0.2443239477
N  N9  1  0.46305000  0.53695000  0.50000000  1.0 -0.2443239477
N  N10  1  0.92610000  0.46305000  0.50000000  1.0 -0.2443239477
N  N11  1  0.53695000  0.07390000  0.50000000  1.0 -0.2443239477
N  N12  1  0.53695000  0.46305000  0.50000000  1.0 -0.2443239477
Cl  Cl1  1  0.00000000  0.57100000  0.50000000  1.0 -0.3482082002
Cl  Cl2  1  0.57100000  0.00000000  0.50000000  1.0 -0.3482082002
Cl  Cl3  1  0.42900000  0.42900000  0.50000000  1.0 -0.3482082002
Cl  Cl4  1  0.00000000  0.42900000  0.50000000  1.0 -0.3482082002
Cl  Cl5  1  0.42900000  0.00000000  0.50000000  1.0 -0.3482082002
Cl  Cl6  1  0.57100000  0.57100000  0.50000000  1.0 -0.3482082002
O  O1  1  0.25022000  0.66032000  0.91310000  1.0 -0.5287760608
O  O2  1  0.41010000  0.74978000  0.91310000  1.0 -0.5287760608
O  O3  1  0.33968000  0.58990000  0.91310000  1.0 -0.5287760608
O  O4  1  0.74978000  0.33968000  0.91310000  1.0 -0.5287760608
O  O5  1  0.58990000  0.25022000  0.91310000  1.0 -0.5287760608
O  O6  1  0.66032000  0.41010000  0.91310000  1.0 -0.5287760608
O  O7  1  0.58990000  0.33968000  0.08690000  1.0 -0.5287760608
O  O8  1  0.66032000  0.25022000  0.08690000  1.0 -0.5287760608
O  O9  1  0.74978000  0.41010000  0.08690000  1.0 -0.5287760608
O  O10  1  0.41010000  0.66032000  0.08690000  1.0 -0.5287760608
O  O11  1  0.33968000  0.74978000  0.08690000  1.0 -0.5287760608
O  O12  1  0.25022000  0.58990000  0.08690000  1.0 -0.5287760608
O  O13  1  0.74978000  0.33968000  0.08690000  1.0 -0.5287760608
O  O14  1  0.58990000  0.25022000  0.08690000  1.0 -0.5287760608
O  O15  1  0.66032000  0.41010000  0.08690000  1.0 -0.5287760608
O  O16  1  0.25022000  0.66032000  0.08690000  1.0 -0.5287760608
O  O17  1  0.41010000  0.74978000  0.08690000  1.0 -0.5287760608
O  O18  1  0.33968000  0.58990000  0.08690000  1.0 -0.5287760608
O  O19  1  0.41010000  0.66032000  0.91310000  1.0 -0.5287760608
O  O20  1  0.33968000  0.74978000  0.91310000  1.0 -0.5287760608
O  O21  1  0.25022000  0.58990000  0.91310000  1.0 -0.5287760608
O  O22  1  0.58990000  0.33968000  0.91310000  1.0 -0.5287760608
O  O23  1  0.66032000  0.25022000  0.91310000  1.0 -0.5287760608
O  O24  1  0.74978000  0.41010000  0.91310000  1.0 -0.5287760608
O  O25  1  0.33333333  0.66666667  0.00000000  1.0 -0.1056526266
O  O26  1  0.66666667  0.33333333  0.00000000  1.0 -0.1056526266
