# DDEC6 charges by PACMAN v1.1 (https://github.com/mtap-research/PACMAN-charge/)
data_ATUYAR_ASR_pacman
_symmetry_space_group_name_H-M   'P 1'
_cell_length_a   11.00300000
_cell_length_b   12.48600000
_cell_length_c   15.92500000
_cell_angle_alpha   100.09100000
_cell_angle_beta   106.02800000
_cell_angle_gamma   95.76200000
_symmetry_Int_Tables_number   1
_chemical_formula_structural   K2Gd2H12C32O19
_chemical_formula_sum   'K4 Gd4 H24 C64 O38'
_cell_volume   2044.50763837
_cell_formula_units_Z   2
loop_
 _symmetry_equiv_pos_site_id
 _symmetry_equiv_pos_as_xyz
  1  'x, y, z'
loop_
 _atom_site_type_symbol
 _atom_site_label
 _atom_site_symmetry_multiplicity
 _atom_site_fract_x
 _atom_site_fract_y
 _atom_site_fract_z
 _atom_site_occupancy
 _atom_site_charge
K  K1  1  0.78170000  0.02420000  0.44486000  1.0 0.8948649941
K  K2  1  0.21830000  0.97580000  0.55514000  1.0 0.8956920086
K  K3  1  0.26880000  0.49040000  0.94218000  1.0 0.8758077799
K  K4  1  0.73120000  0.50960000  0.05782000  1.0 0.874811071
Gd  Gd1  1  0.05985000  0.24120000  0.62837000  1.0 1.9904481945
Gd  Gd2  1  0.94015000  0.75880000  0.37163000  1.0 1.9904481945
Gd  Gd3  1  0.49636000  0.74142000  0.11713000  1.0 1.9999174653
Gd  Gd4  1  0.50364000  0.25858000  0.88287000  1.0 1.9999174653
H  H1  1  0.93140000  0.01670000  0.80760000  1.0 0.1405892686
H  H2  1  0.06860000  0.98330000  0.19240000  1.0 0.1405892686
H  H3  1  0.88460000  0.66170000  0.64840000  1.0 0.1288275747
H  H4  1  0.11540000  0.33830000  0.35160000  1.0 0.1288275747
H  H5  1  0.85670000  0.69430000  0.78890000  1.0 0.1405892686
H  H6  1  0.14330000  0.30570000  0.21110000  1.0 0.1405892686
H  H7  1  0.08810000  0.82510000  0.93560000  1.0 0.1405892686
H  H8  1  0.91190000  0.17490000  0.06440000  1.0 0.1405892686
H  H9  1  0.06310000  0.74120000  0.16440000  1.0 0.1498482069
H  H10  1  0.93690000  0.25880000  0.83560000  1.0 0.1498482069
H  H11  1  0.76390000  0.84110000  0.00400000  1.0 0.1498482069
H  H12  1  0.23610000  0.15890000  0.99600000  1.0 0.1498482069
H  H13  1  0.45110000  0.51520000  0.30900000  1.0 0.1405892686
H  H14  1  0.54890000  0.48480000  0.69100000  1.0 0.1405892686
H  H15  1  0.46200000  0.16220000  0.16450000  1.0 0.1288275747
H  H16  1  0.53800000  0.83780000  0.83550000  1.0 0.1288275747
H  H17  1  0.43820000  0.19140000  0.30680000  1.0 0.1405892686
H  H18  1  0.56180000  0.80860000  0.69320000  1.0 0.1405892686
H  H19  1  0.65380000  0.35720000  0.45630000  1.0 0.1405892686
H  H20  1  0.34620000  0.64280000  0.54370000  1.0 0.1405892686
H  H21  1  0.63730000  0.25220000  0.67740000  1.0 0.1498482069
H  H22  1  0.36270000  0.74780000  0.32260000  1.0 0.1498482069
H  H23  1  0.31910000  0.30970000  0.50920000  1.0 0.1498482069
H  H24  1  0.68090000  0.69030000  0.49080000  1.0 0.1498482069
C  C1  1  0.89210000  0.86200000  0.81030000  1.0 0.2501340537
C  C2  1  0.10790000  0.13800000  0.18970000  1.0 0.2501340537
C  C3  1  0.92280000  0.94490000  0.77590000  1.0 -0.2182159485
C  C4  1  0.07720000  0.05510000  0.22410000  1.0 -0.2182159485
C  C5  1  0.94330000  0.92570000  0.69020000  1.0 0.0197694446
C  C6  1  0.05670000  0.07430000  0.30980000  1.0 0.0197694446
C  C7  1  0.92840000  0.82050000  0.64320000  1.0 -0.0802442553
C  C8  1  0.07160000  0.17950000  0.35680000  1.0 -0.0802442553
C  C9  1  0.89520000  0.73370000  0.68020000  1.0 -0.0704035992
C  C10  1  0.10480000  0.26630000  0.31980000  1.0 -0.0704035992
C  C11  1  0.87760000  0.75270000  0.76380000  1.0 -0.2005768838
C  C12  1  0.12240000  0.24730000  0.23620000  1.0 -0.2005768838
C  C13  1  0.97820000  0.02940000  0.65930000  1.0 0.5915845511
C  C14  1  0.02180000  0.97060000  0.34070000  1.0 0.5915845511
C  C15  1  0.93920000  0.79840000  0.55120000  1.0 0.578539419
C  C16  1  0.06080000  0.20160000  0.44880000  1.0 0.578539419
C  C17  1  0.91850000  0.84030000  0.95940000  1.0 0.2501340537
C  C18  1  0.08150000  0.15970000  0.04060000  1.0 0.2501340537
C  C19  1  0.04140000  0.81590000  0.97510000  1.0 -0.2182159485
C  C20  1  0.95860000  0.18410000  0.02490000  1.0 -0.2182159485
C  C21  1  0.09330000  0.77700000  0.05210000  1.0 0.0197694446
C  C22  1  0.90670000  0.22300000  0.94790000  1.0 0.0197694446
C  C23  1  0.02550000  0.76430000  0.11210000  1.0 -0.1301313164
C  C24  1  0.97450000  0.23570000  0.88790000  1.0 -0.1301313164
C  C25  1  0.90050000  0.78640000  0.09300000  1.0 -0.034671451
C  C26  1  0.09950000  0.21360000  0.90700000  1.0 -0.0355252223
C  C27  1  0.84710000  0.82530000  0.01650000  1.0 -0.2094934828
C  C28  1  0.15290000  0.17470000  0.98350000  1.0 -0.2094934828
C  C29  1  0.22990000  0.75810000  0.07400000  1.0 0.578539419
C  C30  1  0.77010000  0.24190000  0.92600000  1.0 0.578539419
C  C31  1  0.82140000  0.76550000  0.15300000  1.0 0.637408751
C  C32  1  0.17860000  0.23450000  0.84700000  1.0 0.637408751
C  C33  1  0.44120000  0.35770000  0.32100000  1.0 0.2655000863
C  C34  1  0.55880000  0.64230000  0.67900000  1.0 0.2655000863
C  C35  1  0.45280000  0.44400000  0.28040000  1.0 -0.2254211129
C  C36  1  0.54720000  0.55600000  0.71960000  1.0 -0.2254211129
C  C37  1  0.46760000  0.42320000  0.19450000  1.0 0.0121999001
C  C38  1  0.53240000  0.57680000  0.80550000  1.0 0.0121999001
C  C39  1  0.47540000  0.32140000  0.15340000  1.0 -0.0802442553
C  C40  1  0.52460000  0.67860000  0.84660000  1.0 -0.0802442553
C  C41  1  0.46110000  0.23310000  0.19420000  1.0 -0.0637895139
C  C42  1  0.53890000  0.76690000  0.80580000  1.0 -0.0637895139
C  C43  1  0.44550000  0.24990000  0.27870000  1.0 -0.2094934828
C  C44  1  0.55450000  0.75010000  0.72130000  1.0 -0.2094934828
C  C45  1  0.48560000  0.52630000  0.15960000  1.0 0.6039070664
C  C46  1  0.51440000  0.47370000  0.84040000  1.0 0.6039070664
C  C47  1  0.48890000  0.29880000  0.06150000  1.0 0.578539419
C  C48  1  0.51110000  0.70120000  0.93850000  1.0 0.578539419
C  C49  1  0.47680000  0.33770000  0.47070000  1.0 0.2501340537
C  C50  1  0.52320000  0.66230000  0.52930000  1.0 0.2501340537
C  C51  1  0.60660000  0.33560000  0.49250000  1.0 -0.2182159485
C  C52  1  0.39340000  0.66440000  0.50750000  1.0 -0.2182159485
C  C53  1  0.66500000  0.30080000  0.56920000  1.0 0.003130964
C  C54  1  0.33500000  0.69920000  0.43080000  1.0 0.003130964
C  C55  1  0.59620000  0.27230000  0.62440000  1.0 -0.1301313164
C  C56  1  0.40380000  0.72770000  0.37560000  1.0 -0.1301313164
C  C57  1  0.46620000  0.27360000  0.60080000  1.0 -0.0188787738
C  C58  1  0.53380000  0.72640000  0.39920000  1.0 -0.0188787738
C  C59  1  0.40660000  0.30730000  0.52460000  1.0 -0.2094934828
C  C60  1  0.59340000  0.69270000  0.47540000  1.0 -0.2094934828
C  C61  1  0.80500000  0.29480000  0.59110000  1.0 0.578539419
C  C62  1  0.19500000  0.70520000  0.40890000  1.0 0.578539419
C  C63  1  0.38600000  0.23410000  0.65590000  1.0 0.637408751
C  C64  1  0.61400000  0.76590000  0.34410000  1.0 0.637408751
O  O1  1  0.86150000  0.88620000  0.88840000  1.0 -0.2182159485
O  O2  1  0.13850000  0.11380000  0.11160000  1.0 -0.2182159485
O  O3  1  0.89370000  0.08350000  0.62840000  1.0 -0.624852282
O  O4  1  0.10630000  0.91650000  0.37160000  1.0 -0.624852282
O  O5  1  0.09560000  0.06130000  0.67170000  1.0 -0.6482617777
O  O6  1  0.90440000  0.93870000  0.32830000  1.0 -0.6482617777
O  O7  1  0.96220000  0.87770000  0.51540000  1.0 -0.7004908742
O  O8  1  0.03780000  0.12230000  0.48460000  1.0 -0.7004908742
O  O9  1  0.91960000  0.70030000  0.50820000  1.0 -0.6008968921
O  O10  1  0.08040000  0.29970000  0.49180000  1.0 -0.6008968921
O  O11  1  0.29800000  0.77660000  0.15420000  1.0 -0.6008968921
O  O12  1  0.70200000  0.22340000  0.84580000  1.0 -0.6008968921
O  O13  1  0.27650000  0.72310000  0.01230000  1.0 -0.6592687489
O  O14  1  0.72350000  0.27690000  0.98770000  1.0 -0.6592687489
O  O15  1  0.71190000  0.79100000  0.13490000  1.0 -0.6482617777
O  O16  1  0.28810000  0.20900000  0.86510000  1.0 -0.6482617777
O  O17  1  0.87030000  0.72130000  0.21740000  1.0 -0.6855054321
O  O18  1  0.12970000  0.27870000  0.78260000  1.0 -0.6855054321
O  O19  1  0.41120000  0.37880000  0.39940000  1.0 -0.2182159485
O  O20  1  0.58880000  0.62120000  0.60060000  1.0 -0.2182159485
O  O21  1  0.59490000  0.57640000  0.17030000  1.0 -0.627110245
O  O22  1  0.40510000  0.42360000  0.82970000  1.0 -0.624852282
O  O23  1  0.38580000  0.56420000  0.12330000  1.0 -0.6482617777
O  O24  1  0.61420000  0.43580000  0.87670000  1.0 -0.6482617777
O  O25  1  0.48810000  0.37540000  0.01950000  1.0 -0.6828779401
O  O26  1  0.51190000  0.62460000  0.98050000  1.0 -0.6828779401
O  O27  1  0.49510000  0.20290000  0.02460000  1.0 -0.5943398299
O  O28  1  0.50490000  0.79710000  0.97540000  1.0 -0.5943398299
O  O29  1  0.87800000  0.32120000  0.67000000  1.0 -0.5943398299
O  O30  1  0.12200000  0.67880000  0.33000000  1.0 -0.5943398299
O  O31  1  0.84900000  0.25670000  0.52900000  1.0 -0.6592687489
O  O32  1  0.15100000  0.74330000  0.47100000  1.0 -0.6592687489
O  O33  1  0.44700000  0.21420000  0.72980000  1.0 -0.6592687489
O  O34  1  0.55300000  0.78580000  0.27020000  1.0 -0.6592687489
O  O35  1  0.27070000  0.22320000  0.62700000  1.0 -0.627110245
O  O36  1  0.72930000  0.77680000  0.37300000  1.0 -0.627110245
O  O37  1  0.07600000  0.49400000  0.01300000  1.0 -0.3024133565
O  O38  1  0.92400000  0.50600000  0.98700000  1.0 -0.3024133565
