# DDEC6 charges by PACMAN v1.1 (https://github.com/mtap-research/PACMAN-charge/)
data_AVALEO_ion_pacman
_symmetry_space_group_name_H-M   'P 1'
_cell_length_a   10.50190000
_cell_length_b   10.50190000
_cell_length_c   14.24500000
_cell_angle_alpha   82.77450000
_cell_angle_beta   97.22550000
_cell_angle_gamma   94.77730000
_symmetry_Int_Tables_number   1
_chemical_formula_structural   NaGdH44C22(NO3)4
_chemical_formula_sum   'Na2 Gd2 H88 C44 N8 O24'
_cell_volume   1542.58929044
_cell_formula_units_Z   2
loop_
 _symmetry_equiv_pos_site_id
 _symmetry_equiv_pos_as_xyz
  1  'x, y, z'
loop_
 _atom_site_type_symbol
 _atom_site_label
 _atom_site_symmetry_multiplicity
 _atom_site_fract_x
 _atom_site_fract_y
 _atom_site_fract_z
 _atom_site_occupancy
 _atom_site_charge
Na  Na1  1  0.05200000  0.05200000  0.75000000  1.0 0.4656393347
Na  Na2  1  0.94800000  0.94800000  0.25000000  1.0 0.4501394448
Gd  Gd1  1  0.26392000  0.26392000  0.25000000  1.0 1.8073382196
Gd  Gd2  1  0.73608000  0.73608000  0.75000000  1.0 1.8073382196
H  H1  1  0.79370000  0.40390000  0.10730000  1.0 0.1397802071
H  H2  1  0.59610000  0.20630000  0.60730000  1.0 0.1397802071
H  H3  1  0.20630000  0.59610000  0.89270000  1.0 0.1397802071
H  H4  1  0.40390000  0.79370000  0.39270000  1.0 0.1397802071
H  H5  1  0.86070000  0.40010000  0.01530000  1.0 0.146672484
H  H6  1  0.59990000  0.13930000  0.51530000  1.0 0.146672484
H  H7  1  0.13930000  0.59990000  0.98470000  1.0 0.146672484
H  H8  1  0.40010000  0.86070000  0.48470000  1.0 0.146672484
H  H9  1  0.91080000  0.18500000  0.07430000  1.0 0.0798830308
H  H10  1  0.81500000  0.08920000  0.57430000  1.0 0.0798830308
H  H11  1  0.08920000  0.81500000  0.92570000  1.0 0.0798830308
H  H12  1  0.18500000  0.91080000  0.42570000  1.0 0.0798830308
H  H13  1  0.82630000  0.19070000  0.15660000  1.0 0.0798830308
H  H14  1  0.80930000  0.17370000  0.65660000  1.0 0.0798830308
H  H15  1  0.17370000  0.80930000  0.84340000  1.0 0.0798830308
H  H16  1  0.19070000  0.82630000  0.34340000  1.0 0.0798830308
H  H17  1  0.81160000  0.15800000  0.91270000  1.0 0.1076933635
H  H18  1  0.84200000  0.18840000  0.41270000  1.0 0.1076933635
H  H19  1  0.18840000  0.84200000  0.08730000  1.0 0.1076933635
H  H20  1  0.15800000  0.81160000  0.58730000  1.0 0.1076933635
H  H21  1  0.76310000  0.29570000  0.90990000  1.0 0.1076933635
H  H22  1  0.70430000  0.23690000  0.40990000  1.0 0.1076933635
H  H23  1  0.23690000  0.70430000  0.09010000  1.0 0.1076933635
H  H24  1  0.29570000  0.76310000  0.59010000  1.0 0.1076933635
H  H25  1  0.62220000  0.07740000  0.85040000  1.0 0.100735152
H  H26  1  0.92260000  0.37780000  0.35040000  1.0 0.100735152
H  H27  1  0.37780000  0.92260000  0.14960000  1.0 0.100735152
H  H28  1  0.07740000  0.62220000  0.64960000  1.0 0.100735152
H  H29  1  0.63090000  0.21550000  0.79450000  1.0 0.1076933635
H  H30  1  0.78450000  0.36910000  0.29450000  1.0 0.1076933635
H  H31  1  0.36910000  0.78450000  0.20550000  1.0 0.1076933635
H  H32  1  0.21550000  0.63090000  0.70550000  1.0 0.1076933635
H  H33  1  0.31680000  0.18280000  0.83130000  1.0 0.0798830308
H  H34  1  0.81720000  0.68320000  0.33130000  1.0 0.0798830308
H  H35  1  0.68320000  0.81720000  0.16870000  1.0 0.0798830308
H  H36  1  0.18280000  0.31680000  0.66870000  1.0 0.0798830308
H  H37  1  0.41070000  0.15570000  0.76000000  1.0 0.100735152
H  H38  1  0.84430000  0.58930000  0.26000000  1.0 0.100735152
H  H39  1  0.58930000  0.84430000  0.24000000  1.0 0.100735152
H  H40  1  0.15570000  0.41070000  0.74000000  1.0 0.100735152
H  H41  1  0.44620000  0.95360000  0.85830000  1.0 0.1211922025
H  H42  1  0.04640000  0.55380000  0.35830000  1.0 0.1211922025
H  H43  1  0.55380000  0.04640000  0.14170000  1.0 0.1211922025
H  H44  1  0.95360000  0.44620000  0.64170000  1.0 0.1211922025
H  H45  1  0.30700000  0.96020000  0.80380000  1.0 0.100735152
H  H46  1  0.03980000  0.69300000  0.30380000  1.0 0.100735152
H  H47  1  0.69300000  0.03980000  0.19620000  1.0 0.100735152
H  H48  1  0.96020000  0.30700000  0.69620000  1.0 0.100735152
H  H49  1  0.62720000  0.99720000  0.00690000  1.0 0.100735152
H  H50  1  0.00280000  0.37280000  0.50690000  1.0 0.100735152
H  H51  1  0.37280000  0.00280000  0.99310000  1.0 0.100735152
H  H52  1  0.99720000  0.62720000  0.49310000  1.0 0.100735152
H  H53  1  0.76590000  0.98690000  0.06120000  1.0 0.0871347398
H  H54  1  0.01310000  0.23410000  0.56120000  1.0 0.0871347398
H  H55  1  0.23410000  0.01310000  0.93880000  1.0 0.0871347398
H  H56  1  0.98690000  0.76590000  0.43880000  1.0 0.0871347398
H  H57  1  0.46940000  0.37340000  0.82120000  1.0 0.100735152
H  H58  1  0.62660000  0.53060000  0.32120000  1.0 0.100735152
H  H59  1  0.53060000  0.62660000  0.17880000  1.0 0.100735152
H  H60  1  0.37340000  0.46940000  0.67880000  1.0 0.100735152
H  H61  1  0.57210000  0.37410000  0.91100000  1.0 0.100735152
H  H62  1  0.62590000  0.42790000  0.41100000  1.0 0.100735152
H  H63  1  0.42790000  0.62590000  0.08900000  1.0 0.100735152
H  H64  1  0.37410000  0.57210000  0.58900000  1.0 0.100735152
H  H65  1  0.37670000  0.45590000  0.93290000  1.0 0.1397802071
H  H66  1  0.54410000  0.62330000  0.43290000  1.0 0.1397802071
H  H67  1  0.62330000  0.54410000  0.06710000  1.0 0.1397802071
H  H68  1  0.45590000  0.37670000  0.56710000  1.0 0.1397802071
H  H69  1  0.30830000  0.31930000  0.92260000  1.0 0.1270205793
H  H70  1  0.68070000  0.69170000  0.42260000  1.0 0.1270205793
H  H71  1  0.69170000  0.68070000  0.07740000  1.0 0.1270205793
H  H72  1  0.31930000  0.30830000  0.57740000  1.0 0.1270205793
H  H73  1  0.54420000  0.18420000  0.29410000  1.0 0.3706657407
H  H74  1  0.81580000  0.45580000  0.79410000  1.0 0.3706657407
H  H75  1  0.45580000  0.81580000  0.70590000  1.0 0.3706657407
H  H76  1  0.18420000  0.54420000  0.20590000  1.0 0.3706657407
H  H77  1  0.52170000  0.26430000  0.18770000  1.0 0.3522935551
H  H78  1  0.73570000  0.47830000  0.68770000  1.0 0.3522935551
H  H79  1  0.47830000  0.73570000  0.81230000  1.0 0.3522935551
H  H80  1  0.26430000  0.52170000  0.31230000  1.0 0.3522935551
H  H81  1  0.11360000  0.16480000  0.11600000  1.0 0.3641246376
H  H82  1  0.83520000  0.88640000  0.61600000  1.0 0.3641246376
H  H83  1  0.88640000  0.83520000  0.88400000  1.0 0.3641246376
H  H84  1  0.16480000  0.11360000  0.38400000  1.0 0.3641246376
H  H85  1  0.22310000  0.08750000  0.19690000  1.0 0.3388162968
H  H86  1  0.91250000  0.77690000  0.69690000  1.0 0.3388162968
H  H87  1  0.77690000  0.91250000  0.80310000  1.0 0.3388162968
H  H88  1  0.08750000  0.22310000  0.30310000  1.0 0.3388162968
C  C1  1  0.99070000  0.40630000  0.13520000  1.0 0.6621237067
C  C2  1  0.59370000  0.00930000  0.63520000  1.0 0.6621237067
C  C3  1  0.00930000  0.59370000  0.86480000  1.0 0.6621237067
C  C4  1  0.40630000  0.99070000  0.36480000  1.0 0.6621237067
C  C5  1  0.86200000  0.36680000  0.08200000  1.0 -0.3708651694
C  C6  1  0.63320000  0.13800000  0.58200000  1.0 -0.3708651694
C  C7  1  0.13800000  0.63320000  0.91800000  1.0 -0.3708651694
C  C8  1  0.36680000  0.86200000  0.41800000  1.0 -0.3708651694
C  C9  1  0.83610000  0.22210000  0.09070000  1.0 -0.0615727776
C  C10  1  0.77790000  0.16390000  0.59070000  1.0 -0.0615727776
C  C11  1  0.16390000  0.77790000  0.90930000  1.0 -0.0615727776
C  C12  1  0.22210000  0.83610000  0.40930000  1.0 -0.0615727776
C  C13  1  0.73990000  0.20450000  0.92360000  1.0 -0.1189576457
C  C14  1  0.79550000  0.26010000  0.42360000  1.0 -0.1189576457
C  C15  1  0.26010000  0.79550000  0.07640000  1.0 -0.1189576457
C  C16  1  0.20450000  0.73990000  0.57640000  1.0 -0.1189576457
C  C17  1  0.62310000  0.16830000  0.85680000  1.0 -0.1189576457
C  C18  1  0.83170000  0.37690000  0.35680000  1.0 -0.1189576457
C  C19  1  0.37690000  0.83170000  0.14320000  1.0 -0.1189576457
C  C20  1  0.16830000  0.62310000  0.64320000  1.0 -0.1189576457
C  C21  1  0.39330000  0.13990000  0.82590000  1.0 -0.0898335515
C  C22  1  0.86010000  0.60670000  0.32590000  1.0 -0.0898335515
C  C23  1  0.60670000  0.86010000  0.17410000  1.0 -0.0898335515
C  C24  1  0.13990000  0.39330000  0.67410000  1.0 -0.0898335515
C  C25  1  0.36620000  0.99540000  0.85340000  1.0 -0.2350454214
C  C26  1  0.00460000  0.63380000  0.35340000  1.0 -0.2350454214
C  C27  1  0.63380000  0.00460000  0.14660000  1.0 -0.2342558088
C  C28  1  0.99540000  0.36620000  0.64660000  1.0 -0.2342558088
C  C29  1  0.68760000  0.03120000  0.05640000  1.0 -0.1074948138
C  C30  1  0.96880000  0.31240000  0.55640000  1.0 -0.1074948138
C  C31  1  0.31240000  0.96880000  0.94360000  1.0 -0.1074948138
C  C32  1  0.03120000  0.68760000  0.44360000  1.0 -0.1074948138
C  C33  1  0.49000000  0.33480000  0.88630000  1.0 -0.0615727776
C  C34  1  0.66520000  0.51000000  0.38630000  1.0 -0.0615727776
C  C35  1  0.51000000  0.66520000  0.11370000  1.0 -0.0615727776
C  C36  1  0.33480000  0.49000000  0.61370000  1.0 -0.0615727776
C  C37  1  0.38900000  0.36460000  0.94420000  1.0 -0.3792662057
C  C38  1  0.63540000  0.61100000  0.44420000  1.0 -0.3792662057
C  C39  1  0.61100000  0.63540000  0.05580000  1.0 -0.3792662057
C  C40  1  0.36460000  0.38900000  0.55580000  1.0 -0.3792662057
C  C41  1  0.42150000  0.32750000  0.05110000  1.0 0.6420896319
C  C42  1  0.67250000  0.57850000  0.55110000  1.0 0.6420896319
C  C43  1  0.57850000  0.67250000  0.94890000  1.0 0.6420896319
C  C44  1  0.32750000  0.42150000  0.44890000  1.0 0.6420896319
N  N1  1  0.71747000  0.17553000  0.02730000  1.0 -0.0898335515
N  N2  1  0.82447000  0.28253000  0.52730000  1.0 -0.0898335515
N  N3  1  0.28253000  0.82447000  0.97270000  1.0 -0.0898335515
N  N4  1  0.17553000  0.71747000  0.47270000  1.0 -0.0898335515
N  N5  1  0.50167000  0.19529000  0.88665000  1.0 -0.1189576457
N  N6  1  0.80471000  0.49833000  0.38665000  1.0 -0.1189576457
N  N7  1  0.49833000  0.80471000  0.11335000  1.0 -0.1189576457
N  N8  1  0.19529000  0.50167000  0.61335000  1.0 -0.1189576457
O  O1  1  0.05873000  0.31765000  0.17651000  1.0 -0.6843282762
O  O2  1  0.68235000  0.94127000  0.67651000  1.0 -0.6851818147
O  O3  1  0.94127000  0.68235000  0.82349000  1.0 -0.6851818147
O  O4  1  0.31765000  0.05873000  0.32349000  1.0 -0.6843282762
O  O5  1  0.02097000  0.52255000  0.13569000  1.0 -0.5636425945
O  O6  1  0.47745000  0.97903000  0.63569000  1.0 -0.5636425945
O  O7  1  0.97903000  0.47745000  0.86431000  1.0 -0.5636425945
O  O8  1  0.52255000  0.02097000  0.36431000  1.0 -0.5636425945
O  O9  1  0.33034000  0.32706000  0.09786000  1.0 -0.6187634054
O  O10  1  0.67294000  0.66966000  0.59786000  1.0 -0.6187634054
O  O11  1  0.66966000  0.67294000  0.90214000  1.0 -0.6187634054
O  O12  1  0.32706000  0.33034000  0.40214000  1.0 -0.6187634054
O  O13  1  0.53078000  0.30322000  0.08665000  1.0 -0.5277697029
O  O14  1  0.69678000  0.46922000  0.58665000  1.0 -0.5277697029
O  O15  1  0.46922000  0.69678000  0.91335000  1.0 -0.5277697029
O  O16  1  0.30322000  0.53078000  0.41335000  1.0 -0.5277697029
O  O17  1  0.49750000  0.26350000  0.26860000  1.0 -0.8521997514
O  O18  1  0.73650000  0.50250000  0.76860000  1.0 -0.8521997514
O  O19  1  0.50250000  0.73650000  0.73140000  1.0 -0.8521997514
O  O20  1  0.26350000  0.49750000  0.23140000  1.0 -0.8521997514
O  O21  1  0.18150000  0.10030000  0.14180000  1.0 -0.7923549893
O  O22  1  0.89970000  0.81850000  0.64180000  1.0 -0.7923549893
O  O23  1  0.81850000  0.89970000  0.85820000  1.0 -0.7923549893
O  O24  1  0.10030000  0.18150000  0.35820000  1.0 -0.7923549893
