# DDEC6 charges by PACMAN v1.1 (https://github.com/mtap-research/PACMAN-charge/)
data_AVEMAQ_ASR_pacman
_symmetry_space_group_name_H-M   'P 1'
_cell_length_a   13.73270000
_cell_length_b   13.73270000
_cell_length_c   25.46600000
_cell_angle_alpha   90.00000000
_cell_angle_beta   90.00000000
_cell_angle_gamma   90.00000000
_symmetry_Int_Tables_number   1
_chemical_formula_structural   Ni4H84C60N12O13
_chemical_formula_sum   'Ni8 H168 C120 N24 O26'
_cell_volume   4802.55779722
_cell_formula_units_Z   2
loop_
 _symmetry_equiv_pos_site_id
 _symmetry_equiv_pos_as_xyz
  1  'x, y, z'
loop_
 _atom_site_type_symbol
 _atom_site_label
 _atom_site_symmetry_multiplicity
 _atom_site_fract_x
 _atom_site_fract_y
 _atom_site_fract_z
 _atom_site_occupancy
 _atom_site_charge
Ni  Ni1  1  0.74769000  0.59415000  0.47628000  1.0 0.6382380562
Ni  Ni2  1  0.59415000  0.25231000  0.52372000  1.0 0.6382380562
Ni  Ni3  1  0.25231000  0.40585000  0.47628000  1.0 0.6382380562
Ni  Ni4  1  0.40585000  0.74769000  0.52372000  1.0 0.6382380562
Ni  Ni5  1  0.75231000  0.09415000  0.97628000  1.0 0.6382380562
Ni  Ni6  1  0.09415000  0.24769000  0.02372000  1.0 0.6382380562
Ni  Ni7  1  0.24769000  0.90585000  0.97628000  1.0 0.6382380562
Ni  Ni8  1  0.90585000  0.75231000  0.02372000  1.0 0.6382380562
H  H1  1  0.70530000  0.69900000  0.55710000  1.0 0.3073066461
H  H2  1  0.69900000  0.29470000  0.44290000  1.0 0.3073066461
H  H3  1  0.29470000  0.30100000  0.55710000  1.0 0.3073066461
H  H4  1  0.30100000  0.70530000  0.44290000  1.0 0.3073066461
H  H5  1  0.79470000  0.19900000  0.05710000  1.0 0.3073066461
H  H6  1  0.19900000  0.20530000  0.94290000  1.0 0.3073066461
H  H7  1  0.20530000  0.80100000  0.05710000  1.0 0.3073066461
H  H8  1  0.80100000  0.79470000  0.94290000  1.0 0.3073066461
H  H9  1  0.75140000  0.54490000  0.58640000  1.0 0.1411925885
H  H10  1  0.54490000  0.24860000  0.41360000  1.0 0.1411925885
H  H11  1  0.24860000  0.45510000  0.58640000  1.0 0.1411925885
H  H12  1  0.45510000  0.75140000  0.41360000  1.0 0.1411925885
H  H13  1  0.74860000  0.04490000  0.08640000  1.0 0.1411925885
H  H14  1  0.04490000  0.25140000  0.91360000  1.0 0.1411925885
H  H15  1  0.25140000  0.95510000  0.08640000  1.0 0.1411925885
H  H16  1  0.95510000  0.74860000  0.91360000  1.0 0.1411925885
H  H17  1  0.67230000  0.49500000  0.64280000  1.0 0.1133327328
H  H18  1  0.49500000  0.32770000  0.35720000  1.0 0.1133327328
H  H19  1  0.32770000  0.50500000  0.64280000  1.0 0.1133327328
H  H20  1  0.50500000  0.67230000  0.35720000  1.0 0.1133327328
H  H21  1  0.82770000  0.99500000  0.14280000  1.0 0.1133327328
H  H22  1  0.99500000  0.17230000  0.85720000  1.0 0.1133327328
H  H23  1  0.17230000  0.00500000  0.14280000  1.0 0.1133327328
H  H24  1  0.00500000  0.82770000  0.85720000  1.0 0.1133327328
H  H25  1  0.59550000  0.57780000  0.63390000  1.0 0.1411925885
H  H26  1  0.57780000  0.40450000  0.36610000  1.0 0.1411925885
H  H27  1  0.40450000  0.42220000  0.63390000  1.0 0.1411925885
H  H28  1  0.42220000  0.59550000  0.36610000  1.0 0.1411925885
H  H29  1  0.90450000  0.07780000  0.13390000  1.0 0.1411925885
H  H30  1  0.07780000  0.09550000  0.86610000  1.0 0.1411925885
H  H31  1  0.09550000  0.92220000  0.13390000  1.0 0.1411925885
H  H32  1  0.92220000  0.90450000  0.86610000  1.0 0.1411925885
H  H33  1  0.70380000  0.60440000  0.64710000  1.0 0.1133327328
H  H34  1  0.60440000  0.29620000  0.35290000  1.0 0.1133327328
H  H35  1  0.29620000  0.39560000  0.64710000  1.0 0.1133327328
H  H36  1  0.39560000  0.70380000  0.35290000  1.0 0.1133327328
H  H37  1  0.79620000  0.10440000  0.14710000  1.0 0.1133327328
H  H38  1  0.10440000  0.20380000  0.85290000  1.0 0.1133327328
H  H39  1  0.20380000  0.89560000  0.14710000  1.0 0.1133327328
H  H40  1  0.89560000  0.79620000  0.85290000  1.0 0.1133327328
H  H41  1  0.88300000  0.43170000  0.44840000  1.0 0.0816361157
H  H42  1  0.43170000  0.11700000  0.55160000  1.0 0.0816361157
H  H43  1  0.11700000  0.56830000  0.44840000  1.0 0.0816361157
H  H44  1  0.56830000  0.88300000  0.55160000  1.0 0.0816361157
H  H45  1  0.61700000  0.93170000  0.94840000  1.0 0.0816361157
H  H46  1  0.93170000  0.38300000  0.05160000  1.0 0.0816361157
H  H47  1  0.38300000  0.06830000  0.94840000  1.0 0.0816361157
H  H48  1  0.06830000  0.61700000  0.05160000  1.0 0.0816361157
H  H49  1  0.92570000  0.34680000  0.37340000  1.0 0.1163602644
H  H50  1  0.34680000  0.07430000  0.62660000  1.0 0.1163602644
H  H51  1  0.07430000  0.65320000  0.37340000  1.0 0.1163602644
H  H52  1  0.65320000  0.92570000  0.62660000  1.0 0.1163602644
H  H53  1  0.57430000  0.84680000  0.87340000  1.0 0.1163602644
H  H54  1  0.84680000  0.42570000  0.12660000  1.0 0.1163602644
H  H55  1  0.42570000  0.15320000  0.87340000  1.0 0.1163602644
H  H56  1  0.15320000  0.57430000  0.12660000  1.0 0.1163602644
H  H57  1  0.80640000  0.55800000  0.28540000  1.0 0.1411925885
H  H58  1  0.55800000  0.19360000  0.71460000  1.0 0.1411925885
H  H59  1  0.19360000  0.44200000  0.28540000  1.0 0.1411925885
H  H60  1  0.44200000  0.80640000  0.71460000  1.0 0.1411925885
H  H61  1  0.69360000  0.05800000  0.78540000  1.0 0.1411925885
H  H62  1  0.05800000  0.30640000  0.21460000  1.0 0.1411925885
H  H63  1  0.30640000  0.94200000  0.78540000  1.0 0.1411925885
H  H64  1  0.94200000  0.69360000  0.21460000  1.0 0.1411925885
H  H65  1  0.75150000  0.62000000  0.36430000  1.0 0.1163602644
H  H66  1  0.62000000  0.24850000  0.63570000  1.0 0.1163602644
H  H67  1  0.24850000  0.38000000  0.36430000  1.0 0.1163602644
H  H68  1  0.38000000  0.75150000  0.63570000  1.0 0.1163602644
H  H69  1  0.74850000  0.12000000  0.86430000  1.0 0.1163602644
H  H70  1  0.12000000  0.25150000  0.13570000  1.0 0.1163602644
H  H71  1  0.25150000  0.88000000  0.86430000  1.0 0.1163602644
H  H72  1  0.88000000  0.74850000  0.13570000  1.0 0.1163602644
H  H73  1  0.95940000  0.34750000  0.28060000  1.0 0.1345487076
H  H74  1  0.34750000  0.04060000  0.71940000  1.0 0.1345487076
H  H75  1  0.04060000  0.65250000  0.28060000  1.0 0.1345487076
H  H76  1  0.65250000  0.95940000  0.71940000  1.0 0.1345487076
H  H77  1  0.54060000  0.84750000  0.78060000  1.0 0.1345487076
H  H78  1  0.84750000  0.45940000  0.21940000  1.0 0.1345487076
H  H79  1  0.45940000  0.15250000  0.78060000  1.0 0.1345487076
H  H80  1  0.15250000  0.54060000  0.21940000  1.0 0.1345487076
H  H81  1  0.94560000  0.66810000  0.46150000  1.0 0.1005236485
H  H82  1  0.66810000  0.05440000  0.53850000  1.0 0.1005236485
H  H83  1  0.05440000  0.33190000  0.46150000  1.0 0.1005236485
H  H84  1  0.33190000  0.94560000  0.53850000  1.0 0.1005236485
H  H85  1  0.55440000  0.16810000  0.96150000  1.0 0.1005236485
H  H86  1  0.16810000  0.44560000  0.03850000  1.0 0.1005236485
H  H87  1  0.44560000  0.83190000  0.96150000  1.0 0.1005236485
H  H88  1  0.83190000  0.55440000  0.03850000  1.0 0.1005236485
H  H89  1  0.02840000  0.81580000  0.43240000  1.0 0.1411925885
H  H90  1  0.81580000  0.97160000  0.56760000  1.0 0.1411925885
H  H91  1  0.97160000  0.18420000  0.43240000  1.0 0.1411925885
H  H92  1  0.18420000  0.02840000  0.56760000  1.0 0.1411925885
H  H93  1  0.47160000  0.31580000  0.93240000  1.0 0.1411925885
H  H94  1  0.31580000  0.52840000  0.06760000  1.0 0.1411925885
H  H95  1  0.52840000  0.68420000  0.93240000  1.0 0.1411925885
H  H96  1  0.68420000  0.47160000  0.06760000  1.0 0.1411925885
H  H97  1  0.76490000  0.95300000  0.43760000  1.0 0.1481031048
H  H98  1  0.95300000  0.23510000  0.56240000  1.0 0.1481031048
H  H99  1  0.23510000  0.04700000  0.43760000  1.0 0.1481031048
H  H100  1  0.04700000  0.76490000  0.56240000  1.0 0.1481031048
H  H101  1  0.73510000  0.45300000  0.93760000  1.0 0.1481031048
H  H102  1  0.45300000  0.26490000  0.06240000  1.0 0.1481031048
H  H103  1  0.26490000  0.54700000  0.93760000  1.0 0.1481031048
H  H104  1  0.54700000  0.73510000  0.06240000  1.0 0.1481031048
H  H105  1  0.69360000  0.80330000  0.45420000  1.0 0.1133327328
H  H106  1  0.80330000  0.30640000  0.54580000  1.0 0.1133327328
H  H107  1  0.30640000  0.19670000  0.45420000  1.0 0.1133327328
H  H108  1  0.19670000  0.69360000  0.54580000  1.0 0.1133327328
H  H109  1  0.80640000  0.30330000  0.95420000  1.0 0.1133327328
H  H110  1  0.30330000  0.19360000  0.04580000  1.0 0.1133327328
H  H111  1  0.19360000  0.69670000  0.95420000  1.0 0.1163602644
H  H112  1  0.69670000  0.80640000  0.04580000  1.0 0.1133327328
H  H113  1  0.91130000  0.05340000  0.43490000  1.0 0.1163602644
H  H114  1  0.05340000  0.08870000  0.56510000  1.0 0.1163602644
H  H115  1  0.08870000  0.94660000  0.43490000  1.0 0.1163602644
H  H116  1  0.94660000  0.91130000  0.56510000  1.0 0.1163602644
H  H117  1  0.58870000  0.55340000  0.93490000  1.0 0.1163602644
H  H118  1  0.55340000  0.41130000  0.06510000  1.0 0.1163602644
H  H119  1  0.41130000  0.44660000  0.93490000  1.0 0.1163602644
H  H120  1  0.44660000  0.58870000  0.06510000  1.0 0.1163602644
H  H121  1  0.94110000  0.49740000  0.43500000  1.0 0.0898641382
H  H122  1  0.49740000  0.05890000  0.56500000  1.0 0.0898641382
H  H123  1  0.05890000  0.50260000  0.43500000  1.0 0.0898641382
H  H124  1  0.50260000  0.94110000  0.56500000  1.0 0.0898641382
H  H125  1  0.55890000  0.99740000  0.93500000  1.0 0.0898641382
H  H126  1  0.99740000  0.44110000  0.06500000  1.0 0.0898641382
H  H127  1  0.44110000  0.00260000  0.93500000  1.0 0.0898641382
H  H128  1  0.00260000  0.55890000  0.06500000  1.0 0.0898641382
H  H129  1  0.44590000  0.47170000  0.99460000  1.0 0.0387607621
H  H130  1  0.47170000  0.55410000  0.00540000  1.0 0.0387607621
H  H131  1  0.55410000  0.52830000  0.99460000  1.0 0.0387607621
H  H132  1  0.52830000  0.44590000  0.00540000  1.0 0.0387607621
H  H133  1  0.05410000  0.97170000  0.49460000  1.0 0.0387607621
H  H134  1  0.97170000  0.94590000  0.50540000  1.0 0.0387607621
H  H135  1  0.94590000  0.02830000  0.49460000  1.0 0.0387607621
H  H136  1  0.02830000  0.05410000  0.50540000  1.0 0.0387607621
H  H137  1  0.54640000  0.49320000  0.02180000  1.0 0.069094584
H  H138  1  0.49320000  0.45360000  0.97820000  1.0 0.069094584
H  H139  1  0.45360000  0.50680000  0.02180000  1.0 0.069094584
H  H140  1  0.50680000  0.54640000  0.97820000  1.0 0.069094584
H  H141  1  0.95360000  0.99320000  0.52180000  1.0 0.069094584
H  H142  1  0.99320000  0.04640000  0.47820000  1.0 0.069094584
H  H143  1  0.04640000  0.00680000  0.52180000  1.0 0.069094584
H  H144  1  0.00680000  0.95360000  0.47820000  1.0 0.069094584
H  H145  1  0.99460000  0.52900000  0.47460000  1.0 0.1411925885
H  H146  1  0.52900000  0.00540000  0.52540000  1.0 0.1411925885
H  H147  1  0.00540000  0.47100000  0.47460000  1.0 0.1411925885
H  H148  1  0.47100000  0.99460000  0.52540000  1.0 0.1411925885
H  H149  1  0.50540000  0.02900000  0.97460000  1.0 0.1411925885
H  H150  1  0.02900000  0.49460000  0.02540000  1.0 0.1411925885
H  H151  1  0.49460000  0.97100000  0.97460000  1.0 0.1411925885
H  H152  1  0.97100000  0.50540000  0.02540000  1.0 0.1411925885
H  H153  1  0.98310000  0.44120000  0.41020000  1.0 0.1481031048
H  H154  1  0.44120000  0.01690000  0.58980000  1.0 0.1551740853
H  H155  1  0.01690000  0.55880000  0.41020000  1.0 0.1551740853
H  H156  1  0.55880000  0.98310000  0.58980000  1.0 0.1551740853
H  H157  1  0.51690000  0.94120000  0.91020000  1.0 0.1551740853
H  H158  1  0.94120000  0.48310000  0.08980000  1.0 0.1481031048
H  H159  1  0.48310000  0.05880000  0.91020000  1.0 0.1551740853
H  H160  1  0.05880000  0.51690000  0.08980000  1.0 0.1551740853
H  H161  1  0.96490000  0.52490000  0.38130000  1.0 0.1005236485
H  H162  1  0.52490000  0.03510000  0.61870000  1.0 0.1005236485
H  H163  1  0.03510000  0.47510000  0.38130000  1.0 0.1005236485
H  H164  1  0.47510000  0.96490000  0.61870000  1.0 0.1005236485
H  H165  1  0.53510000  0.02490000  0.88130000  1.0 0.1005236485
H  H166  1  0.02490000  0.46490000  0.11870000  1.0 0.1005236485
H  H167  1  0.46490000  0.97510000  0.88130000  1.0 0.1005236485
H  H168  1  0.97510000  0.53510000  0.11870000  1.0 0.1005236485
C  C1  1  0.66650000  0.46510000  0.54920000  1.0 0.5128762263
C  C2  1  0.46510000  0.33350000  0.45080000  1.0 0.5128762263
C  C3  1  0.33350000  0.53490000  0.54920000  1.0 0.5128762263
C  C4  1  0.53490000  0.66650000  0.45080000  1.0 0.5128762263
C  C5  1  0.83350000  0.96510000  0.04920000  1.0 0.5128762263
C  C6  1  0.96510000  0.16650000  0.95080000  1.0 0.5128762263
C  C7  1  0.16650000  0.03490000  0.04920000  1.0 0.5128762263
C  C8  1  0.03490000  0.83350000  0.95080000  1.0 0.5128762263
C  C9  1  0.68300000  0.56000000  0.57990000  1.0 0.0387607621
C  C10  1  0.56000000  0.31700000  0.42010000  1.0 0.0387607621
C  C11  1  0.31700000  0.44000000  0.57990000  1.0 0.0387607621
C  C12  1  0.44000000  0.68300000  0.42010000  1.0 0.0387607621
C  C13  1  0.81700000  0.06000000  0.07990000  1.0 0.0387607621
C  C14  1  0.06000000  0.18300000  0.92010000  1.0 0.0387607621
C  C15  1  0.18300000  0.94000000  0.07990000  1.0 0.0387607621
C  C16  1  0.94000000  0.81700000  0.92010000  1.0 0.0387607621
C  C17  1  0.66200000  0.55900000  0.62900000  1.0 -0.3417076518
C  C18  1  0.55900000  0.33800000  0.37100000  1.0 -0.3417076518
C  C19  1  0.33800000  0.44100000  0.62900000  1.0 -0.3417076518
C  C20  1  0.44100000  0.66200000  0.37100000  1.0 -0.3417076518
C  C21  1  0.83800000  0.05900000  0.12900000  1.0 -0.3417076518
C  C22  1  0.05900000  0.16200000  0.87100000  1.0 -0.3417076518
C  C23  1  0.16200000  0.94100000  0.12900000  1.0 -0.3417076518
C  C24  1  0.94100000  0.83800000  0.87100000  1.0 -0.3417076518
C  C25  1  0.86210000  0.45290000  0.41560000  1.0 -0.0482026956
C  C26  1  0.45290000  0.13790000  0.58440000  1.0 -0.0482026956
C  C27  1  0.13790000  0.54710000  0.41560000  1.0 -0.0482026956
C  C28  1  0.54710000  0.86210000  0.58440000  1.0 -0.0482026956
C  C29  1  0.63790000  0.95290000  0.91560000  1.0 -0.0482026956
C  C30  1  0.95290000  0.36210000  0.08440000  1.0 -0.0482026956
C  C31  1  0.36210000  0.04710000  0.91560000  1.0 -0.0482026956
C  C32  1  0.04710000  0.63790000  0.08440000  1.0 -0.0482026956
C  C33  1  0.89280000  0.40570000  0.37020000  1.0 -0.2584334326
C  C34  1  0.40570000  0.10720000  0.62980000  1.0 -0.2584334326
C  C35  1  0.10720000  0.59430000  0.37020000  1.0 -0.2584334326
C  C36  1  0.59430000  0.89280000  0.62980000  1.0 -0.2584334326
C  C37  1  0.60720000  0.90570000  0.87020000  1.0 -0.2584334326
C  C38  1  0.90570000  0.39280000  0.12980000  1.0 -0.2584334326
C  C39  1  0.39280000  0.09430000  0.87020000  1.0 -0.2584334326
C  C40  1  0.09430000  0.60720000  0.12980000  1.0 -0.2584334326
C  C41  1  0.87650000  0.44260000  0.32110000  1.0 0.1133327328
C  C42  1  0.44260000  0.12350000  0.67890000  1.0 0.1133327328
C  C43  1  0.12350000  0.55740000  0.32110000  1.0 0.1133327328
C  C44  1  0.55740000  0.87650000  0.67890000  1.0 0.1133327328
C  C45  1  0.62350000  0.94260000  0.82110000  1.0 0.1133327328
C  C46  1  0.94260000  0.37650000  0.17890000  1.0 0.1133327328
C  C47  1  0.37650000  0.05740000  0.82110000  1.0 0.1133327328
C  C48  1  0.05740000  0.62350000  0.17890000  1.0 0.1133327328
C  C49  1  0.82070000  0.52770000  0.31720000  1.0 -0.2526506738
C  C50  1  0.52770000  0.17930000  0.68280000  1.0 -0.2526506738
C  C51  1  0.17930000  0.47230000  0.31720000  1.0 -0.2526506738
C  C52  1  0.47230000  0.82070000  0.68280000  1.0 -0.2526506738
C  C53  1  0.67930000  0.02770000  0.81720000  1.0 -0.2526506738
C  C54  1  0.02770000  0.32070000  0.18280000  1.0 -0.2526506738
C  C55  1  0.32070000  0.97230000  0.81720000  1.0 -0.2526506738
C  C56  1  0.97230000  0.67930000  0.18280000  1.0 -0.2526506738
C  C57  1  0.78810000  0.56310000  0.36640000  1.0 0.0816361157
C  C58  1  0.56310000  0.21190000  0.63360000  1.0 0.0816361157
C  C59  1  0.21190000  0.43690000  0.36640000  1.0 0.0816361157
C  C60  1  0.43690000  0.78810000  0.63360000  1.0 0.0816361157
C  C61  1  0.71190000  0.06310000  0.86640000  1.0 0.0816361157
C  C62  1  0.06310000  0.28810000  0.13360000  1.0 0.0816361157
C  C63  1  0.28810000  0.93690000  0.86640000  1.0 0.0816361157
C  C64  1  0.93690000  0.71190000  0.13360000  1.0 0.0816361157
C  C65  1  0.91490000  0.39730000  0.27450000  1.0 -0.1685089969
C  C66  1  0.39730000  0.08510000  0.72550000  1.0 -0.1685089969
C  C67  1  0.08510000  0.60270000  0.27450000  1.0 -0.1685089969
C  C68  1  0.60270000  0.91490000  0.72550000  1.0 -0.1645824027
C  C69  1  0.58510000  0.89730000  0.77450000  1.0 -0.1685089969
C  C70  1  0.89730000  0.41490000  0.22550000  1.0 -0.1685089969
C  C71  1  0.41490000  0.10270000  0.77450000  1.0 -0.1685089969
C  C72  1  0.10270000  0.58510000  0.22550000  1.0 -0.1685089969
C  C73  1  0.90910000  0.72360000  0.45450000  1.0 -0.0885636157
C  C74  1  0.72360000  0.09090000  0.54550000  1.0 -0.0885636157
C  C75  1  0.09090000  0.27640000  0.45450000  1.0 -0.0885636157
C  C76  1  0.27640000  0.90910000  0.54550000  1.0 -0.0885636157
C  C77  1  0.59090000  0.22360000  0.95450000  1.0 -0.0885636157
C  C78  1  0.22360000  0.40910000  0.04550000  1.0 -0.0885636157
C  C79  1  0.40910000  0.77640000  0.95450000  1.0 -0.0885636157
C  C80  1  0.77640000  0.59090000  0.04550000  1.0 -0.0885636157
C  C81  1  0.96210000  0.81530000  0.43970000  1.0 -0.292388053
C  C82  1  0.81530000  0.03790000  0.56030000  1.0 -0.292388053
C  C83  1  0.03790000  0.18470000  0.43970000  1.0 -0.292388053
C  C84  1  0.18470000  0.96210000  0.56030000  1.0 -0.292388053
C  C85  1  0.53790000  0.31530000  0.93970000  1.0 -0.292388053
C  C86  1  0.31530000  0.46210000  0.06030000  1.0 -0.292388053
C  C87  1  0.46210000  0.68470000  0.93970000  1.0 -0.292388053
C  C88  1  0.68470000  0.53790000  0.06030000  1.0 -0.292388053
C  C89  1  0.90800000  0.89620000  0.43770000  1.0 0.0898641382
C  C90  1  0.89620000  0.09200000  0.56230000  1.0 0.0898641382
C  C91  1  0.09200000  0.10380000  0.43770000  1.0 0.0898641382
C  C92  1  0.10380000  0.90800000  0.56230000  1.0 0.0898641382
C  C93  1  0.59200000  0.39620000  0.93770000  1.0 0.0898641382
C  C94  1  0.39620000  0.40800000  0.06230000  1.0 0.0898641382
C  C95  1  0.40800000  0.60380000  0.93770000  1.0 0.0898641382
C  C96  1  0.60380000  0.59200000  0.06230000  1.0 0.0898641382
C  C97  1  0.80190000  0.89680000  0.44150000  1.0 -0.2672793281
C  C98  1  0.89680000  0.19810000  0.55850000  1.0 -0.2672793281
C  C99  1  0.19810000  0.10320000  0.44150000  1.0 -0.2672793281
C  C100  1  0.10320000  0.80190000  0.55850000  1.0 -0.2672793281
C  C101  1  0.69810000  0.39680000  0.94150000  1.0 -0.2672793281
C  C102  1  0.39680000  0.30190000  0.05850000  1.0 -0.2672793281
C  C103  1  0.30190000  0.60320000  0.94150000  1.0 -0.2672793281
C  C104  1  0.60320000  0.69810000  0.05850000  1.0 -0.2672793281
C  C105  1  0.76110000  0.80580000  0.45150000  1.0 0.0189897024
C  C106  1  0.80580000  0.23890000  0.54850000  1.0 0.0189897024
C  C107  1  0.23890000  0.19420000  0.45150000  1.0 0.0189897024
C  C108  1  0.19420000  0.76110000  0.54850000  1.0 0.0189897024
C  C109  1  0.73890000  0.30580000  0.95150000  1.0 0.0189897024
C  C110  1  0.30580000  0.26110000  0.04850000  1.0 0.0189897024
C  C111  1  0.26110000  0.69420000  0.95150000  1.0 0.0189897024
C  C112  1  0.69420000  0.73890000  0.04850000  1.0 0.0189897024
C  C113  1  0.95290000  0.99830000  0.43310000  1.0 -0.1242135656
C  C114  1  0.99830000  0.04710000  0.56690000  1.0 -0.1242135656
C  C115  1  0.04710000  0.00170000  0.43310000  1.0 -0.1262834323
C  C116  1  0.00170000  0.95290000  0.56690000  1.0 -0.1262834323
C  C117  1  0.54710000  0.49830000  0.93310000  1.0 -0.1242135656
C  C118  1  0.49830000  0.45290000  0.06690000  1.0 -0.1262834323
C  C119  1  0.45290000  0.50170000  0.93310000  1.0 -0.1242135656
C  C120  1  0.50170000  0.54710000  0.06690000  1.0 -0.1262834323
N  N1  1  0.70600000  0.63910000  0.54720000  1.0 -0.5668992562
N  N2  1  0.63910000  0.29400000  0.45280000  1.0 -0.5668992562
N  N3  1  0.29400000  0.36090000  0.54720000  1.0 -0.5668992562
N  N4  1  0.36090000  0.70600000  0.45280000  1.0 -0.5668992562
N  N5  1  0.79400000  0.13910000  0.04720000  1.0 -0.5668992562
N  N6  1  0.13910000  0.20600000  0.95280000  1.0 -0.5668992562
N  N7  1  0.20600000  0.86090000  0.04720000  1.0 -0.5668992562
N  N8  1  0.86090000  0.79400000  0.95280000  1.0 -0.5668992562
N  N9  1  0.79960000  0.53220000  0.41130000  1.0 -0.2302728307
N  N10  1  0.53220000  0.20040000  0.58870000  1.0 -0.2302728307
N  N11  1  0.20040000  0.46780000  0.41130000  1.0 -0.2302728307
N  N12  1  0.46780000  0.79960000  0.58870000  1.0 -0.2302728307
N  N13  1  0.70040000  0.03220000  0.91130000  1.0 -0.2302728307
N  N14  1  0.03220000  0.29960000  0.08870000  1.0 -0.2302728307
N  N15  1  0.29960000  0.96780000  0.91130000  1.0 -0.2302728307
N  N16  1  0.96780000  0.70040000  0.08870000  1.0 -0.2302728307
N  N17  1  0.81120000  0.71760000  0.45810000  1.0 -0.2807534871
N  N18  1  0.71760000  0.18880000  0.54190000  1.0 -0.2807534871
N  N19  1  0.18880000  0.28240000  0.45810000  1.0 -0.2807534871
N  N20  1  0.28240000  0.81120000  0.54190000  1.0 -0.2807534871
N  N21  1  0.68880000  0.21760000  0.95810000  1.0 -0.2807534871
N  N22  1  0.21760000  0.31120000  0.04190000  1.0 -0.2807534871
N  N23  1  0.31120000  0.78240000  0.95810000  1.0 -0.2807534871
N  N24  1  0.78240000  0.68880000  0.04190000  1.0 -0.2807534871
O  O1  1  0.70480000  0.46700000  0.50240000  1.0 -0.5097863016
O  O2  1  0.46700000  0.29520000  0.49760000  1.0 -0.5097863016
O  O3  1  0.29520000  0.53300000  0.50240000  1.0 -0.5097863016
O  O4  1  0.53300000  0.70480000  0.49760000  1.0 -0.5097863016
O  O5  1  0.79520000  0.96700000  0.00240000  1.0 -0.5097863016
O  O6  1  0.96700000  0.20480000  0.99760000  1.0 -0.5097863016
O  O7  1  0.20480000  0.03300000  0.00240000  1.0 -0.5097863016
O  O8  1  0.03300000  0.79520000  0.99760000  1.0 -0.5097863016
O  O9  1  0.62850000  0.39340000  0.56560000  1.0 -0.4962102895
O  O10  1  0.39340000  0.37150000  0.43440000  1.0 -0.4962102895
O  O11  1  0.37150000  0.60660000  0.56560000  1.0 -0.4962102895
O  O12  1  0.60660000  0.62850000  0.43440000  1.0 -0.4962102895
O  O13  1  0.87150000  0.89340000  0.06560000  1.0 -0.4962102895
O  O14  1  0.89340000  0.12850000  0.93440000  1.0 -0.4962102895
O  O15  1  0.12850000  0.10660000  0.06560000  1.0 -0.4962102895
O  O16  1  0.10660000  0.87150000  0.93440000  1.0 -0.4962102895
O  O17  1  0.50000000  0.50000000  0.00000000  1.0 -0.1242135656
O  O18  1  0.00000000  0.00000000  0.50000000  1.0 -0.1262834323
O  O19  1  0.00000000  0.50000000  0.44500000  1.0 -0.1685089969
O  O20  1  0.50000000  0.00000000  0.55500000  1.0 -0.1685089969
O  O21  1  0.50000000  0.00000000  0.94500000  1.0 -0.1685089969
O  O22  1  0.00000000  0.50000000  0.05500000  1.0 -0.1685089969
O  O23  1  0.00000000  0.50000000  0.40500000  1.0 -0.1418097889
O  O24  1  0.50000000  0.00000000  0.59500000  1.0 -0.1418097889
O  O25  1  0.50000000  0.00000000  0.90500000  1.0 -0.1418097889
O  O26  1  0.00000000  0.50000000  0.09500000  1.0 -0.1418097889
