# DDEC6 charges by PACMAN v1.1 (https://github.com/mtap-research/PACMAN-charge/)
data_AVETEC_ion_pacman
_symmetry_space_group_name_H-M   'P 1'
_cell_length_a   21.18820000
_cell_length_b   21.18820000
_cell_length_c   21.18820000
_cell_angle_alpha   92.81330000
_cell_angle_beta   92.81330000
_cell_angle_gamma   154.40100000
_symmetry_Int_Tables_number   1
_chemical_formula_structural   Cd3H48C56(NO8)4
_chemical_formula_sum   'Cd6 H96 C112 N8 O64'
_cell_volume   4007.81398119
_cell_formula_units_Z   2
loop_
 _symmetry_equiv_pos_site_id
 _symmetry_equiv_pos_as_xyz
  1  'x, y, z'
loop_
 _atom_site_type_symbol
 _atom_site_label
 _atom_site_symmetry_multiplicity
 _atom_site_fract_x
 _atom_site_fract_y
 _atom_site_fract_z
 _atom_site_occupancy
 _atom_site_charge
Cd  Cd1  1  0.25000000  0.75000000  0.50000000  1.0 0.9498437702
Cd  Cd2  1  0.00000000  0.00000000  0.00000000  1.0 0.9498437702
Cd  Cd3  1  0.48063000  0.37500000  0.60563000  1.0 0.8228832244
Cd  Cd4  1  0.76937000  0.87500000  0.39437000  1.0 0.8228832244
Cd  Cd5  1  0.12500000  0.51937000  0.89437000  1.0 0.8228832244
Cd  Cd6  1  0.62500000  0.23063000  0.10563000  1.0 0.8228832244
H  H1  1  0.84210000  0.54660000  0.56110000  1.0 0.1293205181
H  H2  1  0.98550000  0.28100000  0.43890000  1.0 0.1293205181
H  H3  1  0.71900000  0.15790000  0.70450000  1.0 0.1293205181
H  H4  1  0.45340000  0.01450000  0.29550000  1.0 0.1293205181
H  H5  1  0.40790000  0.46900000  0.20450000  1.0 0.1293205181
H  H6  1  0.26450000  0.20340000  0.79550000  1.0 0.1293205181
H  H7  1  0.53100000  0.73550000  0.93890000  1.0 0.1293205181
H  H8  1  0.79660000  0.59210000  0.06110000  1.0 0.1293205181
H  H9  1  0.93670000  0.69910000  0.74640000  1.0 0.1217303943
H  H10  1  0.95270000  0.19030000  0.25360000  1.0 0.1217303943
H  H11  1  0.80970000  0.06330000  0.76240000  1.0 0.1217303943
H  H12  1  0.30090000  0.04730000  0.23760000  1.0 0.1217303943
H  H13  1  0.31330000  0.55970000  0.26240000  1.0 0.1217303943
H  H14  1  0.29730000  0.05090000  0.73760000  1.0 0.1217303943
H  H15  1  0.44030000  0.70270000  0.75360000  1.0 0.1217303943
H  H16  1  0.94910000  0.68670000  0.24640000  1.0 0.1217303943
H  H17  1  0.17760000  0.77700000  0.68580000  1.0 0.1217303943
H  H18  1  0.09120000  0.49180000  0.31420000  1.0 0.1217303943
H  H19  1  0.50820000  0.82240000  0.59940000  1.0 0.1217303943
H  H20  1  0.22300000  0.90880000  0.40060000  1.0 0.1217303943
H  H21  1  0.07240000  0.25820000  0.09940000  1.0 0.1217303943
H  H22  1  0.15880000  0.97300000  0.90060000  1.0 0.1217303943
H  H23  1  0.74180000  0.84120000  0.81420000  1.0 0.1217303943
H  H24  1  0.02700000  0.92760000  0.18580000  1.0 0.1217303943
H  H25  1  0.10430000  0.68160000  0.79130000  1.0 0.1125911956
H  H26  1  0.89030000  0.31300000  0.20870000  1.0 0.1125911956
H  H27  1  0.68700000  0.89570000  0.57730000  1.0 0.1125911956
H  H28  1  0.31840000  0.10970000  0.42270000  1.0 0.1125911956
H  H29  1  0.14570000  0.43700000  0.07730000  1.0 0.1125911956
H  H30  1  0.35970000  0.06840000  0.92270000  1.0 0.1125911956
H  H31  1  0.56300000  0.64030000  0.70870000  1.0 0.1125911956
H  H32  1  0.93160000  0.85430000  0.29130000  1.0 0.1125911956
H  H33  1  0.83410000  0.44680000  0.27230000  1.0 0.2567343622
H  H34  1  0.81240000  0.35960000  0.27560000  1.0 0.2353212743
H  H35  1  0.08800000  0.66470000  0.30430000  1.0 0.1293205181
H  H36  1  0.02250000  0.56840000  0.23850000  1.0 0.1125911956
H  H37  1  0.06050000  0.56680000  0.30290000  1.0 0.1217303943
H  H38  1  0.93430000  0.48830000  0.38780000  1.0 0.1379172376
H  H39  1  0.76140000  0.34210000  0.36510000  1.0 0.1293205181
H  H40  1  0.87100000  0.49920000  0.37380000  1.0 0.1379172376
H  H41  1  0.17450000  0.56180000  0.72770000  1.0 0.2567343622
H  H42  1  0.08400000  0.53680000  0.72440000  1.0 0.2353212743
H  H43  1  0.36040000  0.78370000  0.69570000  1.0 0.1293205181
H  H44  1  0.32990000  0.78400000  0.76150000  1.0 0.1125911956
H  H45  1  0.26390000  0.75760000  0.69710000  1.0 0.1217303943
H  H46  1  0.10050000  0.54650000  0.61220000  1.0 0.1379172376
H  H47  1  0.97700000  0.39630000  0.63490000  1.0 0.1293205181
H  H48  1  0.12540000  0.49720000  0.62620000  1.0 0.1379172376
H  H49  1  0.43820000  0.16590000  0.61270000  1.0 0.2567343622
H  H50  1  0.46320000  0.18760000  0.54720000  1.0 0.2353212743
H  H51  1  0.21630000  0.91200000  0.57670000  1.0 0.1293205181
H  H52  1  0.21600000  0.97750000  0.54590000  1.0 0.1125911956
H  H53  1  0.24240000  0.93950000  0.50630000  1.0 0.1217303943
H  H54  1  0.45350000  0.06570000  0.55400000  1.0 0.1379172376
H  H55  1  0.60370000  0.23860000  0.58070000  1.0 0.1293205181
H  H56  1  0.50280000  0.12900000  0.62820000  1.0 0.1379172376
H  H57  1  0.55320000  0.82550000  0.38730000  1.0 0.2567343622
H  H58  1  0.64040000  0.91600000  0.45280000  1.0 0.2353212743
H  H59  1  0.33530000  0.63960000  0.42330000  1.0 0.1293205181
H  H60  1  0.43160000  0.67010000  0.45410000  1.0 0.1125911956
H  H61  1  0.43320000  0.73610000  0.49370000  1.0 0.1217303943
H  H62  1  0.51170000  0.89950000  0.44600000  1.0 0.1379172376
H  H63  1  0.65790000  0.02300000  0.41930000  1.0 0.1293205181
H  H64  1  0.50080000  0.87460000  0.37180000  1.0 0.1379172376
H  H65  1  0.41590000  0.18820000  0.11270000  1.0 0.2567343622
H  H66  1  0.43760000  0.21320000  0.04720000  1.0 0.2353212743
H  H67  1  0.16200000  0.96630000  0.07670000  1.0 0.1293205181
H  H68  1  0.22750000  0.96600000  0.04590000  1.0 0.1125911956
H  H69  1  0.18950000  0.99240000  0.00630000  1.0 0.1217303943
H  H70  1  0.31570000  0.20350000  0.05400000  1.0 0.1379172376
H  H71  1  0.48860000  0.35370000  0.08070000  1.0 0.1293205181
H  H72  1  0.37900000  0.25280000  0.12820000  1.0 0.1379172376
H  H73  1  0.07550000  0.30320000  0.88730000  1.0 0.2567343622
H  H74  1  0.16600000  0.39040000  0.95280000  1.0 0.2353212743
H  H75  1  0.88960000  0.08530000  0.92330000  1.0 0.1293205181
H  H76  1  0.92010000  0.18160000  0.95410000  1.0 0.1125911956
H  H77  1  0.98610000  0.18320000  0.99370000  1.0 0.1217303943
H  H78  1  0.14950000  0.26170000  0.94600000  1.0 0.1379172376
H  H79  1  0.27300000  0.40790000  0.91930000  1.0 0.1293205181
H  H80  1  0.12460000  0.25080000  0.87180000  1.0 0.1379172376
H  H81  1  0.81180000  0.92450000  0.22770000  1.0 0.2567343622
H  H82  1  0.78680000  0.83400000  0.22440000  1.0 0.2353212743
H  H83  1  0.03370000  0.11040000  0.19570000  1.0 0.1293205181
H  H84  1  0.03400000  0.07990000  0.26150000  1.0 0.1125911956
H  H85  1  0.00760000  0.01390000  0.19710000  1.0 0.1217303943
H  H86  1  0.79650000  0.85050000  0.11220000  1.0 0.1379172376
H  H87  1  0.64630000  0.72700000  0.13490000  1.0 0.1293205181
H  H88  1  0.74720000  0.87540000  0.12620000  1.0 0.1379172376
H  H89  1  0.69680000  0.58410000  0.77230000  1.0 0.2567343622
H  H90  1  0.60960000  0.56240000  0.77560000  1.0 0.2353212743
H  H91  1  0.91470000  0.83800000  0.80430000  1.0 0.1293205181
H  H92  1  0.81840000  0.77250000  0.73850000  1.0 0.1125911956
H  H93  1  0.81680000  0.81050000  0.80290000  1.0 0.1217303943
H  H94  1  0.73830000  0.68430000  0.88780000  1.0 0.1379172376
H  H95  1  0.59210000  0.51140000  0.86510000  1.0 0.1293205181
H  H96  1  0.74920000  0.62100000  0.87380000  1.0 0.1379172376
C  C1  1  0.05660000  0.65580000  0.56280000  1.0 0.5356459825
C  C2  1  0.09300000  0.49380000  0.43720000  1.0 0.5356459825
C  C3  1  0.50620000  0.94340000  0.59920000  1.0 0.5356459825
C  C4  1  0.34420000  0.90700000  0.40080000  1.0 0.5356459825
C  C5  1  0.19340000  0.25620000  0.09920000  1.0 0.5356459825
C  C6  1  0.15700000  0.09420000  0.90080000  1.0 0.5356459825
C  C7  1  0.74380000  0.84300000  0.93720000  1.0 0.5356459825
C  C8  1  0.90580000  0.80660000  0.06280000  1.0 0.5356459825
C  C9  1  0.73710000  0.53750000  0.63840000  1.0 0.5313222467
C  C10  1  0.89910000  0.09870000  0.36160000  1.0 0.5313222467
C  C11  1  0.90130000  0.26290000  0.80040000  1.0 0.5313222467
C  C12  1  0.46250000  0.10090000  0.19960000  1.0 0.5313222467
C  C13  1  0.51290000  0.65130000  0.30040000  1.0 0.5313222467
C  C14  1  0.35090000  0.21250000  0.69960000  1.0 0.5313222467
C  C15  1  0.34870000  0.64910000  0.86160000  1.0 0.5313222467
C  C16  1  0.78750000  0.48710000  0.13840000  1.0 0.5313222467
C  C17  1  0.01670000  0.66320000  0.61570000  1.0 -0.0061958627
C  C18  1  0.04750000  0.40100000  0.38430000  1.0 -0.0061958627
C  C19  1  0.59900000  0.98330000  0.64650000  1.0 -0.0061958627
C  C20  1  0.33680000  0.95250000  0.35350000  1.0 -0.0061958627
C  C21  1  0.23330000  0.34900000  0.14650000  1.0 -0.0061958627
C  C22  1  0.20250000  0.08680000  0.85350000  1.0 -0.0061958627
C  C23  1  0.65100000  0.79750000  0.88430000  1.0 -0.0061958627
C  C24  1  0.91320000  0.76670000  0.11570000  1.0 -0.0061958627
C  C25  1  0.90130000  0.59970000  0.60280000  1.0 -0.131084101
C  C26  1  0.99690000  0.29850000  0.39720000  1.0 -0.131084101
C  C27  1  0.70150000  0.09870000  0.69840000  1.0 -0.131084101
C  C28  1  0.40030000  0.00310000  0.30160000  1.0 -0.131084101
C  C29  1  0.34870000  0.45150000  0.19840000  1.0 -0.131084101
C  C30  1  0.25310000  0.15030000  0.80160000  1.0 -0.131084101
C  C31  1  0.54850000  0.74690000  0.89720000  1.0 -0.131084101
C  C32  1  0.84970000  0.65130000  0.10280000  1.0 -0.131084101
C  C33  1  0.86970000  0.61300000  0.65150000  1.0 0.0063477956
C  C34  1  0.96150000  0.21820000  0.34850000  1.0 0.0063477956
C  C35  1  0.78180000  0.13030000  0.74330000  1.0 0.0063477956
C  C36  1  0.38700000  0.03850000  0.25670000  1.0 0.0063477956
C  C37  1  0.38030000  0.53180000  0.24330000  1.0 0.0063477956
C  C38  1  0.28850000  0.13700000  0.75670000  1.0 0.0063477956
C  C39  1  0.46820000  0.71150000  0.84850000  1.0 0.0063477956
C  C40  1  0.86300000  0.61970000  0.15150000  1.0 0.0063477956
C  C41  1  0.95610000  0.68910000  0.71360000  1.0 -0.1498765142
C  C42  1  0.97550000  0.24250000  0.28640000  1.0 -0.1498765142
C  C43  1  0.75750000  0.04390000  0.73300000  1.0 -0.1498765142
C  C44  1  0.31090000  0.02450000  0.26700000  1.0 -0.1498765142
C  C45  1  0.29390000  0.50750000  0.23300000  1.0 -0.1498765142
C  C46  1  0.27450000  0.06090000  0.76700000  1.0 -0.1498765142
C  C47  1  0.49250000  0.72550000  0.78640000  1.0 -0.1498765142
C  C48  1  0.93910000  0.70610000  0.21360000  1.0 -0.1498765142
C  C49  1  0.07000000  0.74950000  0.72690000  1.0 0.0755378625
C  C50  1  0.02260000  0.34310000  0.27310000  1.0 0.0755378625
C  C51  1  0.65690000  0.93000000  0.67950000  1.0 0.0755378625
C  C52  1  0.25050000  0.97740000  0.32050000  1.0 0.0755378625
C  C53  1  0.18000000  0.40690000  0.17950000  1.0 0.0755378625
C  C54  1  0.22740000  0.00050000  0.82050000  1.0 0.0755378625
C  C55  1  0.59310000  0.77260000  0.77310000  1.0 0.0755378625
C  C56  1  0.99950000  0.82000000  0.22690000  1.0 0.0755378625
C  C57  1  0.10020000  0.73590000  0.67690000  1.0 -0.1610217294
C  C58  1  0.05900000  0.42330000  0.32310000  1.0 -0.1610217294
C  C59  1  0.57670000  0.89980000  0.63570000  1.0 -0.1711362365
C  C60  1  0.26410000  0.94100000  0.36430000  1.0 -0.1610217294
C  C61  1  0.14980000  0.32670000  0.13570000  1.0 -0.1610217294
C  C62  1  0.19100000  0.01410000  0.86430000  1.0 -0.1610217294
C  C63  1  0.67330000  0.80900000  0.82310000  1.0 -0.1610217294
C  C64  1  0.98590000  0.85020000  0.17690000  1.0 -0.1610217294
C  C65  1  0.21980000  0.73610000  0.89450000  1.0 0.4092827349
C  C66  1  0.84160000  0.32530000  0.10550000  1.0 0.4092827349
C  C67  1  0.67470000  0.78020000  0.51630000  1.0 0.4092827349
C  C68  1  0.26390000  0.15840000  0.48370000  1.0 0.4092827349
C  C69  1  0.03020000  0.42470000  0.01630000  1.0 0.4092827349
C  C70  1  0.40840000  0.01390000  0.98370000  1.0 0.4092827349
C  C71  1  0.57530000  0.59160000  0.60550000  1.0 0.4092827349
C  C72  1  0.98610000  0.96980000  0.39450000  1.0 0.4092827349
C  C73  1  0.24070000  0.82020000  0.88110000  1.0 -0.0809962523
C  C74  1  0.93910000  0.35960000  0.11890000  1.0 -0.0809962523
C  C75  1  0.64040000  0.75930000  0.57950000  1.0 -0.0809962523
C  C76  1  0.17980000  0.06090000  0.42050000  1.0 -0.0809962523
C  C77  1  0.00930000  0.39040000  0.07950000  1.0 -0.0809962523
C  C78  1  0.31090000  0.92980000  0.92050000  1.0 -0.0809962523
C  C79  1  0.60960000  0.68910000  0.61890000  1.0 -0.0809962523
C  C80  1  0.07020000  0.99070000  0.38110000  1.0 -0.0809962523
C  C81  1  0.15890000  0.76270000  0.81800000  1.0 -0.1610217294
C  C82  1  0.94470000  0.34090000  0.18200000  1.0 -0.1610217294
C  C83  1  0.65910000  0.84110000  0.60380000  1.0 -0.1610217294
C  C84  1  0.23730000  0.05530000  0.39620000  1.0 -0.1610217294
C  C85  1  0.09110000  0.40910000  0.10380000  1.0 -0.1610217294
C  C86  1  0.30530000  0.98730000  0.89620000  1.0 -0.1610217294
C  C87  1  0.59090000  0.69470000  0.68200000  1.0 -0.1610217294
C  C88  1  0.01270000  0.90890000  0.31800000  1.0 -0.1610217294
C  C89  1  0.15690000  0.81870000  0.79560000  1.0 0.0432105067
C  C90  1  0.02310000  0.36130000  0.20440000  1.0 0.0432105067
C  C91  1  0.63870000  0.84310000  0.66180000  1.0 0.0432105067
C  C92  1  0.18130000  0.97690000  0.33820000  1.0 0.0432105067
C  C93  1  0.09310000  0.38870000  0.16180000  1.0 0.0432105067
C  C94  1  0.22690000  0.93130000  0.83820000  1.0 0.0432105067
C  C95  1  0.61130000  0.77310000  0.70440000  1.0 0.0432105067
C  C96  1  0.06870000  0.90690000  0.29560000  1.0 0.0432105067
C  C97  1  0.02370000  0.57230000  0.28400000  1.0 -0.3075419904
C  C98  1  0.85870000  0.44410000  0.36080000  1.0 -0.2830125035
C  C99  1  0.28830000  0.73970000  0.71600000  1.0 -0.3075419904
C  C100  1  0.08330000  0.49790000  0.63920000  1.0 -0.2830125035
C  C101  1  0.26030000  0.97630000  0.54860000  1.0 -0.3075419904
C  C102  1  0.50210000  0.14130000  0.58540000  1.0 -0.2830125035
C  C103  1  0.42770000  0.71170000  0.45140000  1.0 -0.3075419904
C  C104  1  0.55590000  0.91670000  0.41460000  1.0 -0.2830125035
C  C105  1  0.22630000  0.01030000  0.04860000  1.0 -0.3075419904
C  C106  1  0.39130000  0.25210000  0.08540000  1.0 -0.2830125035
C  C107  1  0.96170000  0.17770000  0.95140000  1.0 -0.3075419904
C  C108  1  0.16670000  0.30590000  0.91460000  1.0 -0.2830125035
C  C109  1  0.98970000  0.03830000  0.21600000  1.0 -0.3075419904
C  C110  1  0.74790000  0.83330000  0.13920000  1.0 -0.2830125035
C  C111  1  0.82230000  0.77370000  0.78400000  1.0 -0.3075419904
C  C112  1  0.69410000  0.60870000  0.86080000  1.0 -0.2830125035
N  N1  1  0.87040000  0.44520000  0.29360000  1.0 -0.1112007077
N  N2  1  0.15160000  0.57680000  0.70640000  1.0 -0.1112007077
N  N3  1  0.42320000  0.12960000  0.57480000  1.0 -0.1112007077
N  N4  1  0.55480000  0.84840000  0.42520000  1.0 -0.1112007077
N  N5  1  0.37960000  0.17320000  0.07480000  1.0 -0.1112007077
N  N6  1  0.09840000  0.30480000  0.92520000  1.0 -0.1112007077
N  N7  1  0.82680000  0.90160000  0.20640000  1.0 -0.1112007077
N  N8  1  0.69520000  0.62040000  0.79360000  1.0 -0.1112007077
O  O1  1  0.17010000  0.72460000  0.57910000  1.0 -0.534597689
O  O2  1  0.14550000  0.59100000  0.42090000  1.0 -0.534597689
O  O3  1  0.40900000  0.82990000  0.55450000  1.0 -0.5355321706
O  O4  1  0.27540000  0.85450000  0.44550000  1.0 -0.5355321706
O  O5  1  0.07990000  0.15900000  0.05450000  1.0 -0.5355321706
O  O6  1  0.10450000  0.02540000  0.94550000  1.0 -0.5355321706
O  O7  1  0.84100000  0.89550000  0.92090000  1.0 -0.5355321706
O  O8  1  0.97460000  0.92010000  0.07910000  1.0 -0.534597689
O  O9  1  0.97490000  0.57910000  0.50940000  1.0 -0.5021976695
O  O10  1  0.06970000  0.46550000  0.49060000  1.0 -0.5021976695
O  O11  1  0.53450000  0.02510000  0.60420000  1.0 -0.5021976695
O  O12  1  0.42090000  0.93030000  0.39580000  1.0 -0.5021976695
O  O13  1  0.27510000  0.28450000  0.10420000  1.0 -0.5021976695
O  O14  1  0.18030000  0.17090000  0.89580000  1.0 -0.5021976695
O  O15  1  0.71550000  0.81970000  0.99060000  1.0 -0.5021976695
O  O16  1  0.82910000  0.72490000  0.00940000  1.0 -0.5021976695
O  O17  1  0.65380000  0.45875000  0.58375000  1.0 -0.5498201714
O  O18  1  0.87500000  0.07005000  0.41625000  1.0 -0.5498201714
O  O19  1  0.92995000  0.34620000  0.80495000  1.0 -0.5498201714
O  O20  1  0.54125000  0.12500000  0.19505000  1.0 -0.5498201714
O  O21  1  0.59620000  0.67995000  0.30495000  1.0 -0.5498201714
O  O22  1  0.37500000  0.29125000  0.69505000  1.0 -0.5498201714
O  O23  1  0.32005000  0.62500000  0.91625000  1.0 -0.5498201714
O  O24  1  0.70875000  0.40380000  0.08375000  1.0 -0.5498201714
O  O25  1  0.71590000  0.55520000  0.68210000  1.0 -0.5498201714
O  O26  1  0.87310000  0.03380000  0.31790000  1.0 -0.5498201714
O  O27  1  0.96620000  0.28410000  0.83930000  1.0 -0.5498201714
O  O28  1  0.44480000  0.12690000  0.16070000  1.0 -0.5498201714
O  O29  1  0.53410000  0.71620000  0.33930000  1.0 -0.5498201714
O  O30  1  0.37690000  0.19480000  0.66070000  1.0 -0.5498201714
O  O31  1  0.28380000  0.62310000  0.81790000  1.0 -0.5498201714
O  O32  1  0.80520000  0.46590000  0.18210000  1.0 -0.5498201714
O  O33  1  0.14570000  0.62950000  0.86320000  1.0 -0.0529544369
O  O34  1  0.76630000  0.28250000  0.13680000  1.0 -0.0555013248
O  O35  1  0.71750000  0.85430000  0.48380000  1.0 -0.0529544369
O  O36  1  0.37050000  0.23370000  0.51620000  1.0 -0.0529544369
O  O37  1  0.10430000  0.46750000  0.98380000  1.0 -0.0529544369
O  O38  1  0.48370000  0.12050000  0.01620000  1.0 -0.0529544369
O  O39  1  0.53250000  0.51630000  0.63680000  1.0 -0.0529544369
O  O40  1  0.87950000  0.89570000  0.36320000  1.0 -0.0529544369
O  O41  1  0.30370000  0.79970000  0.95300000  1.0 -0.1711362365
O  O42  1  0.84670000  0.35070000  0.04700000  1.0 -0.1758877427
O  O43  1  0.64930000  0.69630000  0.49600000  1.0 -0.1711362365
O  O44  1  0.20030000  0.15330000  0.50400000  1.0 -0.1711362365
O  O45  1  0.94630000  0.39930000  0.99600000  1.0 -0.1711362365
O  O46  1  0.40330000  0.95030000  0.00400000  1.0 -0.1711362365
O  O47  1  0.60070000  0.59670000  0.54700000  1.0 -0.1711362365
O  O48  1  0.04970000  0.05370000  0.45300000  1.0 -0.1711362365
O  O49  1  0.28900000  0.75430000  0.88130000  1.0 -0.0701002588
O  O50  1  0.87300000  0.40770000  0.11870000  1.0 -0.0701002588
O  O51  1  0.59230000  0.71100000  0.46530000  1.0 -0.0701002588
O  O52  1  0.24570000  0.12700000  0.53470000  1.0 -0.0701002588
O  O53  1  0.96100000  0.34230000  0.96530000  1.0 -0.0701002588
O  O54  1  0.37700000  0.99570000  0.03470000  1.0 -0.0701002588
O  O55  1  0.65770000  0.62300000  0.61870000  1.0 -0.0701002588
O  O56  1  0.00430000  0.03900000  0.38130000  1.0 -0.0701002588
O  O57  1  0.11240000  0.62050000  0.92090000  1.0 -0.1711362365
O  O58  1  0.69960000  0.19150000  0.07910000  1.0 -0.1711362365
O  O59  1  0.80850000  0.88760000  0.50810000  1.0 -0.1711362365
O  O60  1  0.37950000  0.30040000  0.49190000  1.0 -0.1711362365
O  O61  1  0.13760000  0.55850000  0.00810000  1.0 -0.1711362365
O  O62  1  0.55040000  0.12950000  0.99190000  1.0 -0.1711362365
O  O63  1  0.44150000  0.44960000  0.57910000  1.0 -0.1711362365
O  O64  1  0.87050000  0.86240000  0.42090000  1.0 -0.1711362365
