# DDEC6 charges by PACMAN v1.1 (https://github.com/mtap-research/PACMAN-charge/)
data_AVOREL_ASR_pacman
_symmetry_space_group_name_H-M   'P 1'
_cell_length_a   11.59380000
_cell_length_b   11.59380000
_cell_length_c   23.25000000
_cell_angle_alpha   84.66800000
_cell_angle_beta   95.33200000
_cell_angle_gamma   97.49750000
_symmetry_Int_Tables_number   1
_chemical_formula_structural   Ni3H32C50(N3O7)2
_chemical_formula_sum   'Ni6 H64 C100 N12 O28'
_cell_volume   3074.69894278
_cell_formula_units_Z   2
loop_
 _symmetry_equiv_pos_site_id
 _symmetry_equiv_pos_as_xyz
  1  'x, y, z'
loop_
 _atom_site_type_symbol
 _atom_site_label
 _atom_site_symmetry_multiplicity
 _atom_site_fract_x
 _atom_site_fract_y
 _atom_site_fract_z
 _atom_site_occupancy
 _atom_site_charge
Ni  Ni1  1  0.66209000  0.30647000  0.70102000  1.0 0.6469920582
Ni  Ni2  1  0.30647000  0.66209000  0.79898000  1.0 0.644674709
Ni  Ni3  1  0.33791000  0.69353000  0.29898000  1.0 0.6469920582
Ni  Ni4  1  0.69353000  0.33791000  0.20102000  1.0 0.6469920582
Ni  Ni5  1  0.00000000  0.00000000  0.50000000  1.0 0.6857231762
Ni  Ni6  1  0.00000000  0.00000000  0.00000000  1.0 0.6857231762
H  H1  1  0.75802000  0.50862000  0.50044000  1.0 0.147157322
H  H2  1  0.03434000  0.59150000  0.64970000  1.0 0.1297781448
H  H3  1  0.21418000  0.31984000  0.64879000  1.0 0.1398163115
H  H4  1  0.94388000  0.35796000  0.53113000  1.0 0.1398163115
H  H5  1  0.57884000  0.44166000  0.78866000  1.0 0.11759185
H  H6  1  0.63764000  0.59138000  0.84580000  1.0 0.147157322
H  H7  1  0.95041000  0.62449000  0.78106000  1.0 0.147157322
H  H8  1  0.87958000  0.47718000  0.72428000  1.0 0.1098897755
H  H9  1  0.69797000  0.79123000  0.86425000  1.0 0.1398163115
H  H10  1  0.77353000  0.92369000  0.92792000  1.0 0.11759185
H  H11  1  0.07675000  0.81243000  0.93832000  1.0 0.1297781448
H  H12  1  0.01222000  0.68172000  0.87256000  1.0 0.1398163115
H  H13  1  0.79201000  0.18589000  0.80388000  1.0 0.11759185
H  H14  1  0.93219000  0.06383000  0.82558000  1.0 0.1398163115
H  H15  1  0.00634000  0.11518000  0.66088000  1.0 0.1398163115
H  H16  1  0.86526000  0.23574000  0.64510000  1.0 0.1098897755
H  H17  1  0.50862000  0.75802000  0.99956000  1.0 0.147157322
H  H18  1  0.59150000  0.03434000  0.85030000  1.0 0.1297781448
H  H19  1  0.31984000  0.21418000  0.85121000  1.0 0.1398163115
H  H20  1  0.35796000  0.94388000  0.96887000  1.0 0.1398163115
H  H21  1  0.44166000  0.57884000  0.71134000  1.0 0.11759185
H  H22  1  0.59138000  0.63764000  0.65420000  1.0 0.147157322
H  H23  1  0.62449000  0.95041000  0.71894000  1.0 0.147157322
H  H24  1  0.47718000  0.87958000  0.77572000  1.0 0.1098897755
H  H25  1  0.79123000  0.69797000  0.63575000  1.0 0.1398163115
H  H26  1  0.92369000  0.77353000  0.57208000  1.0 0.11759185
H  H27  1  0.81243000  0.07675000  0.56168000  1.0 0.1297781448
H  H28  1  0.68172000  0.01222000  0.62744000  1.0 0.1398163115
H  H29  1  0.18589000  0.79201000  0.69612000  1.0 0.11759185
H  H30  1  0.06383000  0.93219000  0.67442000  1.0 0.1398163115
H  H31  1  0.11518000  0.00634000  0.83912000  1.0 0.1398163115
H  H32  1  0.23574000  0.86526000  0.85490000  1.0 0.1098897755
H  H33  1  0.24198000  0.49138000  0.49956000  1.0 0.147157322
H  H34  1  0.96566000  0.40850000  0.35030000  1.0 0.1297781448
H  H35  1  0.78582000  0.68016000  0.35121000  1.0 0.1398163115
H  H36  1  0.05612000  0.64204000  0.46887000  1.0 0.1398163115
H  H37  1  0.42116000  0.55834000  0.21134000  1.0 0.11759185
H  H38  1  0.36236000  0.40862000  0.15420000  1.0 0.147157322
H  H39  1  0.04959000  0.37551000  0.21894000  1.0 0.147157322
H  H40  1  0.12042000  0.52282000  0.27572000  1.0 0.1098897755
H  H41  1  0.30203000  0.20877000  0.13575000  1.0 0.1398163115
H  H42  1  0.22647000  0.07631000  0.07208000  1.0 0.11759185
H  H43  1  0.92325000  0.18757000  0.06168000  1.0 0.1297781448
H  H44  1  0.98778000  0.31828000  0.12744000  1.0 0.1398163115
H  H45  1  0.20799000  0.81411000  0.19612000  1.0 0.11759185
H  H46  1  0.06781000  0.93617000  0.17442000  1.0 0.1398163115
H  H47  1  0.99366000  0.88482000  0.33912000  1.0 0.1398163115
H  H48  1  0.13474000  0.76426000  0.35490000  1.0 0.1098897755
H  H49  1  0.49138000  0.24198000  0.00044000  1.0 0.147157322
H  H50  1  0.40850000  0.96566000  0.14970000  1.0 0.1297781448
H  H51  1  0.68016000  0.78582000  0.14879000  1.0 0.1398163115
H  H52  1  0.64204000  0.05612000  0.03113000  1.0 0.1398163115
H  H53  1  0.55834000  0.42116000  0.28866000  1.0 0.11759185
H  H54  1  0.40862000  0.36236000  0.34580000  1.0 0.147157322
H  H55  1  0.37551000  0.04959000  0.28106000  1.0 0.147157322
H  H56  1  0.52282000  0.12042000  0.22428000  1.0 0.1098897755
H  H57  1  0.20877000  0.30203000  0.36425000  1.0 0.1398163115
H  H58  1  0.07631000  0.22647000  0.42792000  1.0 0.11759185
H  H59  1  0.18757000  0.92325000  0.43832000  1.0 0.1297781448
H  H60  1  0.31828000  0.98778000  0.37256000  1.0 0.1398163115
H  H61  1  0.81411000  0.20799000  0.30388000  1.0 0.11759185
H  H62  1  0.93617000  0.06781000  0.32558000  1.0 0.1398163115
H  H63  1  0.88482000  0.99366000  0.16088000  1.0 0.1398163115
H  H64  1  0.76426000  0.13474000  0.14510000  1.0 0.1098897755
C  C1  1  0.72240000  0.39440000  0.57880000  1.0 0.5450680163
C  C2  1  0.78430000  0.49110000  0.53890000  1.0 -0.0944359228
C  C3  1  0.97400000  0.48480000  0.58620000  1.0 0.2403885852
C  C4  1  0.04600000  0.52340000  0.63400000  1.0 -0.2278792057
C  C5  1  0.13380000  0.46080000  0.65780000  1.0 0.0059327839
C  C6  1  0.15390000  0.36150000  0.63300000  1.0 -0.1304774564
C  C7  1  0.08430000  0.32410000  0.58460000  1.0 -0.0098801963
C  C8  1  0.99290000  0.38470000  0.56230000  1.0 -0.219924504
C  C9  1  0.20280000  0.49180000  0.71410000  1.0 0.5398741735
C  C10  1  0.10220000  0.21080000  0.56160000  1.0 0.5398741735
C  C11  1  0.65470000  0.47910000  0.78730000  1.0 0.0813990537
C  C12  1  0.68930000  0.56910000  0.82180000  1.0 -0.1742349919
C  C13  1  0.80130000  0.62630000  0.82080000  1.0 0.1098897755
C  C14  1  0.87410000  0.58890000  0.78320000  1.0 -0.1889964212
C  C15  1  0.83120000  0.49940000  0.74990000  1.0 0.0813990537
C  C16  1  0.84610000  0.71770000  0.86080000  1.0 0.1098897755
C  C17  1  0.77590000  0.79410000  0.87850000  1.0 -0.1782019046
C  C18  1  0.82190000  0.87310000  0.91690000  1.0 0.0813990537
C  C19  1  0.99960000  0.80900000  0.92270000  1.0 0.0869953763
C  C20  1  0.96090000  0.72910000  0.88380000  1.0 -0.1782019046
C  C21  1  0.83500000  0.17000000  0.77430000  1.0 0.0813990537
C  C22  1  0.91900000  0.09600000  0.78770000  1.0 -0.1889964212
C  C23  1  0.98480000  0.06920000  0.74420000  1.0 0.11759185
C  C24  1  0.96290000  0.12590000  0.69120000  1.0 -0.1782019046
C  C25  1  0.87740000  0.19880000  0.68200000  1.0 0.0813990537
C  C26  1  0.39440000  0.72240000  0.92120000  1.0 0.5398741735
C  C27  1  0.49110000  0.78430000  0.96110000  1.0 -0.0944359228
C  C28  1  0.48480000  0.97400000  0.91380000  1.0 0.2403885852
C  C29  1  0.52340000  0.04600000  0.86600000  1.0 -0.2278792057
C  C30  1  0.46080000  0.13380000  0.84220000  1.0 0.0059327839
C  C31  1  0.36150000  0.15390000  0.86700000  1.0 -0.1304774564
C  C32  1  0.32410000  0.08430000  0.91540000  1.0 -0.0098801963
C  C33  1  0.38470000  0.99290000  0.93770000  1.0 -0.219924504
C  C34  1  0.49180000  0.20280000  0.78590000  1.0 0.5398741735
C  C35  1  0.21080000  0.10220000  0.93840000  1.0 0.5398741735
C  C36  1  0.47910000  0.65470000  0.71270000  1.0 0.0813990537
C  C37  1  0.56910000  0.68930000  0.67820000  1.0 -0.1742349919
C  C38  1  0.62630000  0.80130000  0.67920000  1.0 0.1098897755
C  C39  1  0.58890000  0.87410000  0.71680000  1.0 -0.1889964212
C  C40  1  0.49940000  0.83120000  0.75010000  1.0 0.0813990537
C  C41  1  0.71770000  0.84610000  0.63920000  1.0 0.1098897755
C  C42  1  0.79410000  0.77590000  0.62150000  1.0 -0.1782019046
C  C43  1  0.87310000  0.82190000  0.58310000  1.0 0.0813990537
C  C44  1  0.80900000  0.99960000  0.57730000  1.0 0.0869953763
C  C45  1  0.72910000  0.96090000  0.61620000  1.0 -0.1782019046
C  C46  1  0.17000000  0.83500000  0.72570000  1.0 0.0813990537
C  C47  1  0.09600000  0.91900000  0.71230000  1.0 -0.1889964212
C  C48  1  0.06920000  0.98480000  0.75580000  1.0 0.11759185
C  C49  1  0.12590000  0.96290000  0.80880000  1.0 -0.1782019046
C  C50  1  0.19880000  0.87740000  0.81800000  1.0 0.0813990537
C  C51  1  0.27760000  0.60560000  0.42120000  1.0 0.5450680163
C  C52  1  0.21570000  0.50890000  0.46110000  1.0 -0.0944359228
C  C53  1  0.02600000  0.51520000  0.41380000  1.0 0.2403885852
C  C54  1  0.95400000  0.47660000  0.36600000  1.0 -0.2278792057
C  C55  1  0.86620000  0.53920000  0.34220000  1.0 0.0059327839
C  C56  1  0.84610000  0.63850000  0.36700000  1.0 -0.1304774564
C  C57  1  0.91570000  0.67590000  0.41540000  1.0 -0.0098801963
C  C58  1  0.00710000  0.61530000  0.43770000  1.0 -0.219924504
C  C59  1  0.79720000  0.50820000  0.28590000  1.0 0.5398741735
C  C60  1  0.89780000  0.78920000  0.43840000  1.0 0.5398741735
C  C61  1  0.34530000  0.52090000  0.21270000  1.0 0.0813990537
C  C62  1  0.31070000  0.43090000  0.17820000  1.0 -0.1742349919
C  C63  1  0.19870000  0.37370000  0.17920000  1.0 0.1098897755
C  C64  1  0.12590000  0.41110000  0.21680000  1.0 -0.1889964212
C  C65  1  0.16880000  0.50060000  0.25010000  1.0 0.0813990537
C  C66  1  0.15390000  0.28230000  0.13920000  1.0 0.1098897755
C  C67  1  0.22410000  0.20590000  0.12150000  1.0 -0.1782019046
C  C68  1  0.17810000  0.12690000  0.08310000  1.0 0.0813990537
C  C69  1  0.00040000  0.19100000  0.07730000  1.0 0.0869953763
C  C70  1  0.03910000  0.27090000  0.11620000  1.0 -0.1782019046
C  C71  1  0.16500000  0.83000000  0.22570000  1.0 0.0813990537
C  C72  1  0.08100000  0.90400000  0.21230000  1.0 -0.1889964212
C  C73  1  0.01520000  0.93080000  0.25580000  1.0 0.11759185
C  C74  1  0.03710000  0.87410000  0.30880000  1.0 -0.1782019046
C  C75  1  0.12260000  0.80120000  0.31800000  1.0 0.0813990537
C  C76  1  0.60560000  0.27760000  0.07880000  1.0 0.5450680163
C  C77  1  0.50890000  0.21570000  0.03890000  1.0 -0.0944359228
C  C78  1  0.51520000  0.02600000  0.08620000  1.0 0.2403885852
C  C79  1  0.47660000  0.95400000  0.13400000  1.0 -0.2278792057
C  C80  1  0.53920000  0.86620000  0.15780000  1.0 0.0059327839
C  C81  1  0.63850000  0.84610000  0.13300000  1.0 -0.1304774564
C  C82  1  0.67590000  0.91570000  0.08460000  1.0 -0.0098801963
C  C83  1  0.61530000  0.00710000  0.06230000  1.0 -0.219924504
C  C84  1  0.50820000  0.79720000  0.21410000  1.0 0.5398741735
C  C85  1  0.78920000  0.89780000  0.06160000  1.0 0.5398741735
C  C86  1  0.52090000  0.34530000  0.28730000  1.0 0.0813990537
C  C87  1  0.43090000  0.31070000  0.32180000  1.0 -0.1742349919
C  C88  1  0.37370000  0.19870000  0.32080000  1.0 0.1098897755
C  C89  1  0.41110000  0.12590000  0.28320000  1.0 -0.1889964212
C  C90  1  0.50060000  0.16880000  0.24990000  1.0 0.0813990537
C  C91  1  0.28230000  0.15390000  0.36080000  1.0 0.1098897755
C  C92  1  0.20590000  0.22410000  0.37850000  1.0 -0.1782019046
C  C93  1  0.12690000  0.17810000  0.41690000  1.0 0.0813990537
C  C94  1  0.19100000  0.00040000  0.42270000  1.0 0.0869953763
C  C95  1  0.27090000  0.03910000  0.38380000  1.0 -0.1782019046
C  C96  1  0.83000000  0.16500000  0.27430000  1.0 0.0813990537
C  C97  1  0.90400000  0.08100000  0.28770000  1.0 -0.1889964212
C  C98  1  0.93080000  0.01520000  0.24420000  1.0 0.11759185
C  C99  1  0.87410000  0.03710000  0.19120000  1.0 -0.1782019046
C  C100  1  0.80120000  0.12260000  0.18200000  1.0 0.0813990537
N  N1  1  0.72390000  0.44230000  0.75200000  1.0 -0.2069810853
N  N2  1  0.81200000  0.21960000  0.72200000  1.0 -0.1999053601
N  N3  1  0.93310000  0.88230000  0.93960000  1.0 -0.2069810853
N  N4  1  0.44230000  0.72390000  0.74800000  1.0 -0.2069810853
N  N5  1  0.21960000  0.81200000  0.77800000  1.0 -0.1999053601
N  N6  1  0.88230000  0.93310000  0.56040000  1.0 -0.2069810853
N  N7  1  0.27610000  0.55770000  0.24800000  1.0 -0.2069810853
N  N8  1  0.18800000  0.78040000  0.27800000  1.0 -0.1999053601
N  N9  1  0.06690000  0.11770000  0.06040000  1.0 -0.2069810853
N  N10  1  0.55770000  0.27610000  0.25200000  1.0 -0.2069810853
N  N11  1  0.78040000  0.18800000  0.22200000  1.0 -0.1999053601
N  N12  1  0.11770000  0.06690000  0.43960000  1.0 -0.2069810853
O  O1  1  0.73840000  0.40320000  0.63157000  1.0 -0.5542640899
O  O2  1  0.65790000  0.31430000  0.55400000  1.0 -0.5827417169
O  O3  1  0.88600000  0.55120000  0.56659000  1.0 -0.1409862135
O  O4  1  0.21070000  0.59370000  0.72818000  1.0 -0.5600952855
O  O5  1  0.25200000  0.41220000  0.74070000  1.0 -0.4905376081
O  O6  1  0.19910000  0.17450000  0.57170000  1.0 -0.5323960874
O  O7  1  0.01610000  0.15970000  0.53401000  1.0 -0.5542640899
O  O8  1  0.40320000  0.73840000  0.86843000  1.0 -0.5542640899
O  O9  1  0.31430000  0.65790000  0.94600000  1.0 -0.5827417169
O  O10  1  0.55120000  0.88600000  0.93341000  1.0 -0.1409862135
O  O11  1  0.59370000  0.21070000  0.77182000  1.0 -0.5600952855
O  O12  1  0.41220000  0.25200000  0.75930000  1.0 -0.4905376081
O  O13  1  0.17450000  0.19910000  0.92830000  1.0 -0.5323960874
O  O14  1  0.15970000  0.01610000  0.96599000  1.0 -0.5600952855
O  O15  1  0.26160000  0.59680000  0.36843000  1.0 -0.5542640899
O  O16  1  0.34210000  0.68570000  0.44600000  1.0 -0.5827417169
O  O17  1  0.11400000  0.44880000  0.43341000  1.0 -0.1409862135
O  O18  1  0.78930000  0.40630000  0.27182000  1.0 -0.5600952855
O  O19  1  0.74800000  0.58780000  0.25930000  1.0 -0.4905376081
O  O20  1  0.80090000  0.82550000  0.42830000  1.0 -0.5323960874
O  O21  1  0.98390000  0.84030000  0.46599000  1.0 -0.5600952855
O  O22  1  0.59680000  0.26160000  0.13157000  1.0 -0.5542640899
O  O23  1  0.68570000  0.34210000  0.05400000  1.0 -0.5827417169
O  O24  1  0.44880000  0.11400000  0.06659000  1.0 -0.1409862135
O  O25  1  0.40630000  0.78930000  0.22818000  1.0 -0.5600952855
O  O26  1  0.58780000  0.74800000  0.24070000  1.0 -0.4905376081
O  O27  1  0.82550000  0.80090000  0.07170000  1.0 -0.5323960874
O  O28  1  0.84030000  0.98390000  0.03401000  1.0 -0.5600952855
