# DDEC6 charges by PACMAN v1.1 (https://github.com/mtap-research/PACMAN-charge/)
data_AVUDAX_FSR_pacman
_symmetry_space_group_name_H-M   'P 1'
_cell_length_a   16.76400000
_cell_length_b   13.20120000
_cell_length_c   24.58700000
_cell_angle_alpha   90.00000000
_cell_angle_beta   115.50200000
_cell_angle_gamma   90.00000000
_symmetry_Int_Tables_number   1
_chemical_formula_structural   CuH20C20(N6Cl)2
_chemical_formula_sum   'Cu6 H120 C120 N72 Cl12'
_cell_volume   4911.08692973
_cell_formula_units_Z   6
loop_
 _symmetry_equiv_pos_site_id
 _symmetry_equiv_pos_as_xyz
  1  'x, y, z'
loop_
 _atom_site_type_symbol
 _atom_site_label
 _atom_site_symmetry_multiplicity
 _atom_site_fract_x
 _atom_site_fract_y
 _atom_site_fract_z
 _atom_site_occupancy
 _atom_site_charge
Cu  Cu1  1  0.41003000  0.28924000  0.24844000  1.0 0.6698248407
Cu  Cu2  1  0.58997000  0.78924000  0.25156000  1.0 0.6698248407
Cu  Cu3  1  0.58997000  0.71076000  0.75156000  1.0 0.6698248407
Cu  Cu4  1  0.41003000  0.21076000  0.74844000  1.0 0.6698248407
Cu  Cu5  1  0.00000000  0.00000000  0.00000000  1.0 0.6616373381
Cu  Cu6  1  0.00000000  0.50000000  0.50000000  1.0 0.6616373381
H  H1  1  0.27890000  0.34700000  0.30990000  1.0 0.1115551445
H  H2  1  0.72110000  0.84700000  0.19010000  1.0 0.1115551445
H  H3  1  0.72110000  0.65300000  0.69010000  1.0 0.1115551445
H  H4  1  0.27890000  0.15300000  0.80990000  1.0 0.1115551445
H  H5  1  0.37200000  0.08740000  0.29770000  1.0 0.1213687295
H  H6  1  0.62800000  0.58740000  0.20230000  1.0 0.1213687295
H  H7  1  0.62800000  0.91260000  0.70230000  1.0 0.1213687295
H  H8  1  0.37200000  0.41260000  0.79770000  1.0 0.1213687295
H  H9  1  0.27550000  0.97580000  0.33540000  1.0 0.1288716957
H  H10  1  0.72450000  0.47580000  0.16460000  1.0 0.1288716957
H  H11  1  0.72450000  0.02420000  0.66460000  1.0 0.1288716957
H  H12  1  0.27550000  0.52420000  0.83540000  1.0 0.1288716957
H  H13  1  0.20180000  0.03410000  0.34560000  1.0 0.1288716957
H  H14  1  0.79820000  0.53410000  0.15440000  1.0 0.1288716957
H  H15  1  0.79820000  0.96590000  0.65440000  1.0 0.1288716957
H  H16  1  0.20180000  0.46590000  0.84560000  1.0 0.1288716957
H  H17  1  0.39660000  0.23690000  0.61680000  1.0 0.1213687295
H  H18  1  0.60340000  0.73690000  0.88320000  1.0 0.1288716957
H  H19  1  0.60340000  0.76310000  0.38320000  1.0 0.1288716957
H  H20  1  0.39660000  0.26310000  0.11680000  1.0 0.1288716957
H  H21  1  0.57640000  0.08590000  0.74820000  1.0 0.1213687295
H  H22  1  0.42360000  0.58590000  0.75180000  1.0 0.1213687295
H  H23  1  0.42360000  0.91410000  0.25180000  1.0 0.1213687295
H  H24  1  0.57640000  0.41410000  0.24820000  1.0 0.1213687295
H  H25  1  0.54210000  0.13500000  0.55720000  1.0 0.1288716957
H  H26  1  0.45790000  0.63500000  0.94280000  1.0 0.1288716957
H  H27  1  0.45790000  0.86500000  0.44280000  1.0 0.1288716957
H  H28  1  0.54210000  0.36500000  0.05720000  1.0 0.1288716957
H  H29  1  0.46590000  0.21480000  0.53990000  1.0 0.1288716957
H  H30  1  0.53410000  0.71480000  0.96010000  1.0 0.1288716957
H  H31  1  0.53410000  0.78520000  0.46010000  1.0 0.1288716957
H  H32  1  0.46590000  0.28520000  0.03990000  1.0 0.1288716957
H  H33  1  0.48240000  0.71420000  0.60950000  1.0 0.1213687295
H  H34  1  0.51760000  0.21420000  0.89050000  1.0 0.1213687295
H  H35  1  0.51760000  0.28580000  0.39050000  1.0 0.1213687295
H  H36  1  0.48240000  0.78580000  0.10950000  1.0 0.1213687295
H  H37  1  0.40910000  0.84420000  0.72140000  1.0 0.1213687295
H  H38  1  0.59090000  0.34420000  0.77860000  1.0 0.1213687295
H  H39  1  0.59090000  0.15580000  0.27860000  1.0 0.1213687295
H  H40  1  0.40910000  0.65580000  0.22140000  1.0 0.1213687295
H  H41  1  0.26850000  0.80030000  0.52000000  1.0 0.1288716957
H  H42  1  0.73150000  0.30030000  0.98000000  1.0 0.1288716957
H  H43  1  0.73150000  0.19970000  0.48000000  1.0 0.1288716957
H  H44  1  0.26850000  0.69970000  0.02000000  1.0 0.1288716957
H  H45  1  0.34980000  0.75470000  0.51290000  1.0 0.1288716957
H  H46  1  0.65020000  0.25470000  0.98710000  1.0 0.1288716957
H  H47  1  0.65020000  0.24530000  0.48710000  1.0 0.1288716957
H  H48  1  0.34980000  0.74530000  0.01290000  1.0 0.1288716957
H  H49  1  0.26270000  0.88060000  0.42310000  1.0 0.1288716957
H  H50  1  0.73730000  0.38060000  0.07690000  1.0 0.1288716957
H  H51  1  0.73730000  0.11940000  0.57690000  1.0 0.1288716957
H  H52  1  0.26270000  0.61940000  0.92310000  1.0 0.1288716957
H  H53  1  0.38340000  0.14830000  0.44270000  1.0 0.1213687295
H  H54  1  0.61660000  0.64830000  0.05730000  1.0 0.1213687295
H  H55  1  0.61660000  0.85170000  0.55730000  1.0 0.1213687295
H  H56  1  0.38340000  0.35170000  0.94270000  1.0 0.1213687295
H  H57  1  0.43870000  0.96990000  0.58440000  1.0 0.1288716957
H  H58  1  0.56130000  0.46990000  0.91560000  1.0 0.1288716957
H  H59  1  0.56130000  0.03010000  0.41560000  1.0 0.1288716957
H  H60  1  0.43870000  0.53010000  0.08440000  1.0 0.1288716957
H  H61  1  0.21010000  0.22150000  0.17140000  1.0 0.1213687295
H  H62  1  0.78990000  0.72150000  0.32860000  1.0 0.1213687295
H  H63  1  0.78990000  0.77850000  0.82860000  1.0 0.1213687295
H  H64  1  0.21010000  0.27850000  0.67140000  1.0 0.1213687295
H  H65  1  0.31770000  0.47830000  0.16220000  1.0 0.1213687295
H  H66  1  0.68230000  0.97830000  0.33780000  1.0 0.1213687295
H  H67  1  0.68230000  0.52170000  0.83780000  1.0 0.1213687295
H  H68  1  0.31770000  0.02170000  0.66220000  1.0 0.1213687295
H  H69  1  0.08910000  0.52370000  0.08400000  1.0 0.1397956007
H  H70  1  0.91090000  0.02370000  0.41600000  1.0 0.1397956007
H  H71  1  0.91090000  0.47630000  0.91600000  1.0 0.1397956007
H  H72  1  0.08910000  0.97630000  0.58400000  1.0 0.1397956007
H  H73  1  0.17830000  0.57650000  0.09500000  1.0 0.1288716957
H  H74  1  0.82170000  0.07650000  0.40500000  1.0 0.1288716957
H  H75  1  0.82170000  0.42350000  0.90500000  1.0 0.1288716957
H  H76  1  0.17830000  0.92350000  0.59500000  1.0 0.1288716957
H  H77  1  0.14490000  0.35800000  0.01110000  1.0 0.1288716957
H  H78  1  0.85510000  0.85800000  0.48890000  1.0 0.1288716957
H  H79  1  0.85510000  0.64200000  0.98890000  1.0 0.1288716957
H  H80  1  0.14490000  0.14200000  0.51110000  1.0 0.1288716957
H  H81  1  0.05860000  0.49250000  0.84920000  1.0 0.1288716957
H  H82  1  0.94140000  0.99250000  0.65080000  1.0 0.1288716957
H  H83  1  0.94140000  0.50750000  0.15080000  1.0 0.1288716957
H  H84  1  0.05860000  0.00750000  0.34920000  1.0 0.1288716957
H  H85  1  0.09550000  0.65530000  0.99520000  1.0 0.1288716957
H  H86  1  0.90450000  0.15530000  0.50480000  1.0 0.1288716957
H  H87  1  0.90450000  0.34470000  0.00480000  1.0 0.1288716957
H  H88  1  0.09550000  0.84470000  0.49520000  1.0 0.1288716957
H  H89  1  0.15820000  0.28290000  0.91100000  1.0 0.1288716957
H  H90  1  0.84180000  0.78290000  0.58900000  1.0 0.1288716957
H  H91  1  0.84180000  0.71710000  0.08900000  1.0 0.1288716957
H  H92  1  0.15820000  0.21710000  0.41100000  1.0 0.1288716957
H  H93  1  0.07650000  0.31690000  0.85210000  1.0 0.1288716957
H  H94  1  0.92350000  0.81690000  0.64790000  1.0 0.1288716957
H  H95  1  0.92350000  0.68310000  0.14790000  1.0 0.1288716957
H  H96  1  0.07650000  0.18310000  0.35210000  1.0 0.1288716957
H  H97  1  0.12420000  0.13270000  0.96240000  1.0 0.1213687295
H  H98  1  0.87580000  0.63270000  0.53760000  1.0 0.1213687295
H  H99  1  0.87580000  0.86730000  0.03760000  1.0 0.1213687295
H  H100  1  0.12420000  0.36730000  0.46240000  1.0 0.1213687295
H  H101  1  0.87430000  0.16340000  0.90530000  1.0 0.1213687295
H  H102  1  0.12570000  0.66340000  0.59470000  1.0 0.1213687295
H  H103  1  0.12570000  0.83660000  0.09470000  1.0 0.1213687295
H  H104  1  0.87430000  0.33660000  0.40530000  1.0 0.1213687295
H  H105  1  0.98320000  0.67950000  0.85030000  1.0 0.1288716957
H  H106  1  0.01680000  0.17950000  0.64970000  1.0 0.1288716957
H  H107  1  0.01680000  0.32050000  0.14970000  1.0 0.1288716957
H  H108  1  0.98320000  0.82050000  0.35030000  1.0 0.1288716957
H  H109  1  0.07770000  0.68220000  0.85210000  1.0 0.1288716957
H  H110  1  0.92230000  0.18220000  0.64790000  1.0 0.1288716957
H  H111  1  0.92230000  0.31780000  0.14790000  1.0 0.1288716957
H  H112  1  0.07770000  0.81780000  0.35210000  1.0 0.1288716957
H  H113  1  0.18300000  0.94280000  0.98400000  1.0 0.1115551445
H  H114  1  0.81700000  0.44280000  0.51600000  1.0 0.1115551445
H  H115  1  0.81700000  0.05720000  0.01600000  1.0 0.1115551445
H  H116  1  0.18300000  0.55720000  0.48400000  1.0 0.1115551445
H  H117  1  0.95190000  0.81000000  0.91650000  1.0 0.1213687295
H  H118  1  0.04810000  0.31000000  0.58350000  1.0 0.1213687295
H  H119  1  0.04810000  0.19000000  0.08350000  1.0 0.1213687295
H  H120  1  0.95190000  0.69000000  0.41650000  1.0 0.1213687295
C  C1  1  0.28980000  0.27760000  0.31340000  1.0 0.1520888869
C  C2  1  0.71020000  0.77760000  0.18660000  1.0 0.161194473
C  C3  1  0.71020000  0.72240000  0.68660000  1.0 0.161194473
C  C4  1  0.28980000  0.22240000  0.81340000  1.0 0.1520888869
C  C5  1  0.34060000  0.13890000  0.30550000  1.0 0.0909614578
C  C6  1  0.65940000  0.63890000  0.19450000  1.0 0.0909614578
C  C7  1  0.65940000  0.86110000  0.69450000  1.0 0.0909614578
C  C8  1  0.34060000  0.36110000  0.80550000  1.0 0.0909614578
C  C9  1  0.26450000  0.03340000  0.35570000  1.0 -0.1998061057
C  C10  1  0.73550000  0.53340000  0.14430000  1.0 -0.1998061057
C  C11  1  0.73550000  0.96660000  0.64430000  1.0 -0.1998061057
C  C12  1  0.26450000  0.46660000  0.85570000  1.0 -0.1998061057
C  C13  1  0.44500000  0.19640000  0.63950000  1.0 0.0909614578
C  C14  1  0.55500000  0.69640000  0.86050000  1.0 0.0909614578
C  C15  1  0.55500000  0.80360000  0.36050000  1.0 0.0909614578
C  C16  1  0.44500000  0.30360000  0.13950000  1.0 0.0909614578
C  C17  1  0.54340000  0.11310000  0.71020000  1.0 0.161194473
C  C18  1  0.45660000  0.61310000  0.78980000  1.0 0.161194473
C  C19  1  0.45660000  0.88690000  0.28980000  1.0 0.161194473
C  C20  1  0.54340000  0.38690000  0.21020000  1.0 0.161194473
C  C21  1  0.48540000  0.14840000  0.55750000  1.0 -0.1998061057
C  C22  1  0.51460000  0.64840000  0.94250000  1.0 -0.1998061057
C  C23  1  0.51460000  0.85160000  0.44250000  1.0 -0.1998061057
C  C24  1  0.48540000  0.35160000  0.05750000  1.0 -0.1998061057
C  C25  1  0.45160000  0.75170000  0.62630000  1.0 0.0909614578
C  C26  1  0.54840000  0.25170000  0.87370000  1.0 0.0909614578
C  C27  1  0.54840000  0.24830000  0.37370000  1.0 0.0909614578
C  C28  1  0.45160000  0.74830000  0.12630000  1.0 0.0909614578
C  C29  1  0.41100000  0.82270000  0.68590000  1.0 0.161194473
C  C30  1  0.58900000  0.32270000  0.81410000  1.0 0.161194473
C  C31  1  0.58900000  0.17730000  0.31410000  1.0 0.161194473
C  C32  1  0.41100000  0.67730000  0.18590000  1.0 0.1712221405
C  C33  1  0.33120000  0.80880000  0.53160000  1.0 -0.1998061057
C  C34  1  0.66880000  0.30880000  0.96840000  1.0 -0.1998061057
C  C35  1  0.66880000  0.19120000  0.46840000  1.0 -0.1998061057
C  C36  1  0.33120000  0.69120000  0.03160000  1.0 -0.1998061057
C  C37  1  0.34580000  0.90930000  0.50770000  1.0 0.1213687295
C  C38  1  0.65420000  0.40930000  0.99230000  1.0 0.1213687295
C  C39  1  0.65420000  0.09070000  0.49230000  1.0 0.1213687295
C  C40  1  0.34580000  0.59070000  0.00770000  1.0 0.1213687295
C  C41  1  0.30210000  0.92880000  0.44770000  1.0 -0.2299103318
C  C42  1  0.69790000  0.42880000  0.05230000  1.0 -0.2299103318
C  C43  1  0.69790000  0.07120000  0.55230000  1.0 -0.2233353921
C  C44  1  0.30210000  0.57120000  0.94770000  1.0 -0.2299103318
C  C45  1  0.31370000  0.01850000  0.42130000  1.0 0.1213687295
C  C46  1  0.68630000  0.51850000  0.07870000  1.0 0.1213687295
C  C47  1  0.68630000  0.98150000  0.57870000  1.0 0.1213687295
C  C48  1  0.31370000  0.48150000  0.92130000  1.0 0.1213687295
C  C49  1  0.37420000  0.08840000  0.45900000  1.0 -0.2233353921
C  C50  1  0.62580000  0.58840000  0.04100000  1.0 -0.2233353921
C  C51  1  0.62580000  0.91160000  0.54100000  1.0 -0.2233353921
C  C52  1  0.37420000  0.41160000  0.95900000  1.0 -0.2233353921
C  C53  1  0.42080000  0.07160000  0.51980000  1.0 0.1213687295
C  C54  1  0.57920000  0.57160000  0.98020000  1.0 0.1213687295
C  C55  1  0.57920000  0.92840000  0.48020000  1.0 0.1213687295
C  C56  1  0.42080000  0.42840000  0.01980000  1.0 0.1213687295
C  C57  1  0.40670000  0.98220000  0.54340000  1.0 -0.2530797699
C  C58  1  0.59330000  0.48220000  0.95660000  1.0 -0.2530797699
C  C59  1  0.59330000  0.01780000  0.45660000  1.0 -0.2530797699
C  C60  1  0.40670000  0.51780000  0.04340000  1.0 -0.2530797699
C  C61  1  0.21700000  0.28650000  0.15940000  1.0 0.1520888869
C  C62  1  0.78300000  0.78650000  0.34060000  1.0 0.1520888869
C  C63  1  0.78300000  0.71350000  0.84060000  1.0 0.1520888869
C  C64  1  0.21700000  0.21350000  0.65940000  1.0 0.1520888869
C  C65  1  0.27680000  0.42650000  0.15530000  1.0 0.0981372588
C  C66  1  0.72320000  0.92650000  0.34470000  1.0 0.0981372588
C  C67  1  0.72320000  0.57350000  0.84470000  1.0 0.0981372588
C  C68  1  0.27680000  0.07350000  0.65530000  1.0 0.0981372588
C  C69  1  0.14380000  0.51540000  0.07990000  1.0 -0.1998061057
C  C70  1  0.85620000  0.01540000  0.42010000  1.0 -0.1998061057
C  C71  1  0.85620000  0.48460000  0.92010000  1.0 -0.1998061057
C  C72  1  0.14380000  0.98460000  0.57990000  1.0 -0.1998061057
C  C73  1  0.12180000  0.50520000  0.01420000  1.0 0.1288716957
C  C74  1  0.87820000  0.00520000  0.48580000  1.0 0.1213687295
C  C75  1  0.87820000  0.49480000  0.98580000  1.0 0.1213687295
C  C76  1  0.12180000  0.99480000  0.51420000  1.0 0.1213687295
C  C77  1  0.12490000  0.41600000  0.98760000  1.0 -0.2375344588
C  C78  1  0.87510000  0.91600000  0.51240000  1.0 -0.2299103318
C  C79  1  0.87510000  0.58400000  0.01240000  1.0 -0.2299103318
C  C80  1  0.12490000  0.08400000  0.48760000  1.0 -0.2375344588
C  C81  1  0.09770000  0.41030000  0.92420000  1.0 0.1213687295
C  C82  1  0.90230000  0.91030000  0.57580000  1.0 0.1213687295
C  C83  1  0.90230000  0.58970000  0.07580000  1.0 0.1213687295
C  C84  1  0.09770000  0.08970000  0.42420000  1.0 0.1213687295
C  C85  1  0.07360000  0.49600000  0.89020000  1.0 -0.2299103318
C  C86  1  0.92640000  0.99600000  0.60980000  1.0 -0.2299103318
C  C87  1  0.92640000  0.50400000  0.10980000  1.0 -0.2299103318
C  C88  1  0.07360000  0.00400000  0.39020000  1.0 -0.2299103318
C  C89  1  0.07110000  0.58890000  0.91640000  1.0 0.1288716957
C  C90  1  0.92890000  0.08890000  0.58360000  1.0 0.1288716957
C  C91  1  0.92890000  0.41110000  0.08360000  1.0 0.1288716957
C  C92  1  0.07110000  0.91110000  0.41640000  1.0 0.1288716957
C  C93  1  0.09580000  0.59310000  0.97750000  1.0 -0.2375344588
C  C94  1  0.90420000  0.09310000  0.52250000  1.0 -0.2375344588
C  C95  1  0.90420000  0.40690000  0.02250000  1.0 -0.2375344588
C  C96  1  0.09580000  0.90690000  0.47750000  1.0 -0.2375344588
C  C97  1  0.09820000  0.30850000  0.89530000  1.0 -0.1998061057
C  C98  1  0.90180000  0.80850000  0.60470000  1.0 -0.1998061057
C  C99  1  0.90180000  0.69150000  0.10470000  1.0 -0.1998061057
C  C100  1  0.09820000  0.19150000  0.39530000  1.0 -0.1998061057
C  C101  1  0.06660000  0.15680000  0.94240000  1.0 0.0981372588
C  C102  1  0.93340000  0.65680000  0.55760000  1.0 0.0981372588
C  C103  1  0.93340000  0.84320000  0.05760000  1.0 0.0981372588
C  C104  1  0.06660000  0.34320000  0.44240000  1.0 0.0981372588
C  C105  1  0.93230000  0.17520000  0.91150000  1.0 0.1520888869
C  C106  1  0.06770000  0.67520000  0.58850000  1.0 0.1520888869
C  C107  1  0.06770000  0.82480000  0.08850000  1.0 0.1520888869
C  C108  1  0.93230000  0.32480000  0.41150000  1.0 0.1520888869
C  C109  1  0.04580000  0.68270000  0.87700000  1.0 -0.1998061057
C  C110  1  0.95420000  0.18270000  0.62300000  1.0 -0.1998061057
C  C111  1  0.95420000  0.31730000  0.12300000  1.0 -0.1998061057
C  C112  1  0.04580000  0.81730000  0.37700000  1.0 -0.1998061057
C  C113  1  0.13740000  0.89760000  0.96320000  1.0 0.1397956007
C  C114  1  0.86260000  0.39760000  0.53680000  1.0 0.1397956007
C  C115  1  0.86260000  0.10240000  0.03680000  1.0 0.1397956007
C  C116  1  0.13740000  0.60240000  0.46320000  1.0 0.1397956007
C  C117  1  0.01040000  0.82680000  0.92620000  1.0 0.0826774633
C  C118  1  0.98960000  0.32680000  0.57380000  1.0 0.0826774633
C  C119  1  0.98960000  0.17320000  0.07380000  1.0 0.0826774633
C  C120  1  0.01040000  0.67320000  0.42620000  1.0 0.0826774633
N  N1  1  0.34220000  0.23390000  0.29220000  1.0 -0.2874533419
N  N2  1  0.65780000  0.73390000  0.20780000  1.0 -0.2874533419
N  N3  1  0.65780000  0.76610000  0.70780000  1.0 -0.2874533419
N  N4  1  0.34220000  0.26610000  0.79220000  1.0 -0.2874533419
N  N5  1  0.25520000  0.21900000  0.33890000  1.0 -0.2989541029
N  N6  1  0.74480000  0.71900000  0.16110000  1.0 -0.2989541029
N  N7  1  0.74480000  0.78100000  0.66110000  1.0 -0.2989541029
N  N8  1  0.25520000  0.28100000  0.83890000  1.0 -0.2989541029
N  N9  1  0.28660000  0.12690000  0.33220000  1.0 0.1520888869
N  N10  1  0.71340000  0.62690000  0.16780000  1.0 0.1520888869
N  N11  1  0.71340000  0.87310000  0.66780000  1.0 0.1520888869
N  N12  1  0.28660000  0.37310000  0.83220000  1.0 0.1520888869
N  N13  1  0.47350000  0.17560000  0.69770000  1.0 -0.2874533419
N  N14  1  0.52650000  0.67560000  0.80230000  1.0 -0.2874533419
N  N15  1  0.52650000  0.82440000  0.30230000  1.0 -0.2874533419
N  N16  1  0.47350000  0.32440000  0.19770000  1.0 -0.2874533419
N  N17  1  0.49670000  0.15000000  0.61880000  1.0 0.1397956007
N  N18  1  0.50330000  0.65000000  0.88120000  1.0 0.1397956007
N  N19  1  0.50330000  0.85000000  0.38120000  1.0 0.1397956007
N  N20  1  0.49670000  0.35000000  0.11880000  1.0 0.1397956007
N  N21  1  0.56040000  0.09450000  0.66400000  1.0 -0.2989541029
N  N22  1  0.43960000  0.59450000  0.83600000  1.0 -0.2989541029
N  N23  1  0.43960000  0.90550000  0.33600000  1.0 -0.2989541029
N  N24  1  0.56040000  0.40550000  0.16400000  1.0 -0.2989541029
N  N25  1  0.47730000  0.76380000  0.68520000  1.0 -0.2874533419
N  N26  1  0.52270000  0.26380000  0.81480000  1.0 -0.2874533419
N  N27  1  0.52270000  0.23620000  0.31480000  1.0 -0.2874533419
N  N28  1  0.47730000  0.73620000  0.18520000  1.0 -0.2874533419
N  N29  1  0.37770000  0.79940000  0.59540000  1.0 0.161194473
N  N30  1  0.62230000  0.29940000  0.90460000  1.0 0.161194473
N  N31  1  0.62230000  0.20060000  0.40460000  1.0 0.161194473
N  N32  1  0.37770000  0.70060000  0.09540000  1.0 0.161194473
N  N33  1  0.35110000  0.84590000  0.63320000  1.0 -0.2615616748
N  N34  1  0.64890000  0.34590000  0.86680000  1.0 -0.2615616748
N  N35  1  0.64890000  0.15410000  0.36680000  1.0 -0.2615616748
N  N36  1  0.35110000  0.65410000  0.13320000  1.0 -0.2615616748
N  N37  1  0.29470000  0.33810000  0.18200000  1.0 -0.280623717
N  N38  1  0.70530000  0.83810000  0.31800000  1.0 -0.280623717
N  N39  1  0.70530000  0.66190000  0.81800000  1.0 -0.280623717
N  N40  1  0.29470000  0.16190000  0.68200000  1.0 -0.280623717
N  N41  1  0.15150000  0.34060000  0.11790000  1.0 -0.2874533419
N  N42  1  0.84850000  0.84060000  0.38210000  1.0 -0.2874533419
N  N43  1  0.84850000  0.65940000  0.88210000  1.0 -0.2874533419
N  N44  1  0.15150000  0.15940000  0.61790000  1.0 -0.2874533419
N  N45  1  0.19190000  0.43150000  0.11710000  1.0 0.1397956007
N  N46  1  0.80810000  0.93150000  0.38290000  1.0 0.1397956007
N  N47  1  0.80810000  0.56850000  0.88290000  1.0 0.1397956007
N  N48  1  0.19190000  0.06850000  0.61710000  1.0 0.1397956007
N  N49  1  0.05420000  0.90620000  0.95960000  1.0 -0.2989541029
N  N50  1  0.94580000  0.40620000  0.54040000  1.0 -0.2989541029
N  N51  1  0.94580000  0.09380000  0.04040000  1.0 -0.2989541029
N  N52  1  0.05420000  0.59380000  0.45960000  1.0 -0.2989541029
N  N53  1  0.14590000  0.81820000  0.93400000  1.0 -0.2989541029
N  N54  1  0.85410000  0.31820000  0.56600000  1.0 -0.2989541029
N  N55  1  0.85410000  0.18180000  0.06600000  1.0 -0.2989541029
N  N56  1  0.14590000  0.68180000  0.43400000  1.0 -0.2989541029
N  N57  1  0.06360000  0.77660000  0.90970000  1.0 0.1712221405
N  N58  1  0.93640000  0.27660000  0.59030000  1.0 0.1712221405
N  N59  1  0.93640000  0.22340000  0.09030000  1.0 0.1712221405
N  N60  1  0.06360000  0.72340000  0.40970000  1.0 0.1712221405
N  N61  1  0.99910000  0.11580000  0.94520000  1.0 -0.2701202163
N  N62  1  0.00090000  0.61580000  0.55480000  1.0 -0.2701202163
N  N63  1  0.00090000  0.88420000  0.05480000  1.0 -0.2701202163
N  N64  1  0.99910000  0.38420000  0.44520000  1.0 -0.2701202163
N  N65  1  0.95520000  0.25110000  0.88800000  1.0 -0.2615616748
N  N66  1  0.04480000  0.75110000  0.61200000  1.0 -0.2615616748
N  N67  1  0.04480000  0.74890000  0.11200000  1.0 -0.2615616748
N  N68  1  0.95520000  0.24890000  0.38800000  1.0 -0.2615616748
N  N69  1  0.04360000  0.23730000  0.90780000  1.0 0.161194473
N  N70  1  0.95640000  0.73730000  0.59220000  1.0 0.161194473
N  N71  1  0.95640000  0.76270000  0.09220000  1.0 0.161194473
N  N72  1  0.04360000  0.26270000  0.40780000  1.0 0.161194473
Cl  Cl1  1  0.38690000  0.10690000  0.19390000  1.0 -0.5616499164
Cl  Cl2  1  0.61310000  0.60690000  0.30610000  1.0 -0.5616499164
Cl  Cl3  1  0.61310000  0.89310000  0.80610000  1.0 -0.5616499164
Cl  Cl4  1  0.38690000  0.39310000  0.69390000  1.0 -0.5616499164
Cl  Cl5  1  0.44103000  0.47617000  0.29947000  1.0 -0.6602883765
Cl  Cl6  1  0.55897000  0.97617000  0.20053000  1.0 -0.6602883765
Cl  Cl7  1  0.55897000  0.52383000  0.70053000  1.0 -0.6602883765
Cl  Cl8  1  0.44103000  0.02383000  0.79947000  1.0 -0.6602883765
Cl  Cl9  1  0.17050000  0.04890000  0.08428000  1.0 -0.6602883765
Cl  Cl10  1  0.82950000  0.54890000  0.41572000  1.0 -0.6602883765
Cl  Cl11  1  0.82950000  0.95110000  0.91572000  1.0 -0.6602883765
Cl  Cl12  1  0.17050000  0.45110000  0.58428000  1.0 -0.6602883765
