# DDEC6 charges by PACMAN v1.1 (https://github.com/mtap-research/PACMAN-charge/)
data_AVUHIJ_ASR_pacman
_symmetry_space_group_name_H-M   'P 1'
_cell_length_a   17.51900000
_cell_length_b   10.08000000
_cell_length_c   22.93100000
_cell_angle_alpha   90.00000000
_cell_angle_beta   98.72000000
_cell_angle_gamma   90.00000000
_symmetry_Int_Tables_number   1
_chemical_formula_structural   Co3H50C72(N3O2)6
_chemical_formula_sum   'Co6 H100 C144 N36 O24'
_cell_volume   4002.61300538
_cell_formula_units_Z   2
loop_
 _symmetry_equiv_pos_site_id
 _symmetry_equiv_pos_as_xyz
  1  'x, y, z'
loop_
 _atom_site_type_symbol
 _atom_site_label
 _atom_site_symmetry_multiplicity
 _atom_site_fract_x
 _atom_site_fract_y
 _atom_site_fract_z
 _atom_site_occupancy
 _atom_site_charge
Co  Co1  1  0.66007000  0.83301000  0.65739000  1.0 0.7088136191
Co  Co2  1  0.33993000  0.16699000  0.34261000  1.0 0.7088136191
Co  Co3  1  0.33993000  0.33301000  0.84261000  1.0 0.7088136191
Co  Co4  1  0.66007000  0.66699000  0.15739000  1.0 0.7088136191
Co  Co5  1  0.00000000  0.50000000  0.50000000  1.0 0.8169824595
Co  Co6  1  0.00000000  0.00000000  0.00000000  1.0 0.8040748949
H  H1  1  0.65045000  0.27890000  0.67071000  1.0 0.1107600651
H  H2  1  0.34955000  0.72110000  0.32929000  1.0 0.1107600651
H  H3  1  0.34955000  0.77890000  0.82929000  1.0 0.1107600651
H  H4  1  0.65045000  0.22110000  0.17071000  1.0 0.1107600651
H  H5  1  0.79228000  0.55307000  0.58879000  1.0 0.1164952482
H  H6  1  0.20772000  0.44693000  0.41121000  1.0 0.1164952482
H  H7  1  0.20772000  0.05307000  0.91121000  1.0 0.1164952482
H  H8  1  0.79228000  0.94693000  0.08879000  1.0 0.1164952482
H  H9  1  0.83320000  0.13143000  0.57998000  1.0 0.1107600651
H  H10  1  0.16680000  0.86857000  0.42002000  1.0 0.1107600651
H  H11  1  0.16680000  0.63143000  0.92002000  1.0 0.1107600651
H  H12  1  0.83320000  0.36857000  0.07998000  1.0 0.1107600651
H  H13  1  0.76183000  0.00165000  0.76820000  1.0 0.1107600651
H  H14  1  0.23817000  0.99835000  0.23180000  1.0 0.1107600651
H  H15  1  0.23817000  0.50165000  0.73180000  1.0 0.1107600651
H  H16  1  0.76183000  0.49835000  0.26820000  1.0 0.1107600651
H  H17  1  0.63690000  0.63968000  0.75820000  1.0 0.1301957036
H  H18  1  0.36310000  0.36032000  0.24180000  1.0 0.1301957036
H  H19  1  0.36310000  0.13968000  0.74180000  1.0 0.1301957036
H  H20  1  0.63690000  0.86032000  0.25820000  1.0 0.1301957036
H  H21  1  0.71844000  0.68227000  0.91211000  1.0 0.1107600651
H  H22  1  0.28156000  0.31773000  0.08789000  1.0 0.1107600651
H  H23  1  0.28156000  0.18227000  0.58789000  1.0 0.1107600651
H  H24  1  0.71844000  0.81773000  0.41211000  1.0 0.1107600651
H  H25  1  0.63189000  0.61311000  0.87133000  1.0 0.1016369284
H  H26  1  0.36811000  0.38689000  0.12867000  1.0 0.1016369284
H  H27  1  0.36811000  0.11311000  0.62867000  1.0 0.1016369284
H  H28  1  0.63189000  0.88689000  0.37133000  1.0 0.1016369284
H  H29  1  0.50526000  0.73886000  0.86744000  1.0 0.1107600651
H  H30  1  0.49474000  0.26114000  0.13256000  1.0 0.1107600651
H  H31  1  0.49474000  0.23886000  0.63256000  1.0 0.1107600651
H  H32  1  0.50526000  0.76114000  0.36744000  1.0 0.1107600651
H  H33  1  0.42703000  0.87800000  0.92234000  1.0 0.0912956956
H  H34  1  0.57297000  0.12200000  0.07766000  1.0 0.0912956956
H  H35  1  0.57297000  0.37800000  0.57766000  1.0 0.0912956956
H  H36  1  0.42703000  0.62200000  0.42234000  1.0 0.0912956956
H  H37  1  0.63511000  0.01099000  0.03429000  1.0 0.0912956956
H  H38  1  0.36489000  0.98901000  0.96571000  1.0 0.0912956956
H  H39  1  0.36489000  0.51099000  0.46571000  1.0 0.0912956956
H  H40  1  0.63511000  0.48901000  0.53429000  1.0 0.0912956956
H  H41  1  0.71223000  0.86707000  0.98015000  1.0 0.1107600651
H  H42  1  0.28777000  0.13293000  0.01985000  1.0 0.1107600651
H  H43  1  0.28777000  0.36707000  0.51985000  1.0 0.1107600651
H  H44  1  0.71223000  0.63293000  0.48015000  1.0 0.1107600651
H  H45  1  0.55656000  0.01198000  0.54949000  1.0 0.1107600651
H  H46  1  0.44344000  0.98802000  0.45051000  1.0 0.1107600651
H  H47  1  0.44344000  0.51198000  0.95051000  1.0 0.1107600651
H  H48  1  0.55656000  0.48802000  0.04949000  1.0 0.1107600651
H  H49  1  0.51716000  0.65194000  0.63516000  1.0 0.1301957036
H  H50  1  0.48284000  0.34806000  0.36484000  1.0 0.1301957036
H  H51  1  0.48284000  0.15194000  0.86484000  1.0 0.1301957036
H  H52  1  0.51716000  0.84806000  0.13516000  1.0 0.1301957036
H  H53  1  0.37000000  0.63430000  0.59888000  1.0 0.1016369284
H  H54  1  0.63000000  0.36570000  0.40112000  1.0 0.1016369284
H  H55  1  0.63000000  0.13430000  0.90112000  1.0 0.1016369284
H  H56  1  0.37000000  0.86570000  0.09888000  1.0 0.1016369284
H  H57  1  0.34209000  0.71962000  0.53025000  1.0 0.1016369284
H  H58  1  0.65791000  0.28038000  0.46975000  1.0 0.1016369284
H  H59  1  0.65791000  0.21962000  0.96975000  1.0 0.1016369284
H  H60  1  0.34209000  0.78038000  0.03025000  1.0 0.1016369284
H  H61  1  0.23761000  0.87017000  0.52084000  1.0 0.1016369284
H  H62  1  0.76239000  0.12983000  0.47916000  1.0 0.1016369284
H  H63  1  0.76239000  0.37017000  0.97916000  1.0 0.1016369284
H  H64  1  0.23761000  0.62983000  0.02084000  1.0 0.1016369284
H  H65  1  0.14028000  0.99880000  0.56321000  1.0 0.1107600651
H  H66  1  0.85972000  0.00120000  0.43679000  1.0 0.1107600651
H  H67  1  0.85972000  0.49880000  0.93679000  1.0 0.1107600651
H  H68  1  0.14028000  0.50120000  0.06321000  1.0 0.1107600651
H  H69  1  0.25606000  0.89748000  0.73870000  1.0 0.1016369284
H  H70  1  0.74394000  0.10252000  0.26130000  1.0 0.1016369284
H  H71  1  0.74394000  0.39748000  0.76130000  1.0 0.1016369284
H  H72  1  0.25606000  0.60252000  0.23870000  1.0 0.1016369284
H  H73  1  0.35305000  0.77317000  0.69565000  1.0 0.1107600651
H  H74  1  0.64695000  0.22683000  0.30435000  1.0 0.1107600651
H  H75  1  0.64695000  0.27317000  0.80435000  1.0 0.1107600651
H  H76  1  0.35305000  0.72683000  0.19565000  1.0 0.1107600651
H  H77  1  0.04703000  0.06379000  0.60418000  1.0 0.1107600651
H  H78  1  0.95297000  0.93621000  0.39582000  1.0 0.1107600651
H  H79  1  0.95297000  0.56379000  0.89582000  1.0 0.1107600651
H  H80  1  0.04703000  0.43621000  0.10418000  1.0 0.1107600651
H  H81  1  0.94471000  0.14544000  0.65920000  1.0 0.1107600651
H  H82  1  0.05529000  0.85456000  0.34080000  1.0 0.1107600651
H  H83  1  0.05529000  0.64544000  0.84080000  1.0 0.1107600651
H  H84  1  0.94471000  0.35456000  0.15920000  1.0 0.1107600651
H  H85  1  0.10779000  0.13059000  0.82178000  1.0 0.1016369284
H  H86  1  0.89221000  0.86941000  0.17822000  1.0 0.1016369284
H  H87  1  0.89221000  0.63059000  0.67822000  1.0 0.1016369284
H  H88  1  0.10779000  0.36941000  0.32178000  1.0 0.1016369284
H  H89  1  0.20636000  0.05660000  0.76743000  1.0 0.1016369284
H  H90  1  0.79364000  0.94340000  0.23257000  1.0 0.1016369284
H  H91  1  0.79364000  0.55660000  0.73257000  1.0 0.1016369284
H  H92  1  0.20636000  0.44340000  0.26743000  1.0 0.1016369284
H  H93  1  0.05295000  0.08995000  0.87973000  1.0 0.1107600651
H  H94  1  0.94705000  0.91005000  0.12027000  1.0 0.1107600651
H  H95  1  0.94705000  0.58995000  0.62027000  1.0 0.1107600651
H  H96  1  0.05295000  0.41005000  0.37973000  1.0 0.1107600651
H  H97  1  0.82948000  0.01557000  0.91952000  1.0 0.1107600651
H  H98  1  0.17052000  0.98443000  0.08048000  1.0 0.1107600651
H  H99  1  0.17052000  0.51557000  0.58048000  1.0 0.1107600651
H  H100  1  0.82948000  0.48443000  0.41952000  1.0 0.1107600651
C  C1  1  0.71249000  0.04893000  0.63636000  1.0 0.5323095286
C  C2  1  0.28751000  0.95107000  0.36364000  1.0 0.5323095286
C  C3  1  0.28751000  0.54893000  0.86364000  1.0 0.5323095286
C  C4  1  0.71249000  0.45107000  0.13636000  1.0 0.5323095286
C  C5  1  0.73742000  0.18799000  0.62533000  1.0 -0.0371123494
C  C6  1  0.26258000  0.81201000  0.37467000  1.0 -0.0371123494
C  C7  1  0.26258000  0.68799000  0.87467000  1.0 -0.0371123494
C  C8  1  0.73742000  0.31201000  0.12533000  1.0 -0.0371123494
C  C9  1  0.69765000  0.29658000  0.64540000  1.0 -0.1028067511
C  C10  1  0.30235000  0.70342000  0.35460000  1.0 -0.1028067511
C  C11  1  0.30235000  0.79658000  0.85460000  1.0 -0.1028067511
C  C12  1  0.69765000  0.20342000  0.14540000  1.0 -0.1028067511
C  C13  1  0.71714000  0.42839000  0.63285000  1.0 -0.0458924805
C  C14  1  0.28286000  0.57161000  0.36715000  1.0 -0.0458924805
C  C15  1  0.28286000  0.92839000  0.86715000  1.0 -0.0458924805
C  C16  1  0.71714000  0.07161000  0.13285000  1.0 -0.0458924805
C  C17  1  0.67048000  0.54208000  0.65417000  1.0 0.5380129109
C  C18  1  0.32952000  0.45792000  0.34583000  1.0 0.5380129109
C  C19  1  0.32952000  0.04208000  0.84583000  1.0 0.5380129109
C  C20  1  0.67048000  0.95792000  0.15417000  1.0 0.5380129109
C  C21  1  0.77807000  0.45112000  0.59991000  1.0 -0.1028067511
C  C22  1  0.22193000  0.54888000  0.40009000  1.0 -0.1028067511
C  C23  1  0.22193000  0.95112000  0.90009000  1.0 -0.1028067511
C  C24  1  0.77807000  0.04888000  0.09991000  1.0 -0.1028067511
C  C25  1  0.82020000  0.34394000  0.58121000  1.0 -0.0371123494
C  C26  1  0.17980000  0.65606000  0.41879000  1.0 -0.0371123494
C  C27  1  0.17980000  0.84394000  0.91879000  1.0 -0.0371123494
C  C28  1  0.82020000  0.15606000  0.08121000  1.0 -0.0371123494
C  C29  1  0.79941000  0.21329000  0.59433000  1.0 -0.0943921616
C  C30  1  0.20059000  0.78671000  0.40567000  1.0 -0.0943921616
C  C31  1  0.20059000  0.71329000  0.90567000  1.0 -0.0943921616
C  C32  1  0.79941000  0.28671000  0.09433000  1.0 -0.0943921616
C  C33  1  0.88899000  0.36123000  0.54821000  1.0 0.5380129109
C  C34  1  0.11101000  0.63877000  0.45179000  1.0 0.5380129109
C  C35  1  0.11101000  0.86123000  0.95179000  1.0 0.5380129109
C  C36  1  0.88899000  0.13877000  0.04821000  1.0 0.5380129109
C  C37  1  0.73048000  0.91496000  0.78027000  1.0 0.1402399226
C  C38  1  0.26952000  0.08504000  0.21973000  1.0 0.1402399226
C  C39  1  0.26952000  0.41496000  0.71973000  1.0 0.1402399226
C  C40  1  0.73048000  0.58504000  0.28027000  1.0 0.1402399226
C  C41  1  0.66755000  0.72984000  0.77480000  1.0 0.052849794
C  C42  1  0.33245000  0.27016000  0.22520000  1.0 0.052849794
C  C43  1  0.33245000  0.22984000  0.72520000  1.0 0.052849794
C  C44  1  0.66755000  0.77016000  0.27480000  1.0 0.052849794
C  C45  1  0.66254000  0.70658000  0.88517000  1.0 -0.1192369331
C  C46  1  0.33746000  0.29342000  0.11483000  1.0 -0.1192369331
C  C47  1  0.33746000  0.20658000  0.61483000  1.0 -0.1192369331
C  C48  1  0.66254000  0.79342000  0.38517000  1.0 -0.1192369331
C  C49  1  0.61472000  0.79315000  0.91921000  1.0 0.0912956956
C  C50  1  0.38528000  0.20685000  0.08079000  1.0 0.0912956956
C  C51  1  0.38528000  0.29315000  0.58079000  1.0 0.0912956956
C  C52  1  0.61472000  0.70685000  0.41921000  1.0 0.0912956956
C  C53  1  0.53420000  0.79843000  0.90424000  1.0 -0.1281584164
C  C54  1  0.46580000  0.20157000  0.09576000  1.0 -0.1281584164
C  C55  1  0.46580000  0.29843000  0.59576000  1.0 -0.1281584164
C  C56  1  0.53420000  0.70157000  0.40424000  1.0 -0.1281584164
C  C57  1  0.48954000  0.87766000  0.93586000  1.0 -0.1118166476
C  C58  1  0.51046000  0.12234000  0.06414000  1.0 -0.1118166476
C  C59  1  0.51046000  0.37766000  0.56414000  1.0 -0.1118166476
C  C60  1  0.48954000  0.62234000  0.43586000  1.0 -0.1118166476
C  C61  1  0.52391000  0.95699000  0.98353000  1.0 0.052849794
C  C62  1  0.47609000  0.04301000  0.01647000  1.0 0.052849794
C  C63  1  0.47609000  0.45699000  0.51647000  1.0 0.052849794
C  C64  1  0.52391000  0.54301000  0.48353000  1.0 0.052849794
C  C65  1  0.60492000  0.95115000  0.99805000  1.0 -0.1192369331
C  C66  1  0.39508000  0.04885000  0.00195000  1.0 -0.1192369331
C  C67  1  0.39508000  0.45115000  0.50195000  1.0 -0.1192369331
C  C68  1  0.60492000  0.54885000  0.49805000  1.0 -0.1192369331
C  C69  1  0.64951000  0.87037000  0.96694000  1.0 -0.1281584164
C  C70  1  0.35049000  0.12963000  0.03306000  1.0 -0.1281584164
C  C71  1  0.35049000  0.37037000  0.53306000  1.0 -0.1281584164
C  C72  1  0.64951000  0.62963000  0.46694000  1.0 -0.1281584164
C  C73  1  0.52706000  0.92826000  0.56644000  1.0 0.1402399226
C  C74  1  0.47294000  0.07174000  0.43356000  1.0 0.1402399226
C  C75  1  0.47294000  0.42826000  0.93356000  1.0 0.1402399226
C  C76  1  0.52706000  0.57174000  0.06644000  1.0 0.1402399226
C  C77  1  0.50807000  0.74459000  0.61013000  1.0 0.0578256755
C  C78  1  0.49193000  0.25541000  0.38987000  1.0 0.0578256755
C  C79  1  0.49193000  0.24459000  0.88987000  1.0 0.0578256755
C  C80  1  0.50807000  0.75541000  0.11013000  1.0 0.0578256755
C  C81  1  0.36213000  0.73354000  0.57789000  1.0 -0.1192369331
C  C82  1  0.63787000  0.26646000  0.42211000  1.0 -0.1192369331
C  C83  1  0.63787000  0.23354000  0.92211000  1.0 -0.1192369331
C  C84  1  0.36213000  0.76646000  0.07789000  1.0 -0.1192369331
C  C85  1  0.24290000  0.87923000  0.56889000  1.0 -0.1281584164
C  C86  1  0.75710000  0.12077000  0.43111000  1.0 -0.1281584164
C  C87  1  0.75710000  0.37923000  0.93111000  1.0 -0.1281584164
C  C88  1  0.24290000  0.62077000  0.06889000  1.0 -0.1281584164
C  C89  1  0.18735000  0.95210000  0.59332000  1.0 -0.1192369331
C  C90  1  0.81265000  0.04790000  0.40668000  1.0 -0.1192369331
C  C91  1  0.81265000  0.45210000  0.90668000  1.0 -0.1192369331
C  C92  1  0.18735000  0.54790000  0.09332000  1.0 -0.1192369331
C  C93  1  0.19113000  0.96431000  0.65506000  1.0 0.0578256755
C  C94  1  0.80887000  0.03569000  0.34494000  1.0 0.0578256755
C  C95  1  0.80887000  0.46431000  0.84494000  1.0 0.0578256755
C  C96  1  0.19113000  0.53569000  0.15506000  1.0 0.0578256755
C  C97  1  0.25256000  0.89779000  0.69067000  1.0 -0.1192369331
C  C98  1  0.74744000  0.10221000  0.30933000  1.0 -0.1192369331
C  C99  1  0.74744000  0.39779000  0.80933000  1.0 -0.1192369331
C  C100  1  0.25256000  0.60221000  0.19067000  1.0 -0.1192369331
C  C101  1  0.30781000  0.82584000  0.66622000  1.0 -0.1281584164
C  C102  1  0.69219000  0.17416000  0.33378000  1.0 -0.1281584164
C  C103  1  0.69219000  0.32584000  0.83378000  1.0 -0.1281584164
C  C104  1  0.30781000  0.67416000  0.16622000  1.0 -0.1281584164
C  C105  1  0.30426000  0.81577000  0.60476000  1.0 0.0912956956
C  C106  1  0.69574000  0.18423000  0.39524000  1.0 0.0912956956
C  C107  1  0.69574000  0.31577000  0.89524000  1.0 0.0912956956
C  C108  1  0.30426000  0.68423000  0.10476000  1.0 0.0912956956
C  C109  1  0.13226000  0.03585000  0.68289000  1.0 0.0770572278
C  C110  1  0.86774000  0.96415000  0.31711000  1.0 0.0770572278
C  C111  1  0.86774000  0.53585000  0.81711000  1.0 0.0770572278
C  C112  1  0.13226000  0.46415000  0.18289000  1.0 0.0770572278
C  C113  1  0.05940000  0.07347000  0.65223000  1.0 -0.1118166476
C  C114  1  0.94060000  0.92653000  0.34777000  1.0 -0.1118166476
C  C115  1  0.94060000  0.57347000  0.84777000  1.0 -0.1118166476
C  C116  1  0.05940000  0.42653000  0.15223000  1.0 -0.1118166476
C  C117  1  0.00223000  0.12159000  0.68304000  1.0 -0.0786921733
C  C118  1  0.99777000  0.87841000  0.31696000  1.0 -0.0786921733
C  C119  1  0.99777000  0.62159000  0.81696000  1.0 -0.0786921733
C  C120  1  0.00223000  0.37841000  0.18304000  1.0 -0.0786921733
C  C121  1  0.01352000  0.13148000  0.74599000  1.0 0.0417629147
C  C122  1  0.98648000  0.86852000  0.25401000  1.0 0.0417629147
C  C123  1  0.98648000  0.63148000  0.75401000  1.0 0.0417629147
C  C124  1  0.01352000  0.36852000  0.24599000  1.0 0.0417629147
C  C125  1  0.09069000  0.11101000  0.77478000  1.0 -0.1028067511
C  C126  1  0.90931000  0.88899000  0.22522000  1.0 -0.1028067511
C  C127  1  0.90931000  0.61101000  0.72522000  1.0 -0.1028067511
C  C128  1  0.09069000  0.38899000  0.27478000  1.0 -0.1028067511
C  C129  1  0.14769000  0.06751000  0.74384000  1.0 -0.1192369331
C  C130  1  0.85231000  0.93249000  0.25616000  1.0 -0.1192369331
C  C131  1  0.85231000  0.56751000  0.75616000  1.0 -0.1118166476
C  C132  1  0.14769000  0.43249000  0.24384000  1.0 -0.1192369331
C  C133  1  0.94127000  0.14692000  0.76864000  1.0 -0.1118166476
C  C134  1  0.05873000  0.85308000  0.23136000  1.0 -0.1118166476
C  C135  1  0.05873000  0.64692000  0.73136000  1.0 -0.1118166476
C  C136  1  0.94127000  0.35308000  0.26864000  1.0 -0.1118166476
C  C137  1  0.99083000  0.08101000  0.87674000  1.0 0.1107600651
C  C138  1  0.00917000  0.91899000  0.12326000  1.0 0.1107600651
C  C139  1  0.00917000  0.58101000  0.62326000  1.0 0.1107600651
C  C140  1  0.99083000  0.41899000  0.37674000  1.0 0.1107600651
C  C141  1  0.87586000  0.04971000  0.89648000  1.0 0.1584055799
C  C142  1  0.12414000  0.95029000  0.10352000  1.0 0.1584055799
C  C143  1  0.12414000  0.54971000  0.60352000  1.0 0.1584055799
C  C144  1  0.87586000  0.45029000  0.39648000  1.0 0.1584055799
N  N1  1  0.69823000  0.82009000  0.74066000  1.0 -0.2960299607
N  N2  1  0.30177000  0.17991000  0.25934000  1.0 -0.294536907
N  N3  1  0.30177000  0.32009000  0.75934000  1.0 -0.2960299607
N  N4  1  0.69823000  0.67991000  0.24066000  1.0 -0.2960299607
N  N5  1  0.72146000  0.88953000  0.83606000  1.0 -0.2740882
N  N6  1  0.27854000  0.11047000  0.16394000  1.0 -0.2740882
N  N7  1  0.27854000  0.38953000  0.66394000  1.0 -0.2740882
N  N8  1  0.72146000  0.61047000  0.33606000  1.0 -0.2740882
N  N9  1  0.68075000  0.77172000  0.83142000  1.0 0.1711492019
N  N10  1  0.31925000  0.22828000  0.16858000  1.0 0.1711492019
N  N11  1  0.31925000  0.27172000  0.66858000  1.0 0.1711492019
N  N12  1  0.68075000  0.72828000  0.33142000  1.0 0.1711492019
N  N13  1  0.56529000  0.82958000  0.60094000  1.0 -0.2960299607
N  N14  1  0.43471000  0.17042000  0.39906000  1.0 -0.2960299607
N  N15  1  0.43471000  0.32958000  0.89906000  1.0 -0.2960299607
N  N16  1  0.56529000  0.67042000  0.10094000  1.0 -0.2960299607
N  N17  1  0.45065000  0.90988000  0.55409000  1.0 -0.2740882
N  N18  1  0.54935000  0.09012000  0.44591000  1.0 -0.2740882
N  N19  1  0.54935000  0.40988000  0.94591000  1.0 -0.2740882
N  N20  1  0.45065000  0.59012000  0.05409000  1.0 -0.2740882
N  N21  1  0.43965000  0.79273000  0.58309000  1.0 0.1711492019
N  N22  1  0.56035000  0.20727000  0.41691000  1.0 0.1711492019
N  N23  1  0.56035000  0.29273000  0.91691000  1.0 0.1711492019
N  N24  1  0.43965000  0.70727000  0.08309000  1.0 0.1711492019
N  N25  1  0.93811000  0.11312000  0.82680000  1.0 0.1584055799
N  N26  1  0.06189000  0.88688000  0.17320000  1.0 0.1584055799
N  N27  1  0.06189000  0.61312000  0.67320000  1.0 0.1584055799
N  N28  1  0.93811000  0.38688000  0.32680000  1.0 0.1584055799
N  N29  1  0.86288000  0.09354000  0.84184000  1.0 -0.2429236954
N  N30  1  0.13712000  0.90646000  0.15816000  1.0 -0.2429236954
N  N31  1  0.13712000  0.59354000  0.65816000  1.0 -0.2429236954
N  N32  1  0.86288000  0.40646000  0.34184000  1.0 -0.2429236954
N  N33  1  0.95461000  0.04274000  0.92108000  1.0 -0.3093322327
N  N34  1  0.04539000  0.95726000  0.07892000  1.0 -0.3093322327
N  N35  1  0.04539000  0.54274000  0.57892000  1.0 -0.3093322327
N  N36  1  0.95461000  0.45726000  0.42108000  1.0 -0.3093322327
O  O1  1  0.65283000  0.02800000  0.66333000  1.0 -0.4910447744
O  O2  1  0.34717000  0.97200000  0.33667000  1.0 -0.4910447744
O  O3  1  0.34717000  0.52800000  0.83667000  1.0 -0.4910447744
O  O4  1  0.65283000  0.47200000  0.16333000  1.0 -0.4910447744
O  O5  1  0.74603000  0.94633000  0.61957000  1.0 -0.4910447744
O  O6  1  0.25397000  0.05367000  0.38043000  1.0 -0.4910447744
O  O7  1  0.25397000  0.44633000  0.88043000  1.0 -0.4910447744
O  O8  1  0.74603000  0.55367000  0.11957000  1.0 -0.4910447744
O  O9  1  0.61567000  0.51701000  0.68235000  1.0 -0.549745535
O  O10  1  0.38433000  0.48299000  0.31765000  1.0 -0.549745535
O  O11  1  0.38433000  0.01701000  0.81765000  1.0 -0.549745535
O  O12  1  0.61567000  0.98299000  0.18235000  1.0 -0.549745535
O  O13  1  0.69323000  0.65986000  0.64031000  1.0 -0.5140586679
O  O14  1  0.30677000  0.34014000  0.35969000  1.0 -0.5140586679
O  O15  1  0.30677000  0.15986000  0.85969000  1.0 -0.5140586679
O  O16  1  0.69323000  0.84014000  0.14031000  1.0 -0.5140586679
O  O17  1  0.90189000  0.48237000  0.52967000  1.0 -0.5571681147
O  O18  1  0.09811000  0.51763000  0.47033000  1.0 -0.5571681147
O  O19  1  0.09811000  0.98237000  0.97033000  1.0 -0.5571681147
O  O20  1  0.90189000  0.01763000  0.02967000  1.0 -0.549745535
O  O21  1  0.93035000  0.26325000  0.54074000  1.0 -0.549745535
O  O22  1  0.06965000  0.73675000  0.45926000  1.0 -0.549745535
O  O23  1  0.06965000  0.76325000  0.95926000  1.0 -0.549745535
O  O24  1  0.93035000  0.23675000  0.04074000  1.0 -0.549745535
