# DDEC6 charges by PACMAN v1.1 (https://github.com/mtap-research/PACMAN-charge/)
data_AVUPEP_FSR_pacman
_symmetry_space_group_name_H-M   'P 1'
_cell_length_a   23.26220000
_cell_length_b   23.26220000
_cell_length_c   23.26220000
_cell_angle_alpha   60.00000000
_cell_angle_beta   60.00000000
_cell_angle_gamma   60.00000000
_symmetry_Int_Tables_number   1
_chemical_formula_structural   Fe3H18(C9O4)4
_chemical_formula_sum   'Fe12 H72 C144 O64'
_cell_volume   8900.97042683
_cell_formula_units_Z   4
loop_
 _symmetry_equiv_pos_site_id
 _symmetry_equiv_pos_as_xyz
  1  'x, y, z'
loop_
 _atom_site_type_symbol
 _atom_site_label
 _atom_site_symmetry_multiplicity
 _atom_site_fract_x
 _atom_site_fract_y
 _atom_site_fract_z
 _atom_site_occupancy
 _atom_site_charge
Fe  Fe1  1  0.09700000  0.20700000  0.07940000  1.0 0.7537982202
Fe  Fe2  1  0.20700000  0.09700000  0.61660000  1.0 0.7537982202
Fe  Fe3  1  0.07940000  0.61660000  0.09700000  1.0 0.7564660645
Fe  Fe4  1  0.61660000  0.07940000  0.20700000  1.0 0.7537982202
Fe  Fe5  1  0.61660000  0.20700000  0.09700000  1.0 0.7564660645
Fe  Fe6  1  0.07940000  0.09700000  0.20700000  1.0 0.7537982202
Fe  Fe7  1  0.20700000  0.61660000  0.07940000  1.0 0.7564660645
Fe  Fe8  1  0.09700000  0.07940000  0.61660000  1.0 0.7537982202
Fe  Fe9  1  0.07940000  0.20700000  0.61660000  1.0 0.7537982202
Fe  Fe10  1  0.61660000  0.09700000  0.07940000  1.0 0.7537982202
Fe  Fe11  1  0.09700000  0.61660000  0.20700000  1.0 0.7564660645
Fe  Fe12  1  0.20700000  0.07940000  0.09700000  1.0 0.7537982202
H  H1  1  0.09390000  0.23350000  0.86930000  1.0 0.1278459027
H  H2  1  0.88000000  0.25520000  0.08220000  1.0 0.1278459027
H  H3  1  0.14800000  0.40380000  0.02720000  1.0 0.1097261066
H  H4  1  0.32530000  0.16330000  0.04330000  1.0 0.1278459027
H  H5  1  0.05490000  0.41010000  0.00370000  1.0 0.3692464021
H  H6  1  0.02010000  0.35130000  0.04990000  1.0 0.375350469
H  H7  1  0.23350000  0.09390000  0.80330000  1.0 0.1278459027
H  H8  1  0.25520000  0.88000000  0.78260000  1.0 0.1278459027
H  H9  1  0.40380000  0.14800000  0.42100000  1.0 0.1097261066
H  H10  1  0.16330000  0.32530000  0.46810000  1.0 0.1278459027
H  H11  1  0.41010000  0.05490000  0.53130000  1.0 0.3692464021
H  H12  1  0.35130000  0.02010000  0.57870000  1.0 0.375350469
H  H13  1  0.86930000  0.80330000  0.09390000  1.0 0.1278459027
H  H14  1  0.08220000  0.78260000  0.88000000  1.0 0.1278459027
H  H15  1  0.02720000  0.42100000  0.14800000  1.0 0.1097261066
H  H16  1  0.04330000  0.46810000  0.32530000  1.0 0.1278459027
H  H17  1  0.00370000  0.53130000  0.05490000  1.0 0.3692464021
H  H18  1  0.04990000  0.57870000  0.02010000  1.0 0.375350469
H  H19  1  0.80330000  0.86930000  0.23350000  1.0 0.1278459027
H  H20  1  0.78260000  0.08220000  0.25520000  1.0 0.1278459027
H  H21  1  0.42100000  0.02720000  0.40380000  1.0 0.1097261066
H  H22  1  0.46810000  0.04330000  0.16330000  1.0 0.1278459027
H  H23  1  0.53130000  0.00370000  0.41010000  1.0 0.3692464021
H  H24  1  0.57870000  0.04990000  0.35130000  1.0 0.375350469
H  H25  1  0.80330000  0.23350000  0.09390000  1.0 0.1278459027
H  H26  1  0.78260000  0.25520000  0.88000000  1.0 0.1278459027
H  H27  1  0.42100000  0.40380000  0.14800000  1.0 0.1097261066
H  H28  1  0.46810000  0.16330000  0.32530000  1.0 0.1278459027
H  H29  1  0.53130000  0.41010000  0.05490000  1.0 0.3692464021
H  H30  1  0.57870000  0.35130000  0.02010000  1.0 0.375350469
H  H31  1  0.86930000  0.09390000  0.23350000  1.0 0.1278459027
H  H32  1  0.08220000  0.88000000  0.25520000  1.0 0.1278459027
H  H33  1  0.02720000  0.14800000  0.40380000  1.0 0.1097261066
H  H34  1  0.04330000  0.32530000  0.16330000  1.0 0.1278459027
H  H35  1  0.00370000  0.05490000  0.41010000  1.0 0.3692464021
H  H36  1  0.04990000  0.02010000  0.35130000  1.0 0.375350469
H  H37  1  0.23350000  0.80330000  0.86930000  1.0 0.1278459027
H  H38  1  0.25520000  0.78260000  0.08220000  1.0 0.1278459027
H  H39  1  0.40380000  0.42100000  0.02720000  1.0 0.1097261066
H  H40  1  0.16330000  0.46810000  0.04330000  1.0 0.1278459027
H  H41  1  0.41010000  0.53130000  0.00370000  1.0 0.3692464021
H  H42  1  0.35130000  0.57870000  0.04990000  1.0 0.375350469
H  H43  1  0.09390000  0.86930000  0.80330000  1.0 0.1278459027
H  H44  1  0.88000000  0.08220000  0.78260000  1.0 0.1278459027
H  H45  1  0.14800000  0.02720000  0.42100000  1.0 0.1097261066
H  H46  1  0.32530000  0.04330000  0.46810000  1.0 0.1278459027
H  H47  1  0.05490000  0.00370000  0.53130000  1.0 0.3692464021
H  H48  1  0.02010000  0.04990000  0.57870000  1.0 0.375350469
H  H49  1  0.86930000  0.23350000  0.80330000  1.0 0.1278459027
H  H50  1  0.08220000  0.25520000  0.78260000  1.0 0.1278459027
H  H51  1  0.02720000  0.40380000  0.42100000  1.0 0.1097261066
H  H52  1  0.04330000  0.16330000  0.46810000  1.0 0.1278459027
H  H53  1  0.00370000  0.41010000  0.53130000  1.0 0.3692464021
H  H54  1  0.04990000  0.35130000  0.57870000  1.0 0.375350469
H  H55  1  0.80330000  0.09390000  0.86930000  1.0 0.1278459027
H  H56  1  0.78260000  0.88000000  0.08220000  1.0 0.1278459027
H  H57  1  0.42100000  0.14800000  0.02720000  1.0 0.1097261066
H  H58  1  0.46810000  0.32530000  0.04330000  1.0 0.1278459027
H  H59  1  0.53130000  0.05490000  0.00370000  1.0 0.3692464021
H  H60  1  0.57870000  0.02010000  0.04990000  1.0 0.375350469
H  H61  1  0.09390000  0.80330000  0.23350000  1.0 0.1278459027
H  H62  1  0.88000000  0.78260000  0.25520000  1.0 0.1278459027
H  H63  1  0.14800000  0.42100000  0.40380000  1.0 0.1097261066
H  H64  1  0.32530000  0.46810000  0.16330000  1.0 0.1278459027
H  H65  1  0.05490000  0.53130000  0.41010000  1.0 0.3692464021
H  H66  1  0.02010000  0.57870000  0.35130000  1.0 0.375350469
H  H67  1  0.23350000  0.86930000  0.09390000  1.0 0.1278459027
H  H68  1  0.25520000  0.08220000  0.88000000  1.0 0.1278459027
H  H69  1  0.40380000  0.02720000  0.14800000  1.0 0.1097261066
H  H70  1  0.16330000  0.04330000  0.32530000  1.0 0.1278459027
H  H71  1  0.41010000  0.00370000  0.05490000  1.0 0.3692464021
H  H72  1  0.35130000  0.04990000  0.02010000  1.0 0.375350469
C  C1  1  0.04540000  0.24560000  0.91240000  1.0 -0.2507869938
C  C2  1  0.98130000  0.26010000  0.90910000  1.0 0.0606375563
C  C3  1  0.92310000  0.26190000  0.03210000  1.0 -0.2379289097
C  C4  1  0.91660000  0.26420000  0.97520000  1.0 0.0606375563
C  C5  1  0.05140000  0.23860000  0.97780000  1.0 0.2307287491
C  C6  1  0.99100000  0.24900000  0.03360000  1.0 0.2074476467
C  C7  1  0.30270000  0.26350000  0.04270000  1.0 0.0511654723
C  C8  1  0.18450000  0.34970000  0.03610000  1.0 -0.2507869938
C  C9  1  0.24760000  0.33580000  0.04040000  1.0 0.0327384971
C  C10  1  0.28510000  0.21310000  0.04710000  1.0 -0.2379289097
C  C11  1  0.16510000  0.29090000  0.04630000  1.0 0.1798458173
C  C12  1  0.21460000  0.22500000  0.05420000  1.0 0.2015524531
C  C13  1  0.24560000  0.04540000  0.79660000  1.0 -0.2507869938
C  C14  1  0.26010000  0.98130000  0.84950000  1.0 0.0606375563
C  C15  1  0.26190000  0.92310000  0.78290000  1.0 -0.2379289097
C  C16  1  0.26420000  0.91660000  0.84400000  1.0 0.0606375563
C  C17  1  0.23860000  0.05140000  0.73220000  1.0 0.2307287491
C  C18  1  0.24900000  0.99100000  0.72640000  1.0 0.2074476467
C  C19  1  0.26350000  0.30270000  0.39110000  1.0 0.0511654723
C  C20  1  0.34970000  0.18450000  0.42970000  1.0 -0.2507869938
C  C21  1  0.33580000  0.24760000  0.37620000  1.0 0.0327384971
C  C22  1  0.21310000  0.28510000  0.45470000  1.0 -0.2379289097
C  C23  1  0.29090000  0.16510000  0.49770000  1.0 0.1798458173
C  C24  1  0.22500000  0.21460000  0.50620000  1.0 0.2015524531
C  C25  1  0.91240000  0.79660000  0.04540000  1.0 -0.2507869938
C  C26  1  0.90910000  0.84950000  0.98130000  1.0 0.0606375563
C  C27  1  0.03210000  0.78290000  0.92310000  1.0 -0.2379289097
C  C28  1  0.97520000  0.84400000  0.91660000  1.0 0.0606375563
C  C29  1  0.97780000  0.73220000  0.05140000  1.0 0.2307287491
C  C30  1  0.03360000  0.72640000  0.99100000  1.0 0.2074476467
C  C31  1  0.04270000  0.39110000  0.30270000  1.0 0.0511654723
C  C32  1  0.03610000  0.42970000  0.18450000  1.0 -0.2507869938
C  C33  1  0.04040000  0.37620000  0.24760000  1.0 0.0327384971
C  C34  1  0.04710000  0.45470000  0.28510000  1.0 -0.2379289097
C  C35  1  0.04630000  0.49770000  0.16510000  1.0 0.1798458173
C  C36  1  0.05420000  0.50620000  0.21460000  1.0 0.2015524531
C  C37  1  0.79660000  0.91240000  0.24560000  1.0 -0.2507869938
C  C38  1  0.84950000  0.90910000  0.26010000  1.0 0.0606375563
C  C39  1  0.78290000  0.03210000  0.26190000  1.0 -0.2379289097
C  C40  1  0.84400000  0.97520000  0.26420000  1.0 0.0606375563
C  C41  1  0.73220000  0.97780000  0.23860000  1.0 0.2307287491
C  C42  1  0.72640000  0.03360000  0.24900000  1.0 0.2074476467
C  C43  1  0.39110000  0.04270000  0.26350000  1.0 0.0511654723
C  C44  1  0.42970000  0.03610000  0.34970000  1.0 -0.2507869938
C  C45  1  0.37620000  0.04040000  0.33580000  1.0 0.0327384971
C  C46  1  0.45470000  0.04710000  0.21310000  1.0 -0.2379289097
C  C47  1  0.49770000  0.04630000  0.29090000  1.0 0.1798458173
C  C48  1  0.50620000  0.05420000  0.22500000  1.0 0.2015524531
C  C49  1  0.79660000  0.24560000  0.04540000  1.0 -0.2507869938
C  C50  1  0.84950000  0.26010000  0.98130000  1.0 0.0606375563
C  C51  1  0.78290000  0.26190000  0.92310000  1.0 -0.2379289097
C  C52  1  0.84400000  0.26420000  0.91660000  1.0 0.0606375563
C  C53  1  0.73220000  0.23860000  0.05140000  1.0 0.2307287491
C  C54  1  0.72640000  0.24900000  0.99100000  1.0 0.2074476467
C  C55  1  0.39110000  0.26350000  0.30270000  1.0 0.0511654723
C  C56  1  0.42970000  0.34970000  0.18450000  1.0 -0.2507869938
C  C57  1  0.37620000  0.33580000  0.24760000  1.0 0.0327384971
C  C58  1  0.45470000  0.21310000  0.28510000  1.0 -0.2379289097
C  C59  1  0.49770000  0.29090000  0.16510000  1.0 0.1798458173
C  C60  1  0.50620000  0.22500000  0.21460000  1.0 0.2015524531
C  C61  1  0.91240000  0.04540000  0.24560000  1.0 -0.2507869938
C  C62  1  0.90910000  0.98130000  0.26010000  1.0 0.0606375563
C  C63  1  0.03210000  0.92310000  0.26190000  1.0 -0.2379289097
C  C64  1  0.97520000  0.91660000  0.26420000  1.0 0.0606375563
C  C65  1  0.97780000  0.05140000  0.23860000  1.0 0.2307287491
C  C66  1  0.03360000  0.99100000  0.24900000  1.0 0.2074476467
C  C67  1  0.04270000  0.30270000  0.26350000  1.0 0.0511654723
C  C68  1  0.03610000  0.18450000  0.34970000  1.0 -0.2507869938
C  C69  1  0.04040000  0.24760000  0.33580000  1.0 0.0327384971
C  C70  1  0.04710000  0.28510000  0.21310000  1.0 -0.2379289097
C  C71  1  0.04630000  0.16510000  0.29090000  1.0 0.1798458173
C  C72  1  0.05420000  0.21460000  0.22500000  1.0 0.2015524531
C  C73  1  0.24560000  0.79660000  0.91240000  1.0 -0.2507869938
C  C74  1  0.26010000  0.84950000  0.90910000  1.0 0.0606375563
C  C75  1  0.26190000  0.78290000  0.03210000  1.0 -0.2379289097
C  C76  1  0.26420000  0.84400000  0.97520000  1.0 0.0606375563
C  C77  1  0.23860000  0.73220000  0.97780000  1.0 0.2307287491
C  C78  1  0.24900000  0.72640000  0.03360000  1.0 0.2074476467
C  C79  1  0.26350000  0.39110000  0.04270000  1.0 0.0511654723
C  C80  1  0.34970000  0.42970000  0.03610000  1.0 -0.2507869938
C  C81  1  0.33580000  0.37620000  0.04040000  1.0 0.0327384971
C  C82  1  0.21310000  0.45470000  0.04710000  1.0 -0.2379289097
C  C83  1  0.29090000  0.49770000  0.04630000  1.0 0.1798458173
C  C84  1  0.22500000  0.50620000  0.05420000  1.0 0.2015524531
C  C85  1  0.04540000  0.91240000  0.79660000  1.0 -0.2507869938
C  C86  1  0.98130000  0.90910000  0.84950000  1.0 0.0606375563
C  C87  1  0.92310000  0.03210000  0.78290000  1.0 -0.2379289097
C  C88  1  0.91660000  0.97520000  0.84400000  1.0 0.0606375563
C  C89  1  0.05140000  0.97780000  0.73220000  1.0 0.2307287491
C  C90  1  0.99100000  0.03360000  0.72640000  1.0 0.2074476467
C  C91  1  0.30270000  0.04270000  0.39110000  1.0 0.0511654723
C  C92  1  0.18450000  0.03610000  0.42970000  1.0 -0.2507869938
C  C93  1  0.24760000  0.04040000  0.37620000  1.0 0.0327384971
C  C94  1  0.28510000  0.04710000  0.45470000  1.0 -0.2379289097
C  C95  1  0.16510000  0.04630000  0.49770000  1.0 0.1798458173
C  C96  1  0.21460000  0.05420000  0.50620000  1.0 0.2015524531
C  C97  1  0.91240000  0.24560000  0.79660000  1.0 -0.2507869938
C  C98  1  0.90910000  0.26010000  0.84950000  1.0 0.0606375563
C  C99  1  0.03210000  0.26190000  0.78290000  1.0 -0.2379289097
C  C100  1  0.97520000  0.26420000  0.84400000  1.0 0.0606375563
C  C101  1  0.97780000  0.23860000  0.73220000  1.0 0.2307287491
C  C102  1  0.03360000  0.24900000  0.72640000  1.0 0.2074476467
C  C103  1  0.04270000  0.26350000  0.39110000  1.0 0.0511654723
C  C104  1  0.03610000  0.34970000  0.42970000  1.0 -0.2507869938
C  C105  1  0.04040000  0.33580000  0.37620000  1.0 0.0327384971
C  C106  1  0.04710000  0.21310000  0.45470000  1.0 -0.2379289097
C  C107  1  0.04630000  0.29090000  0.49770000  1.0 0.1798458173
C  C108  1  0.05420000  0.22500000  0.50620000  1.0 0.2015524531
C  C109  1  0.79660000  0.04540000  0.91240000  1.0 -0.2507869938
C  C110  1  0.84950000  0.98130000  0.90910000  1.0 0.0606375563
C  C111  1  0.78290000  0.92310000  0.03210000  1.0 -0.2379289097
C  C112  1  0.84400000  0.91660000  0.97520000  1.0 0.0606375563
C  C113  1  0.73220000  0.05140000  0.97780000  1.0 0.2307287491
C  C114  1  0.72640000  0.99100000  0.03360000  1.0 0.2074476467
C  C115  1  0.39110000  0.30270000  0.04270000  1.0 0.0511654723
C  C116  1  0.42970000  0.18450000  0.03610000  1.0 -0.2507869938
C  C117  1  0.37620000  0.24760000  0.04040000  1.0 0.0327384971
C  C118  1  0.45470000  0.28510000  0.04710000  1.0 -0.2379289097
C  C119  1  0.49770000  0.16510000  0.04630000  1.0 0.1798458173
C  C120  1  0.50620000  0.21460000  0.05420000  1.0 0.2015524531
C  C121  1  0.04540000  0.79660000  0.24560000  1.0 -0.2507869938
C  C122  1  0.98130000  0.84950000  0.26010000  1.0 0.0606375563
C  C123  1  0.92310000  0.78290000  0.26190000  1.0 -0.2379289097
C  C124  1  0.91660000  0.84400000  0.26420000  1.0 0.0606375563
C  C125  1  0.05140000  0.73220000  0.23860000  1.0 0.2307287491
C  C126  1  0.99100000  0.72640000  0.24900000  1.0 0.2074476467
C  C127  1  0.30270000  0.39110000  0.26350000  1.0 0.0511654723
C  C128  1  0.18450000  0.42970000  0.34970000  1.0 -0.2507869938
C  C129  1  0.24760000  0.37620000  0.33580000  1.0 0.0327384971
C  C130  1  0.28510000  0.45470000  0.21310000  1.0 -0.2379289097
C  C131  1  0.16510000  0.49770000  0.29090000  1.0 0.1798458173
C  C132  1  0.21460000  0.50620000  0.22500000  1.0 0.2015524531
C  C133  1  0.24560000  0.91240000  0.04540000  1.0 -0.2507869938
C  C134  1  0.26010000  0.90910000  0.98130000  1.0 0.0606375563
C  C135  1  0.26190000  0.03210000  0.92310000  1.0 -0.2379289097
C  C136  1  0.26420000  0.97520000  0.91660000  1.0 0.0606375563
C  C137  1  0.23860000  0.97780000  0.05140000  1.0 0.2307287491
C  C138  1  0.24900000  0.03360000  0.99100000  1.0 0.2074476467
C  C139  1  0.26350000  0.04270000  0.30270000  1.0 0.0511654723
C  C140  1  0.34970000  0.03610000  0.18450000  1.0 -0.2507869938
C  C141  1  0.33580000  0.04040000  0.24760000  1.0 0.0327384971
C  C142  1  0.21310000  0.04710000  0.28510000  1.0 -0.2379289097
C  C143  1  0.29090000  0.04630000  0.16510000  1.0 0.1798458173
C  C144  1  0.22500000  0.05420000  0.21460000  1.0 0.2015524531
O  O1  1  0.10840000  0.22160000  0.98480000  1.0 -0.3570285791
O  O2  1  0.99670000  0.24030000  0.08890000  1.0 -0.3687740876
O  O3  1  0.10580000  0.29760000  0.05140000  1.0 -0.2507869938
O  O4  1  0.19280000  0.17840000  0.07000000  1.0 -0.3513868841
O  O5  1  0.03380000  0.38320000  0.05320000  1.0 -0.4863080843
O  O6  1  0.22160000  0.10840000  0.68520000  1.0 -0.3570285791
O  O7  1  0.24030000  0.99670000  0.67410000  1.0 -0.3687740876
O  O8  1  0.29760000  0.10580000  0.54520000  1.0 -0.2507869938
O  O9  1  0.17840000  0.19280000  0.55880000  1.0 -0.3513868841
O  O10  1  0.38320000  0.03380000  0.52980000  1.0 -0.4863080843
O  O11  1  0.98480000  0.68520000  0.10840000  1.0 -0.3570285791
O  O12  1  0.08890000  0.67410000  0.99670000  1.0 -0.3687740876
O  O13  1  0.05140000  0.54520000  0.10580000  1.0 -0.2507869938
O  O14  1  0.07000000  0.55880000  0.19280000  1.0 -0.3513868841
O  O15  1  0.05320000  0.52980000  0.03380000  1.0 -0.4863080843
O  O16  1  0.68520000  0.98480000  0.22160000  1.0 -0.3570285791
O  O17  1  0.67410000  0.08890000  0.24030000  1.0 -0.3687740876
O  O18  1  0.54520000  0.05140000  0.29760000  1.0 -0.2507869938
O  O19  1  0.55880000  0.07000000  0.17840000  1.0 -0.3513868841
O  O20  1  0.52980000  0.05320000  0.38320000  1.0 -0.4863080843
O  O21  1  0.68520000  0.22160000  0.10840000  1.0 -0.3570285791
O  O22  1  0.67410000  0.24030000  0.99670000  1.0 -0.3687740876
O  O23  1  0.54520000  0.29760000  0.10580000  1.0 -0.2507869938
O  O24  1  0.55880000  0.17840000  0.19280000  1.0 -0.3513868841
O  O25  1  0.52980000  0.38320000  0.03380000  1.0 -0.4863080843
O  O26  1  0.98480000  0.10840000  0.22160000  1.0 -0.3513868841
O  O27  1  0.08890000  0.99670000  0.24030000  1.0 -0.3687740876
O  O28  1  0.05140000  0.10580000  0.29760000  1.0 -0.2507869938
O  O29  1  0.07000000  0.19280000  0.17840000  1.0 -0.3513868841
O  O30  1  0.05320000  0.03380000  0.38320000  1.0 -0.4863080843
O  O31  1  0.22160000  0.68520000  0.98480000  1.0 -0.3570285791
O  O32  1  0.24030000  0.67410000  0.08890000  1.0 -0.3687740876
O  O33  1  0.29760000  0.54520000  0.05140000  1.0 -0.2507869938
O  O34  1  0.17840000  0.55880000  0.07000000  1.0 -0.3513868841
O  O35  1  0.38320000  0.52980000  0.05320000  1.0 -0.4863080843
O  O36  1  0.10840000  0.98480000  0.68520000  1.0 -0.3513868841
O  O37  1  0.99670000  0.08890000  0.67410000  1.0 -0.3687740876
O  O38  1  0.10580000  0.05140000  0.54520000  1.0 -0.2507869938
O  O39  1  0.19280000  0.07000000  0.55880000  1.0 -0.3513868841
O  O40  1  0.03380000  0.05320000  0.52980000  1.0 -0.4863080843
O  O41  1  0.98480000  0.22160000  0.68520000  1.0 -0.3570285791
O  O42  1  0.08890000  0.24030000  0.67410000  1.0 -0.3687740876
O  O43  1  0.05140000  0.29760000  0.54520000  1.0 -0.2507869938
O  O44  1  0.07000000  0.17840000  0.55880000  1.0 -0.3513868841
O  O45  1  0.05320000  0.38320000  0.52980000  1.0 -0.4863080843
O  O46  1  0.68520000  0.10840000  0.98480000  1.0 -0.3570285791
O  O47  1  0.67410000  0.99670000  0.08890000  1.0 -0.3687740876
O  O48  1  0.54520000  0.10580000  0.05140000  1.0 -0.2507869938
O  O49  1  0.55880000  0.19280000  0.07000000  1.0 -0.3513868841
O  O50  1  0.52980000  0.03380000  0.05320000  1.0 -0.4863080843
O  O51  1  0.10840000  0.68520000  0.22160000  1.0 -0.3570285791
O  O52  1  0.99670000  0.67410000  0.24030000  1.0 -0.3687740876
O  O53  1  0.10580000  0.54520000  0.29760000  1.0 -0.2507869938
O  O54  1  0.19280000  0.55880000  0.17840000  1.0 -0.3513868841
O  O55  1  0.03380000  0.52980000  0.38320000  1.0 -0.4863080843
O  O56  1  0.22160000  0.98480000  0.10840000  1.0 -0.3570285791
O  O57  1  0.24030000  0.08890000  0.99670000  1.0 -0.3687740876
O  O58  1  0.29760000  0.05140000  0.10580000  1.0 -0.2507869938
O  O59  1  0.17840000  0.07000000  0.19280000  1.0 -0.3513868841
O  O60  1  0.38320000  0.05320000  0.03380000  1.0 -0.4863080843
O  O61  1  0.10910000  0.10910000  0.10910000  1.0 -0.679577347
O  O62  1  0.10910000  0.10910000  0.67270000  1.0 -0.679577347
O  O63  1  0.10910000  0.67270000  0.10910000  1.0 -0.679577347
O  O64  1  0.67270000  0.10910000  0.10910000  1.0 -0.679577347
