# DDEC6 charges by PACMAN v1.1 (https://github.com/mtap-research/PACMAN-charge/)
data_AWAROF_FSR_pacman
_symmetry_space_group_name_H-M   'P 1'
_cell_length_a   11.21450000
_cell_length_b   11.21450000
_cell_length_c   11.21450000
_cell_angle_alpha   111.81700000
_cell_angle_beta   111.81700000
_cell_angle_gamma   111.81700000
_symmetry_Int_Tables_number   1
_chemical_formula_structural   ZnH6C2N5F
_chemical_formula_sum   'Zn6 H36 C12 N30 F6'
_cell_volume   980.17854642
_cell_formula_units_Z   6
loop_
 _symmetry_equiv_pos_site_id
 _symmetry_equiv_pos_as_xyz
  1  'x, y, z'
loop_
 _atom_site_type_symbol
 _atom_site_label
 _atom_site_symmetry_multiplicity
 _atom_site_fract_x
 _atom_site_fract_y
 _atom_site_fract_z
 _atom_site_occupancy
 _atom_site_charge
Zn  Zn1  1  0.25000000  0.62662000  0.87338000  1.0 0.7754986973
Zn  Zn2  1  0.62662000  0.87338000  0.25000000  1.0 0.7754986973
Zn  Zn3  1  0.87338000  0.25000000  0.62662000  1.0 0.7754986973
Zn  Zn4  1  0.12662000  0.75000000  0.37338000  1.0 0.7754986973
Zn  Zn5  1  0.37338000  0.12662000  0.75000000  1.0 0.7754986973
Zn  Zn6  1  0.75000000  0.37338000  0.12662000  1.0 0.7754986973
H  H1  1  0.99510000  0.64840000  0.92530000  1.0 0.2546060827
H  H2  1  0.64840000  0.92530000  0.99510000  1.0 0.2546060827
H  H3  1  0.92530000  0.99510000  0.64840000  1.0 0.2546060827
H  H4  1  0.50490000  0.57470000  0.85160000  1.0 0.2546060827
H  H5  1  0.14840000  0.49510000  0.42530000  1.0 0.2546060827
H  H6  1  0.42530000  0.14840000  0.49510000  1.0 0.2546060827
H  H7  1  0.35160000  0.07470000  0.00490000  1.0 0.2546060827
H  H8  1  0.07470000  0.00490000  0.35160000  1.0 0.2553191574
H  H9  1  0.00490000  0.35160000  0.07470000  1.0 0.2546060827
H  H10  1  0.49510000  0.42530000  0.14840000  1.0 0.2546060827
H  H11  1  0.85160000  0.50490000  0.57470000  1.0 0.2546060827
H  H12  1  0.57470000  0.85160000  0.50490000  1.0 0.2546060827
H  H13  1  0.96190000  0.65510000  0.04420000  1.0 0.2178120257
H  H14  1  0.65510000  0.04420000  0.96190000  1.0 0.2178120257
H  H15  1  0.04420000  0.96190000  0.65510000  1.0 0.2178120257
H  H16  1  0.53810000  0.45580000  0.84490000  1.0 0.2178120257
H  H17  1  0.15510000  0.46190000  0.54420000  1.0 0.2178120257
H  H18  1  0.54420000  0.15510000  0.46190000  1.0 0.2178120257
H  H19  1  0.34490000  0.95580000  0.03810000  1.0 0.2178120257
H  H20  1  0.95580000  0.03810000  0.34490000  1.0 0.2178120257
H  H21  1  0.03810000  0.34490000  0.95580000  1.0 0.2178120257
H  H22  1  0.46190000  0.54420000  0.15510000  1.0 0.2178120257
H  H23  1  0.84490000  0.53810000  0.45580000  1.0 0.2178120257
H  H24  1  0.45580000  0.84490000  0.53810000  1.0 0.2178120257
H  H25  1  0.06970000  0.66410000  0.04200000  1.0 0.0546273085
H  H26  1  0.66410000  0.04200000  0.06970000  1.0 0.0546273085
H  H27  1  0.04200000  0.06970000  0.66410000  1.0 0.0546273085
H  H28  1  0.43030000  0.45800000  0.83590000  1.0 0.0546273085
H  H29  1  0.16410000  0.56970000  0.54200000  1.0 0.0546273085
H  H30  1  0.54200000  0.16410000  0.56970000  1.0 0.0546273085
H  H31  1  0.33590000  0.95800000  0.93030000  1.0 0.0546273085
H  H32  1  0.95800000  0.93030000  0.33590000  1.0 0.0546273085
H  H33  1  0.93030000  0.33590000  0.95800000  1.0 0.0546273085
H  H34  1  0.56970000  0.54200000  0.16410000  1.0 0.0546273085
H  H35  1  0.83590000  0.43030000  0.45800000  1.0 0.0546273085
H  H36  1  0.45800000  0.83590000  0.43030000  1.0 0.0546273085
C  C1  1  0.17366000  0.70384000  0.11490000  1.0 0.2805316788
C  C2  1  0.70384000  0.11490000  0.17366000  1.0 0.2805316788
C  C3  1  0.11490000  0.17366000  0.70384000  1.0 0.2805316788
C  C4  1  0.32634000  0.38510000  0.79616000  1.0 0.2805316788
C  C5  1  0.20384000  0.67366000  0.61490000  1.0 0.2805316788
C  C6  1  0.61490000  0.20384000  0.67366000  1.0 0.2805316788
C  C7  1  0.29616000  0.88510000  0.82634000  1.0 0.2805316788
C  C8  1  0.88510000  0.82634000  0.29616000  1.0 0.2805316788
C  C9  1  0.82634000  0.29616000  0.88510000  1.0 0.2805316788
C  C10  1  0.67366000  0.61490000  0.20384000  1.0 0.2805316788
C  C11  1  0.79616000  0.32634000  0.38510000  1.0 0.2805316788
C  C12  1  0.38510000  0.79616000  0.32634000  1.0 0.2805316788
N  N1  1  0.02450000  0.66380000  0.01550000  1.0 -0.5115846106
N  N2  1  0.66380000  0.01550000  0.02450000  1.0 -0.5115846106
N  N3  1  0.01550000  0.02450000  0.66380000  1.0 -0.5115846106
N  N4  1  0.47550000  0.48450000  0.83620000  1.0 -0.5115846106
N  N5  1  0.16380000  0.52450000  0.51550000  1.0 -0.5115846106
N  N6  1  0.51550000  0.16380000  0.52450000  1.0 -0.5115846106
N  N7  1  0.33620000  0.98450000  0.97550000  1.0 -0.5115846106
N  N8  1  0.98450000  0.97550000  0.33620000  1.0 -0.5115846106
N  N9  1  0.97550000  0.33620000  0.98450000  1.0 -0.5115846106
N  N10  1  0.52450000  0.51550000  0.16380000  1.0 -0.5115846106
N  N11  1  0.83620000  0.47550000  0.48450000  1.0 -0.5115846106
N  N12  1  0.48450000  0.83620000  0.47550000  1.0 -0.5115846106
N  N13  1  0.27817000  0.71942000  0.08271000  1.0 -0.2465045324
N  N14  1  0.71942000  0.08271000  0.27817000  1.0 -0.2465045324
N  N15  1  0.08271000  0.27817000  0.71942000  1.0 -0.2465045324
N  N16  1  0.22183000  0.41729000  0.78058000  1.0 -0.2465045324
N  N17  1  0.21942000  0.77817000  0.58271000  1.0 -0.2465045324
N  N18  1  0.58271000  0.21942000  0.77817000  1.0 -0.2465045324
N  N19  1  0.28058000  0.91729000  0.72183000  1.0 -0.2465045324
N  N20  1  0.91729000  0.72183000  0.28058000  1.0 -0.2465045324
N  N21  1  0.72183000  0.28058000  0.91729000  1.0 -0.2465045324
N  N22  1  0.77817000  0.58271000  0.21942000  1.0 -0.2465045324
N  N23  1  0.78058000  0.22183000  0.41729000  1.0 -0.2465045324
N  N24  1  0.41729000  0.78058000  0.22183000  1.0 -0.2465045324
N  N25  1  0.23410000  0.75000000  0.26590000  1.0 -0.3945470808
N  N26  1  0.75000000  0.26590000  0.23410000  1.0 -0.3945470808
N  N27  1  0.26590000  0.23410000  0.75000000  1.0 -0.3945470808
N  N28  1  0.25000000  0.73410000  0.76590000  1.0 -0.3945470808
N  N29  1  0.76590000  0.25000000  0.73410000  1.0 -0.3945470808
N  N30  1  0.73410000  0.76590000  0.25000000  1.0 -0.3945470808
F  F1  1  0.00493000  0.49507000  0.75000000  1.0 -0.4800463675
F  F2  1  0.49507000  0.75000000  0.00493000  1.0 -0.4800463675
F  F3  1  0.75000000  0.00493000  0.49507000  1.0 -0.4800463675
F  F4  1  0.99507000  0.50493000  0.25000000  1.0 -0.4800463675
F  F5  1  0.25000000  0.99507000  0.50493000  1.0 -0.4800463675
F  F6  1  0.50493000  0.25000000  0.99507000  1.0 -0.4800463675
