# DDEC6 charges by PACMAN v1.1 (https://github.com/mtap-research/PACMAN-charge/)
data_AWASAU_FSR_pacman
_symmetry_space_group_name_H-M   'P 1'
_cell_length_a   15.28900000
_cell_length_b   8.16800000
_cell_length_c   30.17730000
_cell_angle_alpha   90.00000000
_cell_angle_beta   109.21600000
_cell_angle_gamma   90.00000000
_symmetry_Int_Tables_number   1
_chemical_formula_structural   PrCu4H16C20I4N4O7
_chemical_formula_sum   'Pr4 Cu16 H64 C80 I16 N16 O28'
_cell_volume   3558.59078210
_cell_formula_units_Z   4
loop_
 _symmetry_equiv_pos_site_id
 _symmetry_equiv_pos_as_xyz
  1  'x, y, z'
loop_
 _atom_site_type_symbol
 _atom_site_label
 _atom_site_symmetry_multiplicity
 _atom_site_fract_x
 _atom_site_fract_y
 _atom_site_fract_z
 _atom_site_occupancy
 _atom_site_charge
Pr  Pr1  1  0.53836000  0.25071000  0.98819000  1.0 2.1135082014
Pr  Pr2  1  0.46164000  0.75071000  0.51181000  1.0 2.1135082014
Pr  Pr3  1  0.46164000  0.74929000  0.01181000  1.0 2.1135082014
Pr  Pr4  1  0.53836000  0.24929000  0.48819000  1.0 2.1135082014
Cu  Cu1  1  0.82827000  0.56998000  0.82984000  1.0 0.132272457
Cu  Cu2  1  0.17173000  0.06998000  0.67016000  1.0 0.132272457
Cu  Cu3  1  0.17173000  0.43002000  0.17016000  1.0 0.132272457
Cu  Cu4  1  0.82827000  0.93002000  0.32984000  1.0 0.132272457
Cu  Cu5  1  0.93094000  0.70179000  0.78585000  1.0 0.1496792503
Cu  Cu6  1  0.06906000  0.20179000  0.71415000  1.0 0.1496792503
Cu  Cu7  1  0.06906000  0.29821000  0.21415000  1.0 0.1496792503
Cu  Cu8  1  0.93094000  0.79821000  0.28585000  1.0 0.1496792503
Cu  Cu9  1  0.17454000  0.92063000  0.74951000  1.0 0.1381298067
Cu  Cu10  1  0.82546000  0.42063000  0.75049000  1.0 0.1381298067
Cu  Cu11  1  0.82546000  0.07937000  0.25049000  1.0 0.1381298067
Cu  Cu12  1  0.17454000  0.57937000  0.24951000  1.0 0.1381298067
Cu  Cu13  1  0.02814000  0.89653000  0.67567000  1.0 0.1496792503
Cu  Cu14  1  0.97186000  0.39653000  0.82433000  1.0 0.1496792503
Cu  Cu15  1  0.97186000  0.10347000  0.32433000  1.0 0.1496792503
Cu  Cu16  1  0.02814000  0.60347000  0.17567000  1.0 0.1496792503
H  H1  1  0.20350000  0.10480000  0.13480000  1.0 0.1104559254
H  H2  1  0.79650000  0.60480000  0.36520000  1.0 0.1104559254
H  H3  1  0.79650000  0.89520000  0.86520000  1.0 0.1104559254
H  H4  1  0.20350000  0.39520000  0.63480000  1.0 0.1104559254
H  H5  1  0.29150000  0.98080000  0.09520000  1.0 0.1381298067
H  H6  1  0.70850000  0.48080000  0.40480000  1.0 0.1381298067
H  H7  1  0.70850000  0.01920000  0.90480000  1.0 0.1381298067
H  H8  1  0.29150000  0.51920000  0.59520000  1.0 0.1381298067
H  H9  1  0.41540000  0.41480000  0.09430000  1.0 0.1381298067
H  H10  1  0.58460000  0.91480000  0.40570000  1.0 0.1381298067
H  H11  1  0.58460000  0.58520000  0.90570000  1.0 0.1381298067
H  H12  1  0.41540000  0.08520000  0.59430000  1.0 0.1381298067
H  H13  1  0.32150000  0.52710000  0.13270000  1.0 0.1104559254
H  H14  1  0.67850000  0.02710000  0.36730000  1.0 0.1104559254
H  H15  1  0.67850000  0.47290000  0.86730000  1.0 0.1104559254
H  H16  1  0.32150000  0.97290000  0.63270000  1.0 0.1104559254
H  H17  1  0.34330000  0.71280000  0.77190000  1.0 0.1104559254
H  H18  1  0.65670000  0.21280000  0.72810000  1.0 0.1104559254
H  H19  1  0.65670000  0.28720000  0.22810000  1.0 0.1104559254
H  H20  1  0.34330000  0.78720000  0.27190000  1.0 0.1104559254
H  H21  1  0.43640000  0.54990000  0.83220000  1.0 0.132272457
H  H22  1  0.56360000  0.04990000  0.66780000  1.0 0.132272457
H  H23  1  0.56360000  0.45010000  0.16780000  1.0 0.132272457
H  H24  1  0.43640000  0.95010000  0.33220000  1.0 0.132272457
H  H25  1  0.26420000  0.64030000  0.90470000  1.0 0.1381298067
H  H26  1  0.73580000  0.14030000  0.59530000  1.0 0.1381298067
H  H27  1  0.73580000  0.35970000  0.09530000  1.0 0.1381298067
H  H28  1  0.26420000  0.85970000  0.40470000  1.0 0.1381298067
H  H29  1  0.17320000  0.79730000  0.84240000  1.0 0.0987439992
H  H30  1  0.82680000  0.29730000  0.65760000  1.0 0.0987439992
H  H31  1  0.82680000  0.20270000  0.15760000  1.0 0.0987439992
H  H32  1  0.17320000  0.70270000  0.34240000  1.0 0.0987439992
H  H33  1  0.98010000  0.88480000  0.10650000  1.0 0.1104559254
H  H34  1  0.01990000  0.38480000  0.39350000  1.0 0.1104559254
H  H35  1  0.01990000  0.11520000  0.89350000  1.0 0.1104559254
H  H36  1  0.98010000  0.61520000  0.60650000  1.0 0.1104559254
H  H37  1  0.85000000  0.02360000  0.06070000  1.0 0.1381298067
H  H38  1  0.15000000  0.52360000  0.43930000  1.0 0.1381298067
H  H39  1  0.15000000  0.97640000  0.93930000  1.0 0.1381298067
H  H40  1  0.85000000  0.47640000  0.56070000  1.0 0.1381298067
H  H41  1  0.69750000  0.76320000  0.12240000  1.0 0.1381298067
H  H42  1  0.30250000  0.26320000  0.37760000  1.0 0.1381298067
H  H43  1  0.30250000  0.23680000  0.87760000  1.0 0.1381298067
H  H44  1  0.69750000  0.73680000  0.62240000  1.0 0.1381298067
H  H45  1  0.83230000  0.63080000  0.16650000  1.0 0.0987439992
H  H46  1  0.16770000  0.13080000  0.33350000  1.0 0.0987439992
H  H47  1  0.16770000  0.36920000  0.83350000  1.0 0.0987439992
H  H48  1  0.83230000  0.86920000  0.66650000  1.0 0.0987439992
H  H49  1  0.74250000  0.22000000  0.97000000  1.0 0.0987439992
H  H50  1  0.25750000  0.72000000  0.53000000  1.0 0.0987439992
H  H51  1  0.25750000  0.78000000  0.03000000  1.0 0.0987439992
H  H52  1  0.74250000  0.28000000  0.47000000  1.0 0.0987439992
H  H53  1  0.86910000  0.62890000  0.01140000  1.0 0.121400879
H  H54  1  0.13090000  0.12890000  0.48860000  1.0 0.121400879
H  H55  1  0.13090000  0.37110000  0.98860000  1.0 0.121400879
H  H56  1  0.86910000  0.87110000  0.51140000  1.0 0.121400879
H  H57  1  0.76210000  0.61360000  0.98040000  1.0 0.1104559254
H  H58  1  0.23790000  0.11360000  0.51960000  1.0 0.1104559254
H  H59  1  0.23790000  0.38640000  0.01960000  1.0 0.1104559254
H  H60  1  0.76210000  0.88640000  0.48040000  1.0 0.1104559254
H  H61  1  0.79820000  0.53960000  0.03240000  1.0 0.121400879
H  H62  1  0.20180000  0.03960000  0.46760000  1.0 0.121400879
H  H63  1  0.20180000  0.46040000  0.96760000  1.0 0.121400879
H  H64  1  0.79820000  0.96040000  0.53240000  1.0 0.121400879
C  C1  1  0.24610000  0.16990000  0.12560000  1.0 0.0727203258
C  C2  1  0.75390000  0.66990000  0.37440000  1.0 0.0727203258
C  C3  1  0.75390000  0.83010000  0.87440000  1.0 0.0727203258
C  C4  1  0.24610000  0.33010000  0.62560000  1.0 0.0727203258
C  C5  1  0.29920000  0.09430000  0.10240000  1.0 -0.148593729
C  C6  1  0.70080000  0.59430000  0.39760000  1.0 -0.148593729
C  C7  1  0.70080000  0.90570000  0.89760000  1.0 -0.148593729
C  C8  1  0.29920000  0.40570000  0.60240000  1.0 -0.148593729
C  C9  1  0.36310000  0.18400000  0.08970000  1.0 0.0049455242
C  C10  1  0.63690000  0.68400000  0.41030000  1.0 0.0049455242
C  C11  1  0.63690000  0.81600000  0.91030000  1.0 0.0049455242
C  C12  1  0.36310000  0.31600000  0.58970000  1.0 0.0049455242
C  C13  1  0.37120000  0.34810000  0.10170000  1.0 -0.134212815
C  C14  1  0.62880000  0.84810000  0.39830000  1.0 -0.1391663266
C  C15  1  0.62880000  0.65190000  0.89830000  1.0 -0.1391663266
C  C16  1  0.37120000  0.15190000  0.60170000  1.0 -0.1391663266
C  C17  1  0.31470000  0.41430000  0.12460000  1.0 0.0788445413
C  C18  1  0.68530000  0.91430000  0.37540000  1.0 0.0788445413
C  C19  1  0.68530000  0.58570000  0.87540000  1.0 0.0788445413
C  C20  1  0.31470000  0.08570000  0.62460000  1.0 0.0788445413
C  C21  1  0.42150000  0.10920000  0.06380000  1.0 0.6361908682
C  C22  1  0.57850000  0.60920000  0.43620000  1.0 0.6361908682
C  C23  1  0.57850000  0.89080000  0.93620000  1.0 0.6361908682
C  C24  1  0.42150000  0.39080000  0.56380000  1.0 0.6361908682
C  C25  1  0.32680000  0.69830000  0.79930000  1.0 0.0788445413
C  C26  1  0.67320000  0.19830000  0.70070000  1.0 0.0788445413
C  C27  1  0.67320000  0.30170000  0.20070000  1.0 0.0788445413
C  C28  1  0.32680000  0.80170000  0.29930000  1.0 0.0788445413
C  C29  1  0.38320000  0.60180000  0.83540000  1.0 -0.1391663266
C  C30  1  0.61680000  0.10180000  0.66460000  1.0 -0.1391663266
C  C31  1  0.61680000  0.39820000  0.16460000  1.0 -0.1391663266
C  C32  1  0.38320000  0.89820000  0.33540000  1.0 -0.1391663266
C  C33  1  0.36070000  0.58210000  0.87570000  1.0 0.0209992637
C  C34  1  0.63930000  0.08210000  0.62430000  1.0 0.0209992637
C  C35  1  0.63930000  0.41790000  0.12430000  1.0 0.0209992637
C  C36  1  0.36070000  0.91790000  0.37570000  1.0 0.0209992637
C  C37  1  0.28230000  0.65410000  0.87770000  1.0 -0.1391663266
C  C38  1  0.71770000  0.15410000  0.62230000  1.0 -0.1391663266
C  C39  1  0.71770000  0.34590000  0.12230000  1.0 -0.1391663266
C  C40  1  0.28230000  0.84590000  0.37770000  1.0 -0.1391663266
C  C41  1  0.22810000  0.74820000  0.84030000  1.0 0.0788445413
C  C42  1  0.77190000  0.24820000  0.65970000  1.0 0.0788445413
C  C43  1  0.77190000  0.25180000  0.15970000  1.0 0.0788445413
C  C44  1  0.22810000  0.75180000  0.34030000  1.0 0.0788445413
C  C45  1  0.42270000  0.48040000  0.91540000  1.0 0.5794188447
C  C46  1  0.57730000  0.98040000  0.58460000  1.0 0.5794188447
C  C47  1  0.57730000  0.51960000  0.08460000  1.0 0.5794188447
C  C48  1  0.42270000  0.01960000  0.41540000  1.0 0.5794188447
C  C49  1  0.92160000  0.85800000  0.10920000  1.0 0.0788445413
C  C50  1  0.07840000  0.35800000  0.39080000  1.0 0.0788445413
C  C51  1  0.07840000  0.14200000  0.89080000  1.0 0.0788445413
C  C52  1  0.92160000  0.64200000  0.60920000  1.0 0.0788445413
C  C53  1  0.84450000  0.94090000  0.08170000  1.0 -0.148593729
C  C54  1  0.15550000  0.44090000  0.41830000  1.0 -0.148593729
C  C55  1  0.15550000  0.05910000  0.91830000  1.0 -0.148593729
C  C56  1  0.84450000  0.55910000  0.58170000  1.0 -0.148593729
C  C57  1  0.75940000  0.90250000  0.08520000  1.0 0.0209992637
C  C58  1  0.24060000  0.40250000  0.41480000  1.0 0.0209992637
C  C59  1  0.24060000  0.09750000  0.91480000  1.0 0.0209992637
C  C60  1  0.75940000  0.59750000  0.58520000  1.0 0.0209992637
C  C61  1  0.75470000  0.78800000  0.11790000  1.0 -0.148593729
C  C62  1  0.24530000  0.28800000  0.38210000  1.0 -0.148593729
C  C63  1  0.24530000  0.21200000  0.88210000  1.0 -0.148593729
C  C64  1  0.75470000  0.71200000  0.61790000  1.0 -0.148593729
C  C65  1  0.83560000  0.71030000  0.14410000  1.0 0.0788445413
C  C66  1  0.16440000  0.21030000  0.35590000  1.0 0.0788445413
C  C67  1  0.16440000  0.28970000  0.85590000  1.0 0.0788445413
C  C68  1  0.83560000  0.78970000  0.64410000  1.0 0.0788445413
C  C69  1  0.67300000  0.98620000  0.05430000  1.0 0.6210443743
C  C70  1  0.32700000  0.48620000  0.44570000  1.0 0.6210443743
C  C71  1  0.32700000  0.01380000  0.94570000  1.0 0.6210443743
C  C72  1  0.67300000  0.51380000  0.55430000  1.0 0.6210443743
C  C73  1  0.74390000  0.33300000  0.97710000  1.0 0.3073418804
C  C74  1  0.25610000  0.83300000  0.52290000  1.0 0.3073418804
C  C75  1  0.25610000  0.66700000  0.02290000  1.0 0.3073418804
C  C76  1  0.74390000  0.16700000  0.47710000  1.0 0.3073418804
C  C77  1  0.81400000  0.55900000  0.00390000  1.0 -0.2889037429
C  C78  1  0.18600000  0.05900000  0.49610000  1.0 -0.2889037429
C  C79  1  0.18600000  0.44100000  0.99610000  1.0 -0.2889037429
C  C80  1  0.81400000  0.94100000  0.50390000  1.0 -0.2889037429
I  I1  1  0.00122000  0.67954000  0.87756000  1.0 -0.2889037429
I  I2  1  0.99878000  0.17954000  0.62244000  1.0 -0.2840248379
I  I3  1  0.99878000  0.32046000  0.12244000  1.0 -0.2840248379
I  I4  1  0.00122000  0.82046000  0.37756000  1.0 -0.2840248379
I  I5  1  0.75084000  0.71975000  0.74568000  1.0 -0.2652741603
I  I6  1  0.24916000  0.21975000  0.75432000  1.0 -0.2652741603
I  I7  1  0.24916000  0.28025000  0.25432000  1.0 -0.2652741603
I  I8  1  0.75084000  0.78025000  0.24568000  1.0 -0.2652741603
I  I9  1  0.00628000  0.96087000  0.75902000  1.0 -0.2084999167
I  I10  1  0.99372000  0.46087000  0.74098000  1.0 -0.2084999167
I  I11  1  0.99372000  0.03913000  0.24098000  1.0 -0.2084999167
I  I12  1  0.00628000  0.53913000  0.25902000  1.0 -0.2084999167
I  I13  1  0.18059000  0.74941000  0.67147000  1.0 -0.2889037429
I  I14  1  0.81941000  0.24941000  0.82853000  1.0 -0.2889037429
I  I15  1  0.81941000  0.25059000  0.32853000  1.0 -0.2889037429
I  I16  1  0.18059000  0.75059000  0.17147000  1.0 -0.2889037429
N  N1  1  0.25140000  0.32830000  0.13590000  1.0 -0.1391663266
N  N2  1  0.74860000  0.82830000  0.36410000  1.0 -0.1391663266
N  N3  1  0.74860000  0.67170000  0.86410000  1.0 -0.1391663266
N  N4  1  0.25140000  0.17170000  0.63590000  1.0 -0.1391663266
N  N5  1  0.25070000  0.77160000  0.80180000  1.0 -0.148593729
N  N6  1  0.74930000  0.27160000  0.69820000  1.0 -0.148593729
N  N7  1  0.74930000  0.22840000  0.19820000  1.0 -0.148593729
N  N8  1  0.25070000  0.72840000  0.30180000  1.0 -0.148593729
N  N9  1  0.91780000  0.74080000  0.13970000  1.0 -0.148593729
N  N10  1  0.08220000  0.24080000  0.36030000  1.0 -0.148593729
N  N11  1  0.08220000  0.25920000  0.86030000  1.0 -0.148593729
N  N12  1  0.91780000  0.75920000  0.63970000  1.0 -0.148593729
N  N13  1  0.83210000  0.40900000  0.98590000  1.0 -0.227249407
N  N14  1  0.16790000  0.90900000  0.51410000  1.0 -0.227249407
N  N15  1  0.16790000  0.59100000  0.01410000  1.0 -0.227249407
N  N16  1  0.83210000  0.09100000  0.48590000  1.0 -0.227249407
O  O1  1  0.41644000  0.95790000  0.05754000  1.0 -0.6451217167
O  O2  1  0.58356000  0.45790000  0.44246000  1.0 -0.6451217167
O  O3  1  0.58356000  0.04210000  0.94246000  1.0 -0.6445340745
O  O4  1  0.41644000  0.54210000  0.55754000  1.0 -0.6451217167
O  O5  1  0.47050000  0.20680000  0.04940000  1.0 -0.661225938
O  O6  1  0.52950000  0.70680000  0.45060000  1.0 -0.661225938
O  O7  1  0.52950000  0.79320000  0.95060000  1.0 -0.661225938
O  O8  1  0.47050000  0.29320000  0.54940000  1.0 -0.661225938
O  O9  1  0.47352000  0.37470000  0.90692000  1.0 -0.5811519109
O  O10  1  0.52648000  0.87470000  0.59308000  1.0 -0.5811519109
O  O11  1  0.52648000  0.62530000  0.09308000  1.0 -0.5811519109
O  O12  1  0.47352000  0.12530000  0.40692000  1.0 -0.5811519109
O  O13  1  0.42128000  0.50590000  0.95668000  1.0 -0.7012149922
O  O14  1  0.57872000  0.00590000  0.54332000  1.0 -0.7012149922
O  O15  1  0.57872000  0.49410000  0.04332000  1.0 -0.7012149922
O  O16  1  0.42128000  0.99410000  0.45668000  1.0 -0.7012149922
O  O17  1  0.68080000  0.12590000  0.03950000  1.0 -0.6268003516
O  O18  1  0.31920000  0.62590000  0.46050000  1.0 -0.6268003516
O  O19  1  0.31920000  0.87410000  0.96050000  1.0 -0.6268003516
O  O20  1  0.68080000  0.37410000  0.53950000  1.0 -0.6268003516
O  O21  1  0.59750000  0.91230000  0.04530000  1.0 -0.6893609099
O  O22  1  0.40250000  0.41230000  0.45470000  1.0 -0.6893609099
O  O23  1  0.40250000  0.08770000  0.95470000  1.0 -0.6893609099
O  O24  1  0.59750000  0.58770000  0.54530000  1.0 -0.6893609099
O  O25  1  0.67090000  0.38870000  0.97720000  1.0 -0.4881868743
O  O26  1  0.32910000  0.88870000  0.52280000  1.0 -0.4881868743
O  O27  1  0.32910000  0.61130000  0.02280000  1.0 -0.4881868743
O  O28  1  0.67090000  0.11130000  0.47720000  1.0 -0.4881868743
