# DDEC6 charges by PACMAN v1.1 (https://github.com/mtap-research/PACMAN-charge/)
data_AWASEY_FSR_pacman
_symmetry_space_group_name_H-M   'P 1'
_cell_length_a   27.69800000
_cell_length_b   27.69800000
_cell_length_c   18.13000000
_cell_angle_alpha   75.74300000
_cell_angle_beta   104.25700000
_cell_angle_gamma   66.39790000
_symmetry_Int_Tables_number   1
_chemical_formula_structural   KPr3Cu12H40C60I12N10O29
_chemical_formula_sum   'K2 Pr6 Cu24 H80 C120 I24 N20 O58'
_cell_volume   11383.51247186
_cell_formula_units_Z   2
loop_
 _symmetry_equiv_pos_site_id
 _symmetry_equiv_pos_as_xyz
  1  'x, y, z'
loop_
 _atom_site_type_symbol
 _atom_site_label
 _atom_site_symmetry_multiplicity
 _atom_site_fract_x
 _atom_site_fract_y
 _atom_site_fract_z
 _atom_site_occupancy
 _atom_site_charge
K  K1  1  0.14390000  0.14390000  0.00000000  1.0 0.9219588233
K  K2  1  0.85610000  0.85610000  0.00000000  1.0 0.9219588233
Pr  Pr1  1  0.24459000  0.09965000  0.23298000  1.0 1.9984872532
Pr  Pr2  1  0.09965000  0.24459000  0.76702000  1.0 1.9984872532
Pr  Pr3  1  0.75541000  0.90035000  0.76702000  1.0 1.9984872532
Pr  Pr4  1  0.90035000  0.75541000  0.23298000  1.0 1.9984872532
Pr  Pr5  1  0.51987000  0.48013000  0.13850000  1.0 2.2773868037
Pr  Pr6  1  0.48013000  0.51987000  0.86150000  1.0 2.2773868037
Cu  Cu1  1  0.45698000  0.84488000  0.91310000  1.0 0.2192625409
Cu  Cu2  1  0.84488000  0.45698000  0.08690000  1.0 0.2192625409
Cu  Cu3  1  0.54302000  0.15512000  0.08690000  1.0 0.2192625409
Cu  Cu4  1  0.15512000  0.54302000  0.91310000  1.0 0.2192625409
Cu  Cu5  1  0.77330000  0.22670000  0.14130000  1.0 0.0928436038
Cu  Cu6  1  0.22670000  0.77330000  0.85870000  1.0 0.0928436038
Cu  Cu7  1  0.41403000  0.94683000  0.91120000  1.0 0.1976199086
Cu  Cu8  1  0.94683000  0.41403000  0.08880000  1.0 0.1976199086
Cu  Cu9  1  0.58597000  0.05317000  0.08880000  1.0 0.1976199086
Cu  Cu10  1  0.05317000  0.58597000  0.91120000  1.0 0.1976199086
Cu  Cu11  1  0.44163000  0.93175000  0.79080000  1.0 0.1976199086
Cu  Cu12  1  0.93175000  0.44163000  0.20920000  1.0 0.1945238603
Cu  Cu13  1  0.55837000  0.06825000  0.20920000  1.0 0.1976199086
Cu  Cu14  1  0.06825000  0.55837000  0.79080000  1.0 0.1976199086
Cu  Cu15  1  0.52380000  0.88964000  0.93090000  1.0 0.1813162607
Cu  Cu16  1  0.88964000  0.52380000  0.06910000  1.0 0.1813162607
Cu  Cu17  1  0.47620000  0.11036000  0.06910000  1.0 0.1813162607
Cu  Cu18  1  0.11036000  0.47620000  0.93090000  1.0 0.1813162607
Cu  Cu19  1  0.88318000  0.17298000  0.19480000  1.0 0.3406303021
Cu  Cu20  1  0.17298000  0.88318000  0.80520000  1.0 0.3406303021
Cu  Cu21  1  0.11682000  0.82702000  0.80520000  1.0 0.3582094503
Cu  Cu22  1  0.82702000  0.11682000  0.19480000  1.0 0.3406303021
Cu  Cu23  1  0.82700000  0.17300000  0.29780000  1.0 0.1619167891
Cu  Cu24  1  0.17300000  0.82700000  0.70220000  1.0 0.1619167891
H  H1  1  0.29240000  0.99820000  0.90920000  1.0 0.1200684179
H  H2  1  0.99820000  0.29240000  0.09080000  1.0 0.1200684179
H  H3  1  0.70760000  0.00180000  0.09080000  1.0 0.1200684179
H  H4  1  0.00180000  0.70760000  0.90920000  1.0 0.1200684179
H  H5  1  0.25030000  0.03090000  0.99680000  1.0 0.1413940946
H  H6  1  0.03090000  0.25030000  0.00320000  1.0 0.1484377277
H  H7  1  0.74970000  0.96910000  0.00320000  1.0 0.1413940946
H  H8  1  0.96910000  0.74970000  0.99680000  1.0 0.1413940946
H  H9  1  0.39850000  0.01730000  0.13370000  1.0 0.1413940946
H  H10  1  0.01730000  0.39850000  0.86630000  1.0 0.1413940946
H  H11  1  0.60150000  0.98270000  0.86630000  1.0 0.1413940946
H  H12  1  0.98270000  0.60150000  0.13370000  1.0 0.1413940946
H  H13  1  0.44050000  0.98450000  0.04610000  1.0 0.1132897953
H  H14  1  0.98450000  0.44050000  0.95390000  1.0 0.1132897953
H  H15  1  0.55950000  0.01550000  0.95390000  1.0 0.1132897953
H  H16  1  0.01550000  0.55950000  0.04610000  1.0 0.1132897953
H  H17  1  0.15160000  0.36360000  0.90290000  1.0 0.1200684179
H  H18  1  0.36360000  0.15160000  0.09710000  1.0 0.1200684179
H  H19  1  0.84840000  0.63640000  0.09710000  1.0 0.1200684179
H  H20  1  0.63640000  0.84840000  0.90290000  1.0 0.1200684179
H  H21  1  0.18130000  0.26830000  0.97960000  1.0 0.1413940946
H  H22  1  0.26830000  0.18130000  0.02040000  1.0 0.1484377277
H  H23  1  0.81870000  0.73170000  0.02040000  1.0 0.1413940946
H  H24  1  0.73170000  0.81870000  0.97960000  1.0 0.1413940946
H  H25  1  0.14060000  0.31280000  0.16170000  1.0 0.1413940946
H  H26  1  0.31280000  0.14060000  0.83830000  1.0 0.1413940946
H  H27  1  0.85940000  0.68720000  0.83830000  1.0 0.1413940946
H  H28  1  0.68720000  0.85940000  0.16170000  1.0 0.1413940946
H  H29  1  0.11090000  0.40810000  0.08500000  1.0 0.1132897953
H  H30  1  0.40810000  0.11090000  0.91500000  1.0 0.1132897953
H  H31  1  0.88910000  0.59190000  0.91500000  1.0 0.1132897953
H  H32  1  0.59190000  0.88910000  0.08500000  1.0 0.1132897953
H  H33  1  0.44900000  0.90080000  0.64310000  1.0 0.1200684179
H  H34  1  0.90080000  0.44900000  0.35690000  1.0 0.1200684179
H  H35  1  0.55100000  0.09920000  0.35690000  1.0 0.1200684179
H  H36  1  0.09920000  0.55100000  0.64310000  1.0 0.1200684179
H  H37  1  0.39720000  0.94600000  0.50010000  1.0 0.1413940946
H  H38  1  0.94600000  0.39720000  0.49990000  1.0 0.1413940946
H  H39  1  0.60280000  0.05400000  0.49990000  1.0 0.1413940946
H  H40  1  0.05400000  0.60280000  0.50010000  1.0 0.1413940946
H  H41  1  0.31120000  0.09480000  0.52490000  1.0 0.1413940946
H  H42  1  0.09480000  0.31120000  0.47510000  1.0 0.1413940946
H  H43  1  0.68880000  0.90520000  0.47510000  1.0 0.1413940946
H  H44  1  0.90520000  0.68880000  0.52490000  1.0 0.1413940946
H  H45  1  0.36310000  0.04950000  0.66790000  1.0 0.1200684179
H  H46  1  0.04950000  0.36310000  0.33210000  1.0 0.1200684179
H  H47  1  0.63690000  0.95050000  0.33210000  1.0 0.1200684179
H  H48  1  0.95050000  0.63690000  0.66790000  1.0 0.1200684179
H  H49  1  0.94620000  0.16580000  0.07600000  1.0 0.1200684179
H  H50  1  0.16580000  0.94620000  0.92400000  1.0 0.1200684179
H  H51  1  0.05380000  0.83420000  0.92400000  1.0 0.1200684179
H  H52  1  0.83420000  0.05380000  0.07600000  1.0 0.1200684179
H  H53  1  0.03880000  0.14500000  0.08650000  1.0 0.1413940946
H  H54  1  0.14500000  0.03880000  0.91350000  1.0 0.1413940946
H  H55  1  0.96120000  0.85500000  0.91350000  1.0 0.1413940946
H  H56  1  0.85500000  0.96120000  0.08650000  1.0 0.1413940946
H  H57  1  0.07490000  0.15290000  0.31240000  1.0 0.1484377277
H  H58  1  0.15290000  0.07490000  0.68760000  1.0 0.1484377277
H  H59  1  0.92510000  0.84710000  0.68760000  1.0 0.1484377277
H  H60  1  0.84710000  0.92510000  0.31240000  1.0 0.1484377277
H  H61  1  0.98220000  0.17360000  0.30200000  1.0 0.1200684179
H  H62  1  0.17360000  0.98220000  0.69800000  1.0 0.1200684179
H  H63  1  0.01780000  0.82640000  0.69800000  1.0 0.1200684179
H  H64  1  0.82640000  0.01780000  0.30200000  1.0 0.1200684179
H  H65  1  0.41190000  0.79130000  0.81560000  1.0 0.1200684179
H  H66  1  0.79130000  0.41190000  0.18440000  1.0 0.1132897953
H  H67  1  0.58810000  0.20870000  0.18440000  1.0 0.1132897953
H  H68  1  0.20870000  0.58810000  0.81560000  1.0 0.1200684179
H  H69  1  0.42230000  0.70050000  0.83400000  1.0 0.1413940946
H  H70  1  0.70050000  0.42230000  0.16600000  1.0 0.1413940946
H  H71  1  0.57770000  0.29950000  0.16600000  1.0 0.1413940946
H  H72  1  0.29950000  0.57770000  0.83400000  1.0 0.1413940946
H  H73  1  0.51220000  0.64480000  0.07920000  1.0 0.1413940946
H  H74  1  0.64480000  0.51220000  0.92080000  1.0 0.134747882
H  H75  1  0.48780000  0.35520000  0.92080000  1.0 0.1413940946
H  H76  1  0.35520000  0.48780000  0.07920000  1.0 0.134747882
H  H77  1  0.50180000  0.73560000  0.06070000  1.0 0.1132897953
H  H78  1  0.73560000  0.50180000  0.93930000  1.0 0.1132897953
H  H79  1  0.49820000  0.26440000  0.93930000  1.0 0.1132897953
H  H80  1  0.26440000  0.49820000  0.06070000  1.0 0.1132897953
C  C1  1  0.31390000  0.00210000  0.95470000  1.0 0.0718571217
C  C2  1  0.00210000  0.31390000  0.04530000  1.0 0.0718571217
C  C3  1  0.68610000  0.99790000  0.04530000  1.0 0.0718571217
C  C4  1  0.99790000  0.68610000  0.95470000  1.0 0.0718571217
C  C5  1  0.28890000  0.02150000  0.00680000  1.0 -0.1414324152
C  C6  1  0.02150000  0.28890000  0.99320000  1.0 -0.1414324152
C  C7  1  0.71110000  0.97850000  0.99320000  1.0 -0.1414324152
C  C8  1  0.97850000  0.71110000  0.00680000  1.0 -0.1414324152
C  C9  1  0.32040000  0.02720000  0.07350000  1.0 0.0408797875
C  C10  1  0.02720000  0.32040000  0.92650000  1.0 0.0408797875
C  C11  1  0.67960000  0.97280000  0.92650000  1.0 0.0408797875
C  C12  1  0.97280000  0.67960000  0.07350000  1.0 0.0408797875
C  C13  1  0.37700000  0.01340000  0.08810000  1.0 -0.1196620213
C  C14  1  0.01340000  0.37700000  0.91190000  1.0 -0.1196620213
C  C15  1  0.62300000  0.98660000  0.91190000  1.0 -0.1196620213
C  C16  1  0.98660000  0.62300000  0.08810000  1.0 -0.1196620213
C  C17  1  0.40190000  0.99390000  0.03610000  1.0 0.0718571217
C  C18  1  0.99390000  0.40190000  0.96390000  1.0 0.0718571217
C  C19  1  0.59810000  0.00610000  0.96390000  1.0 0.0718571217
C  C20  1  0.00610000  0.59810000  0.03610000  1.0 0.0718571217
C  C21  1  0.29640000  0.04620000  0.13390000  1.0 0.5505365474
C  C22  1  0.04620000  0.29640000  0.86610000  1.0 0.5505365474
C  C23  1  0.70360000  0.95380000  0.86610000  1.0 0.5505365474
C  C24  1  0.95380000  0.70360000  0.13390000  1.0 0.5505365474
C  C25  1  0.14940000  0.35320000  0.95540000  1.0 0.0621837389
C  C26  1  0.35320000  0.14940000  0.04460000  1.0 0.0621837389
C  C27  1  0.85060000  0.64680000  0.04460000  1.0 0.0621837389
C  C28  1  0.64680000  0.85060000  0.95540000  1.0 0.0621837389
C  C29  1  0.16700000  0.29660000  0.00100000  1.0 -0.1292417082
C  C30  1  0.29660000  0.16700000  0.99900000  1.0 -0.1292417082
C  C31  1  0.83300000  0.70340000  0.99900000  1.0 -0.1292417082
C  C32  1  0.70340000  0.83300000  0.00100000  1.0 -0.1292417082
C  C33  1  0.16370000  0.28150000  0.07790000  1.0 0.0408797875
C  C34  1  0.28150000  0.16370000  0.92210000  1.0 0.0408797875
C  C35  1  0.83630000  0.71850000  0.92210000  1.0 0.0408797875
C  C36  1  0.71850000  0.83630000  0.07790000  1.0 0.0408797875
C  C37  1  0.14270000  0.32310000  0.10920000  1.0 -0.1292417082
C  C38  1  0.32310000  0.14270000  0.89080000  1.0 -0.1292417082
C  C39  1  0.85730000  0.67690000  0.89080000  1.0 -0.1292417082
C  C40  1  0.67690000  0.85730000  0.10920000  1.0 -0.1292417082
C  C41  1  0.12520000  0.37980000  0.06360000  1.0 0.0621837389
C  C42  1  0.37980000  0.12520000  0.93640000  1.0 0.0621837389
C  C43  1  0.87480000  0.62020000  0.93640000  1.0 0.0621837389
C  C44  1  0.62020000  0.87480000  0.06360000  1.0 0.0621837389
C  C45  1  0.18690000  0.21750000  0.13200000  1.0 0.5317143393
C  C46  1  0.21750000  0.18690000  0.86800000  1.0 0.5317143393
C  C47  1  0.81310000  0.78250000  0.86800000  1.0 0.5317143393
C  C48  1  0.78250000  0.81310000  0.13200000  1.0 0.5317143393
C  C49  1  0.42100000  0.94020000  0.61910000  1.0 0.0793145671
C  C50  1  0.94020000  0.42100000  0.38090000  1.0 0.0793145671
C  C51  1  0.57900000  0.05980000  0.38090000  1.0 0.0718571217
C  C52  1  0.05980000  0.57900000  0.61910000  1.0 0.0793145671
C  C53  1  0.39030000  0.96710000  0.53420000  1.0 -0.1196620213
C  C54  1  0.96710000  0.39030000  0.46580000  1.0 -0.1108538094
C  C55  1  0.60970000  0.03290000  0.46580000  1.0 -0.1108538094
C  C56  1  0.03290000  0.60970000  0.53420000  1.0 -0.1108538094
C  C57  1  0.34930000  0.02470000  0.49910000  1.0 0.008983066
C  C58  1  0.02470000  0.34930000  0.50090000  1.0 0.0038768116
C  C59  1  0.65070000  0.97530000  0.50090000  1.0 0.008983066
C  C60  1  0.97530000  0.65070000  0.49910000  1.0 0.008983066
C  C61  1  0.33920000  0.05540000  0.54890000  1.0 -0.1108538094
C  C62  1  0.05540000  0.33920000  0.45110000  1.0 -0.1108538094
C  C63  1  0.66080000  0.94460000  0.45110000  1.0 -0.1108538094
C  C64  1  0.94460000  0.66080000  0.54890000  1.0 -0.1108538094
C  C65  1  0.37000000  0.02860000  0.63390000  1.0 0.0718571217
C  C66  1  0.02860000  0.37000000  0.36610000  1.0 0.0718571217
C  C67  1  0.63000000  0.97140000  0.36610000  1.0 0.0718571217
C  C68  1  0.97140000  0.63000000  0.63390000  1.0 0.0718571217
C  C69  1  0.31620000  0.05140000  0.41010000  1.0 0.5779971374
C  C70  1  0.05140000  0.31620000  0.58990000  1.0 0.5779971374
C  C71  1  0.68380000  0.94860000  0.58990000  1.0 0.5779971374
C  C72  1  0.94860000  0.68380000  0.41010000  1.0 0.5779971374
C  C73  1  0.97230000  0.16310000  0.12400000  1.0 0.0718571217
C  C74  1  0.16310000  0.97230000  0.87600000  1.0 0.0718571217
C  C75  1  0.02770000  0.83690000  0.87600000  1.0 0.0718571217
C  C76  1  0.83690000  0.02770000  0.12400000  1.0 0.0718571217
C  C77  1  0.02740000  0.15080000  0.13020000  1.0 -0.1414324152
C  C78  1  0.15080000  0.02740000  0.86980000  1.0 -0.1414324152
C  C79  1  0.97260000  0.84920000  0.86980000  1.0 -0.1414324152
C  C80  1  0.84920000  0.97260000  0.13020000  1.0 -0.1414324152
C  C81  1  0.06560000  0.14700000  0.20040000  1.0 0.0510543972
C  C82  1  0.14700000  0.06560000  0.79960000  1.0 0.0510543972
C  C83  1  0.93440000  0.85300000  0.79960000  1.0 0.0510543972
C  C84  1  0.85300000  0.93440000  0.20040000  1.0 0.0510543972
C  C85  1  0.04870000  0.15550000  0.26440000  1.0 -0.1292417082
C  C86  1  0.15550000  0.04870000  0.73560000  1.0 -0.1292417082
C  C87  1  0.95130000  0.84450000  0.73560000  1.0 -0.1292417082
C  C88  1  0.84450000  0.95130000  0.26440000  1.0 -0.1292417082
C  C89  1  0.99370000  0.16790000  0.25820000  1.0 0.0793145671
C  C90  1  0.16790000  0.99370000  0.74180000  1.0 0.0793145671
C  C91  1  0.00630000  0.83210000  0.74180000  1.0 0.0793145671
C  C92  1  0.83210000  0.00630000  0.25820000  1.0 0.0793145671
C  C93  1  0.12820000  0.12900000  0.21200000  1.0 0.5583395553
C  C94  1  0.12900000  0.12820000  0.78800000  1.0 0.5583395553
C  C95  1  0.87180000  0.87100000  0.78800000  1.0 0.5583395553
C  C96  1  0.87100000  0.87180000  0.21200000  1.0 0.5583395553
C  C97  1  0.43220000  0.76160000  0.86910000  1.0 0.0718571217
C  C98  1  0.76160000  0.43220000  0.13090000  1.0 0.0718571217
C  C99  1  0.56780000  0.23840000  0.13090000  1.0 0.0718571217
C  C100  1  0.23840000  0.56780000  0.86910000  1.0 0.0718571217
C  C101  1  0.43840000  0.70760000  0.88010000  1.0 -0.079203536
C  C102  1  0.70760000  0.43840000  0.11990000  1.0 -0.079203536
C  C103  1  0.56160000  0.29240000  0.11990000  1.0 -0.079203536
C  C104  1  0.29240000  0.56160000  0.88010000  1.0 -0.079203536
C  C105  1  0.46820000  0.66420000  0.95800000  1.0 -0.0591770368
C  C106  1  0.66420000  0.46820000  0.04200000  1.0 -0.0591770368
C  C107  1  0.53180000  0.33580000  0.04200000  1.0 -0.0591770368
C  C108  1  0.33580000  0.53180000  0.95800000  1.0 -0.0591770368
C  C109  1  0.49180000  0.67460000  0.02570000  1.0 -0.079203536
C  C110  1  0.67460000  0.49180000  0.97430000  1.0 -0.079203536
C  C111  1  0.50820000  0.32540000  0.97430000  1.0 -0.079203536
C  C112  1  0.32540000  0.50820000  0.02570000  1.0 -0.079203536
C  C113  1  0.48570000  0.72850000  0.01470000  1.0 0.0621837389
C  C114  1  0.72850000  0.48570000  0.98530000  1.0 0.0621837389
C  C115  1  0.51430000  0.27150000  0.98530000  1.0 0.0621837389
C  C116  1  0.27150000  0.51430000  0.01470000  1.0 0.0621837389
C  C117  1  0.47600000  0.60860000  0.97000000  1.0 0.6443581474
C  C118  1  0.60860000  0.47600000  0.03000000  1.0 0.6443581474
C  C119  1  0.52400000  0.39140000  0.03000000  1.0 0.6443581474
C  C120  1  0.39140000  0.52400000  0.97000000  1.0 0.6443581474
I  I1  1  0.83178000  0.16822000  0.05730000  1.0 -0.2885753694
I  I2  1  0.16822000  0.83178000  0.94270000  1.0 -0.3018029836
I  I3  1  0.73294000  0.17112000  0.22230000  1.0 -0.2089714544
I  I4  1  0.17112000  0.73294000  0.77770000  1.0 -0.2178371059
I  I5  1  0.26706000  0.82888000  0.77770000  1.0 -0.2089714544
I  I6  1  0.82888000  0.26706000  0.22230000  1.0 -0.2089714544
I  I7  1  0.49788000  0.84934000  0.05681000  1.0 -0.2516280221
I  I8  1  0.84934000  0.49788000  0.94319000  1.0 -0.2516280221
I  I9  1  0.50212000  0.15066000  0.94319000  1.0 -0.2516280221
I  I10  1  0.15066000  0.50212000  0.05681000  1.0 -0.2566665518
I  I11  1  0.46154000  0.00436000  0.85195000  1.0 -0.3018029836
I  I12  1  0.00436000  0.46154000  0.14805000  1.0 -0.3018029836
I  I13  1  0.53846000  0.99564000  0.14805000  1.0 -0.3018029836
I  I14  1  0.99564000  0.53846000  0.85195000  1.0 -0.3018029836
I  I15  1  0.34936000  0.92418000  0.81005000  1.0 -0.3097841591
I  I16  1  0.92418000  0.34936000  0.18995000  1.0 -0.3097841591
I  I17  1  0.65064000  0.07582000  0.18995000  1.0 -0.3097841591
I  I18  1  0.07582000  0.65064000  0.81005000  1.0 -0.3097841591
I  I19  1  0.53016000  0.83122000  0.83095000  1.0 -0.2885753694
I  I20  1  0.83122000  0.53016000  0.16905000  1.0 -0.2819847869
I  I21  1  0.46984000  0.16878000  0.16905000  1.0 -0.2819847869
I  I22  1  0.16878000  0.46984000  0.83095000  1.0 -0.2885753694
I  I23  1  0.92100000  0.07900000  0.33110000  1.0 -0.3097841591
I  I24  1  0.07900000  0.92100000  0.66890000  1.0 -0.3223312902
N  N1  1  0.37030000  0.98830000  0.96940000  1.0 -0.1414324152
N  N2  1  0.98830000  0.37030000  0.03060000  1.0 -0.1414324152
N  N3  1  0.62970000  0.01170000  0.03060000  1.0 -0.1414324152
N  N4  1  0.01170000  0.62970000  0.96940000  1.0 -0.1414324152
N  N5  1  0.12850000  0.39490000  0.98670000  1.0 -0.1591185662
N  N6  1  0.39490000  0.12850000  0.01330000  1.0 -0.1591185662
N  N7  1  0.87150000  0.60510000  0.01330000  1.0 -0.1591185662
N  N8  1  0.60510000  0.87150000  0.98670000  1.0 -0.1591185662
N  N9  1  0.41090000  0.97090000  0.66900000  1.0 -0.1468821275
N  N10  1  0.97090000  0.41090000  0.33100000  1.0 -0.1468821275
N  N11  1  0.58910000  0.02910000  0.33100000  1.0 -0.1468821275
N  N12  1  0.02910000  0.58910000  0.66900000  1.0 -0.1468821275
N  N13  1  0.95550000  0.17170000  0.18800000  1.0 -0.1591185662
N  N14  1  0.17170000  0.95550000  0.81200000  1.0 -0.1591185662
N  N15  1  0.04450000  0.82830000  0.81200000  1.0 -0.1591185662
N  N16  1  0.82830000  0.04450000  0.18800000  1.0 -0.1591185662
N  N17  1  0.45580000  0.77200000  0.93640000  1.0 -0.1414324152
N  N18  1  0.77200000  0.45580000  0.06360000  1.0 -0.1414324152
N  N19  1  0.54420000  0.22800000  0.06360000  1.0 -0.1414324152
N  N20  1  0.22800000  0.54420000  0.93640000  1.0 -0.1414324152
O  O1  1  0.24420000  0.06320000  0.11460000  1.0 -0.6025120623
O  O2  1  0.06320000  0.24420000  0.88540000  1.0 -0.6025120623
O  O3  1  0.75580000  0.93680000  0.88540000  1.0 -0.6082448172
O  O4  1  0.93680000  0.75580000  0.11460000  1.0 -0.6082448172
O  O5  1  0.32540000  0.04800000  0.19260000  1.0 -0.5089797931
O  O6  1  0.04800000  0.32540000  0.80740000  1.0 -0.5089797931
O  O7  1  0.67460000  0.95200000  0.80740000  1.0 -0.5089797931
O  O8  1  0.95200000  0.67460000  0.19260000  1.0 -0.5089797931
O  O9  1  0.20620000  0.18320000  0.09960000  1.0 -0.6082448172
O  O10  1  0.18320000  0.20620000  0.90040000  1.0 -0.6082448172
O  O11  1  0.79380000  0.81680000  0.90040000  1.0 -0.6082448172
O  O12  1  0.81680000  0.79380000  0.09960000  1.0 -0.6082448172
O  O13  1  0.18810000  0.20630000  0.20170000  1.0 -0.529211353
O  O14  1  0.20630000  0.18810000  0.79830000  1.0 -0.529211353
O  O15  1  0.81190000  0.79370000  0.79830000  1.0 -0.529211353
O  O16  1  0.79370000  0.81190000  0.20170000  1.0 -0.529211353
O  O17  1  0.32870000  0.02570000  0.36420000  1.0 -0.5799673381
O  O18  1  0.02570000  0.32870000  0.63580000  1.0 -0.5799673381
O  O19  1  0.67130000  0.97430000  0.63580000  1.0 -0.5799673381
O  O20  1  0.97430000  0.67130000  0.36420000  1.0 -0.5799673381
O  O21  1  0.27420000  0.10280000  0.37620000  1.0 -0.5880715656
O  O22  1  0.10280000  0.27420000  0.62380000  1.0 -0.5880715656
O  O23  1  0.72580000  0.89720000  0.62380000  1.0 -0.5880715656
O  O24  1  0.89720000  0.72580000  0.37620000  1.0 -0.5880715656
O  O25  1  0.14070000  0.12870000  0.15240000  1.0 -0.6025120623
O  O26  1  0.12870000  0.14070000  0.84760000  1.0 -0.6025120623
O  O27  1  0.85930000  0.87130000  0.84760000  1.0 -0.6025120623
O  O28  1  0.87130000  0.85930000  0.15240000  1.0 -0.6025120623
O  O29  1  0.16130000  0.11790000  0.28430000  1.0 -0.5799673381
O  O30  1  0.11790000  0.16130000  0.71570000  1.0 -0.5799673381
O  O31  1  0.83870000  0.88210000  0.71570000  1.0 -0.5799673381
O  O32  1  0.88210000  0.83870000  0.28430000  1.0 -0.5799673381
O  O33  1  0.31270000  0.13930000  0.24650000  1.0 -0.0702827121
O  O34  1  0.13930000  0.31270000  0.75350000  1.0 -0.079203536
O  O35  1  0.68730000  0.86070000  0.75350000  1.0 -0.0702827121
O  O36  1  0.86070000  0.68730000  0.24650000  1.0 -0.0591770368
O  O37  1  0.23930000  0.00790000  0.27600000  1.0 -0.2089714544
O  O38  1  0.00790000  0.23930000  0.72400000  1.0 -0.2089714544
O  O39  1  0.76070000  0.99210000  0.72400000  1.0 -0.2011699187
O  O40  1  0.99210000  0.76070000  0.27600000  1.0 -0.1944070267
O  O41  1  0.07840000  0.07840000  0.00000000  1.0 -0.329342972
O  O42  1  0.92160000  0.92160000  0.00000000  1.0 -0.329342972
O  O43  1  0.49340000  0.57080000  0.04700000  1.0 -0.6919488567
O  O44  1  0.57080000  0.49340000  0.95300000  1.0 -0.6919488567
O  O45  1  0.50660000  0.42920000  0.95300000  1.0 -0.6919488567
O  O46  1  0.42920000  0.50660000  0.04700000  1.0 -0.6919488567
O  O47  1  0.60260000  0.39740000  0.25800000  1.0 -0.7321628737
O  O48  1  0.39740000  0.60260000  0.74200000  1.0 -0.7120694327
O  O49  1  0.47970000  0.42510000  0.22300000  1.0 -0.2885753694
O  O50  1  0.42510000  0.47970000  0.77700000  1.0 -0.3097841591
O  O51  1  0.52030000  0.57490000  0.77700000  1.0 -0.3097841591
O  O52  1  0.57490000  0.52030000  0.22300000  1.0 -0.3018029836
O  O53  1  0.46200000  0.53800000  0.18900000  1.0 -0.8936326908
O  O54  1  0.53800000  0.46200000  0.81100000  1.0 -0.8966086912
O  O55  1  0.46570000  0.59530000  0.90400000  1.0 -0.6803494054
O  O56  1  0.59530000  0.46570000  0.09600000  1.0 -0.6803494054
O  O57  1  0.53430000  0.40470000  0.09600000  1.0 -0.6803494054
O  O58  1  0.40470000  0.53430000  0.90400000  1.0 -0.6803494054
