# DDEC6 charges by PACMAN v1.1 (https://github.com/mtap-research/PACMAN-charge/)
data_AWAYOP_ASR_pacman
_symmetry_space_group_name_H-M   'P 1'
_cell_length_a   20.81270000
_cell_length_b   20.81270000
_cell_length_c   29.03900000
_cell_angle_alpha   72.21740000
_cell_angle_beta   107.78300000
_cell_angle_gamma   132.37500000
_symmetry_Int_Tables_number   1
_chemical_formula_structural   SiNi6H16W9C26N4O33
_chemical_formula_sum   'Si4 Ni24 H64 W36 C104 N16 O132'
_cell_volume   8759.49066453
_cell_formula_units_Z   4
loop_
 _symmetry_equiv_pos_site_id
 _symmetry_equiv_pos_as_xyz
  1  'x, y, z'
loop_
 _atom_site_type_symbol
 _atom_site_label
 _atom_site_symmetry_multiplicity
 _atom_site_fract_x
 _atom_site_fract_y
 _atom_site_fract_z
 _atom_site_occupancy
 _atom_site_charge
Si  Si1  1  0.82915000  0.39345000  0.14045000  1.0 1.6608014195
Si  Si2  1  0.39345000  0.82915000  0.35955000  1.0 1.6608014195
Si  Si3  1  0.17085000  0.60655000  0.85955000  1.0 1.6608014195
Si  Si4  1  0.60655000  0.17085000  0.64045000  1.0 1.6608014195
Ni  Ni1  1  0.95374000  0.36392000  0.29599000  1.0 0.9853491574
Ni  Ni2  1  0.95279000  0.51089000  0.23072000  1.0 1.1832549363
Ni  Ni3  1  0.01867000  0.43981000  0.19352000  1.0 1.0077280789
Ni  Ni4  1  0.08922000  0.52458000  0.09415000  1.0 0.9405082851
Ni  Ni5  1  0.01855000  0.59013000  0.13020000  1.0 1.1538716941
Ni  Ni6  1  0.95110000  0.66150000  0.16747000  1.0 1.0180440931
Ni  Ni7  1  0.36392000  0.95374000  0.20401000  1.0 0.9853491574
Ni  Ni8  1  0.51089000  0.95279000  0.26928000  1.0 1.1832549363
Ni  Ni9  1  0.43981000  0.01867000  0.30648000  1.0 1.0077280789
Ni  Ni10  1  0.52458000  0.08922000  0.40585000  1.0 0.9405082851
Ni  Ni11  1  0.59013000  0.01855000  0.36980000  1.0 1.1538716941
Ni  Ni12  1  0.66150000  0.95110000  0.33253000  1.0 1.0180440931
Ni  Ni13  1  0.04626000  0.63608000  0.70401000  1.0 0.9853491574
Ni  Ni14  1  0.04721000  0.48911000  0.76928000  1.0 1.1832549363
Ni  Ni15  1  0.98133000  0.56019000  0.80648000  1.0 1.0077280789
Ni  Ni16  1  0.91078000  0.47542000  0.90585000  1.0 0.9405082851
Ni  Ni17  1  0.98145000  0.40987000  0.86980000  1.0 1.1538716941
Ni  Ni18  1  0.04890000  0.33850000  0.83253000  1.0 1.0180440931
Ni  Ni19  1  0.63608000  0.04626000  0.79599000  1.0 0.9853491574
Ni  Ni20  1  0.48911000  0.04721000  0.73072000  1.0 1.1832549363
Ni  Ni21  1  0.56019000  0.98133000  0.69352000  1.0 1.0077280789
Ni  Ni22  1  0.47542000  0.91078000  0.59415000  1.0 0.9405082851
Ni  Ni23  1  0.40987000  0.98145000  0.63020000  1.0 1.1538716941
Ni  Ni24  1  0.33850000  0.04890000  0.66747000  1.0 1.0180440931
H  H1  1  0.36574000  0.43108000  0.89531000  1.0 0.1014334488
H  H2  1  0.31748000  0.37922000  0.97178000  1.0 0.1014334488
H  H3  1  0.10566000  0.39078000  0.10279000  1.0 0.0889795707
H  H4  1  0.20759000  0.37705000  0.10779000  1.0 0.133750306
H  H5  1  0.39343000  0.61675000  0.14153000  1.0 0.1200784738
H  H6  1  0.28781000  0.63151000  0.13242000  1.0 0.0889795707
H  H7  1  0.35958000  0.42818000  0.14031000  1.0 0.0889795707
H  H8  1  0.43172000  0.52458000  0.15285000  1.0 0.1014334488
H  H9  1  0.67751000  0.81193000  0.95981000  1.0 0.1014334488
H  H10  1  0.63112000  0.76648000  0.03896000  1.0 0.1014334488
H  H11  1  0.59149000  0.65929000  0.79264000  1.0 0.1014334488
H  H12  1  0.68014000  0.73902000  0.81705000  1.0 0.1014334488
H  H13  1  0.72851000  0.87127000  0.76104000  1.0 0.1200784738
H  H14  1  0.70729000  0.96921000  0.72005000  1.0 0.1014334488
H  H15  1  0.45906000  0.79406000  0.72891000  1.0 0.1014334488
H  H16  1  0.47234000  0.68814000  0.77382000  1.0 0.1200784738
H  H17  1  0.43108000  0.36574000  0.60469000  1.0 0.1014334488
H  H18  1  0.37922000  0.31748000  0.52822000  1.0 0.1014334488
H  H19  1  0.39078000  0.10566000  0.39721000  1.0 0.0889795707
H  H20  1  0.37705000  0.20759000  0.39221000  1.0 0.133750306
H  H21  1  0.61675000  0.39343000  0.35847000  1.0 0.1200784738
H  H22  1  0.63151000  0.28781000  0.36758000  1.0 0.0889795707
H  H23  1  0.42818000  0.35958000  0.35969000  1.0 0.0889795707
H  H24  1  0.52458000  0.43172000  0.34715000  1.0 0.1014334488
H  H25  1  0.81193000  0.67751000  0.54019000  1.0 0.1014334488
H  H26  1  0.76648000  0.63112000  0.46104000  1.0 0.1014334488
H  H27  1  0.65929000  0.59149000  0.70736000  1.0 0.1014334488
H  H28  1  0.73902000  0.68014000  0.68295000  1.0 0.1014334488
H  H29  1  0.87127000  0.72851000  0.73896000  1.0 0.1200784738
H  H30  1  0.96921000  0.70729000  0.77995000  1.0 0.1014334488
H  H31  1  0.79406000  0.45906000  0.77109000  1.0 0.1014334488
H  H32  1  0.68814000  0.47234000  0.72618000  1.0 0.1200784738
H  H33  1  0.63426000  0.56892000  0.10469000  1.0 0.1014334488
H  H34  1  0.68252000  0.62078000  0.02822000  1.0 0.1014334488
H  H35  1  0.89434000  0.60922000  0.89721000  1.0 0.0889795707
H  H36  1  0.79241000  0.62295000  0.89221000  1.0 0.133750306
H  H37  1  0.60657000  0.38325000  0.85847000  1.0 0.1200784738
H  H38  1  0.71219000  0.36849000  0.86758000  1.0 0.0889795707
H  H39  1  0.64042000  0.57182000  0.85969000  1.0 0.0889795707
H  H40  1  0.56828000  0.47542000  0.84715000  1.0 0.1014334488
H  H41  1  0.32249000  0.18807000  0.04019000  1.0 0.1014334488
H  H42  1  0.36888000  0.23352000  0.96104000  1.0 0.1014334488
H  H43  1  0.40851000  0.34071000  0.20736000  1.0 0.1014334488
H  H44  1  0.31986000  0.26098000  0.18295000  1.0 0.1014334488
H  H45  1  0.27149000  0.12873000  0.23896000  1.0 0.1200784738
H  H46  1  0.29271000  0.03079000  0.27995000  1.0 0.1014334488
H  H47  1  0.54094000  0.20594000  0.27109000  1.0 0.1014334488
H  H48  1  0.52766000  0.31186000  0.22618000  1.0 0.1200784738
H  H49  1  0.56892000  0.63426000  0.39531000  1.0 0.1014334488
H  H50  1  0.62078000  0.68252000  0.47178000  1.0 0.1014334488
H  H51  1  0.60922000  0.89434000  0.60279000  1.0 0.0889795707
H  H52  1  0.62295000  0.79241000  0.60779000  1.0 0.133750306
H  H53  1  0.38325000  0.60657000  0.64153000  1.0 0.1200784738
H  H54  1  0.36849000  0.71219000  0.63242000  1.0 0.0889795707
H  H55  1  0.57182000  0.64042000  0.64031000  1.0 0.0889795707
H  H56  1  0.47542000  0.56828000  0.65285000  1.0 0.1014334488
H  H57  1  0.18807000  0.32249000  0.45981000  1.0 0.1014334488
H  H58  1  0.23352000  0.36888000  0.53896000  1.0 0.1014334488
H  H59  1  0.34071000  0.40851000  0.29264000  1.0 0.1014334488
H  H60  1  0.26098000  0.31986000  0.31705000  1.0 0.1014334488
H  H61  1  0.12873000  0.27149000  0.26104000  1.0 0.1200784738
H  H62  1  0.03079000  0.29271000  0.22005000  1.0 0.1014334488
H  H63  1  0.20594000  0.54094000  0.22891000  1.0 0.1014334488
H  H64  1  0.31186000  0.52766000  0.27382000  1.0 0.1200784738
W  W1  1  0.89309000  0.30291000  0.09842000  1.0 2.4213453918
W  W2  1  0.82086000  0.21674000  0.20871000  1.0 2.4674606113
W  W3  1  0.74336000  0.30190000  0.25214000  1.0 2.4479334145
W  W4  1  0.67928000  0.35874000  0.02575000  1.0 2.3200423508
W  W5  1  0.89649000  0.48395000  0.02379000  1.0 2.4073543935
W  W6  1  0.82515000  0.56061000  0.06234000  1.0 2.4380473881
W  W7  1  0.67400000  0.17604000  0.10356000  1.0 2.4887213498
W  W8  1  0.59901000  0.26481000  0.14725000  1.0 2.3515790492
W  W9  1  0.74635000  0.46655000  0.18328000  1.0 2.4479334145
W  W10  1  0.30291000  0.89309000  0.40158000  1.0 2.4213453918
W  W11  1  0.21674000  0.82086000  0.29129000  1.0 2.4674606113
W  W12  1  0.30190000  0.74336000  0.24786000  1.0 2.4479334145
W  W13  1  0.35874000  0.67928000  0.47425000  1.0 2.305999417
W  W14  1  0.48395000  0.89649000  0.47621000  1.0 2.4073543935
W  W15  1  0.56061000  0.82515000  0.43766000  1.0 2.4323205738
W  W16  1  0.17604000  0.67400000  0.39644000  1.0 2.4887213498
W  W17  1  0.26481000  0.59901000  0.35275000  1.0 2.3515790492
W  W18  1  0.46655000  0.74635000  0.31672000  1.0 2.4479334145
W  W19  1  0.10691000  0.69709000  0.90158000  1.0 2.4213453918
W  W20  1  0.17914000  0.78326000  0.79129000  1.0 2.4674606113
W  W21  1  0.25664000  0.69810000  0.74786000  1.0 2.4479334145
W  W22  1  0.32072000  0.64126000  0.97425000  1.0 2.305999417
W  W23  1  0.10351000  0.51605000  0.97621000  1.0 2.4073543935
W  W24  1  0.17485000  0.43939000  0.93766000  1.0 2.4323205738
W  W25  1  0.32600000  0.82396000  0.89644000  1.0 2.4887213498
W  W26  1  0.40099000  0.73519000  0.85275000  1.0 2.3515790492
W  W27  1  0.25365000  0.53345000  0.81672000  1.0 2.4479334145
W  W28  1  0.69709000  0.10691000  0.59842000  1.0 2.4213453918
W  W29  1  0.78326000  0.17914000  0.70871000  1.0 2.4674606113
W  W30  1  0.69810000  0.25664000  0.75214000  1.0 2.4479334145
W  W31  1  0.64126000  0.32072000  0.52575000  1.0 2.305999417
W  W32  1  0.51605000  0.10351000  0.52379000  1.0 2.4073543935
W  W33  1  0.43939000  0.17485000  0.56234000  1.0 2.4323205738
W  W34  1  0.82396000  0.32600000  0.60356000  1.0 2.4887213498
W  W35  1  0.73519000  0.40099000  0.64725000  1.0 2.3515790492
W  W36  1  0.53345000  0.25365000  0.68328000  1.0 2.4479334145
C  C1  1  0.46970000  0.55750000  0.91010000  1.0 -0.1309563354
C  C2  1  0.51360000  0.61500000  0.94400000  1.0 0.039824321
C  C3  1  0.58920000  0.70120000  0.93400000  1.0 -0.1112048835
C  C4  1  0.62110000  0.72970000  0.89030000  1.0 0.3441378265
C  C5  1  0.50170000  0.58610000  0.86630000  1.0 0.3583189561
C  C6  1  0.39470000  0.46830000  0.91870000  1.0 -0.1112048835
C  C7  1  0.36560000  0.43820000  0.96490000  1.0 -0.1112048835
C  C8  1  0.37420000  0.46340000  0.04540000  1.0 0.3716779515
C  C9  1  0.48880000  0.60700000  0.07020000  1.0 0.3583189561
C  C10  1  0.52160000  0.63840000  0.02640000  1.0 -0.1619986629
C  C11  1  0.48080000  0.58220000  0.99210000  1.0 0.045141892
C  C12  1  0.40710000  0.49470000  0.00160000  1.0 -0.1220962298
C  C13  1  0.16470000  0.43910000  0.10920000  1.0 0.1014334488
C  C14  1  0.22610000  0.42950000  0.11310000  1.0 -0.211454798
C  C15  1  0.30960000  0.49400000  0.12430000  1.0 0.1200784738
C  C16  1  0.33440000  0.57080000  0.13240000  1.0 -0.211454798
C  C17  1  0.27110000  0.57990000  0.12710000  1.0 0.045141892
C  C18  1  0.38280000  0.48840000  0.12890000  1.0 -0.1466668458
C  C19  1  0.62840000  0.75380000  0.96730000  1.0 -0.087705445
C  C20  1  0.59980000  0.72740000  0.01650000  1.0 -0.087705445
C  C21  1  0.61760000  0.70840000  0.80860000  1.0 -0.1619986629
C  C22  1  0.60460000  0.77020000  0.77300000  1.0 0.133750306
C  C23  1  0.67260000  0.85380000  0.75560000  1.0 -0.2183792577
C  C24  1  0.65930000  0.91210000  0.73030000  1.0 0.039824321
C  C25  1  0.51450000  0.80990000  0.73590000  1.0 0.0889795707
C  C26  1  0.52090000  0.74450000  0.76320000  1.0 -0.2263674387
C  C27  1  0.55750000  0.46970000  0.58990000  1.0 -0.1309563354
C  C28  1  0.61500000  0.51360000  0.55600000  1.0 0.039824321
C  C29  1  0.70120000  0.58920000  0.56600000  1.0 -0.1112048835
C  C30  1  0.72970000  0.62110000  0.60970000  1.0 0.3441378265
C  C31  1  0.58610000  0.50170000  0.63370000  1.0 0.3583189561
C  C32  1  0.46830000  0.39470000  0.58130000  1.0 -0.1112048835
C  C33  1  0.43820000  0.36560000  0.53510000  1.0 -0.1112048835
C  C34  1  0.46340000  0.37420000  0.45460000  1.0 0.3716779515
C  C35  1  0.60700000  0.48880000  0.42980000  1.0 0.3583189561
C  C36  1  0.63840000  0.52160000  0.47360000  1.0 -0.1619986629
C  C37  1  0.58220000  0.48080000  0.50790000  1.0 0.039824321
C  C38  1  0.49470000  0.40710000  0.49840000  1.0 -0.1220962298
C  C39  1  0.43910000  0.16470000  0.39080000  1.0 0.1014334488
C  C40  1  0.42950000  0.22610000  0.38690000  1.0 -0.211454798
C  C41  1  0.49400000  0.30960000  0.37570000  1.0 0.1200784738
C  C42  1  0.57080000  0.33440000  0.36760000  1.0 -0.211454798
C  C43  1  0.57990000  0.27110000  0.37290000  1.0 0.045141892
C  C44  1  0.48840000  0.38280000  0.37110000  1.0 -0.1466668458
C  C45  1  0.75380000  0.62840000  0.53270000  1.0 -0.087705445
C  C46  1  0.72740000  0.59980000  0.48350000  1.0 -0.087705445
C  C47  1  0.70840000  0.61760000  0.69140000  1.0 -0.1619986629
C  C48  1  0.77020000  0.60460000  0.72700000  1.0 0.133750306
C  C49  1  0.85380000  0.67260000  0.74440000  1.0 -0.2183792577
C  C50  1  0.91210000  0.65930000  0.76970000  1.0 0.039824321
C  C51  1  0.80990000  0.51450000  0.76410000  1.0 0.0889795707
C  C52  1  0.74450000  0.52090000  0.73680000  1.0 -0.2263674387
C  C53  1  0.53030000  0.44250000  0.08990000  1.0 -0.1309563354
C  C54  1  0.48640000  0.38500000  0.05600000  1.0 0.039824321
C  C55  1  0.41080000  0.29880000  0.06600000  1.0 -0.1112048835
C  C56  1  0.37890000  0.27030000  0.10970000  1.0 0.3441378265
C  C57  1  0.49830000  0.41390000  0.13370000  1.0 0.3583189561
C  C58  1  0.60530000  0.53170000  0.08130000  1.0 -0.1112048835
C  C59  1  0.63440000  0.56180000  0.03510000  1.0 -0.1112048835
C  C60  1  0.62580000  0.53660000  0.95460000  1.0 0.3716779515
C  C61  1  0.51120000  0.39300000  0.92980000  1.0 0.3583189561
C  C62  1  0.47840000  0.36160000  0.97360000  1.0 -0.1619986629
C  C63  1  0.51920000  0.41780000  0.00790000  1.0 0.039824321
C  C64  1  0.59290000  0.50530000  0.99840000  1.0 -0.1220962298
C  C65  1  0.83530000  0.56090000  0.89080000  1.0 0.1014334488
C  C66  1  0.77390000  0.57050000  0.88690000  1.0 -0.211454798
C  C67  1  0.69040000  0.50600000  0.87570000  1.0 0.1200784738
C  C68  1  0.66560000  0.42920000  0.86760000  1.0 -0.211454798
C  C69  1  0.72890000  0.42010000  0.87290000  1.0 0.045141892
C  C70  1  0.61720000  0.51160000  0.87110000  1.0 -0.1466668458
C  C71  1  0.37160000  0.24620000  0.03270000  1.0 -0.087705445
C  C72  1  0.40020000  0.27260000  0.98350000  1.0 -0.087705445
C  C73  1  0.38240000  0.29160000  0.19140000  1.0 -0.1619986629
C  C74  1  0.39540000  0.22980000  0.22700000  1.0 0.133750306
C  C75  1  0.32740000  0.14620000  0.24440000  1.0 -0.2183792577
C  C76  1  0.34070000  0.08790000  0.26970000  1.0 0.039824321
C  C77  1  0.48550000  0.19010000  0.26410000  1.0 0.0889795707
C  C78  1  0.47910000  0.25550000  0.23680000  1.0 -0.2263674387
C  C79  1  0.44250000  0.53030000  0.41010000  1.0 -0.1309563354
C  C80  1  0.38500000  0.48640000  0.44400000  1.0 0.039824321
C  C81  1  0.29880000  0.41080000  0.43400000  1.0 -0.1112048835
C  C82  1  0.27030000  0.37890000  0.39030000  1.0 0.3441378265
C  C83  1  0.41390000  0.49830000  0.36630000  1.0 0.3583189561
C  C84  1  0.53170000  0.60530000  0.41870000  1.0 -0.1112048835
C  C85  1  0.56180000  0.63440000  0.46490000  1.0 -0.1112048835
C  C86  1  0.53660000  0.62580000  0.54540000  1.0 0.3716779515
C  C87  1  0.39300000  0.51120000  0.57020000  1.0 0.3583189561
C  C88  1  0.36160000  0.47840000  0.52640000  1.0 -0.1619986629
C  C89  1  0.41780000  0.51920000  0.49210000  1.0 0.045141892
C  C90  1  0.50530000  0.59290000  0.50160000  1.0 -0.1220962298
C  C91  1  0.56090000  0.83530000  0.60920000  1.0 0.1014334488
C  C92  1  0.57050000  0.77390000  0.61310000  1.0 -0.211454798
C  C93  1  0.50600000  0.69040000  0.62430000  1.0 0.1200784738
C  C94  1  0.42920000  0.66560000  0.63240000  1.0 -0.211454798
C  C95  1  0.42010000  0.72890000  0.62710000  1.0 0.045141892
C  C96  1  0.51160000  0.61720000  0.62890000  1.0 -0.1466668458
C  C97  1  0.24620000  0.37160000  0.46730000  1.0 -0.087705445
C  C98  1  0.27260000  0.40020000  0.51650000  1.0 -0.087705445
C  C99  1  0.29160000  0.38240000  0.30860000  1.0 -0.1619986629
C  C100  1  0.22980000  0.39540000  0.27300000  1.0 0.133750306
C  C101  1  0.14620000  0.32740000  0.25560000  1.0 -0.2183792577
C  C102  1  0.08790000  0.34070000  0.23030000  1.0 0.039824321
C  C103  1  0.19010000  0.48550000  0.23590000  1.0 0.0889795707
C  C104  1  0.25550000  0.47910000  0.26320000  1.0 -0.2263674387
N  N1  1  0.18350000  0.51050000  0.11380000  1.0 -0.2663886459
N  N2  1  0.57720000  0.67220000  0.85640000  1.0 -0.1619986629
N  N3  1  0.41510000  0.51950000  0.07970000  1.0 -0.1895314553
N  N4  1  0.57950000  0.89030000  0.71960000  1.0 -0.248230549
N  N5  1  0.51050000  0.18350000  0.38620000  1.0 -0.2663886459
N  N6  1  0.67220000  0.57720000  0.64360000  1.0 -0.1619986629
N  N7  1  0.51950000  0.41510000  0.42030000  1.0 -0.1895314553
N  N8  1  0.89030000  0.57950000  0.78040000  1.0 -0.248230549
N  N9  1  0.81650000  0.48950000  0.88620000  1.0 -0.2663886459
N  N10  1  0.42280000  0.32780000  0.14360000  1.0 -0.1619986629
N  N11  1  0.58490000  0.48050000  0.92030000  1.0 -0.1895314553
N  N12  1  0.42050000  0.10970000  0.28040000  1.0 -0.248230549
N  N13  1  0.48950000  0.81650000  0.61380000  1.0 -0.2663886459
N  N14  1  0.32780000  0.42280000  0.35640000  1.0 -0.1619986629
N  N15  1  0.48050000  0.58490000  0.57970000  1.0 -0.1895314553
N  N16  1  0.10970000  0.42050000  0.21960000  1.0 -0.248230549
O  O1  1  0.92120000  0.31720000  0.23050000  1.0 -0.9500195688
O  O2  1  0.92880000  0.46560000  0.16780000  1.0 -0.9403336407
O  O3  1  0.61850000  0.19410000  0.13660000  1.0 -0.9747242094
O  O4  1  0.81070000  0.30290000  0.13880000  1.0 -1.1189813823
O  O5  1  0.75500000  0.36620000  0.17030000  1.0 -1.157654664
O  O6  1  0.05980000  0.48200000  0.02960000  1.0 -0.8489991636
O  O7  1  0.98860000  0.39780000  0.12640000  1.0 -0.9079100997
O  O8  1  0.76580000  0.20260000  0.07880000  1.0 -1.0429918975
O  O9  1  0.99150000  0.53690000  0.06960000  1.0 -0.894641514
O  O10  1  0.86330000  0.38550000  0.26180000  1.0 -1.0001615495
O  O11  1  0.87580000  0.37520000  0.04550000  1.0 -0.9295020611
O  O12  1  0.86690000  0.53410000  0.20150000  1.0 -1.0315704772
O  O13  1  0.76070000  0.51130000  0.11610000  1.0 -0.9747242094
O  O14  1  0.81490000  0.43490000  0.08300000  1.0 -1.1189813823
O  O15  1  0.71780000  0.47220000  0.02300000  1.0 -0.9560690136
O  O16  1  0.92840000  0.60860000  0.10570000  1.0 -1.0315704772
O  O17  1  0.62650000  0.36550000  0.16260000  1.0 -0.9500195688
O  O18  1  0.77150000  0.40990000  0.99170000  1.0 -0.9079100997
O  O19  1  0.87570000  0.22510000  0.16060000  1.0 -1.0071289749
O  O20  1  0.62380000  0.23240000  0.21520000  1.0 -0.894641514
O  O21  1  0.62440000  0.32140000  0.08130000  1.0 -0.9500195688
O  O22  1  0.67460000  0.25800000  0.05110000  1.0 -1.0001615495
O  O23  1  0.73010000  0.38930000  0.24520000  1.0 -0.9869116754
O  O24  1  0.88420000  0.57100000  0.01530000  1.0 -0.9500195688
O  O25  1  0.75250000  0.22530000  0.23600000  1.0 -0.9403336407
O  O26  1  0.70840000  0.13380000  0.16710000  1.0 -1.0248903246
O  O27  1  0.03520000  0.48160000  0.25470000  1.0 -0.9780321032
O  O28  1  0.04320000  0.63540000  0.19550000  1.0 -1.0572660179
O  O29  1  0.09870000  0.56150000  0.15450000  1.0 -1.0001615495
O  O30  1  0.31350000  0.38470000  0.05740000  1.0 -0.47542931
O  O31  1  0.52770000  0.65430000  0.10200000  1.0 -0.4698734195
O  O32  1  0.69210000  0.81030000  0.87780000  1.0 -0.5176492096
O  O33  1  0.47060000  0.54120000  0.83380000  1.0 -0.491145751
O  O34  1  0.31720000  0.92120000  0.26950000  1.0 -0.9500195688
O  O35  1  0.46560000  0.92880000  0.33220000  1.0 -0.9403336407
O  O36  1  0.19410000  0.61850000  0.36340000  1.0 -0.9747242094
O  O37  1  0.30290000  0.81070000  0.36120000  1.0 -1.1189813823
O  O38  1  0.36620000  0.75500000  0.32970000  1.0 -1.1524155349
O  O39  1  0.48200000  0.05980000  0.47040000  1.0 -0.8489991636
O  O40  1  0.39780000  0.98860000  0.37360000  1.0 -0.9079100997
O  O41  1  0.20260000  0.76580000  0.42120000  1.0 -1.0508733204
O  O42  1  0.53690000  0.99150000  0.43040000  1.0 -0.8955324502
O  O43  1  0.38550000  0.86330000  0.23820000  1.0 -1.0001615495
O  O44  1  0.37520000  0.87580000  0.45450000  1.0 -0.9295020611
O  O45  1  0.53410000  0.86690000  0.29850000  1.0 -1.0315704772
O  O46  1  0.51130000  0.76070000  0.38390000  1.0 -0.9780321032
O  O47  1  0.43490000  0.81490000  0.41700000  1.0 -1.1189813823
O  O48  1  0.47220000  0.71780000  0.47700000  1.0 -0.9500195688
O  O49  1  0.60860000  0.92840000  0.39430000  1.0 -1.0315704772
O  O50  1  0.36550000  0.62650000  0.33740000  1.0 -0.9500195688
O  O51  1  0.40990000  0.77150000  0.50830000  1.0 -0.9079100997
O  O52  1  0.22510000  0.87570000  0.33940000  1.0 -1.0001615495
O  O53  1  0.23240000  0.62380000  0.28480000  1.0 -0.894641514
O  O54  1  0.32140000  0.62440000  0.41870000  1.0 -0.9500195688
O  O55  1  0.25800000  0.67460000  0.44890000  1.0 -1.0001615495
O  O56  1  0.38930000  0.73010000  0.25480000  1.0 -0.9869116754
O  O57  1  0.57100000  0.88420000  0.48470000  1.0 -0.9500195688
O  O58  1  0.22530000  0.75250000  0.26400000  1.0 -0.9403336407
O  O59  1  0.13380000  0.70840000  0.33290000  1.0 -1.0315704772
O  O60  1  0.48160000  0.03520000  0.24530000  1.0 -0.9780321032
O  O61  1  0.63540000  0.04320000  0.30450000  1.0 -1.0508733204
O  O62  1  0.56150000  0.09870000  0.34550000  1.0 -1.0001615495
O  O63  1  0.38470000  0.31350000  0.44260000  1.0 -0.47542931
O  O64  1  0.65430000  0.52770000  0.39800000  1.0 -0.4698734195
O  O65  1  0.81030000  0.69210000  0.62220000  1.0 -0.5176492096
O  O66  1  0.54120000  0.47060000  0.66620000  1.0 -0.491145751
O  O67  1  0.07880000  0.68280000  0.76950000  1.0 -0.9500195688
O  O68  1  0.07120000  0.53440000  0.83220000  1.0 -0.9403336407
O  O69  1  0.38150000  0.80590000  0.86340000  1.0 -0.9747242094
O  O70  1  0.18930000  0.69710000  0.86120000  1.0 -1.1189813823
O  O71  1  0.24500000  0.63380000  0.82970000  1.0 -1.1524155349
O  O72  1  0.94020000  0.51800000  0.97040000  1.0 -0.8489991636
O  O73  1  0.01140000  0.60220000  0.87360000  1.0 -0.9079100997
O  O74  1  0.23420000  0.79740000  0.92120000  1.0 -1.0508733204
O  O75  1  0.00850000  0.46310000  0.93040000  1.0 -0.894641514
O  O76  1  0.13670000  0.61450000  0.73820000  1.0 -1.0001615495
O  O77  1  0.12420000  0.62480000  0.95450000  1.0 -0.9295020611
O  O78  1  0.13310000  0.46590000  0.79850000  1.0 -1.0315704772
O  O79  1  0.23930000  0.48870000  0.88390000  1.0 -0.9780321032
O  O80  1  0.18510000  0.56510000  0.91700000  1.0 -1.1189813823
O  O81  1  0.28220000  0.52780000  0.97700000  1.0 -0.9500195688
O  O82  1  0.07160000  0.39140000  0.89430000  1.0 -1.0315704772
O  O83  1  0.37350000  0.63450000  0.83740000  1.0 -0.9500195688
O  O84  1  0.22850000  0.59010000  0.00830000  1.0 -0.9079100997
O  O85  1  0.12430000  0.77490000  0.83940000  1.0 -1.0001615495
O  O86  1  0.37620000  0.76760000  0.78480000  1.0 -0.894641514
O  O87  1  0.37560000  0.67860000  0.91870000  1.0 -0.9500195688
O  O88  1  0.32540000  0.74200000  0.94890000  1.0 -1.0001615495
O  O89  1  0.26990000  0.61070000  0.75480000  1.0 -0.9869116754
O  O90  1  0.11580000  0.42900000  0.98470000  1.0 -0.9500195688
O  O91  1  0.24750000  0.77470000  0.76400000  1.0 -0.9403336407
O  O92  1  0.29160000  0.86620000  0.83290000  1.0 -1.0315704772
O  O93  1  0.96480000  0.51840000  0.74530000  1.0 -0.9780321032
O  O94  1  0.95680000  0.36460000  0.80450000  1.0 -1.0508733204
O  O95  1  0.90130000  0.43850000  0.84550000  1.0 -1.0001615495
O  O96  1  0.68650000  0.61530000  0.94260000  1.0 -0.47542931
O  O97  1  0.47230000  0.34570000  0.89800000  1.0 -0.4698734195
O  O98  1  0.30790000  0.18970000  0.12220000  1.0 -0.5176492096
O  O99  1  0.52940000  0.45880000  0.16620000  1.0 -0.491145751
O  O100  1  0.68280000  0.07880000  0.73050000  1.0 -0.9500195688
O  O101  1  0.53440000  0.07120000  0.66780000  1.0 -0.9403336407
O  O102  1  0.80590000  0.38150000  0.63660000  1.0 -0.9780321032
O  O103  1  0.69710000  0.18930000  0.63880000  1.0 -1.1189813823
O  O104  1  0.63380000  0.24500000  0.67030000  1.0 -1.1524155349
O  O105  1  0.51800000  0.94020000  0.52960000  1.0 -0.8489991636
O  O106  1  0.60220000  0.01140000  0.62640000  1.0 -0.9079100997
O  O107  1  0.79740000  0.23420000  0.57880000  1.0 -1.0508733204
O  O108  1  0.46310000  0.00850000  0.56960000  1.0 -0.894641514
O  O109  1  0.61450000  0.13670000  0.76180000  1.0 -1.0001615495
O  O110  1  0.62480000  0.12420000  0.54550000  1.0 -0.9295020611
O  O111  1  0.46590000  0.13310000  0.70150000  1.0 -1.0315704772
O  O112  1  0.48870000  0.23930000  0.61610000  1.0 -0.9780321032
O  O113  1  0.56510000  0.18510000  0.58300000  1.0 -1.1189813823
O  O114  1  0.52780000  0.28220000  0.52300000  1.0 -0.9500195688
O  O115  1  0.39140000  0.07160000  0.60570000  1.0 -1.0315704772
O  O116  1  0.63450000  0.37350000  0.66260000  1.0 -0.9500195688
O  O117  1  0.59010000  0.22850000  0.49170000  1.0 -0.9079100997
O  O118  1  0.77490000  0.12430000  0.66060000  1.0 -1.0001615495
O  O119  1  0.76760000  0.37620000  0.71520000  1.0 -0.894641514
O  O120  1  0.67860000  0.37560000  0.58130000  1.0 -0.9500195688
O  O121  1  0.74200000  0.32540000  0.55110000  1.0 -1.0001615495
O  O122  1  0.61070000  0.26990000  0.74520000  1.0 -0.9869116754
O  O123  1  0.42900000  0.11580000  0.51530000  1.0 -0.9500195688
O  O124  1  0.77470000  0.24750000  0.73600000  1.0 -0.9403336407
O  O125  1  0.86620000  0.29160000  0.66710000  1.0 -1.0315704772
O  O126  1  0.51840000  0.96480000  0.75470000  1.0 -0.9780321032
O  O127  1  0.36460000  0.95680000  0.69550000  1.0 -1.0508733204
O  O128  1  0.43850000  0.90130000  0.65450000  1.0 -1.0001615495
O  O129  1  0.61530000  0.68650000  0.55740000  1.0 -0.47542931
O  O130  1  0.34570000  0.47230000  0.60200000  1.0 -0.4698734195
O  O131  1  0.18970000  0.30790000  0.37780000  1.0 -0.5176492096
O  O132  1  0.45880000  0.52940000  0.33380000  1.0 -0.491145751
