# DDEC6 charges by PACMAN v1.1 (https://github.com/mtap-research/PACMAN-charge/)
data_AWEGEP_FSR_pacman
_symmetry_space_group_name_H-M   'P 1'
_cell_length_a   11.95630000
_cell_length_b   20.52250000
_cell_length_c   22.05560000
_cell_angle_alpha   90.00000000
_cell_angle_beta   90.00000000
_cell_angle_gamma   90.00000000
_symmetry_Int_Tables_number   1
_chemical_formula_structural   CsUPH4C7O8
_chemical_formula_sum   'Cs12 U12 P12 H48 C84 O96'
_cell_volume   5411.85241657
_cell_formula_units_Z   12
loop_
 _symmetry_equiv_pos_site_id
 _symmetry_equiv_pos_as_xyz
  1  'x, y, z'
loop_
 _atom_site_type_symbol
 _atom_site_label
 _atom_site_symmetry_multiplicity
 _atom_site_fract_x
 _atom_site_fract_y
 _atom_site_fract_z
 _atom_site_occupancy
 _atom_site_charge
Cs  Cs1  1  0.00247000  0.25000000  0.34487000  1.0 0.9167529565
Cs  Cs2  1  0.50247000  0.75000000  0.15513000  1.0 0.9167529565
Cs  Cs3  1  0.99753000  0.75000000  0.65513000  1.0 0.9167529565
Cs  Cs4  1  0.49753000  0.25000000  0.84487000  1.0 0.9167529565
Cs  Cs5  1  0.23765000  0.08032000  0.45990000  1.0 0.9140151513
Cs  Cs6  1  0.73765000  0.91968000  0.04010000  1.0 0.9140151513
Cs  Cs7  1  0.76235000  0.58032000  0.54010000  1.0 0.9140151513
Cs  Cs8  1  0.26235000  0.41968000  0.95990000  1.0 0.9140151513
Cs  Cs9  1  0.76235000  0.91968000  0.54010000  1.0 0.9140151513
Cs  Cs10  1  0.26235000  0.08032000  0.95990000  1.0 0.9140151513
Cs  Cs11  1  0.23765000  0.41968000  0.45990000  1.0 0.9140151513
Cs  Cs12  1  0.73765000  0.58032000  0.04010000  1.0 0.9140151513
U  U1  1  0.85977000  0.08319000  0.42758000  1.0 2.5782303435
U  U2  1  0.35977000  0.91681000  0.07242000  1.0 2.5782303435
U  U3  1  0.14023000  0.58319000  0.57242000  1.0 2.5782303435
U  U4  1  0.64023000  0.41681000  0.92758000  1.0 2.5782303435
U  U5  1  0.14023000  0.91681000  0.57242000  1.0 2.5782303435
U  U6  1  0.64023000  0.08319000  0.92758000  1.0 2.5782303435
U  U7  1  0.85977000  0.41681000  0.42758000  1.0 2.5782303435
U  U8  1  0.35977000  0.58319000  0.07242000  1.0 2.5782303435
U  U9  1  0.08961000  0.25000000  0.55992000  1.0 2.5503157598
U  U10  1  0.58961000  0.75000000  0.94008000  1.0 2.5503157598
U  U11  1  0.91039000  0.75000000  0.44008000  1.0 2.5503157598
U  U12  1  0.41039000  0.25000000  0.05992000  1.0 2.5503157598
P  P1  1  0.81980000  0.25000000  0.49501000  1.0 1.356363855
P  P2  1  0.31980000  0.75000000  0.00499000  1.0 1.356363855
P  P3  1  0.18020000  0.75000000  0.50499000  1.0 1.356363855
P  P4  1  0.68020000  0.25000000  0.99501000  1.0 1.356363855
P  P5  1  0.99970000  0.07770000  0.57290000  1.0 1.3473589642
P  P6  1  0.49970000  0.92230000  0.92710000  1.0 1.3473589642
P  P7  1  0.00030000  0.57770000  0.42710000  1.0 1.3473589642
P  P8  1  0.50030000  0.42230000  0.07290000  1.0 1.3473589642
P  P9  1  0.00030000  0.92230000  0.42710000  1.0 1.3473589642
P  P10  1  0.50030000  0.07770000  0.07290000  1.0 1.3473589642
P  P11  1  0.99970000  0.42230000  0.57290000  1.0 1.3473589642
P  P12  1  0.49970000  0.57770000  0.92710000  1.0 1.3473589642
H  H1  1  0.65820000  0.15140000  0.52910000  1.0 0.1252478135
H  H2  1  0.15820000  0.84860000  0.97090000  1.0 0.1252478135
H  H3  1  0.34180000  0.65140000  0.47090000  1.0 0.1252478135
H  H4  1  0.84180000  0.34860000  0.02910000  1.0 0.1252478135
H  H5  1  0.34180000  0.84860000  0.47090000  1.0 0.1252478135
H  H6  1  0.84180000  0.15140000  0.02910000  1.0 0.1252478135
H  H7  1  0.65820000  0.34860000  0.52910000  1.0 0.1252478135
H  H8  1  0.15820000  0.65140000  0.97090000  1.0 0.1252478135
H  H9  1  0.47010000  0.15040000  0.55430000  1.0 0.109983295
H  H10  1  0.97010000  0.84960000  0.94570000  1.0 0.109983295
H  H11  1  0.52990000  0.65040000  0.44570000  1.0 0.109983295
H  H12  1  0.02990000  0.34960000  0.05430000  1.0 0.109983295
H  H13  1  0.52990000  0.84960000  0.44570000  1.0 0.109983295
H  H14  1  0.02990000  0.15040000  0.05430000  1.0 0.109983295
H  H15  1  0.47010000  0.34960000  0.55430000  1.0 0.109983295
H  H16  1  0.97010000  0.65040000  0.94570000  1.0 0.109983295
H  H17  1  0.97280000  0.99380000  0.67530000  1.0 0.1219603808
H  H18  1  0.47280000  0.00620000  0.82470000  1.0 0.1219603808
H  H19  1  0.02720000  0.49380000  0.32470000  1.0 0.1219603808
H  H20  1  0.52720000  0.50620000  0.17530000  1.0 0.1219603808
H  H21  1  0.02720000  0.00620000  0.32470000  1.0 0.1219603808
H  H22  1  0.52720000  0.99380000  0.17530000  1.0 0.1219603808
H  H23  1  0.97280000  0.50620000  0.67530000  1.0 0.1219603808
H  H24  1  0.47280000  0.49380000  0.82470000  1.0 0.1219603808
H  H25  1  0.86470000  0.99510000  0.76370000  1.0 0.1219603808
H  H26  1  0.36470000  0.00490000  0.73630000  1.0 0.1219603808
H  H27  1  0.13530000  0.49510000  0.23630000  1.0 0.1219603808
H  H28  1  0.63530000  0.50490000  0.26370000  1.0 0.1219603808
H  H29  1  0.13530000  0.00490000  0.23630000  1.0 0.1219603808
H  H30  1  0.63530000  0.99510000  0.26370000  1.0 0.1219603808
H  H31  1  0.86470000  0.50490000  0.76370000  1.0 0.1219603808
H  H32  1  0.36470000  0.49510000  0.73630000  1.0 0.1219603808
H  H33  1  0.76550000  0.17990000  0.72210000  1.0 0.1219603808
H  H34  1  0.26550000  0.82010000  0.77790000  1.0 0.1219603808
H  H35  1  0.23450000  0.67990000  0.27790000  1.0 0.1219603808
H  H36  1  0.73450000  0.32010000  0.22210000  1.0 0.1219603808
H  H37  1  0.23450000  0.82010000  0.27790000  1.0 0.1219603808
H  H38  1  0.73450000  0.17990000  0.22210000  1.0 0.1219603808
H  H39  1  0.76550000  0.32010000  0.72210000  1.0 0.1219603808
H  H40  1  0.26550000  0.67990000  0.77790000  1.0 0.1219603808
H  H41  1  0.86630000  0.17450000  0.63220000  1.0 0.1219603808
H  H42  1  0.36630000  0.82550000  0.86780000  1.0 0.1219603808
H  H43  1  0.13370000  0.67450000  0.36780000  1.0 0.1219603808
H  H44  1  0.63370000  0.32550000  0.13220000  1.0 0.1219603808
H  H45  1  0.13370000  0.82550000  0.36780000  1.0 0.1219603808
H  H46  1  0.63370000  0.17450000  0.13220000  1.0 0.1219603808
H  H47  1  0.86630000  0.32550000  0.63220000  1.0 0.1219603808
H  H48  1  0.36630000  0.67450000  0.86780000  1.0 0.1219603808
C  C1  1  0.67930000  0.25000000  0.52390000  1.0 -0.1673277955
C  C2  1  0.17930000  0.75000000  0.97610000  1.0 -0.1673277955
C  C3  1  0.32070000  0.75000000  0.47610000  1.0 -0.1673277955
C  C4  1  0.82070000  0.25000000  0.02390000  1.0 -0.1673277955
C  C5  1  0.61970000  0.19160000  0.53330000  1.0 -0.0824590877
C  C6  1  0.11970000  0.80840000  0.96670000  1.0 -0.0824590877
C  C7  1  0.38030000  0.69160000  0.46670000  1.0 -0.0824590877
C  C8  1  0.88030000  0.30840000  0.03330000  1.0 -0.0824590877
C  C9  1  0.38030000  0.80840000  0.46670000  1.0 -0.0824590877
C  C10  1  0.88030000  0.19160000  0.03330000  1.0 -0.0824590877
C  C11  1  0.61970000  0.30840000  0.53330000  1.0 -0.0824590877
C  C12  1  0.11970000  0.69160000  0.96670000  1.0 -0.0824590877
C  C13  1  0.50830000  0.19050000  0.54840000  1.0 -0.106985282
C  C14  1  0.00830000  0.80950000  0.95160000  1.0 -0.106985282
C  C15  1  0.49170000  0.69050000  0.45160000  1.0 -0.106985282
C  C16  1  0.99170000  0.30950000  0.04840000  1.0 -0.106985282
C  C17  1  0.49170000  0.80950000  0.45160000  1.0 -0.106985282
C  C18  1  0.99170000  0.19050000  0.04840000  1.0 -0.106985282
C  C19  1  0.50830000  0.30950000  0.54840000  1.0 -0.106985282
C  C20  1  0.00830000  0.69050000  0.95160000  1.0 -0.106985282
C  C21  1  0.45270000  0.25000000  0.55490000  1.0 -0.0319823495
C  C22  1  0.95270000  0.75000000  0.94510000  1.0 -0.0319823495
C  C23  1  0.54730000  0.75000000  0.44510000  1.0 -0.0319823495
C  C24  1  0.04730000  0.25000000  0.05490000  1.0 -0.0319823495
C  C25  1  0.33020000  0.25000000  0.56470000  1.0 0.5740685684
C  C26  1  0.83020000  0.75000000  0.93530000  1.0 0.5740685684
C  C27  1  0.66980000  0.75000000  0.43530000  1.0 0.5740685684
C  C28  1  0.16980000  0.25000000  0.06470000  1.0 0.5740685684
C  C29  1  0.92860000  0.08330000  0.64460000  1.0 -0.1823127905
C  C30  1  0.42860000  0.91670000  0.85540000  1.0 -0.1823127905
C  C31  1  0.07140000  0.58330000  0.35540000  1.0 -0.1823127905
C  C32  1  0.57140000  0.41670000  0.14460000  1.0 -0.1823127905
C  C33  1  0.07140000  0.91670000  0.35540000  1.0 -0.1823127905
C  C34  1  0.57140000  0.08330000  0.14460000  1.0 -0.1823127905
C  C35  1  0.92860000  0.41670000  0.64460000  1.0 -0.1823127905
C  C36  1  0.42860000  0.58330000  0.85540000  1.0 -0.1823127905
C  C37  1  0.92870000  0.03100000  0.68440000  1.0 -0.0824590877
C  C38  1  0.42870000  0.96900000  0.81560000  1.0 -0.0824590877
C  C39  1  0.07130000  0.53100000  0.31560000  1.0 -0.0824590877
C  C40  1  0.57130000  0.46900000  0.18440000  1.0 -0.0824590877
C  C41  1  0.07130000  0.96900000  0.31560000  1.0 -0.0824590877
C  C42  1  0.57130000  0.03100000  0.18440000  1.0 -0.0824590877
C  C43  1  0.92870000  0.46900000  0.68440000  1.0 -0.0824590877
C  C44  1  0.42870000  0.53100000  0.81560000  1.0 -0.0824590877
C  C45  1  0.86580000  0.03180000  0.73740000  1.0 -0.1032954276
C  C46  1  0.36580000  0.96820000  0.76260000  1.0 -0.1032954276
C  C47  1  0.13420000  0.53180000  0.26260000  1.0 -0.1032954276
C  C48  1  0.63420000  0.46820000  0.23740000  1.0 -0.1032954276
C  C49  1  0.13420000  0.96820000  0.26260000  1.0 -0.1032954276
C  C50  1  0.63420000  0.03180000  0.23740000  1.0 -0.1032954276
C  C51  1  0.86580000  0.46820000  0.73740000  1.0 -0.1032954276
C  C52  1  0.36580000  0.53180000  0.76260000  1.0 -0.1032954276
C  C53  1  0.80370000  0.08820000  0.75130000  1.0 0.0028655482
C  C54  1  0.30370000  0.91180000  0.74870000  1.0 0.0028655482
C  C55  1  0.19630000  0.58820000  0.24870000  1.0 0.0028655482
C  C56  1  0.69630000  0.41180000  0.25130000  1.0 0.0028655482
C  C57  1  0.19630000  0.91180000  0.24870000  1.0 0.0028655482
C  C58  1  0.69630000  0.08820000  0.25130000  1.0 0.0028655482
C  C59  1  0.80370000  0.41180000  0.75130000  1.0 0.0028655482
C  C60  1  0.30370000  0.58820000  0.74870000  1.0 0.0028655482
C  C61  1  0.80590000  0.14140000  0.71220000  1.0 -0.1032954276
C  C62  1  0.30590000  0.85860000  0.78780000  1.0 -0.1032954276
C  C63  1  0.19410000  0.64140000  0.28780000  1.0 -0.1032954276
C  C64  1  0.69410000  0.35860000  0.21220000  1.0 -0.1032954276
C  C65  1  0.19410000  0.85860000  0.28780000  1.0 -0.1032954276
C  C66  1  0.69410000  0.14140000  0.21220000  1.0 -0.1032954276
C  C67  1  0.80590000  0.35860000  0.71220000  1.0 -0.1032954276
C  C68  1  0.30590000  0.64140000  0.78780000  1.0 -0.1032954276
C  C69  1  0.86670000  0.13840000  0.65920000  1.0 -0.0656911994
C  C70  1  0.36670000  0.86160000  0.84080000  1.0 -0.0656911994
C  C71  1  0.13330000  0.63840000  0.34080000  1.0 -0.0656911994
C  C72  1  0.63330000  0.36160000  0.15920000  1.0 -0.0656911994
C  C73  1  0.13330000  0.86160000  0.34080000  1.0 -0.0656911994
C  C74  1  0.63330000  0.13840000  0.15920000  1.0 -0.0656911994
C  C75  1  0.86670000  0.36160000  0.65920000  1.0 -0.0656911994
C  C76  1  0.36670000  0.63840000  0.84080000  1.0 -0.0656911994
C  C77  1  0.73350000  0.08890000  0.80840000  1.0 0.5552029831
C  C78  1  0.23350000  0.91110000  0.69160000  1.0 0.5552029831
C  C79  1  0.26650000  0.58890000  0.19160000  1.0 0.5552029831
C  C80  1  0.76650000  0.41110000  0.30840000  1.0 0.5552029831
C  C81  1  0.26650000  0.91110000  0.19160000  1.0 0.5552029831
C  C82  1  0.76650000  0.08890000  0.30840000  1.0 0.5552029831
C  C83  1  0.73350000  0.41110000  0.80840000  1.0 0.5552029831
C  C84  1  0.23350000  0.58890000  0.69160000  1.0 0.5552029831
O  O1  1  0.71940000  0.06080000  0.44980000  1.0 -0.6863865333
O  O2  1  0.21940000  0.93920000  0.05020000  1.0 -0.6863865333
O  O3  1  0.28060000  0.56080000  0.55020000  1.0 -0.6863865333
O  O4  1  0.78060000  0.43920000  0.94980000  1.0 -0.6863865333
O  O5  1  0.28060000  0.93920000  0.55020000  1.0 -0.6863865333
O  O6  1  0.78060000  0.06080000  0.94980000  1.0 -0.6863865333
O  O7  1  0.71940000  0.43920000  0.44980000  1.0 -0.6863865333
O  O8  1  0.21940000  0.56080000  0.05020000  1.0 -0.6863865333
O  O9  1  0.99860000  0.10480000  0.40430000  1.0 -0.8120920437
O  O10  1  0.49860000  0.89520000  0.09570000  1.0 -0.8120920437
O  O11  1  0.00140000  0.60480000  0.59570000  1.0 -0.8120920437
O  O12  1  0.50140000  0.39520000  0.90430000  1.0 -0.8120920437
O  O13  1  0.00140000  0.89520000  0.59570000  1.0 -0.8120920437
O  O14  1  0.50140000  0.10480000  0.90430000  1.0 -0.8120920437
O  O15  1  0.99860000  0.39520000  0.40430000  1.0 -0.8120920437
O  O16  1  0.49860000  0.60480000  0.09570000  1.0 -0.8120920437
O  O17  1  0.07730000  0.25000000  0.64030000  1.0 -0.6647143143
O  O18  1  0.57730000  0.75000000  0.85970000  1.0 -0.6647143143
O  O19  1  0.92270000  0.75000000  0.35970000  1.0 -0.6647143143
O  O20  1  0.42270000  0.25000000  0.14030000  1.0 -0.6647143143
O  O21  1  0.10750000  0.25000000  0.47920000  1.0 -0.7800906079
O  O22  1  0.60750000  0.75000000  0.02080000  1.0 -0.7800906079
O  O23  1  0.89250000  0.75000000  0.52080000  1.0 -0.7800906079
O  O24  1  0.39250000  0.25000000  0.97920000  1.0 -0.7800906079
O  O25  1  0.89790000  0.25000000  0.54980000  1.0 -0.8163494247
O  O26  1  0.39790000  0.75000000  0.95020000  1.0 -0.8163494247
O  O27  1  0.10210000  0.75000000  0.45020000  1.0 -0.8163494247
O  O28  1  0.60210000  0.25000000  0.04980000  1.0 -0.8163494247
O  O29  1  0.83480000  0.18890000  0.45740000  1.0 -0.8384122702
O  O30  1  0.33480000  0.81110000  0.04260000  1.0 -0.8384122702
O  O31  1  0.16520000  0.68890000  0.54260000  1.0 -0.8384122702
O  O32  1  0.66520000  0.31110000  0.95740000  1.0 -0.8384122702
O  O33  1  0.16520000  0.81110000  0.54260000  1.0 -0.8384122702
O  O34  1  0.66520000  0.18890000  0.95740000  1.0 -0.8384122702
O  O35  1  0.83480000  0.31110000  0.45740000  1.0 -0.8384122702
O  O36  1  0.33480000  0.68890000  0.04260000  1.0 -0.8384122702
O  O37  1  0.27590000  0.19600000  0.56630000  1.0 -0.6335295814
O  O38  1  0.77590000  0.80400000  0.93370000  1.0 -0.6335295814
O  O39  1  0.72410000  0.69600000  0.43370000  1.0 -0.6335295814
O  O40  1  0.22410000  0.30400000  0.06630000  1.0 -0.6335295814
O  O41  1  0.72410000  0.80400000  0.43370000  1.0 -0.6335295814
O  O42  1  0.22410000  0.19600000  0.06630000  1.0 -0.6335295814
O  O43  1  0.27590000  0.30400000  0.56630000  1.0 -0.6335295814
O  O44  1  0.77590000  0.69600000  0.93370000  1.0 -0.6335295814
O  O45  1  0.90850000  0.06330000  0.52660000  1.0 -0.8384122702
O  O46  1  0.40850000  0.93670000  0.97340000  1.0 -0.8384122702
O  O47  1  0.09150000  0.56330000  0.47340000  1.0 -0.8384122702
O  O48  1  0.59150000  0.43670000  0.02660000  1.0 -0.8384122702
O  O49  1  0.09150000  0.93670000  0.47340000  1.0 -0.8384122702
O  O50  1  0.59150000  0.06330000  0.02660000  1.0 -0.8384122702
O  O51  1  0.90850000  0.43670000  0.52660000  1.0 -0.8384122702
O  O52  1  0.40850000  0.56330000  0.97340000  1.0 -0.8384122702
O  O53  1  0.08750000  0.02380000  0.57580000  1.0 -0.8384122702
O  O54  1  0.58750000  0.97620000  0.92420000  1.0 -0.8384122702
O  O55  1  0.91250000  0.52380000  0.42420000  1.0 -0.8384122702
O  O56  1  0.41250000  0.47620000  0.07580000  1.0 -0.8384122702
O  O57  1  0.91250000  0.97620000  0.42420000  1.0 -0.8384122702
O  O58  1  0.41250000  0.02380000  0.07580000  1.0 -0.8384122702
O  O59  1  0.08750000  0.47620000  0.57580000  1.0 -0.8384122702
O  O60  1  0.58750000  0.52380000  0.92420000  1.0 -0.8384122702
O  O61  1  0.05760000  0.14110000  0.55900000  1.0 -0.8384122702
O  O62  1  0.55760000  0.85890000  0.94100000  1.0 -0.8384122702
O  O63  1  0.94240000  0.64110000  0.44100000  1.0 -0.8384122702
O  O64  1  0.44240000  0.35890000  0.05900000  1.0 -0.8384122702
O  O65  1  0.94240000  0.85890000  0.44100000  1.0 -0.8384122702
O  O66  1  0.44240000  0.14110000  0.05900000  1.0 -0.8384122702
O  O67  1  0.05760000  0.35890000  0.55900000  1.0 -0.8384122702
O  O68  1  0.55760000  0.64110000  0.94100000  1.0 -0.8384122702
O  O69  1  0.71520000  0.14180000  0.83680000  1.0 -0.6230420845
O  O70  1  0.21520000  0.85820000  0.66320000  1.0 -0.6230420845
O  O71  1  0.28480000  0.64180000  0.16320000  1.0 -0.6230420845
O  O72  1  0.78480000  0.35820000  0.33680000  1.0 -0.6230420845
O  O73  1  0.28480000  0.85820000  0.16320000  1.0 -0.6230420845
O  O74  1  0.78480000  0.14180000  0.33680000  1.0 -0.6230420845
O  O75  1  0.71520000  0.35820000  0.83680000  1.0 -0.6230420845
O  O76  1  0.21520000  0.64180000  0.66320000  1.0 -0.6230420845
O  O77  1  0.69740000  0.03550000  0.83000000  1.0 -0.5804752486
O  O78  1  0.19740000  0.96450000  0.67000000  1.0 -0.5804752486
O  O79  1  0.30260000  0.53550000  0.17000000  1.0 -0.5804752486
O  O80  1  0.80260000  0.46450000  0.33000000  1.0 -0.5804752486
O  O81  1  0.30260000  0.96450000  0.17000000  1.0 -0.5804752486
O  O82  1  0.80260000  0.03550000  0.33000000  1.0 -0.5804752486
O  O83  1  0.69740000  0.46450000  0.83000000  1.0 -0.5804752486
O  O84  1  0.19740000  0.53550000  0.67000000  1.0 -0.5804752486
O  O85  1  0.92970000  0.25000000  0.19520000  1.0 -0.1032954276
O  O86  1  0.42970000  0.75000000  0.30480000  1.0 -0.1032954276
O  O87  1  0.07030000  0.75000000  0.80480000  1.0 -0.106985282
O  O88  1  0.57030000  0.25000000  0.69520000  1.0 -0.1032954276
O  O89  1  0.48190000  0.04360000  0.44960000  1.0 -0.1214821257
O  O90  1  0.98190000  0.95640000  0.05040000  1.0 -0.1214821257
O  O91  1  0.51810000  0.54360000  0.55040000  1.0 -0.1214821257
O  O92  1  0.01810000  0.45640000  0.94960000  1.0 -0.1214821257
O  O93  1  0.51810000  0.95640000  0.55040000  1.0 -0.1214821257
O  O94  1  0.01810000  0.04360000  0.94960000  1.0 -0.1214821257
O  O95  1  0.48190000  0.45640000  0.44960000  1.0 -0.1214821257
O  O96  1  0.98190000  0.54360000  0.05040000  1.0 -0.1214821257
