# DDEC6 charges by PACMAN v1.1 (https://github.com/mtap-research/PACMAN-charge/)
data_AWEJOE_FSR_pacman
_symmetry_space_group_name_H-M   'P 1'
_cell_length_a   9.67060000
_cell_length_b   10.69980000
_cell_length_c   18.55790000
_cell_angle_alpha   105.17000000
_cell_angle_beta   103.02800000
_cell_angle_gamma   88.40700000
_symmetry_Int_Tables_number   1
_chemical_formula_structural   Zn2H22C34S(N2O7)2
_chemical_formula_sum   'Zn4 H44 C68 S2 N8 O28'
_cell_volume   1804.63834537
_cell_formula_units_Z   2
loop_
 _symmetry_equiv_pos_site_id
 _symmetry_equiv_pos_as_xyz
  1  'x, y, z'
loop_
 _atom_site_type_symbol
 _atom_site_label
 _atom_site_symmetry_multiplicity
 _atom_site_fract_x
 _atom_site_fract_y
 _atom_site_fract_z
 _atom_site_occupancy
 _atom_site_charge
Zn  Zn1  1  0.14679000  0.81580000  0.09349000  1.0 0.834376043
Zn  Zn2  1  0.69704000  0.85710000  0.58540000  1.0 0.8361850738
Zn  Zn3  1  0.85321000  0.18420000  0.90651000  1.0 0.834376043
Zn  Zn4  1  0.30296000  0.14290000  0.41460000  1.0 0.8361850738
H  H1  1  0.15060000  0.03680000  0.09100000  1.0 0.3830802499
H  H2  1  0.29560000  0.00600000  0.08660000  1.0 0.3691099196
H  H3  1  0.67390000  0.09340000  0.58480000  1.0 0.3905647754
H  H4  1  0.82170000  0.07500000  0.58200000  1.0 0.3830802499
H  H5  1  0.87100000  0.57100000  0.18480000  1.0 0.2869311778
H  H6  1  0.51500000  0.32900000  0.15030000  1.0 0.2869311778
H  H7  1  0.65160000  0.61370000  0.14660000  1.0 0.1296203704
H  H8  1  0.82290000  0.68090000  0.37460000  1.0 0.1472071468
H  H9  1  0.41060000  0.76020000  0.30020000  1.0 0.1178480874
H  H10  1  0.06740000  0.49580000  0.13030000  1.0 0.1296203704
H  H11  1  0.29490000  0.38980000  0.11790000  1.0 0.1296203704
H  H12  1  0.69680000  0.29180000  0.09130000  1.0 0.1381520203
H  H13  1  0.08100000  0.19180000  0.19900000  1.0 0.1178480874
H  H14  1  0.76760000  0.28980000  0.31510000  1.0 0.1381520203
H  H15  1  0.10340000  0.85180000  0.24820000  1.0 0.1105729723
H  H16  1  0.93580000  0.92330000  0.31980000  1.0 0.1296203704
H  H17  1  0.66020000  0.94930000  0.12550000  1.0 0.1296203704
H  H18  1  0.83740000  0.88430000  0.05950000  1.0 0.1105729723
H  H19  1  0.79500000  0.02200000  0.38250000  1.0 0.1296203704
H  H20  1  0.61970000  0.09520000  0.44800000  1.0 0.0993006772
H  H21  1  0.33620000  0.06790000  0.25470000  1.0 0.1105729723
H  H22  1  0.50510000  0.99890000  0.18470000  1.0 0.1105729723
H  H23  1  0.84940000  0.96320000  0.90900000  1.0 0.3830802499
H  H24  1  0.70440000  0.99400000  0.91340000  1.0 0.3691099196
H  H25  1  0.32610000  0.90660000  0.41520000  1.0 0.3905647754
H  H26  1  0.17830000  0.92500000  0.41800000  1.0 0.3830802499
H  H27  1  0.12900000  0.42900000  0.81520000  1.0 0.2869311778
H  H28  1  0.48500000  0.67100000  0.84970000  1.0 0.2869311778
H  H29  1  0.34840000  0.38630000  0.85340000  1.0 0.1296203704
H  H30  1  0.17710000  0.31910000  0.62540000  1.0 0.1472071468
H  H31  1  0.58940000  0.23980000  0.69980000  1.0 0.1178480874
H  H32  1  0.93260000  0.50420000  0.86970000  1.0 0.1296203704
H  H33  1  0.70510000  0.61020000  0.88210000  1.0 0.1296203704
H  H34  1  0.30320000  0.70820000  0.90870000  1.0 0.1381520203
H  H35  1  0.91900000  0.80820000  0.80100000  1.0 0.1178480874
H  H36  1  0.23240000  0.71020000  0.68490000  1.0 0.1381520203
H  H37  1  0.89660000  0.14820000  0.75180000  1.0 0.1105729723
H  H38  1  0.06420000  0.07670000  0.68020000  1.0 0.1296203704
H  H39  1  0.33980000  0.05070000  0.87450000  1.0 0.1296203704
H  H40  1  0.16260000  0.11570000  0.94050000  1.0 0.1105729723
H  H41  1  0.20500000  0.97800000  0.61750000  1.0 0.1296203704
H  H42  1  0.38030000  0.90480000  0.55200000  1.0 0.0993006772
H  H43  1  0.66380000  0.93210000  0.74530000  1.0 0.1105729723
H  H44  1  0.49490000  0.00110000  0.81530000  1.0 0.1105729723
C  C1  1  0.39530000  0.70270000  0.14920000  1.0 0.5476391076
C  C2  1  0.51390000  0.68960000  0.21401000  1.0 -0.010761751
C  C3  1  0.64250000  0.64250000  0.19819000  1.0 -0.2312184476
C  C4  1  0.75740000  0.63730000  0.25742000  1.0 0.2218226327
C  C5  1  0.74410000  0.68150000  0.33350000  1.0 -0.1937611119
C  C6  1  0.61350000  0.72660000  0.34831000  1.0 -0.0194447396
C  C7  1  0.49900000  0.73020000  0.28945000  1.0 -0.1496881076
C  C8  1  0.60280000  0.77840000  0.43040000  1.0 0.5575441181
C  C9  1  0.00990000  0.57810000  0.28290000  1.0 0.4668840527
C  C10  1  0.12600000  0.51900000  0.24680000  1.0 -0.1211008566
C  C11  1  0.13780000  0.48260000  0.17220000  1.0 -0.1211008566
C  C12  1  0.26840000  0.42260000  0.16540000  1.0 -0.1211008566
C  C13  1  0.35200000  0.41690000  0.23420000  1.0 -0.1211008566
C  C14  1  0.49740000  0.37070000  0.25510000  1.0 0.4668840527
C  C15  1  0.70880000  0.29510000  0.20310000  1.0 0.2218226327
C  C16  1  0.75800000  0.27760000  0.13607000  1.0 -0.2312184476
C  C17  1  0.89600000  0.23940000  0.13450000  1.0 -0.0194447396
C  C18  1  0.98660000  0.21800000  0.19996000  1.0 -0.1496881076
C  C19  1  0.93730000  0.23530000  0.26603000  1.0 -0.010761751
C  C20  1  0.79920000  0.27580000  0.26880000  1.0 -0.1937611119
C  C21  1  0.94350000  0.21940000  0.06112000  1.0 0.5575441181
C  C22  1  0.03330000  0.20910000  0.33690000  1.0 0.5575441181
C  C23  1  0.01240000  0.87330000  0.22330000  1.0 0.084220984
C  C24  1  0.91320000  0.91610000  0.26628000  1.0 -0.1712607534
C  C25  1  0.77960000  0.94890000  0.23084000  1.0 0.1105729723
C  C26  1  0.75170000  0.93230000  0.15220000  1.0 -0.1808337585
C  C27  1  0.85690000  0.89110000  0.11290000  1.0 0.084220984
C  C28  1  0.66960000  0.99780000  0.27518000  1.0 0.1105729723
C  C29  1  0.70110000  0.03000000  0.35480000  1.0 -0.1712607534
C  C30  1  0.59570000  0.07350000  0.39360000  1.0 0.0993006772
C  C31  1  0.43060000  0.05830000  0.28090000  1.0 0.0884026571
C  C32  1  0.53070000  0.01600000  0.23900000  1.0 -0.1808337585
C  C33  1  0.43500000  0.59820000  0.52090000  1.0 0.3122068404
C  C34  1  0.35230000  0.59400000  0.50300000  1.0 -0.1808337585
C  C35  1  0.60470000  0.29730000  0.85080000  1.0 0.5476391076
C  C36  1  0.48610000  0.31040000  0.78599000  1.0 -0.010761751
C  C37  1  0.35750000  0.35750000  0.80181000  1.0 -0.2312184476
C  C38  1  0.24260000  0.36270000  0.74258000  1.0 0.2218226327
C  C39  1  0.25590000  0.31850000  0.66650000  1.0 -0.1937611119
C  C40  1  0.38650000  0.27340000  0.65169000  1.0 -0.0194447396
C  C41  1  0.50100000  0.26980000  0.71055000  1.0 -0.1496881076
C  C42  1  0.39720000  0.22160000  0.56960000  1.0 0.5575441181
C  C43  1  0.99010000  0.42190000  0.71710000  1.0 0.4668840527
C  C44  1  0.87400000  0.48100000  0.75320000  1.0 -0.1211008566
C  C45  1  0.86220000  0.51740000  0.82780000  1.0 -0.1211008566
C  C46  1  0.73160000  0.57740000  0.83460000  1.0 -0.1211008566
C  C47  1  0.64800000  0.58310000  0.76580000  1.0 -0.1211008566
C  C48  1  0.50260000  0.62930000  0.74490000  1.0 0.4668840527
C  C49  1  0.29120000  0.70490000  0.79690000  1.0 0.2218226327
C  C50  1  0.24200000  0.72240000  0.86393000  1.0 -0.2312184476
C  C51  1  0.10400000  0.76060000  0.86550000  1.0 -0.0194447396
C  C52  1  0.01340000  0.78200000  0.80004000  1.0 -0.1496881076
C  C53  1  0.06270000  0.76470000  0.73397000  1.0 -0.010761751
C  C54  1  0.20080000  0.72420000  0.73120000  1.0 -0.1937611119
C  C55  1  0.05650000  0.78060000  0.93888000  1.0 0.5575441181
C  C56  1  0.96670000  0.79090000  0.66310000  1.0 0.5575441181
C  C57  1  0.98760000  0.12670000  0.77670000  1.0 0.0884026571
C  C58  1  0.08680000  0.08390000  0.73372000  1.0 -0.1712607534
C  C59  1  0.22040000  0.05110000  0.76916000  1.0 0.1105729723
C  C60  1  0.24830000  0.06770000  0.84780000  1.0 -0.1808337585
C  C61  1  0.14310000  0.10890000  0.88710000  1.0 0.084220984
C  C62  1  0.33040000  0.00220000  0.72482000  1.0 0.1105729723
C  C63  1  0.29890000  0.97000000  0.64520000  1.0 -0.1712607534
C  C64  1  0.40430000  0.92650000  0.60640000  1.0 0.0993006772
C  C65  1  0.56940000  0.94170000  0.71910000  1.0 0.0884026571
C  C66  1  0.46930000  0.98400000  0.76100000  1.0 -0.1808337585
C  C67  1  0.56500000  0.40180000  0.47910000  1.0 0.3122068404
C  C68  1  0.64770000  0.40600000  0.49700000  1.0 -0.1808337585
S  S1  1  0.27282000  0.48412000  0.30867000  1.0 0.1794580876
S  S2  1  0.72718000  0.51588000  0.69133000  1.0 0.1794580876
N  N1  1  0.88490000  0.59100000  0.23592000  1.0 -0.3676532001
N  N2  1  0.56560000  0.33300000  0.19781000  1.0 -0.3538601638
N  N3  1  0.98520000  0.86060000  0.14742000  1.0 -0.2570303545
N  N4  1  0.46160000  0.08680000  0.35844000  1.0 -0.2570303545
N  N5  1  0.11510000  0.40900000  0.76408000  1.0 -0.3676532001
N  N6  1  0.43440000  0.66700000  0.80219000  1.0 -0.3538601638
N  N7  1  0.01480000  0.13940000  0.85258000  1.0 -0.2570303545
N  N8  1  0.53840000  0.91320000  0.64156000  1.0 -0.2570303545
O  O1  1  0.40720000  0.66380000  0.08261000  1.0 -0.5308587195
O  O2  1  0.28460000  0.75530000  0.16856000  1.0 -0.5696282254
O  O3  1  0.48780000  0.81750000  0.44558000  1.0 -0.5696282254
O  O4  1  0.71630000  0.78170000  0.48173000  1.0 -0.5308587195
O  O5  1  0.03100000  0.61030000  0.35328000  1.0 -0.4490451009
O  O6  1  0.55050000  0.36860000  0.32158000  1.0 -0.457025075
O  O7  1  0.87100000  0.27560000  0.01217000  1.0 -0.5517975331
O  O8  1  0.04580000  0.15150000  0.04819000  1.0 -0.5696282254
O  O9  1  0.15950000  0.18030000  0.33127000  1.0 -0.5696282254
O  O10  1  0.98500000  0.21270000  0.39382000  1.0 -0.5225461365
O  O11  1  0.22350000  0.99380000  0.10328000  1.0 -0.6693024875
O  O12  1  0.74950000  0.05310000  0.59550000  1.0 -0.6773091198
O  O13  1  0.56780000  0.65960000  0.56170000  1.0 -0.0990348139
O  O14  1  0.49900000  0.58200000  0.52820000  1.0 0.1635265409
O  O15  1  0.59280000  0.33620000  0.91739000  1.0 -0.5308587195
O  O16  1  0.71540000  0.24470000  0.83144000  1.0 -0.5696282254
O  O17  1  0.51220000  0.18250000  0.55442000  1.0 -0.5696282254
O  O18  1  0.28370000  0.21830000  0.51827000  1.0 -0.5308587195
O  O19  1  0.96900000  0.38970000  0.64672000  1.0 -0.4490451009
O  O20  1  0.44950000  0.63140000  0.67842000  1.0 -0.457025075
O  O21  1  0.12900000  0.72440000  0.98783000  1.0 -0.5517975331
O  O22  1  0.95420000  0.84850000  0.95181000  1.0 -0.5696282254
O  O23  1  0.84050000  0.81970000  0.66873000  1.0 -0.5696282254
O  O24  1  0.01500000  0.78730000  0.60618000  1.0 -0.5225461365
O  O25  1  0.77650000  0.00620000  0.89672000  1.0 -0.6693024875
O  O26  1  0.25050000  0.94690000  0.40450000  1.0 -0.6773091198
O  O27  1  0.43220000  0.34040000  0.43830000  1.0 -0.0990348139
O  O28  1  0.50100000  0.41800000  0.47180000  1.0 0.1635265409
