# DDEC6 charges by PACMAN v1.1 (https://github.com/mtap-research/PACMAN-charge/)
data_AWENAT_FSR_pacman
_symmetry_space_group_name_H-M   'P 1'
_cell_length_a   22.73930000
_cell_length_b   22.73930000
_cell_length_c   10.73160000
_cell_angle_alpha   90.00000000
_cell_angle_beta   90.00000000
_cell_angle_gamma   120.00000000
_symmetry_Int_Tables_number   1
_chemical_formula_structural   CuH10C21(NO4)2
_chemical_formula_sum   'Cu6 H60 C126 N12 O48'
_cell_volume   4805.61850433
_cell_formula_units_Z   6
loop_
 _symmetry_equiv_pos_site_id
 _symmetry_equiv_pos_as_xyz
  1  'x, y, z'
loop_
 _atom_site_type_symbol
 _atom_site_label
 _atom_site_symmetry_multiplicity
 _atom_site_fract_x
 _atom_site_fract_y
 _atom_site_fract_z
 _atom_site_occupancy
 _atom_site_charge
Cu  Cu1  1  0.33149000  0.33142000  0.35400000  1.0 0.942869771
Cu  Cu2  1  0.00007000  0.33149000  0.68733000  1.0 0.9454562907
Cu  Cu3  1  0.66858000  0.00007000  0.02067000  1.0 0.942869771
Cu  Cu4  1  0.66851000  0.66858000  0.35400000  1.0 0.942869771
Cu  Cu5  1  0.99993000  0.66851000  0.68733000  1.0 0.942869771
Cu  Cu6  1  0.33142000  0.99993000  0.02067000  1.0 0.942869771
H  H1  1  0.19740000  0.39350000  0.51700000  1.0 0.1410770014
H  H2  1  0.80390000  0.19740000  0.85033000  1.0 0.1410770014
H  H3  1  0.60650000  0.80390000  0.18367000  1.0 0.1410770014
H  H4  1  0.80260000  0.60650000  0.51700000  1.0 0.1410770014
H  H5  1  0.19610000  0.80260000  0.85033000  1.0 0.1410770014
H  H6  1  0.39350000  0.19610000  0.18367000  1.0 0.1410770014
H  H7  1  0.21180000  0.57370000  0.58870000  1.0 0.1238571648
H  H8  1  0.63810000  0.21180000  0.92203000  1.0 0.1238571648
H  H9  1  0.42630000  0.63810000  0.25537000  1.0 0.1238571648
H  H10  1  0.78820000  0.42630000  0.58870000  1.0 0.1238571648
H  H11  1  0.36190000  0.78820000  0.92203000  1.0 0.1238571648
H  H12  1  0.57370000  0.36190000  0.25537000  1.0 0.1238571648
H  H13  1  0.36770000  0.56510000  0.45200000  1.0 0.1319478298
H  H14  1  0.80260000  0.36770000  0.78533000  1.0 0.1319478298
H  H15  1  0.43490000  0.80260000  0.11867000  1.0 0.1319478298
H  H16  1  0.63230000  0.43490000  0.45200000  1.0 0.1319478298
H  H17  1  0.19740000  0.63230000  0.78533000  1.0 0.1319478298
H  H18  1  0.56510000  0.19740000  0.11867000  1.0 0.1319478298
H  H19  1  0.44300000  0.65790000  0.60230000  1.0 0.1410770014
H  H20  1  0.78510000  0.44300000  0.93563000  1.0 0.1410770014
H  H21  1  0.34210000  0.78510000  0.26897000  1.0 0.1410770014
H  H22  1  0.55700000  0.34210000  0.60230000  1.0 0.1410770014
H  H23  1  0.21490000  0.55700000  0.93563000  1.0 0.1410770014
H  H24  1  0.65790000  0.21490000  0.26897000  1.0 0.1410770014
H  H25  1  0.28570000  0.77430000  0.57380000  1.0 0.1590135837
H  H26  1  0.51140000  0.28570000  0.90713000  1.0 0.1590135837
H  H27  1  0.22570000  0.51140000  0.24047000  1.0 0.1590135837
H  H28  1  0.71430000  0.22570000  0.57380000  1.0 0.1590135837
H  H29  1  0.48860000  0.71430000  0.90713000  1.0 0.1590135837
H  H30  1  0.77430000  0.48860000  0.24047000  1.0 0.1590135837
H  H31  1  0.34000000  0.82400000  0.66940000  1.0 0.1677391437
H  H32  1  0.51600000  0.34000000  0.00273000  1.0 0.1677391437
H  H33  1  0.17600000  0.51600000  0.33607000  1.0 0.1677391437
H  H34  1  0.66000000  0.17600000  0.66940000  1.0 0.1677391437
H  H35  1  0.48400000  0.66000000  0.00273000  1.0 0.1677391437
H  H36  1  0.82400000  0.48400000  0.33607000  1.0 0.1677391437
H  H37  1  0.35360000  0.83620000  0.52590000  1.0 0.1677391437
H  H38  1  0.51740000  0.35360000  0.85923000  1.0 0.1677391437
H  H39  1  0.16380000  0.51740000  0.19257000  1.0 0.1677391437
H  H40  1  0.64640000  0.16380000  0.52590000  1.0 0.1677391437
H  H41  1  0.48260000  0.64640000  0.85923000  1.0 0.1677391437
H  H42  1  0.83620000  0.48260000  0.19257000  1.0 0.1677391437
H  H43  1  0.55000000  0.71780000  0.53130000  1.0 0.1319478298
H  H44  1  0.83220000  0.55000000  0.86463000  1.0 0.1319478298
H  H45  1  0.28220000  0.83220000  0.19797000  1.0 0.1319478298
H  H46  1  0.45000000  0.28220000  0.53130000  1.0 0.1319478298
H  H47  1  0.16780000  0.45000000  0.86463000  1.0 0.1319478298
H  H48  1  0.71780000  0.16780000  0.19797000  1.0 0.1319478298
H  H49  1  0.71800000  0.85230000  0.71300000  1.0 0.1319478298
H  H50  1  0.86570000  0.71800000  0.04633000  1.0 0.1319478298
H  H51  1  0.14770000  0.86570000  0.37967000  1.0 0.1319478298
H  H52  1  0.28200000  0.14770000  0.71300000  1.0 0.1319478298
H  H53  1  0.13430000  0.28200000  0.04633000  1.0 0.1319478298
H  H54  1  0.85230000  0.13430000  0.37967000  1.0 0.1319478298
H  H55  1  0.54520000  0.85700000  0.75330000  1.0 0.1410770014
H  H56  1  0.68820000  0.54520000  0.08663000  1.0 0.1410770014
H  H57  1  0.14300000  0.68820000  0.41997000  1.0 0.1410770014
H  H58  1  0.45480000  0.14300000  0.75330000  1.0 0.1410770014
H  H59  1  0.31180000  0.45480000  0.08663000  1.0 0.1410770014
H  H60  1  0.85700000  0.31180000  0.41997000  1.0 0.1410770014
C  C1  1  0.31970000  0.43210000  0.44310000  1.0 0.5478699251
C  C2  1  0.88760000  0.31970000  0.77643000  1.0 0.5478699251
C  C3  1  0.56790000  0.88760000  0.10977000  1.0 0.5478699251
C  C4  1  0.68030000  0.56790000  0.44310000  1.0 0.5478699251
C  C5  1  0.11240000  0.68030000  0.77643000  1.0 0.5478699251
C  C6  1  0.43210000  0.11240000  0.10977000  1.0 0.5478699251
C  C7  1  0.29000000  0.47380000  0.48470000  1.0 0.0023841937
C  C8  1  0.81620000  0.29000000  0.81803000  1.0 0.0023841937
C  C9  1  0.52620000  0.81620000  0.15137000  1.0 0.0023841937
C  C10  1  0.71000000  0.52620000  0.48470000  1.0 0.0023841937
C  C11  1  0.18380000  0.71000000  0.81803000  1.0 0.0023841937
C  C12  1  0.47380000  0.18380000  0.15137000  1.0 0.0023841937
C  C13  1  0.22210000  0.44060000  0.52170000  1.0 -0.0578813881
C  C14  1  0.78150000  0.22210000  0.85503000  1.0 -0.0578813881
C  C15  1  0.55940000  0.78150000  0.18837000  1.0 -0.0578813881
C  C16  1  0.77790000  0.55940000  0.52170000  1.0 -0.0578813881
C  C17  1  0.21850000  0.77790000  0.85503000  1.0 -0.0578813881
C  C18  1  0.44060000  0.21850000  0.18837000  1.0 -0.0578813881
C  C19  1  0.18960000  0.47440000  0.56500000  1.0 -0.0078379191
C  C20  1  0.71520000  0.18960000  0.89833000  1.0 -0.0078379191
C  C21  1  0.52560000  0.71520000  0.23167000  1.0 -0.0078379191
C  C22  1  0.81040000  0.52560000  0.56500000  1.0 -0.0078379191
C  C23  1  0.28480000  0.81040000  0.89833000  1.0 -0.0078379191
C  C24  1  0.47440000  0.28480000  0.23167000  1.0 -0.0078379191
C  C25  1  0.23140000  0.54710000  0.57300000  1.0 -0.0578813881
C  C26  1  0.68430000  0.23140000  0.90633000  1.0 -0.0578813881
C  C27  1  0.45290000  0.68430000  0.23967000  1.0 -0.0578813881
C  C28  1  0.76860000  0.45290000  0.57300000  1.0 -0.0578813881
C  C29  1  0.31570000  0.76860000  0.90633000  1.0 -0.0578813881
C  C30  1  0.54710000  0.31570000  0.23967000  1.0 -0.0578813881
C  C31  1  0.30910000  0.58060000  0.55670000  1.0 0.0188943108
C  C32  1  0.72850000  0.30910000  0.89003000  1.0 0.0188943108
C  C33  1  0.41940000  0.72850000  0.22337000  1.0 0.0188943108
C  C34  1  0.69090000  0.41940000  0.55670000  1.0 0.0188943108
C  C35  1  0.27150000  0.69090000  0.89003000  1.0 0.0188943108
C  C36  1  0.58060000  0.27150000  0.22337000  1.0 0.0188943108
C  C37  1  0.32650000  0.54300000  0.49430000  1.0 -0.1077715934
C  C38  1  0.78350000  0.32650000  0.82763000  1.0 -0.1077715934
C  C39  1  0.45700000  0.78350000  0.16097000  1.0 -0.1077715934
C  C40  1  0.67350000  0.45700000  0.49430000  1.0 -0.1077715934
C  C41  1  0.21650000  0.67350000  0.82763000  1.0 -0.1077715934
C  C42  1  0.54300000  0.21650000  0.16097000  1.0 -0.1077715934
C  C43  1  0.11380000  0.43330000  0.60200000  1.0 0.5408686046
C  C44  1  0.68050000  0.11380000  0.93533000  1.0 0.5408686046
C  C45  1  0.56670000  0.68050000  0.26867000  1.0 0.5408686046
C  C46  1  0.88620000  0.56670000  0.60200000  1.0 0.5408686046
C  C47  1  0.31950000  0.88620000  0.93533000  1.0 0.5408686046
C  C48  1  0.43330000  0.31950000  0.26867000  1.0 0.5408686046
C  C49  1  0.34670000  0.64930000  0.57090000  1.0 0.2295971905
C  C50  1  0.69740000  0.34670000  0.90423000  1.0 0.2295971905
C  C51  1  0.35070000  0.69740000  0.23757000  1.0 0.2295971905
C  C52  1  0.65330000  0.35070000  0.57090000  1.0 0.2295971905
C  C53  1  0.30260000  0.65330000  0.90423000  1.0 0.2295971905
C  C54  1  0.64930000  0.30260000  0.23757000  1.0 0.2295971905
C  C55  1  0.42220000  0.68400000  0.59590000  1.0 -0.2806567903
C  C56  1  0.73820000  0.42220000  0.92923000  1.0 -0.2806567903
C  C57  1  0.31600000  0.73820000  0.26257000  1.0 -0.2806567903
C  C58  1  0.57780000  0.31600000  0.59590000  1.0 -0.2746326084
C  C59  1  0.26180000  0.57780000  0.92923000  1.0 -0.2806567903
C  C60  1  0.68400000  0.26180000  0.26257000  1.0 -0.2806567903
C  C61  1  0.46260000  0.75680000  0.61000000  1.0 0.2662803774
C  C62  1  0.70580000  0.46260000  0.94333000  1.0 0.2662803774
C  C63  1  0.24320000  0.70580000  0.27667000  1.0 0.2662803774
C  C64  1  0.53740000  0.24320000  0.61000000  1.0 0.2662803774
C  C65  1  0.29420000  0.53740000  0.94333000  1.0 0.2662803774
C  C66  1  0.75680000  0.29420000  0.27667000  1.0 0.2662803774
C  C67  1  0.36490000  0.76100000  0.59040000  1.0 0.4331658129
C  C68  1  0.60390000  0.36490000  0.92373000  1.0 0.4331658129
C  C69  1  0.23900000  0.60390000  0.25707000  1.0 0.4331658129
C  C70  1  0.63510000  0.23900000  0.59040000  1.0 0.4331658129
C  C71  1  0.39610000  0.63510000  0.92373000  1.0 0.4331658129
C  C72  1  0.76100000  0.39610000  0.25707000  1.0 0.4331658129
C  C73  1  0.33350000  0.80230000  0.58980000  1.0 -0.4983418639
C  C74  1  0.53120000  0.33350000  0.92313000  1.0 -0.4983418639
C  C75  1  0.19770000  0.53120000  0.25647000  1.0 -0.4983418639
C  C76  1  0.66650000  0.19770000  0.58980000  1.0 -0.4983418639
C  C77  1  0.46880000  0.66650000  0.92313000  1.0 -0.4983418639
C  C78  1  0.80230000  0.46880000  0.25647000  1.0 -0.4983418639
C  C79  1  0.53650000  0.78320000  0.63770000  1.0 0.0360179129
C  C80  1  0.75330000  0.53650000  0.97103000  1.0 0.0360179129
C  C81  1  0.21680000  0.75330000  0.30437000  1.0 0.0360179129
C  C82  1  0.46350000  0.21680000  0.63770000  1.0 0.0360179129
C  C83  1  0.24670000  0.46350000  0.97103000  1.0 0.0360179129
C  C84  1  0.78320000  0.24670000  0.30437000  1.0 0.0360179129
C  C85  1  0.57190000  0.75450000  0.58540000  1.0 -0.1305413202
C  C86  1  0.81740000  0.57190000  0.91873000  1.0 -0.1305413202
C  C87  1  0.24550000  0.81740000  0.25207000  1.0 -0.1305413202
C  C88  1  0.42810000  0.24550000  0.58540000  1.0 -0.1305413202
C  C89  1  0.18260000  0.42810000  0.91873000  1.0 -0.1305413202
C  C90  1  0.75450000  0.18260000  0.25207000  1.0 -0.1305413202
C  C91  1  0.63980000  0.78040000  0.61360000  1.0 0.0188943108
C  C92  1  0.85940000  0.63980000  0.94693000  1.0 0.0188943108
C  C93  1  0.21960000  0.85940000  0.28027000  1.0 0.0188943108
C  C94  1  0.36020000  0.21960000  0.61360000  1.0 0.0188943108
C  C95  1  0.14060000  0.36020000  0.94693000  1.0 0.0188943108
C  C96  1  0.78040000  0.14060000  0.28027000  1.0 0.0188943108
C  C97  1  0.67230000  0.83490000  0.69400000  1.0 -0.0881608705
C  C98  1  0.83740000  0.67230000  0.02733000  1.0 -0.0881608705
C  C99  1  0.16510000  0.83740000  0.36067000  1.0 -0.0881608705
C  C100  1  0.32770000  0.16510000  0.69400000  1.0 -0.0881608705
C  C101  1  0.16260000  0.32770000  0.02733000  1.0 -0.0881608705
C  C102  1  0.83490000  0.16260000  0.36067000  1.0 -0.0881608705
C  C103  1  0.63690000  0.86360000  0.74630000  1.0 0.0093176012
C  C104  1  0.77330000  0.63690000  0.07963000  1.0 0.0093176012
C  C105  1  0.13640000  0.77330000  0.41297000  1.0 0.0093176012
C  C106  1  0.36310000  0.13640000  0.74630000  1.0 0.0093176012
C  C107  1  0.22670000  0.36310000  0.07963000  1.0 0.0093176012
C  C108  1  0.86360000  0.22670000  0.41297000  1.0 0.0093176012
C  C109  1  0.56900000  0.83770000  0.71820000  1.0 -0.1194612067
C  C110  1  0.73130000  0.56900000  0.05153000  1.0 -0.1194612067
C  C111  1  0.16230000  0.73130000  0.38487000  1.0 -0.1194612067
C  C112  1  0.43100000  0.16230000  0.71820000  1.0 -0.1194612067
C  C113  1  0.26870000  0.43100000  0.05153000  1.0 -0.1194612067
C  C114  1  0.83770000  0.26870000  0.38487000  1.0 -0.1194612067
C  C115  1  0.67690000  0.75300000  0.53770000  1.0 0.5478699251
C  C116  1  0.92390000  0.67690000  0.87103000  1.0 0.5478699251
C  C117  1  0.24700000  0.92390000  0.20437000  1.0 0.5478699251
C  C118  1  0.32310000  0.24700000  0.53770000  1.0 0.5478699251
C  C119  1  0.07610000  0.32310000  0.87103000  1.0 0.5478699251
C  C120  1  0.75300000  0.07610000  0.20437000  1.0 0.5478699251
C  C121  1  0.67540000  0.92420000  0.83530000  1.0 0.5478699251
C  C122  1  0.75120000  0.67540000  0.16863000  1.0 0.5478699251
C  C123  1  0.07580000  0.75120000  0.50197000  1.0 0.5478699251
C  C124  1  0.32460000  0.07580000  0.83530000  1.0 0.5408686046
C  C125  1  0.24880000  0.32460000  0.16863000  1.0 0.5408686046
C  C126  1  0.92420000  0.24880000  0.50197000  1.0 0.5408686046
N  N1  1  0.42910000  0.78810000  0.61010000  1.0 -0.2806567903
N  N2  1  0.64100000  0.42910000  0.94343000  1.0 -0.2806567903
N  N3  1  0.21190000  0.64100000  0.27677000  1.0 -0.2806567903
N  N4  1  0.57090000  0.21190000  0.61010000  1.0 -0.2806567903
N  N5  1  0.35900000  0.57090000  0.94343000  1.0 -0.2806567903
N  N6  1  0.78810000  0.35900000  0.27677000  1.0 -0.2806567903
N  N7  1  0.32430000  0.69500000  0.57590000  1.0 -0.378196646
N  N8  1  0.62930000  0.32430000  0.90923000  1.0 -0.378196646
N  N9  1  0.30500000  0.62930000  0.24257000  1.0 -0.378196646
N  N10  1  0.67570000  0.30500000  0.57590000  1.0 -0.378196646
N  N11  1  0.37070000  0.67570000  0.90923000  1.0 -0.378196646
N  N12  1  0.69500000  0.37070000  0.24257000  1.0 -0.378196646
O  O1  1  0.28430000  0.37120000  0.43780000  1.0 -0.4489862899
O  O2  1  0.91310000  0.28430000  0.77113000  1.0 -0.4489862899
O  O3  1  0.62880000  0.91310000  0.10447000  1.0 -0.4489862899
O  O4  1  0.71570000  0.62880000  0.43780000  1.0 -0.4489862899
O  O5  1  0.08690000  0.71570000  0.77113000  1.0 -0.4489862899
O  O6  1  0.37120000  0.08690000  0.10447000  1.0 -0.4489862899
O  O7  1  0.38160000  0.46440000  0.40610000  1.0 -0.4587666199
O  O8  1  0.91720000  0.38160000  0.73943000  1.0 -0.4587666199
O  O9  1  0.53560000  0.91720000  0.07277000  1.0 -0.4587666199
O  O10  1  0.61840000  0.53560000  0.40610000  1.0 -0.4587666199
O  O11  1  0.08280000  0.61840000  0.73943000  1.0 -0.4587666199
O  O12  1  0.46440000  0.08280000  0.07277000  1.0 -0.4587666199
O  O13  1  0.08820000  0.37320000  0.60030000  1.0 -0.4430475588
O  O14  1  0.71500000  0.08820000  0.93363000  1.0 -0.4430475588
O  O15  1  0.62680000  0.71500000  0.26697000  1.0 -0.4489862899
O  O16  1  0.91180000  0.62680000  0.60030000  1.0 -0.4430475588
O  O17  1  0.28500000  0.91180000  0.93363000  1.0 -0.4430475588
O  O18  1  0.37320000  0.28500000  0.26697000  1.0 -0.4489862899
O  O19  1  0.08840000  0.46790000  0.64510000  1.0 -0.4889900764
O  O20  1  0.62050000  0.08840000  0.97843000  1.0 -0.4889900764
O  O21  1  0.53210000  0.62050000  0.31177000  1.0 -0.4889900764
O  O22  1  0.91160000  0.53210000  0.64510000  1.0 -0.4889900764
O  O23  1  0.37950000  0.91160000  0.97843000  1.0 -0.4889900764
O  O24  1  0.46790000  0.37950000  0.31177000  1.0 -0.4889900764
O  O25  1  0.64270000  0.69150000  0.50830000  1.0 -0.4889900764
O  O26  1  0.95120000  0.64270000  0.84163000  1.0 -0.4889900764
O  O27  1  0.30850000  0.95120000  0.17497000  1.0 -0.4889900764
O  O28  1  0.35730000  0.30850000  0.50830000  1.0 -0.4889900764
O  O29  1  0.04880000  0.35730000  0.84163000  1.0 -0.4889900764
O  O30  1  0.69150000  0.04880000  0.17497000  1.0 -0.4889900764
O  O31  1  0.73670000  0.79380000  0.50190000  1.0 -0.3991888022
O  O32  1  0.94290000  0.73670000  0.83523000  1.0 -0.3895906464
O  O33  1  0.20620000  0.94290000  0.16857000  1.0 -0.3991888022
O  O34  1  0.26330000  0.20620000  0.50190000  1.0 -0.3895906464
O  O35  1  0.05710000  0.26330000  0.83523000  1.0 -0.3991888022
O  O36  1  0.79380000  0.05710000  0.16857000  1.0 -0.3895906464
O  O37  1  0.73650000  0.94610000  0.86500000  1.0 -0.378196646
O  O38  1  0.79040000  0.73650000  0.19833000  1.0 -0.3743126448
O  O39  1  0.05390000  0.79040000  0.53167000  1.0 -0.378196646
O  O40  1  0.26350000  0.05390000  0.86500000  1.0 -0.378196646
O  O41  1  0.20960000  0.26350000  0.19833000  1.0 -0.378196646
O  O42  1  0.94610000  0.20960000  0.53167000  1.0 -0.378196646
O  O43  1  0.64270000  0.95060000  0.86840000  1.0 -0.4671708351
O  O44  1  0.69210000  0.64270000  0.20173000  1.0 -0.4671708351
O  O45  1  0.04940000  0.69210000  0.53507000  1.0 -0.4671708351
O  O46  1  0.35730000  0.04940000  0.86840000  1.0 -0.4671708351
O  O47  1  0.30790000  0.35730000  0.20173000  1.0 -0.4671708351
O  O48  1  0.95060000  0.30790000  0.53507000  1.0 -0.4671708351
