# DDEC6 charges by PACMAN v1.1 (https://github.com/mtap-research/PACMAN-charge/)
data_AWOKED_FSR_pacman
_symmetry_space_group_name_H-M   'P 1'
_cell_length_a   7.98580000
_cell_length_b   15.10420000
_cell_length_c   16.17030000
_cell_angle_alpha   90.00000000
_cell_angle_beta   92.84500000
_cell_angle_gamma   90.00000000
_symmetry_Int_Tables_number   1
_chemical_formula_structural   SmAgH16C15N2O7
_chemical_formula_sum   'Sm4 Ag4 H64 C60 N8 O28'
_cell_volume   1948.04336297
_cell_formula_units_Z   4
loop_
 _symmetry_equiv_pos_site_id
 _symmetry_equiv_pos_as_xyz
  1  'x, y, z'
loop_
 _atom_site_type_symbol
 _atom_site_label
 _atom_site_symmetry_multiplicity
 _atom_site_fract_x
 _atom_site_fract_y
 _atom_site_fract_z
 _atom_site_occupancy
 _atom_site_charge
Sm  Sm1  1  0.95228000  0.11636000  0.04753000  1.0 2.0433340329
Sm  Sm2  1  0.54772000  0.61636000  0.95247000  1.0 2.0433340329
Sm  Sm3  1  0.04772000  0.88364000  0.95247000  1.0 2.0433340329
Sm  Sm4  1  0.45228000  0.38364000  0.04753000  1.0 2.0433340329
Ag  Ag1  1  0.39951000  0.23823000  0.52807000  1.0 0.2195992727
Ag  Ag2  1  0.10049000  0.73823000  0.47193000  1.0 0.2195992727
Ag  Ag3  1  0.60049000  0.76177000  0.47193000  1.0 0.2195992727
Ag  Ag4  1  0.89951000  0.26177000  0.52807000  1.0 0.2195992727
H  H1  1  0.63610000  0.11780000  0.26680000  1.0 0.1325311769
H  H2  1  0.86390000  0.61780000  0.73320000  1.0 0.1325311769
H  H3  1  0.36390000  0.88220000  0.73320000  1.0 0.1325311769
H  H4  1  0.13610000  0.38220000  0.26680000  1.0 0.1325311769
H  H5  1  0.52740000  0.11710000  0.39580000  1.0 0.0928971693
H  H6  1  0.97260000  0.61710000  0.60420000  1.0 0.0928971693
H  H7  1  0.47260000  0.88290000  0.60420000  1.0 0.0928971693
H  H8  1  0.02740000  0.38290000  0.39580000  1.0 0.0928971693
H  H9  1  0.50520000  0.37470000  0.39630000  1.0 0.0928971693
H  H10  1  0.99480000  0.87470000  0.60370000  1.0 0.0928971693
H  H11  1  0.49480000  0.62530000  0.60370000  1.0 0.0928971693
H  H12  1  0.00520000  0.12530000  0.39630000  1.0 0.0928971693
H  H13  1  0.60890000  0.38160000  0.26720000  1.0 0.1325311769
H  H14  1  0.89110000  0.88160000  0.73280000  1.0 0.1325311769
H  H15  1  0.39110000  0.61840000  0.73280000  1.0 0.1325311769
H  H16  1  0.10890000  0.11840000  0.26720000  1.0 0.1325311769
H  H17  1  0.82720000  0.98570000  0.28140000  1.0 0.1325311769
H  H18  1  0.67280000  0.48570000  0.71860000  1.0 0.1325311769
H  H19  1  0.17280000  0.01430000  0.71860000  1.0 0.1325311769
H  H20  1  0.32720000  0.51430000  0.28140000  1.0 0.1325311769
H  H21  1  0.74340000  0.92330000  0.40090000  1.0 0.0928971693
H  H22  1  0.75660000  0.42330000  0.59910000  1.0 0.0928971693
H  H23  1  0.25660000  0.07670000  0.59910000  1.0 0.0928971693
H  H24  1  0.24340000  0.57670000  0.40090000  1.0 0.0928971693
H  H25  1  0.67840000  0.69520000  0.29040000  1.0 0.1100184243
H  H26  1  0.82160000  0.19520000  0.70960000  1.0 0.1100184243
H  H27  1  0.32160000  0.30480000  0.70960000  1.0 0.1100184243
H  H28  1  0.17840000  0.80480000  0.29040000  1.0 0.1100184243
H  H29  1  0.76900000  0.75100000  0.16960000  1.0 0.1490485999
H  H30  1  0.73100000  0.25100000  0.83040000  1.0 0.1490485999
H  H31  1  0.23100000  0.24900000  0.83040000  1.0 0.1490485999
H  H32  1  0.26900000  0.74900000  0.16960000  1.0 0.1490485999
H  H33  1  0.00100000  0.30200000  0.98800000  1.0 0.3182383362
H  H34  1  0.49900000  0.80200000  0.01200000  1.0 0.3182383362
H  H35  1  0.99900000  0.69800000  0.01200000  1.0 0.3182383362
H  H36  1  0.50100000  0.19800000  0.98800000  1.0 0.3182383362
H  H37  1  0.86200000  0.30400000  0.02600000  1.0 0.3089882616
H  H38  1  0.63800000  0.80400000  0.97400000  1.0 0.3089882616
H  H39  1  0.13800000  0.69600000  0.97400000  1.0 0.3089882616
H  H40  1  0.36200000  0.19600000  0.02600000  1.0 0.3089882616
H  H41  1  0.47790000  0.95040000  0.16200000  1.0 0.1100184243
H  H42  1  0.02210000  0.45040000  0.83800000  1.0 0.1100184243
H  H43  1  0.52210000  0.04960000  0.83800000  1.0 0.1100184243
H  H44  1  0.97790000  0.54960000  0.16200000  1.0 0.1100184243
H  H45  1  0.37070000  0.03690000  0.16820000  1.0 0.0928971693
H  H46  1  0.12930000  0.53690000  0.83180000  1.0 0.0928971693
H  H47  1  0.62930000  0.96310000  0.83180000  1.0 0.0928971693
H  H48  1  0.87070000  0.46310000  0.16820000  1.0 0.0928971693
H  H49  1  0.50340000  0.02880000  0.10030000  1.0 0.098783392
H  H50  1  0.99660000  0.52880000  0.89970000  1.0 0.098783392
H  H51  1  0.49660000  0.97120000  0.89970000  1.0 0.098783392
H  H52  1  0.00340000  0.47120000  0.10030000  1.0 0.098783392
H  H53  1  0.40470000  0.04750000  0.15040000  1.0 0.0928971693
H  H54  1  0.09530000  0.54750000  0.84960000  1.0 0.0928971693
H  H55  1  0.59530000  0.95250000  0.84960000  1.0 0.0928971693
H  H56  1  0.90470000  0.45250000  0.15040000  1.0 0.0928971693
H  H57  1  0.50000000  0.95680000  0.14940000  1.0 0.1159789521
H  H58  1  0.00000000  0.45680000  0.85060000  1.0 0.1159789521
H  H59  1  0.50000000  0.04320000  0.85060000  1.0 0.1159789521
H  H60  1  0.00000000  0.54320000  0.14940000  1.0 0.1159789521
H  H61  1  0.33440000  0.96550000  0.19690000  1.0 0.0664815638
H  H62  1  0.16560000  0.46550000  0.80310000  1.0 0.0664815638
H  H63  1  0.66560000  0.03450000  0.80310000  1.0 0.0664815638
H  H64  1  0.83440000  0.53450000  0.19690000  1.0 0.0664815638
C  C1  1  0.70340000  0.25090000  0.16810000  1.0 0.609512936
C  C2  1  0.79660000  0.75090000  0.83190000  1.0 0.609512936
C  C3  1  0.29660000  0.74910000  0.83190000  1.0 0.609512936
C  C4  1  0.20340000  0.24910000  0.16810000  1.0 0.609512936
C  C5  1  0.63420000  0.25010000  0.25240000  1.0 0.0087675783
C  C6  1  0.86580000  0.75010000  0.74760000  1.0 0.0087675783
C  C7  1  0.36580000  0.74990000  0.74760000  1.0 0.0087675783
C  C8  1  0.13420000  0.24990000  0.25240000  1.0 0.0087675783
C  C9  1  0.60930000  0.17100000  0.29200000  1.0 -0.1598017667
C  C10  1  0.89070000  0.67100000  0.70800000  1.0 -0.1598017667
C  C11  1  0.39070000  0.82900000  0.70800000  1.0 -0.1598017667
C  C12  1  0.10930000  0.32900000  0.29200000  1.0 -0.1598017667
C  C13  1  0.54420000  0.17100000  0.36960000  1.0 0.0196839954
C  C14  1  0.95580000  0.67100000  0.63040000  1.0 0.0196839954
C  C15  1  0.45580000  0.82900000  0.63040000  1.0 0.0196839954
C  C16  1  0.04420000  0.32900000  0.36960000  1.0 0.0196839954
C  C17  1  0.53080000  0.32220000  0.36970000  1.0 0.0330432388
C  C18  1  0.96920000  0.82220000  0.63030000  1.0 0.0330432388
C  C19  1  0.46920000  0.67780000  0.63030000  1.0 0.0330432388
C  C20  1  0.03080000  0.17780000  0.36970000  1.0 0.0330432388
C  C21  1  0.59380000  0.32700000  0.29230000  1.0 -0.1598017667
C  C22  1  0.90620000  0.82700000  0.70770000  1.0 -0.1598017667
C  C23  1  0.40620000  0.67300000  0.70770000  1.0 -0.1598017667
C  C24  1  0.09380000  0.17300000  0.29230000  1.0 -0.1598017667
C  C25  1  0.86250000  0.91690000  0.13350000  1.0 0.5368454713
C  C26  1  0.63750000  0.41690000  0.86650000  1.0 0.5368454713
C  C27  1  0.13750000  0.08310000  0.86650000  1.0 0.5368454713
C  C28  1  0.36250000  0.58310000  0.13350000  1.0 0.5368454713
C  C29  1  0.80600000  0.87570000  0.21170000  1.0 0.0087675783
C  C30  1  0.69400000  0.37570000  0.78830000  1.0 0.0087675783
C  C31  1  0.19400000  0.12430000  0.78830000  1.0 0.0087675783
C  C32  1  0.30600000  0.62430000  0.21170000  1.0 0.0087675783
C  C33  1  0.79790000  0.92610000  0.28230000  1.0 -0.167180289
C  C34  1  0.70210000  0.42610000  0.71770000  1.0 -0.167180289
C  C35  1  0.20210000  0.07390000  0.71770000  1.0 -0.167180289
C  C36  1  0.29790000  0.57390000  0.28230000  1.0 -0.167180289
C  C37  1  0.74660000  0.88860000  0.35340000  1.0 -0.008424256
C  C38  1  0.75340000  0.38860000  0.64660000  1.0 -0.008424256
C  C39  1  0.25340000  0.11140000  0.64660000  1.0 -0.008424256
C  C40  1  0.24660000  0.61140000  0.35340000  1.0 -0.008424256
C  C41  1  0.70970000  0.75450000  0.28850000  1.0 0.0196839954
C  C42  1  0.79030000  0.25450000  0.71150000  1.0 0.0196839954
C  C43  1  0.29030000  0.24550000  0.71150000  1.0 0.0196839954
C  C44  1  0.20970000  0.74550000  0.28850000  1.0 0.0196839954
C  C45  1  0.76240000  0.78730000  0.21570000  1.0 -0.1598017667
C  C46  1  0.73760000  0.28730000  0.78430000  1.0 -0.1598017667
C  C47  1  0.23760000  0.21270000  0.78430000  1.0 -0.1598017667
C  C48  1  0.26240000  0.71270000  0.21570000  1.0 -0.1598017667
C  C49  1  0.29060000  0.95790000  0.07160000  1.0 0.5163207013
C  C50  1  0.20940000  0.45790000  0.92840000  1.0 0.5163207013
C  C51  1  0.70940000  0.04210000  0.92840000  1.0 0.5163207013
C  C52  1  0.79060000  0.54210000  0.07160000  1.0 0.5163207013
C  C53  1  0.42300000  0.99710000  0.13090000  1.0 -0.2555693579
C  C54  1  0.07700000  0.49710000  0.86910000  1.0 -0.2555693579
C  C55  1  0.57700000  0.00290000  0.86910000  1.0 -0.2555693579
C  C56  1  0.92300000  0.50290000  0.13090000  1.0 -0.2555693579
C  C57  1  0.39200000  0.98430000  0.14920000  1.0 -0.2555693579
C  C58  1  0.10800000  0.48430000  0.85080000  1.0 -0.2555693579
C  C59  1  0.60800000  0.01570000  0.85080000  1.0 -0.2555693579
C  C60  1  0.89200000  0.51570000  0.14920000  1.0 -0.2555693579
N  N1  1  0.50450000  0.24600000  0.40850000  1.0 -0.2015123893
N  N2  1  0.99550000  0.74600000  0.59150000  1.0 -0.2015123893
N  N3  1  0.49550000  0.75400000  0.59150000  1.0 -0.2015123893
N  N4  1  0.00450000  0.25400000  0.40850000  1.0 -0.2015123893
N  N5  1  0.70050000  0.80300000  0.35730000  1.0 -0.1941513758
N  N6  1  0.79950000  0.30300000  0.64270000  1.0 -0.1941513758
N  N7  1  0.29950000  0.19700000  0.64270000  1.0 -0.1941513758
N  N8  1  0.20050000  0.69700000  0.35730000  1.0 -0.1941513758
O  O1  1  0.78280000  0.18433000  0.14570000  1.0 -0.6587457003
O  O2  1  0.71720000  0.68433000  0.85430000  1.0 -0.6587457003
O  O3  1  0.21720000  0.81567000  0.85430000  1.0 -0.6587457003
O  O4  1  0.28280000  0.31567000  0.14570000  1.0 -0.6587457003
O  O5  1  0.67800000  0.31870000  0.12350000  1.0 -0.6784162562
O  O6  1  0.82200000  0.81870000  0.87650000  1.0 -0.6784162562
O  O7  1  0.32200000  0.68130000  0.87650000  1.0 -0.6784162562
O  O8  1  0.17800000  0.18130000  0.12350000  1.0 -0.6784162562
O  O9  1  0.86090000  0.99950000  0.13010000  1.0 -0.668484066
O  O10  1  0.63910000  0.49950000  0.86990000  1.0 -0.668484066
O  O11  1  0.13910000  0.00050000  0.86990000  1.0 -0.668484066
O  O12  1  0.36090000  0.50050000  0.13010000  1.0 -0.668484066
O  O13  1  0.90590000  0.86550000  0.07640000  1.0 -0.6587457003
O  O14  1  0.59410000  0.36550000  0.92360000  1.0 -0.6587457003
O  O15  1  0.09410000  0.13450000  0.92360000  1.0 -0.6587457003
O  O16  1  0.40590000  0.63450000  0.07640000  1.0 -0.6587457003
O  O17  1  0.16230000  0.00127000  0.05040000  1.0 -0.6587457003
O  O18  1  0.33770000  0.50127000  0.94960000  1.0 -0.6587457003
O  O19  1  0.83770000  0.99873000  0.94960000  1.0 -0.6587457003
O  O20  1  0.66230000  0.49873000  0.05040000  1.0 -0.6587457003
O  O21  1  0.31560000  0.88490000  0.03640000  1.0 -0.5467236232
O  O22  1  0.18440000  0.38490000  0.96360000  1.0 -0.5467236232
O  O23  1  0.68440000  0.11510000  0.96360000  1.0 -0.5467236232
O  O24  1  0.81560000  0.61510000  0.03640000  1.0 -0.5467236232
O  O25  1  0.92750000  0.27101000  0.00510000  1.0 -0.7235207599
O  O26  1  0.57250000  0.77101000  0.99490000  1.0 -0.7235207599
O  O27  1  0.07250000  0.72899000  0.99490000  1.0 -0.7235207599
O  O28  1  0.42750000  0.22899000  0.00510000  1.0 -0.7235207599
