# DDEC6 charges by PACMAN v1.1 (https://github.com/mtap-research/PACMAN-charge/)
data_AXABUZ_ASR_pacman
_symmetry_space_group_name_H-M   'P 1'
_cell_length_a   11.19720000
_cell_length_b   11.19720000
_cell_length_c   13.49790000
_cell_angle_alpha   90.00000000
_cell_angle_beta   90.00000000
_cell_angle_gamma   100.06400000
_symmetry_Int_Tables_number   1
_chemical_formula_structural   SrZn2H6(C3O2)6
_chemical_formula_sum   'Sr2 Zn4 H12 C36 O24'
_cell_volume   1666.29050112
_cell_formula_units_Z   2
loop_
 _symmetry_equiv_pos_site_id
 _symmetry_equiv_pos_as_xyz
  1  'x, y, z'
loop_
 _atom_site_type_symbol
 _atom_site_label
 _atom_site_symmetry_multiplicity
 _atom_site_fract_x
 _atom_site_fract_y
 _atom_site_fract_z
 _atom_site_occupancy
 _atom_site_charge
Sr  Sr1  1  0.19718000  0.80282000  0.75000000  1.0 1.5208490443
Sr  Sr2  1  0.80282000  0.19718000  0.25000000  1.0 1.5208490443
Zn  Zn1  1  0.07523000  0.29411000  0.43537000  1.0 0.9215148937
Zn  Zn2  1  0.92477000  0.70589000  0.93537000  1.0 0.9215148937
Zn  Zn3  1  0.70589000  0.92477000  0.06463000  1.0 0.9215148937
Zn  Zn4  1  0.29411000  0.07523000  0.56463000  1.0 0.9215148937
H  H1  1  0.97830000  0.95490000  0.36120000  1.0 0.1221383961
H  H2  1  0.83830000  0.63130000  0.24060000  1.0 0.1221383961
H  H3  1  0.07810000  0.64890000  0.46150000  1.0 0.128835564
H  H4  1  0.02170000  0.04510000  0.86120000  1.0 0.1221383961
H  H5  1  0.16170000  0.36870000  0.74060000  1.0 0.1221383961
H  H6  1  0.92190000  0.35110000  0.96150000  1.0 0.128835564
H  H7  1  0.04510000  0.02170000  0.13880000  1.0 0.1221383961
H  H8  1  0.36870000  0.16170000  0.25940000  1.0 0.128835564
H  H9  1  0.35110000  0.92190000  0.03850000  1.0 0.128835564
H  H10  1  0.95490000  0.97830000  0.63880000  1.0 0.1221383961
H  H11  1  0.63130000  0.83830000  0.75940000  1.0 0.128835564
H  H12  1  0.64890000  0.07810000  0.53850000  1.0 0.128835564
C  C1  1  0.04370000  0.81230000  0.42270000  1.0 -0.0144529046
C  C2  1  0.97330000  0.87110000  0.35840000  1.0 -0.1085855295
C  C3  1  0.96000000  0.61980000  0.34870000  1.0 -0.0287619062
C  C4  1  0.82180000  0.86560000  0.22440000  1.0 0.5845140171
C  C5  1  0.88990000  0.67670000  0.28600000  1.0 -0.1085855295
C  C6  1  0.13080000  0.88240000  0.49610000  1.0 0.5932070565
C  C7  1  0.03380000  0.68800000  0.41750000  1.0 -0.1085855295
C  C8  1  0.89650000  0.80270000  0.29100000  1.0 -0.0232441604
C  C9  1  0.95510000  0.48350000  0.34430000  1.0 0.600980128
C  C10  1  0.95630000  0.18770000  0.92270000  1.0 -0.0144529046
C  C11  1  0.02670000  0.12890000  0.85840000  1.0 -0.1085855295
C  C12  1  0.04000000  0.38020000  0.84870000  1.0 -0.0287619062
C  C13  1  0.17820000  0.13440000  0.72440000  1.0 0.5845140171
C  C14  1  0.11010000  0.32330000  0.78600000  1.0 -0.1085855295
C  C15  1  0.86920000  0.11760000  0.99610000  1.0 0.5932070565
C  C16  1  0.96620000  0.31200000  0.91750000  1.0 -0.1085855295
C  C17  1  0.10350000  0.19730000  0.79100000  1.0 -0.0232441604
C  C18  1  0.04490000  0.51650000  0.84430000  1.0 0.600980128
C  C19  1  0.18770000  0.95630000  0.07730000  1.0 -0.0144529046
C  C20  1  0.12890000  0.02670000  0.14160000  1.0 -0.1085855295
C  C21  1  0.38020000  0.04000000  0.15130000  1.0 -0.0287619062
C  C22  1  0.13440000  0.17820000  0.27560000  1.0 0.5845140171
C  C23  1  0.32330000  0.11010000  0.21400000  1.0 -0.1085855295
C  C24  1  0.11760000  0.86920000  0.00390000  1.0 0.5932070565
C  C25  1  0.31200000  0.96620000  0.08250000  1.0 -0.1085855295
C  C26  1  0.19730000  0.10350000  0.20900000  1.0 -0.0232441604
C  C27  1  0.51650000  0.04490000  0.15570000  1.0 0.600980128
C  C28  1  0.81230000  0.04370000  0.57730000  1.0 -0.0144529046
C  C29  1  0.87110000  0.97330000  0.64160000  1.0 -0.1085855295
C  C30  1  0.61980000  0.96000000  0.65130000  1.0 -0.0287619062
C  C31  1  0.86560000  0.82180000  0.77560000  1.0 0.5845140171
C  C32  1  0.67670000  0.88990000  0.71400000  1.0 -0.1085855295
C  C33  1  0.88240000  0.13080000  0.50390000  1.0 0.5932070565
C  C34  1  0.68800000  0.03380000  0.58250000  1.0 -0.1085855295
C  C35  1  0.80270000  0.89650000  0.70900000  1.0 -0.0232441604
C  C36  1  0.48350000  0.95510000  0.65570000  1.0 0.600980128
O  O1  1  0.17070000  0.99170000  0.47470000  1.0 -0.5403838057
O  O2  1  0.76390000  0.80430000  0.15360000  1.0 -0.5403838057
O  O3  1  0.82000000  0.97340000  0.23540000  1.0 -0.5903875429
O  O4  1  0.02570000  0.44290000  0.40550000  1.0 -0.572285955
O  O5  1  0.16150000  0.82950000  0.57020000  1.0 -0.6221298176
O  O6  1  0.88890000  0.42170000  0.28460000  1.0 -0.5793150711
O  O7  1  0.82930000  0.00830000  0.97470000  1.0 -0.5403838057
O  O8  1  0.23610000  0.19570000  0.65360000  1.0 -0.5403838057
O  O9  1  0.18000000  0.02660000  0.73540000  1.0 -0.5903875429
O  O10  1  0.97430000  0.55710000  0.90550000  1.0 -0.572285955
O  O11  1  0.83850000  0.17050000  0.07020000  1.0 -0.6221298176
O  O12  1  0.11110000  0.57830000  0.78460000  1.0 -0.5793150711
O  O13  1  0.00830000  0.82930000  0.02530000  1.0 -0.5403838057
O  O14  1  0.19570000  0.23610000  0.34640000  1.0 -0.5403838057
O  O15  1  0.02660000  0.18000000  0.26460000  1.0 -0.5903875429
O  O16  1  0.55710000  0.97430000  0.09450000  1.0 -0.572285955
O  O17  1  0.17050000  0.83850000  0.92980000  1.0 -0.6221298176
O  O18  1  0.57830000  0.11110000  0.21540000  1.0 -0.5793150711
O  O19  1  0.99170000  0.17070000  0.52530000  1.0 -0.5403838057
O  O20  1  0.80430000  0.76390000  0.84640000  1.0 -0.5403838057
O  O21  1  0.97340000  0.82000000  0.76460000  1.0 -0.5903875429
O  O22  1  0.44290000  0.02570000  0.59450000  1.0 -0.572285955
O  O23  1  0.82950000  0.16150000  0.42980000  1.0 -0.6221298176
O  O24  1  0.42170000  0.88890000  0.71540000  1.0 -0.5793150711
