# DDEC6 charges by PACMAN v1.1 (https://github.com/mtap-research/PACMAN-charge/)
data_AXAQAT_FSR_pacman
_symmetry_space_group_name_H-M   'P 1'
_cell_length_a   7.11509000
_cell_length_b   7.11509000
_cell_length_c   8.34763000
_cell_angle_alpha   82.29430000
_cell_angle_beta   97.70570000
_cell_angle_gamma   56.48700000
_symmetry_Int_Tables_number   1
_chemical_formula_structural   FeAg2H4(C4N3)2
_chemical_formula_sum   'Fe1 Ag2 H4 C8 N6'
_cell_volume   337.90298350
_cell_formula_units_Z   1
loop_
 _symmetry_equiv_pos_site_id
 _symmetry_equiv_pos_as_xyz
  1  'x, y, z'
loop_
 _atom_site_type_symbol
 _atom_site_label
 _atom_site_symmetry_multiplicity
 _atom_site_fract_x
 _atom_site_fract_y
 _atom_site_fract_z
 _atom_site_occupancy
 _atom_site_charge
Fe  Fe1  1  0.29870000  0.70130000  0.91800000  1.0 0.5530836389
Ag  Ag1  1  0.27782000  0.18822000  0.39850000  1.0 0.1081513793
Ag  Ag2  1  0.81178000  0.72218000  0.39850000  1.0 0.1081513793
H  H1  1  0.13150000  0.18350000  0.92490000  1.0 0.1316042945
H  H2  1  0.81650000  0.86850000  0.92490000  1.0 0.1316042945
H  H3  1  0.78360000  0.52940000  0.92620000  1.0 0.1316042945
H  H4  1  0.47060000  0.21640000  0.92620000  1.0 0.1316042945
C  C1  1  0.33380000  0.98640000  0.62370000  1.0 -0.0329704609
C  C2  1  0.01360000  0.66620000  0.62370000  1.0 -0.0329704609
C  C3  1  0.24240000  0.41060000  0.19090000  1.0 -0.0437512666
C  C4  1  0.58940000  0.75760000  0.19090000  1.0 -0.0437512666
C  C5  1  0.99570000  0.18710000  0.92290000  1.0 0.0399002314
C  C6  1  0.81290000  0.00430000  0.92290000  1.0 0.0399002314
C  C7  1  0.78630000  0.39530000  0.92160000  1.0 0.0399002314
C  C8  1  0.60470000  0.21370000  0.92160000  1.0 0.0399002314
N  N1  1  0.33670000  0.87730000  0.74140000  1.0 -0.2798429325
N  N2  1  0.12270000  0.66330000  0.74140000  1.0 -0.2798429325
N  N3  1  0.25250000  0.52570000  0.09020000  1.0 -0.2798429325
N  N4  1  0.47430000  0.74750000  0.09020000  1.0 -0.2798429325
N  N5  1  0.00630000  0.99370000  0.92130000  1.0 -0.0912946582
N  N6  1  0.59210000  0.40790000  0.91410000  1.0 -0.0912946582
