# DDEC6 charges by PACMAN v1.1 (https://github.com/mtap-research/PACMAN-charge/)
data_AXIGAR_ion_pacman
_symmetry_space_group_name_H-M   'P 1'
_cell_length_a   12.53890000
_cell_length_b   12.53890000
_cell_length_c   22.68090000
_cell_angle_alpha   85.76780000
_cell_angle_beta   94.23220000
_cell_angle_gamma   146.02400000
_symmetry_Int_Tables_number   1
_chemical_formula_structural   CoH24C13N9O2
_chemical_formula_sum   'Co4 H96 C52 N36 O8'
_cell_volume   1986.89130452
_cell_formula_units_Z   4
loop_
 _symmetry_equiv_pos_site_id
 _symmetry_equiv_pos_as_xyz
  1  'x, y, z'
loop_
 _atom_site_type_symbol
 _atom_site_label
 _atom_site_symmetry_multiplicity
 _atom_site_fract_x
 _atom_site_fract_y
 _atom_site_fract_z
 _atom_site_occupancy
 _atom_site_charge
Co  Co1  1  0.52357000  0.42949000  0.76046000  1.0 1.0082013612
Co  Co2  1  0.57051000  0.47643000  0.26046000  1.0 1.0082013612
Co  Co3  1  0.30721000  0.72517000  0.50282000  1.0 1.0082013612
Co  Co4  1  0.27483000  0.69279000  0.00282000  1.0 1.0082013612
H  H1  1  0.24310000  0.06690000  0.76500000  1.0 0.2771641468
H  H2  1  0.93310000  0.75690000  0.26500000  1.0 0.2771641468
H  H3  1  0.21210000  0.11390000  0.79800000  1.0 0.2482496281
H  H4  1  0.88610000  0.78790000  0.29800000  1.0 0.2482496281
H  H5  1  0.85210000  0.74790000  0.72280000  1.0 0.2728153472
H  H6  1  0.25210000  0.14790000  0.22280000  1.0 0.2728153472
H  H7  1  0.80630000  0.77970000  0.75600000  1.0 0.2482496281
H  H8  1  0.22030000  0.19370000  0.25600000  1.0 0.2482496281
H  H9  1  0.66300000  0.99500000  0.51800000  1.0 0.2893650835
H  H10  1  0.00500000  0.33700000  0.01800000  1.0 0.2893650835
H  H11  1  0.61000000  0.04400000  0.53800000  1.0 0.3020197306
H  H12  1  0.95600000  0.39000000  0.03800000  1.0 0.3020197306
H  H13  1  0.99450000  0.40350000  0.46790000  1.0 0.242937096
H  H14  1  0.59650000  0.00550000  0.96790000  1.0 0.242937096
H  H15  1  0.94700000  0.44300000  0.49300000  1.0 0.2728153472
H  H16  1  0.55700000  0.05300000  0.99300000  1.0 0.2728153472
H  H17  1  0.43970000  0.37550000  0.07940000  1.0 0.1007090714
H  H18  1  0.26790000  0.16010000  0.10420000  1.0 0.1065009124
H  H19  1  0.23090000  0.30550000  0.13220000  1.0 0.1407707104
H  H20  1  0.22900000  0.34900000  0.06430000  1.0 0.1318962429
H  H21  1  0.05680000  0.13340000  0.08910000  1.0 0.1318962429
H  H22  1  0.21260000  0.29460000  0.97470000  1.0 0.1007090714
H  H23  1  0.25860000  0.24760000  0.92780000  1.0 0.1065009124
H  H24  1  0.51820000  0.58040000  0.93620000  1.0 0.1318962429
H  H25  1  0.53810000  0.56330000  0.00550000  1.0 0.1318962429
H  H26  1  0.58400000  0.51640000  0.95860000  1.0 0.1318962429
H  H27  1  0.34550000  0.09790000  0.03440000  1.0 0.1007090714
H  H28  1  0.51270000  0.31270000  0.00960000  1.0 0.1007090714
H  H29  1  0.43430000  0.12310000  0.94120000  1.0 0.1468491385
H  H30  1  0.21790000  0.98510000  0.93760000  1.0 0.1318962429
H  H31  1  0.38540000  0.20040000  0.91280000  1.0 0.1318962429
H  H32  1  0.96730000  0.97750000  0.01390000  1.0 0.1065009124
H  H33  1  0.01450000  0.93270000  0.96650000  1.0 0.1065009124
H  H34  1  0.83900000  0.70340000  0.04360000  1.0 0.1172735137
H  H35  1  0.04650000  0.82210000  0.04340000  1.0 0.1172735137
H  H36  1  0.99930000  0.86690000  0.09080000  1.0 0.1318962429
H  H37  1  0.62450000  0.56030000  0.57940000  1.0 0.1007090714
H  H38  1  0.83990000  0.73210000  0.60420000  1.0 0.1065009124
H  H39  1  0.69450000  0.76910000  0.63220000  1.0 0.1407707104
H  H40  1  0.65100000  0.77100000  0.56430000  1.0 0.1318962429
H  H41  1  0.86660000  0.94320000  0.58910000  1.0 0.1318962429
H  H42  1  0.70540000  0.78740000  0.47470000  1.0 0.1007090714
H  H43  1  0.75240000  0.74140000  0.42780000  1.0 0.1065009124
H  H44  1  0.41960000  0.48180000  0.43620000  1.0 0.1318962429
H  H45  1  0.43670000  0.46190000  0.50550000  1.0 0.1318962429
H  H46  1  0.48360000  0.41600000  0.45860000  1.0 0.1318962429
H  H47  1  0.90210000  0.65450000  0.53440000  1.0 0.1007090714
H  H48  1  0.68730000  0.48730000  0.50960000  1.0 0.1007090714
H  H49  1  0.87690000  0.56570000  0.44120000  1.0 0.1468491385
H  H50  1  0.01490000  0.78210000  0.43760000  1.0 0.1318962429
H  H51  1  0.79960000  0.61460000  0.41280000  1.0 0.1318962429
H  H52  1  0.02250000  0.03270000  0.51390000  1.0 0.1065009124
H  H53  1  0.06730000  0.98550000  0.46650000  1.0 0.1065009124
H  H54  1  0.29660000  0.16100000  0.54360000  1.0 0.1172735137
H  H55  1  0.17790000  0.95350000  0.54340000  1.0 0.1172735137
H  H56  1  0.13310000  0.00070000  0.59080000  1.0 0.1318962429
H  H57  1  0.80160000  0.29300000  0.70180000  1.0 0.1007090714
H  H58  1  0.66560000  0.10520000  0.66550000  1.0 0.1007090714
H  H59  1  0.98620000  0.32820000  0.65090000  1.0 0.1468491385
H  H60  1  0.01960000  0.33060000  0.72060000  1.0 0.1318962429
H  H61  1  0.88320000  0.14240000  0.68420000  1.0 0.1407707104
H  H62  1  0.51790000  0.81670000  0.79300000  1.0 0.1007090714
H  H63  1  0.70110000  0.94090000  0.75640000  1.0 0.1065009124
H  H64  1  0.42350000  0.65490000  0.70790000  1.0 0.1407707104
H  H65  1  0.34150000  0.70630000  0.70360000  1.0 0.1318962429
H  H66  1  0.52510000  0.83070000  0.66700000  1.0 0.1407707104
H  H67  1  0.70180000  0.08720000  0.84560000  1.0 0.1065009124
H  H68  1  0.88560000  0.21440000  0.80860000  1.0 0.1007090714
H  H69  1  0.93150000  0.41130000  0.85510000  1.0 0.1407707104
H  H70  1  0.92950000  0.43550000  0.78490000  1.0 0.1318962429
H  H71  1  0.74530000  0.30810000  0.82200000  1.0 0.1407707104
H  H72  1  0.52900000  0.10960000  0.75480000  1.0 0.1065009124
H  H73  1  0.39990000  0.92050000  0.72110000  1.0 0.091842026
H  H74  1  0.25210000  0.84090000  0.80750000  1.0 0.1468491385
H  H75  1  0.30450000  0.75970000  0.81250000  1.0 0.1318962429
H  H76  1  0.43400000  0.94940000  0.84640000  1.0 0.1407707104
H  H77  1  0.70700000  0.19840000  0.20180000  1.0 0.1007090714
H  H78  1  0.89480000  0.33440000  0.16550000  1.0 0.1007090714
H  H79  1  0.67180000  0.01380000  0.15090000  1.0 0.1468491385
H  H80  1  0.66940000  0.98040000  0.22060000  1.0 0.1318962429
H  H81  1  0.85760000  0.11680000  0.18420000  1.0 0.1407707104
H  H82  1  0.18330000  0.48210000  0.29300000  1.0 0.1007090714
H  H83  1  0.05910000  0.29890000  0.25640000  1.0 0.1065009124
H  H84  1  0.34510000  0.57650000  0.20790000  1.0 0.1407707104
H  H85  1  0.29370000  0.65850000  0.20360000  1.0 0.1318962429
H  H86  1  0.16930000  0.47490000  0.16700000  1.0 0.1407707104
H  H87  1  0.91280000  0.29820000  0.34560000  1.0 0.1065009124
H  H88  1  0.78560000  0.11440000  0.30860000  1.0 0.1007090714
H  H89  1  0.58870000  0.06850000  0.35510000  1.0 0.1407707104
H  H90  1  0.56450000  0.07050000  0.28490000  1.0 0.1318962429
H  H91  1  0.69190000  0.25470000  0.32200000  1.0 0.1407707104
H  H92  1  0.89040000  0.47100000  0.25480000  1.0 0.1065009124
H  H93  1  0.07950000  0.60010000  0.22110000  1.0 0.091842026
H  H94  1  0.15910000  0.74790000  0.30750000  1.0 0.1468491385
H  H95  1  0.24030000  0.69550000  0.31250000  1.0 0.1318962429
H  H96  1  0.05060000  0.56600000  0.34640000  1.0 0.1407707104
C  C1  1  0.64658000  0.26462000  0.58531000  1.0 0.3020197306
C  C2  1  0.73538000  0.35342000  0.08531000  1.0 0.3020197306
C  C3  1  0.57285000  0.30055000  0.66423000  1.0 0.3144037132
C  C4  1  0.69945000  0.42715000  0.16423000  1.0 0.3144037132
C  C5  1  0.29110000  0.34730000  0.64518000  1.0 0.4393903617
C  C6  1  0.65270000  0.70890000  0.14518000  1.0 0.4393903617
C  C7  1  0.23767000  0.43553000  0.57385000  1.0 0.4393903617
C  C8  1  0.56447000  0.76233000  0.07385000  1.0 0.4393903617
C  C9  1  0.38015000  0.02285000  0.44027000  1.0 0.4393903617
C  C10  1  0.97715000  0.61985000  0.94027000  1.0 0.4393903617
C  C11  1  0.45378000  0.22702000  0.37529000  1.0 0.4393903617
C  C12  1  0.77298000  0.54622000  0.87529000  1.0 0.4393903617
C  C13  1  0.46182000  0.73318000  0.39092000  1.0 0.4393903617
C  C14  1  0.26682000  0.53818000  0.89092000  1.0 0.4393903617
C  C15  1  0.52707000  0.65753000  0.32821000  1.0 0.4393903617
C  C16  1  0.34247000  0.47293000  0.82821000  1.0 0.4393903617
C  C17  1  0.14414000  0.70066000  0.61620000  1.0 0.4393903617
C  C18  1  0.29934000  0.85586000  0.11620000  1.0 0.4393903617
C  C19  1  0.07398000  0.76082000  0.68428000  1.0 0.3988878433
C  C20  1  0.23918000  0.92602000  0.18428000  1.0 0.3988878433
C  C21  1  0.30065000  0.24755000  0.07549000  1.0 -0.0686034362
C  C22  1  0.19481000  0.25999000  0.09173000  1.0 -0.3989664945
C  C23  1  0.29450000  0.30070000  0.96728000  1.0 -0.0686034362
C  C24  1  0.50223000  0.50877000  0.96686000  1.0 -0.3989664945
C  C25  1  0.37665000  0.18115000  0.00381000  1.0 -0.0775979889
C  C26  1  0.35131000  0.11669000  0.94351000  1.0 -0.3989664945
C  C27  1  0.04216000  0.97464000  0.00746000  1.0 -0.0686034362
C  C28  1  0.97579000  0.82881000  0.05010000  1.0 -0.4097975786
C  C29  1  0.75245000  0.69935000  0.57549000  1.0 -0.0686034362
C  C30  1  0.74001000  0.80519000  0.59173000  1.0 -0.3989664945
C  C31  1  0.69930000  0.70550000  0.46728000  1.0 -0.0686034362
C  C32  1  0.49123000  0.49777000  0.46686000  1.0 -0.3989664945
C  C33  1  0.81885000  0.62335000  0.50381000  1.0 -0.0775979889
C  C34  1  0.88331000  0.64869000  0.44351000  1.0 -0.3989664945
C  C35  1  0.02536000  0.95784000  0.50746000  1.0 -0.0686034362
C  C36  1  0.17119000  0.02421000  0.55010000  1.0 -0.4097975786
C  C37  1  0.75643000  0.18117000  0.69951000  1.0 -0.0775979889
C  C38  1  0.92650000  0.25190000  0.68780000  1.0 -0.3922642664
C  C39  1  0.58647000  0.89193000  0.75594000  1.0 -0.0686034362
C  C40  1  0.45767000  0.75913000  0.70397000  1.0 -0.3989664945
C  C41  1  0.77618000  0.17302000  0.81049000  1.0 -0.0686034362
C  C42  1  0.85238000  0.34742000  0.81890000  1.0 -0.3922642664
C  C43  1  0.48064000  0.99516000  0.75691000  1.0 -0.0775979889
C  C44  1  0.35699000  0.87581000  0.81055000  1.0 -0.3922642664
C  C45  1  0.81883000  0.24357000  0.19951000  1.0 -0.0775979889
C  C46  1  0.74810000  0.07350000  0.18780000  1.0 -0.3922642664
C  C47  1  0.10807000  0.41353000  0.25594000  1.0 -0.0686034362
C  C48  1  0.24087000  0.54233000  0.20397000  1.0 -0.3989664945
C  C49  1  0.82698000  0.22382000  0.31049000  1.0 -0.0686034362
C  C50  1  0.65258000  0.14762000  0.31890000  1.0 -0.3922642664
C  C51  1  0.00484000  0.51936000  0.25691000  1.0 -0.0775979889
C  C52  1  0.12419000  0.64301000  0.31055000  1.0 -0.3922642664
N  N1  1  0.73822000  0.29658000  0.55342000  1.0 -0.5462411041
N  N2  1  0.70342000  0.26178000  0.05342000  1.0 -0.5462411041
N  N3  1  0.51780000  0.19160000  0.62230000  1.0 -0.1291684913
N  N4  1  0.80840000  0.48220000  0.12230000  1.0 -0.1291684913
N  N5  1  0.59426000  0.36594000  0.70526000  1.0 -0.5954872961
N  N6  1  0.63406000  0.40574000  0.20526000  1.0 -0.5954872961
N  N7  1  0.36414000  0.36826000  0.68767000  1.0 -0.538599888
N  N8  1  0.63174000  0.63586000  0.18767000  1.0 -0.538599888
N  N9  1  0.20261000  0.30939000  0.59623000  1.0 -0.4195571537
N  N10  1  0.69061000  0.79739000  0.09623000  1.0 -0.4195571537
N  N11  1  0.26120000  0.53860000  0.54988000  1.0 -0.538599888
N  N12  1  0.46140000  0.73880000  0.04988000  1.0 -0.538599888
N  N13  1  0.35272000  0.91228000  0.45731000  1.0 -0.5296204681
N  N14  1  0.08772000  0.64728000  0.95731000  1.0 -0.5296204681
N  N15  1  0.40176000  0.14344000  0.42757000  1.0 -0.4097975786
N  N16  1  0.85656000  0.59824000  0.92757000  1.0 -0.4097975786
N  N17  1  0.50050000  0.31250000  0.33277000  1.0 -0.538599888
N  N18  1  0.68750000  0.49950000  0.83277000  1.0 -0.538599888
N  N19  1  0.39603000  0.71737000  0.43020000  1.0 -0.5462411041
N  N20  1  0.28263000  0.60397000  0.93020000  1.0 -0.5462411041
N  N21  1  0.54596000  0.77084000  0.34428000  1.0 -0.429213285
N  N22  1  0.22916000  0.45404000  0.84428000  1.0 -0.429213285
N  N23  1  0.52100000  0.56940000  0.30938000  1.0 -0.5552136893
N  N24  1  0.43060000  0.47900000  0.80938000  1.0 -0.5552136893
N  N25  1  0.21629000  0.73011000  0.57569000  1.0 -0.5145274992
N  N26  1  0.26989000  0.78371000  0.07569000  1.0 -0.5145274992
N  N27  1  0.05339000  0.64961000  0.66405000  1.0 -0.4097975786
N  N28  1  0.35039000  0.94661000  0.16405000  1.0 -0.4097975786
N  N29  1  0.08189000  0.84751000  0.70680000  1.0 -0.5006181593
N  N30  1  0.15249000  0.91811000  0.20680000  1.0 -0.5006181593
N  N31  1  0.54040000  0.23960000  0.61180000  1.0 -0.1291684913
N  N32  1  0.76040000  0.45960000  0.11180000  1.0 -0.1291684913
N  N33  1  0.25594000  0.17826000  0.01346000  1.0 0.1651441459
N  N34  1  0.82174000  0.74406000  0.51346000  1.0 0.1651441459
N  N35  1  0.65048000  0.06032000  0.75552000  1.0 0.1600728636
N  N36  1  0.93968000  0.34952000  0.25552000  1.0 0.1600728636
O  O1  1  0.28510000  0.14190000  0.78763000  1.0 -0.5745127196
O  O2  1  0.85810000  0.71490000  0.28763000  1.0 -0.5745127196
O  O3  1  0.76710000  0.71950000  0.73255000  1.0 -0.5929747517
O  O4  1  0.28050000  0.23290000  0.23255000  1.0 -0.5929747517
O  O5  1  0.59013000  0.96127000  0.53738000  1.0 -0.6378051932
O  O6  1  0.03873000  0.40987000  0.03738000  1.0 -0.6378051932
O  O7  1  0.01921000  0.48019000  0.47176000  1.0 -0.5785331423
O  O8  1  0.51981000  0.98079000  0.97176000  1.0 -0.5785331423
