# DDEC6 charges by PACMAN v1.1 (https://github.com/mtap-research/PACMAN-charge/)
data_AXIMEC_ASR_pacman
_symmetry_space_group_name_H-M   'P 1'
_cell_length_a   20.75470000
_cell_length_b   16.97740000
_cell_length_c   15.79830000
_cell_angle_alpha   78.48740000
_cell_angle_beta   53.27800000
_cell_angle_gamma   48.23450000
_symmetry_Int_Tables_number   1
_chemical_formula_structural   InH28C32(NO3)4
_chemical_formula_sum   'In4 H112 C128 N16 O48'
_cell_volume   3138.91394655
_cell_formula_units_Z   4
loop_
 _symmetry_equiv_pos_site_id
 _symmetry_equiv_pos_as_xyz
  1  'x, y, z'
loop_
 _atom_site_type_symbol
 _atom_site_label
 _atom_site_symmetry_multiplicity
 _atom_site_fract_x
 _atom_site_fract_y
 _atom_site_fract_z
 _atom_site_occupancy
 _atom_site_charge
In  In1  1  0.45066000  0.45066000  0.04934000  1.0 1.3069828161
In  In2  1  0.20066000  0.20066000  0.79934000  1.0 1.3069828161
In  In3  1  0.04934000  0.04934000  0.45066000  1.0 1.3069828161
In  In4  1  0.79934000  0.79934000  0.20066000  1.0 1.3069828161
H  H1  1  0.19770000  0.00070000  0.05630000  1.0 0.1411957516
H  H2  1  0.24110000  0.84610000  0.11750000  1.0 0.1411957516
H  H3  1  0.40820000  0.86280000  0.68360000  1.0 0.1677159303
H  H4  1  0.49760000  0.81340000  0.51420000  1.0 0.0922419865
H  H5  1  0.61460000  0.68500000  0.44740000  1.0 0.1052431472
H  H6  1  0.50890000  0.72390000  0.47170000  1.0 0.0922419865
H  H7  1  0.45210000  0.65130000  0.79670000  1.0 0.0922419865
H  H8  1  0.18520000  0.00340000  0.05860000  1.0 0.1411957516
H  H9  1  0.22850000  0.84910000  0.11890000  1.0 0.1411957516
H  H10  1  0.48490000  0.64470000  0.79670000  1.0 0.0829524531
H  H11  1  0.44490000  0.85610000  0.68070000  1.0 0.1572624602
H  H12  1  0.52980000  0.80820000  0.51000000  1.0 0.0922419865
H  H13  1  0.65160000  0.68340000  0.44500000  1.0 0.0829524531
H  H14  1  0.55470000  0.70970000  0.46050000  1.0 0.1019418024
H  H15  1  0.00070000  0.19770000  0.74530000  1.0 0.1411957516
H  H16  1  0.84610000  0.24110000  0.79530000  1.0 0.1411957516
H  H17  1  0.86280000  0.40820000  0.04540000  1.0 0.1677159303
H  H18  1  0.81340000  0.49760000  0.17480000  1.0 0.0922419865
H  H19  1  0.68500000  0.61460000  0.25300000  1.0 0.1052431472
H  H20  1  0.72390000  0.50890000  0.29550000  1.0 0.0922419865
H  H21  1  0.65130000  0.45210000  0.09990000  1.0 0.0922419865
H  H22  1  0.00340000  0.18520000  0.75280000  1.0 0.1411957516
H  H23  1  0.84910000  0.22850000  0.80350000  1.0 0.1411957516
H  H24  1  0.64470000  0.48490000  0.07370000  1.0 0.0829524531
H  H25  1  0.85610000  0.44490000  0.01830000  1.0 0.1572624602
H  H26  1  0.80820000  0.52980000  0.15200000  1.0 0.0922419865
H  H27  1  0.68340000  0.65160000  0.22000000  1.0 0.0829524531
H  H28  1  0.70970000  0.55470000  0.27510000  1.0 0.1019418024
H  H29  1  0.19370000  0.50470000  0.05230000  1.0 0.1411957516
H  H30  1  0.13250000  0.45470000  0.00890000  1.0 0.1411957516
H  H31  1  0.56640000  0.20460000  0.84180000  1.0 0.1677159303
H  H32  1  0.73580000  0.07520000  0.75240000  1.0 0.0922419865
H  H33  1  0.80260000  0.99700000  0.63540000  1.0 0.1052431472
H  H34  1  0.77830000  0.95450000  0.74110000  1.0 0.0922419865
H  H35  1  0.45330000  0.15010000  0.79790000  1.0 0.0922419865
H  H36  1  0.19140000  0.49720000  0.06480000  1.0 0.1411957516
H  H37  1  0.13110000  0.44650000  0.02150000  1.0 0.1411957516
H  H38  1  0.45330000  0.17630000  0.76510000  1.0 0.0829524531
H  H39  1  0.56930000  0.23170000  0.80510000  1.0 0.1572624602
H  H40  1  0.74000000  0.09800000  0.72020000  1.0 0.0922419865
H  H41  1  0.80500000  0.03000000  0.59840000  1.0 0.0829524531
H  H42  1  0.78950000  0.97490000  0.69530000  1.0 0.1019418024
H  H43  1  0.50470000  0.19370000  0.24930000  1.0 0.1411957516
H  H44  1  0.45470000  0.13250000  0.40390000  1.0 0.1411957516
H  H45  1  0.20460000  0.56640000  0.38720000  1.0 0.1677159303
H  H46  1  0.07520000  0.73580000  0.43660000  1.0 0.0922419865
H  H47  1  0.99700000  0.80260000  0.56500000  1.0 0.1052431472
H  H48  1  0.95450000  0.77830000  0.52610000  1.0 0.0922419865
H  H49  1  0.15010000  0.45330000  0.59870000  1.0 0.0922419865
H  H50  1  0.49720000  0.19140000  0.24660000  1.0 0.1411957516
H  H51  1  0.44650000  0.13110000  0.40090000  1.0 0.1411957516
H  H52  1  0.17630000  0.45330000  0.60530000  1.0 0.0829524531
H  H53  1  0.23170000  0.56930000  0.39390000  1.0 0.1572624602
H  H54  1  0.09800000  0.74000000  0.44180000  1.0 0.0922419865
H  H55  1  0.03000000  0.80500000  0.56660000  1.0 0.0829524531
H  H56  1  0.97490000  0.78950000  0.54030000  1.0 0.1019418024
H  H57  1  0.05630000  0.74530000  0.19770000  1.0 0.1411957516
H  H58  1  0.11750000  0.79530000  0.24110000  1.0 0.1411957516
H  H59  1  0.68360000  0.04540000  0.40820000  1.0 0.1677159303
H  H60  1  0.51420000  0.17480000  0.49760000  1.0 0.0922419865
H  H61  1  0.44740000  0.25300000  0.61460000  1.0 0.1052431472
H  H62  1  0.47170000  0.29550000  0.50890000  1.0 0.0922419865
H  H63  1  0.79670000  0.09990000  0.45210000  1.0 0.0922419865
H  H64  1  0.05860000  0.75280000  0.18520000  1.0 0.1411957516
H  H65  1  0.11890000  0.80350000  0.22850000  1.0 0.1411957516
H  H66  1  0.79670000  0.07370000  0.48490000  1.0 0.0829524531
H  H67  1  0.68070000  0.01830000  0.44490000  1.0 0.1572624602
H  H68  1  0.51000000  0.15200000  0.52980000  1.0 0.0922419865
H  H69  1  0.44500000  0.22000000  0.65160000  1.0 0.0829524531
H  H70  1  0.46050000  0.27510000  0.55470000  1.0 0.1019418024
H  H71  1  0.74530000  0.05630000  0.00070000  1.0 0.1411957516
H  H72  1  0.79530000  0.11750000  0.84610000  1.0 0.1411957516
H  H73  1  0.04540000  0.68360000  0.86280000  1.0 0.1677159303
H  H74  1  0.17480000  0.51420000  0.81340000  1.0 0.0922419865
H  H75  1  0.25300000  0.44740000  0.68500000  1.0 0.1052431472
H  H76  1  0.29550000  0.47170000  0.72390000  1.0 0.0922419865
H  H77  1  0.09990000  0.79670000  0.65130000  1.0 0.0922419865
H  H78  1  0.75280000  0.05860000  0.00340000  1.0 0.1411957516
H  H79  1  0.80350000  0.11890000  0.84910000  1.0 0.1411957516
H  H80  1  0.07370000  0.79670000  0.64470000  1.0 0.0829524531
H  H81  1  0.01830000  0.68070000  0.85610000  1.0 0.1572624602
H  H82  1  0.15200000  0.51000000  0.80820000  1.0 0.0922419865
H  H83  1  0.22000000  0.44500000  0.68340000  1.0 0.0829524531
H  H84  1  0.27510000  0.46050000  0.70970000  1.0 0.1019418024
H  H85  1  0.05230000  0.24930000  0.19370000  1.0 0.1411957516
H  H86  1  0.00890000  0.40390000  0.13250000  1.0 0.1411957516
H  H87  1  0.84180000  0.38720000  0.56640000  1.0 0.1677159303
H  H88  1  0.75240000  0.43660000  0.73580000  1.0 0.0922419865
H  H89  1  0.63540000  0.56500000  0.80260000  1.0 0.1052431472
H  H90  1  0.74110000  0.52610000  0.77830000  1.0 0.0922419865
H  H91  1  0.79790000  0.59870000  0.45330000  1.0 0.0922419865
H  H92  1  0.06480000  0.24660000  0.19140000  1.0 0.1411957516
H  H93  1  0.02150000  0.40090000  0.13110000  1.0 0.1411957516
H  H94  1  0.76510000  0.60530000  0.45330000  1.0 0.0829524531
H  H95  1  0.80510000  0.39390000  0.56930000  1.0 0.1572624602
H  H96  1  0.72020000  0.44180000  0.74000000  1.0 0.0922419865
H  H97  1  0.59840000  0.56660000  0.80500000  1.0 0.0829524531
H  H98  1  0.69530000  0.54030000  0.78950000  1.0 0.1019418024
H  H99  1  0.24930000  0.05230000  0.50470000  1.0 0.1411957516
H  H100  1  0.40390000  0.00890000  0.45470000  1.0 0.1411957516
H  H101  1  0.38720000  0.84180000  0.20460000  1.0 0.1677159303
H  H102  1  0.43660000  0.75240000  0.07520000  1.0 0.0922419865
H  H103  1  0.56500000  0.63540000  0.99700000  1.0 0.1052431472
H  H104  1  0.52610000  0.74110000  0.95450000  1.0 0.0922419865
H  H105  1  0.59870000  0.79790000  0.15010000  1.0 0.0922419865
H  H106  1  0.24660000  0.06480000  0.49720000  1.0 0.1411957516
H  H107  1  0.40090000  0.02150000  0.44650000  1.0 0.1411957516
H  H108  1  0.60530000  0.76510000  0.17630000  1.0 0.0829524531
H  H109  1  0.39390000  0.80510000  0.23170000  1.0 0.1572624602
H  H110  1  0.44180000  0.72020000  0.09800000  1.0 0.0922419865
H  H111  1  0.56660000  0.59840000  0.03000000  1.0 0.0829524531
H  H112  1  0.54030000  0.69530000  0.97490000  1.0 0.1019418024
C  C1  1  0.38420000  0.63400000  0.99700000  1.0 0.4019057014
C  C2  1  0.24650000  0.93050000  0.00470000  1.0 -0.1249218203
C  C3  1  0.27260000  0.83900000  0.04120000  1.0 -0.1829322978
C  C4  1  0.34680000  0.73520000  0.96240000  1.0 0.0079308346
C  C5  1  0.29240000  0.92020000  0.89020000  1.0 -0.1993661925
C  C6  1  0.26390000  0.02210000  0.86050000  1.0 0.439923697
C  C7  1  0.53300000  0.73560000  0.50140000  1.0 -0.2107746118
C  C8  1  0.49910000  0.71210000  0.60970000  1.0 0.2600481015
C  C9  1  0.39790000  0.72310000  0.84950000  1.0 -0.0811335134
C  C10  1  0.37040000  0.81520000  0.81280000  1.0 0.121443278
C  C11  1  0.42400000  0.71820000  0.84920000  1.0 -0.0926379814
C  C12  1  0.39610000  0.81090000  0.81110000  1.0 0.1019418024
C  C13  1  0.57100000  0.72860000  0.49540000  1.0 -0.2107746118
C  C14  1  0.53520000  0.70400000  0.60580000  1.0 0.2600481015
C  C15  1  0.30740000  0.91820000  0.89220000  1.0 -0.1993661925
C  C16  1  0.36270000  0.73430000  0.96330000  1.0 -0.0130690471
C  C17  1  0.63400000  0.38420000  0.98480000  1.0 0.4019057014
C  C18  1  0.93050000  0.24650000  0.81830000  1.0 -0.1255309872
C  C19  1  0.83900000  0.27260000  0.84720000  1.0 -0.1829322978
C  C20  1  0.73520000  0.34680000  0.95560000  1.0 0.0079308346
C  C21  1  0.92020000  0.29240000  0.89720000  1.0 -0.1993661925
C  C22  1  0.02210000  0.26390000  0.85350000  1.0 0.439923697
C  C23  1  0.73560000  0.53300000  0.23000000  1.0 -0.2107746118
C  C24  1  0.71210000  0.49910000  0.17910000  1.0 0.2600481015
C  C25  1  0.72310000  0.39790000  0.02950000  1.0 -0.0811335134
C  C26  1  0.81520000  0.37040000  0.00160000  1.0 0.121443278
C  C27  1  0.71820000  0.42400000  0.00860000  1.0 -0.0926379814
C  C28  1  0.81090000  0.39610000  0.98190000  1.0 0.1019418024
C  C29  1  0.72860000  0.57100000  0.20500000  1.0 -0.2107746118
C  C30  1  0.70400000  0.53520000  0.15500000  1.0 0.2600481015
C  C31  1  0.91820000  0.30740000  0.88220000  1.0 -0.1993661925
C  C32  1  0.73430000  0.36270000  0.93970000  1.0 -0.0130690471
C  C33  1  0.25300000  0.26520000  0.86580000  1.0 0.4019057014
C  C34  1  0.24530000  0.43170000  0.00350000  1.0 -0.1249218203
C  C35  1  0.20880000  0.40280000  0.97740000  1.0 -0.1829322978
C  C36  1  0.28760000  0.29440000  0.90320000  1.0 0.0079308346
C  C37  1  0.35980000  0.35280000  0.95760000  1.0 -0.1993661925
C  C38  1  0.38950000  0.39650000  0.98610000  1.0 0.439923697
C  C39  1  0.74860000  0.02000000  0.71700000  1.0 -0.2107746118
C  C40  1  0.64030000  0.07090000  0.75090000  1.0 0.2600481015
C  C41  1  0.40050000  0.22050000  0.85210000  1.0 -0.0811335134
C  C42  1  0.43720000  0.24840000  0.87960000  1.0 0.121443278
C  C43  1  0.40080000  0.24140000  0.82600000  1.0 -0.0926379814
C  C44  1  0.43890000  0.26810000  0.85390000  1.0 0.1019418024
C  C45  1  0.75460000  0.04500000  0.67900000  1.0 -0.2107746118
C  C46  1  0.64420000  0.09500000  0.71480000  1.0 0.2600481015
C  C47  1  0.35780000  0.36780000  0.94260000  1.0 -0.1931180648
C  C48  1  0.28670000  0.31030000  0.88730000  1.0 -0.0130690471
C  C49  1  0.26520000  0.25300000  0.61600000  1.0 0.4019057014
C  C50  1  0.43170000  0.24530000  0.31950000  1.0 -0.1249218203
C  C51  1  0.40280000  0.20880000  0.41100000  1.0 -0.1829322978
C  C52  1  0.29440000  0.28760000  0.51480000  1.0 0.0079308346
C  C53  1  0.35280000  0.35980000  0.32980000  1.0 -0.1993661925
C  C54  1  0.39650000  0.38950000  0.22790000  1.0 0.439923697
C  C55  1  0.02000000  0.74860000  0.51440000  1.0 -0.2107746118
C  C56  1  0.07090000  0.64030000  0.53790000  1.0 0.2600481015
C  C57  1  0.22050000  0.40050000  0.52690000  1.0 -0.0811335134
C  C58  1  0.24840000  0.43720000  0.43480000  1.0 0.121443278
C  C59  1  0.24140000  0.40080000  0.53180000  1.0 -0.0926379814
C  C60  1  0.26810000  0.43890000  0.43910000  1.0 0.1019418024
C  C61  1  0.04500000  0.75460000  0.52140000  1.0 -0.2107746118
C  C62  1  0.09500000  0.64420000  0.54600000  1.0 0.2600481015
C  C63  1  0.36780000  0.35780000  0.33180000  1.0 -0.1993661925
C  C64  1  0.31030000  0.28670000  0.51570000  1.0 -0.0130690471
C  C65  1  0.99700000  0.98480000  0.38420000  1.0 0.4019057014
C  C66  1  0.00470000  0.81830000  0.24650000  1.0 -0.1255309872
C  C67  1  0.04120000  0.84720000  0.27260000  1.0 -0.1829322978
C  C68  1  0.96240000  0.95560000  0.34680000  1.0 0.0079308346
C  C69  1  0.89020000  0.89720000  0.29240000  1.0 -0.1993661925
C  C70  1  0.86050000  0.85350000  0.26390000  1.0 0.439923697
C  C71  1  0.50140000  0.23000000  0.53300000  1.0 -0.2107746118
C  C72  1  0.60970000  0.17910000  0.49910000  1.0 0.2600481015
C  C73  1  0.84950000  0.02950000  0.39790000  1.0 -0.0811335134
C  C74  1  0.81280000  0.00160000  0.37040000  1.0 0.121443278
C  C75  1  0.84920000  0.00860000  0.42400000  1.0 -0.0926379814
C  C76  1  0.81110000  0.98190000  0.39610000  1.0 0.1019418024
C  C77  1  0.49540000  0.20500000  0.57100000  1.0 -0.2107746118
C  C78  1  0.60580000  0.15500000  0.53520000  1.0 0.2600481015
C  C79  1  0.89220000  0.88220000  0.30740000  1.0 -0.1993661925
C  C80  1  0.96330000  0.93970000  0.36270000  1.0 -0.0130690471
C  C81  1  0.98480000  0.99700000  0.63400000  1.0 0.4019057014
C  C82  1  0.81830000  0.00470000  0.93050000  1.0 -0.1249218203
C  C83  1  0.84720000  0.04120000  0.83900000  1.0 -0.1829322978
C  C84  1  0.95560000  0.96240000  0.73520000  1.0 0.0079308346
C  C85  1  0.89720000  0.89020000  0.92020000  1.0 -0.1993661925
C  C86  1  0.85350000  0.86050000  0.02210000  1.0 0.439923697
C  C87  1  0.23000000  0.50140000  0.73560000  1.0 -0.2107746118
C  C88  1  0.17910000  0.60970000  0.71210000  1.0 0.2600481015
C  C89  1  0.02950000  0.84950000  0.72310000  1.0 -0.0811335134
C  C90  1  0.00160000  0.81280000  0.81520000  1.0 0.121443278
C  C91  1  0.00860000  0.84920000  0.71820000  1.0 -0.0926379814
C  C92  1  0.98190000  0.81110000  0.81090000  1.0 0.1019418024
C  C93  1  0.20500000  0.49540000  0.72860000  1.0 -0.2107746118
C  C94  1  0.15500000  0.60580000  0.70400000  1.0 0.2600481015
C  C95  1  0.88220000  0.89220000  0.91820000  1.0 -0.1931180648
C  C96  1  0.93970000  0.96330000  0.73430000  1.0 -0.0130690471
C  C97  1  0.86580000  0.61600000  0.25300000  1.0 0.4019057014
C  C98  1  0.00350000  0.31950000  0.24530000  1.0 -0.1249218203
C  C99  1  0.97740000  0.41100000  0.20880000  1.0 -0.1829322978
C  C100  1  0.90320000  0.51480000  0.28760000  1.0 0.0079308346
C  C101  1  0.95760000  0.32980000  0.35980000  1.0 -0.1993661925
C  C102  1  0.98610000  0.22790000  0.38950000  1.0 0.439923697
C  C103  1  0.71700000  0.51440000  0.74860000  1.0 -0.2107746118
C  C104  1  0.75090000  0.53790000  0.64030000  1.0 0.2600481015
C  C105  1  0.85210000  0.52690000  0.40050000  1.0 -0.0811335134
C  C106  1  0.87960000  0.43480000  0.43720000  1.0 0.121443278
C  C107  1  0.82600000  0.53180000  0.40080000  1.0 -0.0926379814
C  C108  1  0.85390000  0.43910000  0.43890000  1.0 0.1019418024
C  C109  1  0.67900000  0.52140000  0.75460000  1.0 -0.2107746118
C  C110  1  0.71480000  0.54600000  0.64420000  1.0 0.2600481015
C  C111  1  0.94260000  0.33180000  0.35780000  1.0 -0.1931180648
C  C112  1  0.88730000  0.51570000  0.28670000  1.0 -0.0130690471
C  C113  1  0.61600000  0.86580000  0.26520000  1.0 0.4019057014
C  C114  1  0.31950000  0.00350000  0.43170000  1.0 -0.1249218203
C  C115  1  0.41100000  0.97740000  0.40280000  1.0 -0.1829322978
C  C116  1  0.51480000  0.90320000  0.29440000  1.0 0.0079308346
C  C117  1  0.32980000  0.95760000  0.35280000  1.0 -0.1993661925
C  C118  1  0.22790000  0.98610000  0.39650000  1.0 0.439923697
C  C119  1  0.51440000  0.71700000  0.02000000  1.0 -0.2107746118
C  C120  1  0.53790000  0.75090000  0.07090000  1.0 0.2600481015
C  C121  1  0.52690000  0.85210000  0.22050000  1.0 -0.0811335134
C  C122  1  0.43480000  0.87960000  0.24840000  1.0 0.121443278
C  C123  1  0.53180000  0.82600000  0.24140000  1.0 -0.0926379814
C  C124  1  0.43910000  0.85390000  0.26810000  1.0 0.1019418024
C  C125  1  0.52140000  0.67900000  0.04500000  1.0 -0.2107746118
C  C126  1  0.54600000  0.71480000  0.09500000  1.0 0.2600481015
C  C127  1  0.33180000  0.94260000  0.36780000  1.0 -0.1931180648
C  C128  1  0.51570000  0.88730000  0.31030000  1.0 -0.0130690471
N  N1  1  0.42480000  0.80200000  0.69980000  1.0 -0.0811335134
N  N2  1  0.45770000  0.79670000  0.69690000  1.0 -0.1030787641
N  N3  1  0.80200000  0.42480000  0.07340000  1.0 -0.0811335134
N  N4  1  0.79670000  0.45770000  0.04870000  1.0 -0.1030787641
N  N5  1  0.55020000  0.17660000  0.82520000  1.0 -0.0811335134
N  N6  1  0.55310000  0.20130000  0.79230000  1.0 -0.1030787641
N  N7  1  0.17660000  0.55020000  0.44800000  1.0 -0.0811335134
N  N8  1  0.20130000  0.55310000  0.45330000  1.0 -0.1030787641
N  N9  1  0.69980000  0.07340000  0.42480000  1.0 -0.0811335134
N  N10  1  0.69690000  0.04870000  0.45770000  1.0 -0.1030787641
N  N11  1  0.07340000  0.69980000  0.80200000  1.0 -0.0811335134
N  N12  1  0.04870000  0.69690000  0.79670000  1.0 -0.1030787641
N  N13  1  0.82520000  0.44800000  0.55020000  1.0 -0.0811335134
N  N14  1  0.79230000  0.45330000  0.55310000  1.0 -0.1030787641
N  N15  1  0.44800000  0.82520000  0.17660000  1.0 -0.0811335134
N  N16  1  0.45330000  0.79230000  0.20130000  1.0 -0.1030787641
O  O1  1  0.46454000  0.53834000  0.92306000  1.0 -0.5265341691
O  O2  1  0.33224000  0.64264000  0.09916000  1.0 -0.5179078049
O  O3  1  0.31718000  0.01446000  0.75654000  1.0 -0.542825862
O  O4  1  0.18202000  0.11642000  0.93378000  1.0 -0.457902345
O  O5  1  0.53240000  0.62000000  0.61600000  1.0 -0.1554739468
O  O6  1  0.57460000  0.60900000  0.61160000  1.0 -0.1829322978
O  O7  1  0.53834000  0.46454000  0.07406000  1.0 -0.5265341691
O  O8  1  0.64264000  0.33224000  0.92596000  1.0 -0.5179078049
O  O9  1  0.01446000  0.31718000  0.91182000  1.0 -0.542825862
O  O10  1  0.11642000  0.18202000  0.76778000  1.0 -0.457902345
O  O11  1  0.62000000  0.53240000  0.23160000  1.0 -0.1554739468
O  O12  1  0.60900000  0.57460000  0.20480000  1.0 -0.1829322978
O  O13  1  0.32694000  0.17594000  0.78546000  1.0 -0.5265341691
O  O14  1  0.15084000  0.32404000  0.91776000  1.0 -0.5179078049
O  O15  1  0.49346000  0.33818000  0.93282000  1.0 -0.542825862
O  O16  1  0.31622000  0.48222000  0.06798000  1.0 -0.457902345
O  O17  1  0.63400000  0.01840000  0.71760000  1.0 -0.1521644088
O  O18  1  0.63840000  0.04520000  0.67540000  1.0 -0.1829322978
O  O19  1  0.17594000  0.32694000  0.71166000  1.0 -0.5265341691
O  O20  1  0.32404000  0.15084000  0.60736000  1.0 -0.5179078049
O  O21  1  0.33818000  0.49346000  0.23554000  1.0 -0.542825862
O  O22  1  0.48222000  0.31622000  0.13358000  1.0 -0.457902345
O  O23  1  0.01840000  0.63400000  0.63000000  1.0 -0.1521644088
O  O24  1  0.04520000  0.63840000  0.64100000  1.0 -0.1829322978
O  O25  1  0.92306000  0.07406000  0.46454000  1.0 -0.5265341691
O  O26  1  0.09916000  0.92596000  0.33224000  1.0 -0.5179078049
O  O27  1  0.75654000  0.91182000  0.31718000  1.0 -0.542825862
O  O28  1  0.93378000  0.76778000  0.18202000  1.0 -0.457902345
O  O29  1  0.61600000  0.23160000  0.53240000  1.0 -0.1554739468
O  O30  1  0.61160000  0.20480000  0.57460000  1.0 -0.1829322978
O  O31  1  0.07406000  0.92306000  0.53834000  1.0 -0.5265341691
O  O32  1  0.92596000  0.09916000  0.64264000  1.0 -0.5179078049
O  O33  1  0.91182000  0.75654000  0.01446000  1.0 -0.542825862
O  O34  1  0.76778000  0.93378000  0.11642000  1.0 -0.457902345
O  O35  1  0.23160000  0.61600000  0.62000000  1.0 -0.1521644088
O  O36  1  0.20480000  0.61160000  0.60900000  1.0 -0.1829322978
O  O37  1  0.78546000  0.71166000  0.32694000  1.0 -0.5265341691
O  O38  1  0.91776000  0.60736000  0.15084000  1.0 -0.5179078049
O  O39  1  0.93282000  0.23554000  0.49346000  1.0 -0.542825862
O  O40  1  0.06798000  0.13358000  0.31622000  1.0 -0.457902345
O  O41  1  0.71760000  0.63000000  0.63400000  1.0 -0.1554739468
O  O42  1  0.67540000  0.64100000  0.63840000  1.0 -0.1829322978
O  O43  1  0.71166000  0.78546000  0.17594000  1.0 -0.5265341691
O  O44  1  0.60736000  0.91776000  0.32404000  1.0 -0.5179078049
O  O45  1  0.23554000  0.93282000  0.33818000  1.0 -0.542825862
O  O46  1  0.13358000  0.06798000  0.48222000  1.0 -0.457902345
O  O47  1  0.63000000  0.71760000  0.01840000  1.0 -0.1554739468
O  O48  1  0.64100000  0.67540000  0.04520000  1.0 -0.1829322978
