# DDEC6 charges by PACMAN v1.1 (https://github.com/mtap-research/PACMAN-charge/)
data_AXIMUP_ion_pacman
_symmetry_space_group_name_H-M   'P 1'
_cell_length_a   10.83040000
_cell_length_b   16.71330000
_cell_length_c   29.21290000
_cell_angle_alpha   90.00000000
_cell_angle_beta   106.70800000
_cell_angle_gamma   90.00000000
_symmetry_Int_Tables_number   1
_chemical_formula_structural   LaH36C39SN6O11F3
_chemical_formula_sum   'La4 H144 C156 S4 N24 O44 F12'
_cell_volume   5064.63570964
_cell_formula_units_Z   4
loop_
 _symmetry_equiv_pos_site_id
 _symmetry_equiv_pos_as_xyz
  1  'x, y, z'
loop_
 _atom_site_type_symbol
 _atom_site_label
 _atom_site_symmetry_multiplicity
 _atom_site_fract_x
 _atom_site_fract_y
 _atom_site_fract_z
 _atom_site_occupancy
 _atom_site_charge
La  La1  1  0.49138000  0.87735000  0.03170000  1.0 1.8599172734
La  La2  1  0.49138000  0.62265000  0.53170000  1.0 1.8599172734
La  La3  1  0.50862000  0.12265000  0.96830000  1.0 1.8599172734
La  La4  1  0.50862000  0.37735000  0.46831000  1.0 1.8599172734
H  H1  1  0.92479000  0.88760000  0.04809000  1.0 0.1174897418
H  H2  1  0.92479000  0.61240000  0.54809000  1.0 0.1174897418
H  H3  1  0.07521000  0.11240000  0.95191000  1.0 0.1174897418
H  H4  1  0.07520000  0.38760000  0.45191000  1.0 0.1174897418
H  H5  1  0.07970000  0.79610000  0.04600000  1.0 0.1327385368
H  H6  1  0.07970000  0.70390000  0.54600000  1.0 0.1327385368
H  H7  1  0.92031000  0.20390000  0.95400000  1.0 0.1327385368
H  H8  1  0.92031000  0.29610000  0.45400000  1.0 0.1327385368
H  H9  1  0.81329000  0.66420000  0.95459000  1.0 0.1397195358
H  H10  1  0.81329000  0.83580000  0.45460000  1.0 0.1397195358
H  H11  1  0.18670000  0.33580000  0.04541000  1.0 0.1397195358
H  H12  1  0.18670000  0.16420000  0.54541000  1.0 0.1397195358
H  H13  1  0.66180000  0.76060000  0.95579000  1.0 0.1327385368
H  H14  1  0.66180000  0.73940000  0.45580000  1.0 0.1327385368
H  H15  1  0.33820000  0.23940000  0.04421000  1.0 0.1327385368
H  H16  1  0.33820000  0.26060000  0.54421000  1.0 0.1327385368
H  H17  1  0.30850000  0.54650000  0.08289000  1.0 0.1397195358
H  H18  1  0.30850000  0.95350000  0.58290000  1.0 0.1397195358
H  H19  1  0.69150000  0.45350000  0.91710000  1.0 0.1397195358
H  H20  1  0.69151000  0.04650000  0.41711000  1.0 0.1397195358
H  H21  1  0.45149000  0.45020000  0.07440000  1.0 0.1174897418
H  H22  1  0.45149000  0.04980000  0.57439000  1.0 0.1174897418
H  H23  1  0.54851000  0.54980000  0.92561000  1.0 0.1174897418
H  H24  1  0.54851000  0.95020000  0.42561000  1.0 0.1174897418
H  H25  1  0.28840000  0.43690000  0.93769000  1.0 0.1121720668
H  H26  1  0.28840000  0.06310000  0.43770000  1.0 0.1121720668
H  H27  1  0.71161000  0.56310000  0.06230000  1.0 0.1121720668
H  H28  1  0.71161000  0.93690000  0.56231000  1.0 0.1121720668
H  H29  1  0.15059000  0.53710000  0.94359000  1.0 0.1327385368
H  H30  1  0.15060000  0.96290000  0.44360000  1.0 0.1327385368
H  H31  1  0.84940000  0.46290000  0.05641000  1.0 0.1327385368
H  H32  1  0.84940000  0.03710000  0.55641000  1.0 0.1327385368
H  H33  1  0.56819000  0.70170000  0.02590000  1.0 0.3683424794
H  H34  1  0.56819000  0.79830000  0.52590000  1.0 0.3683424794
H  H35  1  0.43180000  0.29830000  0.97410000  1.0 0.3683424794
H  H36  1  0.43181000  0.20170000  0.47411000  1.0 0.3683424794
H  H37  1  0.66370000  0.73070000  0.08039000  1.0 0.3909493588
H  H38  1  0.66370000  0.76930000  0.58039000  1.0 0.3909493588
H  H39  1  0.33631000  0.26930000  0.91961000  1.0 0.3909493588
H  H40  1  0.33631000  0.23070000  0.41961000  1.0 0.3909493588
H  H41  1  0.14890000  0.83700000  0.94520000  1.0 0.1121720668
H  H42  1  0.14889000  0.66300000  0.44520000  1.0 0.1121720668
H  H43  1  0.85111000  0.16300000  0.05480000  1.0 0.1121720668
H  H44  1  0.85111000  0.33700000  0.55480000  1.0 0.1121720668
H  H45  1  0.98010000  0.78580000  0.88589000  1.0 0.1397195358
H  H46  1  0.98010000  0.71420000  0.38589000  1.0 0.1397195358
H  H47  1  0.01991000  0.21420000  0.11411000  1.0 0.1397195358
H  H48  1  0.01991000  0.28580000  0.61411000  1.0 0.1397195358
H  H49  1  0.21909000  0.62920000  0.85550000  1.0 0.1327385368
H  H50  1  0.21909000  0.87080000  0.35550000  1.0 0.1327385368
H  H51  1  0.78090000  0.37080000  0.14450000  1.0 0.1327385368
H  H52  1  0.78090000  0.12920000  0.64450000  1.0 0.1327385368
H  H53  1  0.38689000  0.68310000  0.91439000  1.0 0.1327385368
H  H54  1  0.38690000  0.81690000  0.41440000  1.0 0.1327385368
H  H55  1  0.61311000  0.31690000  0.08561000  1.0 0.1327385368
H  H56  1  0.61311000  0.18310000  0.58561000  1.0 0.1327385368
H  H57  1  0.90680000  0.71480000  0.81400000  1.0 0.1397195358
H  H58  1  0.90680000  0.78520000  0.31400000  1.0 0.1397195358
H  H59  1  0.09320000  0.28520000  0.18601000  1.0 0.1397195358
H  H60  1  0.09320000  0.21480000  0.68600000  1.0 0.1397195358
H  H61  1  0.93439000  0.62740000  0.83310000  1.0 0.1496658722
H  H62  1  0.93439000  0.87260000  0.33309000  1.0 0.1397195358
H  H63  1  0.06560000  0.37260000  0.16690000  1.0 0.1496658722
H  H64  1  0.06561000  0.12740000  0.66691000  1.0 0.1397195358
H  H65  1  0.05069000  0.69470000  0.77609000  1.0 0.1327385368
H  H66  1  0.05070000  0.80530000  0.27609000  1.0 0.1327385368
H  H67  1  0.94930000  0.30530000  0.22390000  1.0 0.1327385368
H  H68  1  0.94930000  0.19470000  0.72391000  1.0 0.1327385368
H  H69  1  0.04870000  0.60500000  0.79019000  1.0 0.1327385368
H  H70  1  0.04870000  0.89500000  0.29020000  1.0 0.1327385368
H  H71  1  0.95130000  0.39500000  0.20980000  1.0 0.1327385368
H  H72  1  0.95130000  0.10500000  0.70981000  1.0 0.1327385368
H  H73  1  0.74709000  0.61310000  0.76570000  1.0 0.1496658722
H  H74  1  0.74709000  0.88690000  0.26570000  1.0 0.1496658722
H  H75  1  0.25290000  0.38690000  0.23431000  1.0 0.1496658722
H  H76  1  0.25290000  0.11310000  0.73430000  1.0 0.1496658722
H  H77  1  0.58430000  0.60640000  0.69449000  1.0 0.1397195358
H  H78  1  0.58430000  0.89360000  0.19450000  1.0 0.1397195358
H  H79  1  0.41570000  0.39360000  0.30551000  1.0 0.1397195358
H  H80  1  0.41570000  0.10640000  0.80551000  1.0 0.1397195358
H  H81  1  0.83579000  0.62990000  0.62480000  1.0 0.1174897418
H  H82  1  0.83579000  0.87010000  0.12480000  1.0 0.1174897418
H  H83  1  0.16420000  0.37010000  0.37521000  1.0 0.1174897418
H  H84  1  0.16420000  0.12990000  0.87521000  1.0 0.1174897418
H  H85  1  0.99469000  0.64500000  0.69349000  1.0 0.1397195358
H  H86  1  0.99469000  0.85500000  0.19350000  1.0 0.1397195358
H  H87  1  0.00530000  0.35500000  0.30651000  1.0 0.1397195358
H  H88  1  0.00531000  0.14500000  0.80651000  1.0 0.1397195358
H  H89  1  0.23810000  0.95530000  0.03390000  1.0 0.3015432187
H  H90  1  0.23810000  0.54470000  0.53390000  1.0 0.3015432187
H  H91  1  0.76190000  0.04470000  0.96610000  1.0 0.3015432187
H  H92  1  0.76190000  0.45530000  0.46610000  1.0 0.3015432187
H  H93  1  0.27209000  0.01620000  0.00950000  1.0 0.318860998
H  H94  1  0.27209000  0.48380000  0.50950000  1.0 0.318860998
H  H95  1  0.72791000  0.98380000  0.99051000  1.0 0.318860998
H  H96  1  0.72791000  0.51620000  0.49051000  1.0 0.318860998
H  H97  1  0.25239000  0.84000000  0.13379000  1.0 0.1174897418
H  H98  1  0.25239000  0.66000000  0.63379000  1.0 0.1174897418
H  H99  1  0.74761000  0.16000000  0.86621000  1.0 0.1174897418
H  H100  1  0.74760000  0.34000000  0.36621000  1.0 0.1174897418
H  H101  1  0.26849000  0.77600000  0.20350000  1.0 0.1397195358
H  H102  1  0.26850000  0.72400000  0.70349000  1.0 0.1397195358
H  H103  1  0.73150000  0.22400000  0.79651000  1.0 0.1397195358
H  H104  1  0.73150000  0.27600000  0.29651000  1.0 0.1397195358
H  H105  1  0.50360000  0.62450000  0.17330000  1.0 0.1496658722
H  H106  1  0.50360000  0.87550000  0.67329000  1.0 0.1496658722
H  H107  1  0.49640000  0.37550000  0.82671000  1.0 0.1496658722
H  H108  1  0.49640000  0.12450000  0.32671000  1.0 0.1397195358
H  H109  1  0.48190000  0.68910000  0.10300000  1.0 0.1174897418
H  H110  1  0.48190000  0.81090000  0.60299000  1.0 0.1174897418
H  H111  1  0.51811000  0.31090000  0.89701000  1.0 0.1174897418
H  H112  1  0.51811000  0.18910000  0.39700000  1.0 0.1174897418
H  H113  1  0.49279000  0.64680000  0.26239000  1.0 0.1174897418
H  H114  1  0.49279000  0.85320000  0.76240000  1.0 0.1174897418
H  H115  1  0.50721000  0.35320000  0.73760000  1.0 0.1174897418
H  H116  1  0.50721000  0.14680000  0.23761000  1.0 0.1174897418
H  H117  1  0.38449000  0.58760000  0.23570000  1.0 0.1121720668
H  H118  1  0.38449000  0.91240000  0.73569000  1.0 0.1121720668
H  H119  1  0.61550000  0.41240000  0.76431000  1.0 0.1121720668
H  H120  1  0.61550000  0.08760000  0.26431000  1.0 0.1121720668
H  H121  1  0.33439000  0.72600000  0.27830000  1.0 0.1174897418
H  H122  1  0.33439000  0.77400000  0.77829000  1.0 0.1174897418
H  H123  1  0.66561000  0.27400000  0.72171000  1.0 0.1174897418
H  H124  1  0.66561000  0.22600000  0.22171000  1.0 0.1174897418
H  H125  1  0.23509000  0.65820000  0.25670000  1.0 0.1121720668
H  H126  1  0.23509000  0.84180000  0.75670000  1.0 0.1121720668
H  H127  1  0.76490000  0.34180000  0.74330000  1.0 0.1121720668
H  H128  1  0.76490000  0.15820000  0.24330000  1.0 0.1121720668
H  H129  1  0.17909000  0.59500000  0.32079000  1.0 0.1397195358
H  H130  1  0.17910000  0.90500000  0.82080000  1.0 0.1397195358
H  H131  1  0.82090000  0.40500000  0.67920000  1.0 0.1397195358
H  H132  1  0.82090000  0.09500000  0.17921000  1.0 0.1397195358
H  H133  1  0.23130000  0.54130000  0.39689000  1.0 0.1174897418
H  H134  1  0.23130000  0.95870000  0.89689000  1.0 0.1174897418
H  H135  1  0.76871000  0.45870000  0.60311000  1.0 0.1174897418
H  H136  1  0.76870000  0.04130000  0.10311000  1.0 0.1174897418
H  H137  1  0.59859000  0.58440000  0.41310000  1.0 0.1174897418
H  H138  1  0.59859000  0.91560000  0.91309000  1.0 0.1174897418
H  H139  1  0.40141000  0.41560000  0.58691000  1.0 0.1174897418
H  H140  1  0.40141000  0.08440000  0.08690000  1.0 0.1174897418
H  H141  1  0.54780000  0.64710000  0.34020000  1.0 0.1496658722
H  H142  1  0.54780000  0.85290000  0.84020000  1.0 0.1496658722
H  H143  1  0.45220000  0.35290000  0.65980000  1.0 0.1496658722
H  H144  1  0.45220000  0.14710000  0.15981000  1.0 0.1496658722
C  C1  1  0.90239000  0.84213000  0.02919000  1.0 -0.0682325708
C  C2  1  0.90239000  0.65787000  0.52919000  1.0 -0.0682325708
C  C3  1  0.09760000  0.15787000  0.97081000  1.0 -0.0682325708
C  C4  1  0.09760000  0.34213000  0.47080000  1.0 -0.0682325708
C  C5  1  0.99495000  0.78740000  0.02786000  1.0 -0.2263844482
C  C6  1  0.99495000  0.71260000  0.52785000  1.0 -0.2263844482
C  C7  1  0.00504000  0.21260000  0.97215000  1.0 -0.2263844482
C  C8  1  0.00505000  0.28740000  0.47214000  1.0 -0.2263844482
C  C9  1  0.96546000  0.71980000  0.00026000  1.0 0.0736705117
C  C10  1  0.96546000  0.78020000  0.50026000  1.0 0.0736705117
C  C11  1  0.03454000  0.28020000  0.99974000  1.0 0.0736705117
C  C12  1  0.03453000  0.21980000  0.49973000  1.0 0.0736705117
C  C13  1  0.83747000  0.70966000  0.97347000  1.0 -0.2018858281
C  C14  1  0.83747000  0.79034000  0.47347000  1.0 -0.2018858281
C  C15  1  0.16254000  0.29034000  0.02653000  1.0 -0.2018858281
C  C16  1  0.16254000  0.20966000  0.52653000  1.0 -0.2018858281
C  C17  1  0.74640000  0.76643000  0.97471000  1.0 -0.0380465159
C  C18  1  0.74640000  0.73357000  0.47470000  1.0 -0.0380465159
C  C19  1  0.25360000  0.23357000  0.02530000  1.0 -0.0380465159
C  C20  1  0.25359000  0.26643000  0.52529000  1.0 -0.0380465159
C  C21  1  0.08979000  0.67040000  0.00350000  1.0 0.03163637
C  C22  1  0.08980000  0.82960000  0.50350000  1.0 0.03163637
C  C23  1  0.91021000  0.32960000  0.99651000  1.0 0.03163637
C  C24  1  0.91021000  0.17040000  0.49650000  1.0 0.03163637
C  C25  1  0.15769000  0.64310000  0.02540000  1.0 0.0200618406
C  C26  1  0.15769000  0.85690000  0.52539000  1.0 0.0200618406
C  C27  1  0.84230000  0.35690000  0.97461000  1.0 0.0200618406
C  C28  1  0.84230000  0.14310000  0.47460000  1.0 0.0200618406
C  C29  1  0.21419000  0.55150000  0.01370000  1.0 0.0625492536
C  C30  1  0.21419000  0.94850000  0.51370000  1.0 0.0625492536
C  C31  1  0.78580000  0.44850000  0.98630000  1.0 0.0625492536
C  C32  1  0.78580000  0.05150000  0.48630000  1.0 0.0625492536
C  C33  1  0.30410000  0.52600000  0.05289000  1.0 -0.1917486858
C  C34  1  0.30410000  0.97400000  0.55290000  1.0 -0.1917486858
C  C35  1  0.69591000  0.47400000  0.94711000  1.0 -0.1917486858
C  C36  1  0.69590000  0.02600000  0.44710000  1.0 -0.1917486858
C  C37  1  0.38940000  0.46840000  0.04730000  1.0 -0.0593394845
C  C38  1  0.38940000  0.03160000  0.54731000  1.0 -0.0593394845
C  C39  1  0.61059000  0.53160000  0.95269000  1.0 -0.0593394845
C  C40  1  0.61059000  0.96840000  0.45270000  1.0 -0.0593394845
C  C41  1  0.29551000  0.46060000  0.96711000  1.0 -0.0682325708
C  C42  1  0.29551000  0.03940000  0.46710000  1.0 -0.0682325708
C  C43  1  0.70449000  0.53940000  0.03290000  1.0 -0.0682325708
C  C44  1  0.70449000  0.96060000  0.53290000  1.0 -0.0682325708
C  C45  1  0.21152000  0.51900000  0.97103000  1.0 -0.2101012796
C  C46  1  0.21152000  0.98100000  0.47103000  1.0 -0.2101012796
C  C47  1  0.78847000  0.48100000  0.02898000  1.0 -0.2101012796
C  C48  1  0.78847000  0.01900000  0.52897000  1.0 -0.2101012796
C  C49  1  0.16309000  0.79492000  0.92649000  1.0 -0.0682325708
C  C50  1  0.16309000  0.70508000  0.42650000  1.0 -0.0682325708
C  C51  1  0.83690000  0.20508000  0.07351000  1.0 -0.0682325708
C  C52  1  0.83690000  0.29492000  0.57351000  1.0 -0.0682325708
C  C53  1  0.06262000  0.76497000  0.89102000  1.0 -0.2101012796
C  C54  1  0.06262000  0.73503000  0.39102000  1.0 -0.2101012796
C  C55  1  0.93739000  0.23503000  0.10898000  1.0 -0.2101012796
C  C56  1  0.93739000  0.26497000  0.60898000  1.0 -0.2101012796
C  C57  1  0.08431000  0.70330000  0.86260000  1.0 0.1327385368
C  C58  1  0.08431000  0.79670000  0.36261000  1.0 0.1327385368
C  C59  1  0.91569000  0.29670000  0.13739000  1.0 0.1327385368
C  C60  1  0.91569000  0.20330000  0.63740000  1.0 0.1327385368
C  C61  1  0.20383000  0.67270000  0.87294000  1.0 -0.2101012796
C  C62  1  0.20383000  0.82730000  0.37294000  1.0 -0.2101012796
C  C63  1  0.79617000  0.32730000  0.12707000  1.0 -0.2101012796
C  C64  1  0.79617000  0.17270000  0.62706000  1.0 -0.2101012796
C  C65  1  0.30420000  0.70401000  0.90860000  1.0 -0.0306233627
C  C66  1  0.30421000  0.79599000  0.40860000  1.0 -0.0306233627
C  C67  1  0.69580000  0.29599000  0.09140000  1.0 -0.0306233627
C  C68  1  0.69580000  0.20401000  0.59140000  1.0 -0.0306233627
C  C69  1  0.97186000  0.67320000  0.82166000  1.0 -0.2018858281
C  C70  1  0.97186000  0.82680000  0.32166000  1.0 -0.2018858281
C  C71  1  0.02814000  0.32680000  0.17835000  1.0 -0.2018858281
C  C72  1  0.02815000  0.17320000  0.67834000  1.0 -0.2018858281
C  C73  1  0.99655000  0.65310000  0.78324000  1.0 -0.2018858281
C  C74  1  0.99655000  0.84690000  0.28325000  1.0 -0.2018858281
C  C75  1  0.00345000  0.34690000  0.21676000  1.0 -0.2018858281
C  C76  1  0.00346000  0.15310000  0.71676000  1.0 -0.2018858281
C  C77  1  0.88819000  0.63700000  0.73689000  1.0 0.1397195358
C  C78  1  0.88819000  0.86300000  0.23689000  1.0 0.1397195358
C  C79  1  0.11181000  0.36300000  0.26310000  1.0 0.1397195358
C  C80  1  0.11180000  0.13700000  0.76311000  1.0 0.1397195358
C  C81  1  0.76597000  0.62040000  0.73688000  1.0 -0.2018858281
C  C82  1  0.76597000  0.87960000  0.23688000  1.0 -0.2018858281
C  C83  1  0.23402000  0.37960000  0.26312000  1.0 -0.2018858281
C  C84  1  0.23403000  0.12040000  0.76313000  1.0 -0.2018858281
C  C85  1  0.66919000  0.61400000  0.69429000  1.0 -0.0593394845
C  C86  1  0.66919000  0.88600000  0.19429000  1.0 -0.0593394845
C  C87  1  0.33082000  0.38600000  0.30572000  1.0 -0.0593394845
C  C88  1  0.33082000  0.11400000  0.80571000  1.0 -0.0593394845
C  C89  1  0.81600000  0.62890000  0.65370000  1.0 -0.0848994054
C  C90  1  0.81600000  0.87110000  0.15369000  1.0 -0.0848994054
C  C91  1  0.18401000  0.37110000  0.34630000  1.0 -0.0848994054
C  C92  1  0.18400000  0.12890000  0.84631000  1.0 -0.0848994054
C  C93  1  0.91053000  0.63790000  0.69473000  1.0 -0.2101012796
C  C94  1  0.91053000  0.86210000  0.19473000  1.0 -0.2101012796
C  C95  1  0.08947000  0.36210000  0.30527000  1.0 -0.2101012796
C  C96  1  0.08946000  0.13790000  0.80527000  1.0 -0.2101012796
C  C97  1  0.30440000  0.79480000  0.14139000  1.0 -0.0593394845
C  C98  1  0.30440000  0.70520000  0.64140000  1.0 -0.0593394845
C  C99  1  0.69561000  0.20520000  0.85860000  1.0 -0.0593394845
C  C100  1  0.69561000  0.29480000  0.35861000  1.0 -0.0593394845
C  C101  1  0.31407000  0.75610000  0.18338000  1.0 -0.2221678393
C  C102  1  0.31407000  0.74390000  0.68337000  1.0 -0.2221678393
C  C103  1  0.68593000  0.24390000  0.81663000  1.0 -0.2221678393
C  C104  1  0.68593000  0.25610000  0.31662000  1.0 -0.2221678393
C  C105  1  0.38767000  0.68956000  0.19698000  1.0 0.1575064395
C  C106  1  0.38767000  0.81044000  0.69698000  1.0 0.1575064395
C  C107  1  0.61233000  0.31044000  0.80303000  1.0 0.1575064395
C  C108  1  0.61233000  0.18956000  0.30302000  1.0 0.1575064395
C  C109  1  0.44897000  0.66860000  0.16606000  1.0 -0.2221678393
C  C110  1  0.44897000  0.83140000  0.66607000  1.0 -0.2221678393
C  C111  1  0.55104000  0.33140000  0.83394000  1.0 -0.2221678393
C  C112  1  0.55104000  0.16860000  0.33393000  1.0 -0.2221678393
C  C113  1  0.43730000  0.70780000  0.12370000  1.0 -0.0593394845
C  C114  1  0.43731000  0.79220000  0.62371000  1.0 -0.0593394845
C  C115  1  0.56269000  0.29220000  0.87630000  1.0 -0.0593394845
C  C116  1  0.56269000  0.20780000  0.37629000  1.0 -0.0593394845
C  C117  1  0.40306000  0.64350000  0.24366000  1.0 -0.2221678393
C  C118  1  0.40307000  0.85650000  0.74367000  1.0 -0.2221678393
C  C119  1  0.59693000  0.35650000  0.75633000  1.0 -0.2221678393
C  C120  1  0.59693000  0.14350000  0.25633000  1.0 -0.2221678393
C  C121  1  0.32483000  0.66864000  0.27353000  1.0 -0.246167133
C  C122  1  0.32483000  0.83136000  0.77353000  1.0 -0.246167133
C  C123  1  0.67516000  0.33136000  0.72647000  1.0 -0.246167133
C  C124  1  0.67516000  0.16864000  0.22646000  1.0 -0.246167133
C  C125  1  0.35685000  0.62813000  0.32225000  1.0 0.1575064395
C  C126  1  0.35685000  0.87187000  0.82225000  1.0 0.1575064395
C  C127  1  0.64316000  0.37187000  0.67775000  1.0 0.1575064395
C  C128  1  0.64316000  0.12813000  0.17775000  1.0 0.1575064395
C  C129  1  0.26449000  0.59523000  0.33969000  1.0 -0.2101012796
C  C130  1  0.26449000  0.90477000  0.83969000  1.0 -0.2101012796
C  C131  1  0.73552000  0.40477000  0.66031000  1.0 -0.2101012796
C  C132  1  0.73552000  0.09523000  0.16032000  1.0 -0.2101012796
C  C133  1  0.29561000  0.56211000  0.38510000  1.0 -0.0481660394
C  C134  1  0.29561000  0.93789000  0.88511000  1.0 -0.0481660394
C  C135  1  0.70439000  0.43789000  0.61489000  1.0 -0.0481660394
C  C136  1  0.70439000  0.06211000  0.11490000  1.0 -0.0481660394
C  C137  1  0.51291000  0.58886000  0.39500000  1.0 -0.0481660394
C  C138  1  0.51291000  0.91114000  0.89501000  1.0 -0.0481660394
C  C139  1  0.48710000  0.41114000  0.60499000  1.0 -0.0481660394
C  C140  1  0.48710000  0.08886000  0.10500000  1.0 -0.0481660394
C  C141  1  0.48252000  0.62471000  0.35092000  1.0 -0.1633483715
C  C142  1  0.48252000  0.87529000  0.85093000  1.0 -0.1633483715
C  C143  1  0.51748000  0.37529000  0.64907000  1.0 -0.1633483715
C  C144  1  0.51748000  0.12471000  0.14908000  1.0 -0.1633483715
C  C145  1  0.03689000  0.62560000  0.98420000  1.0 0.0200618406
C  C146  1  0.03690000  0.87440000  0.48419000  1.0 0.0200618406
C  C147  1  0.96310000  0.37440000  0.01580000  1.0 0.0200618406
C  C148  1  0.96310000  0.12560000  0.51580000  1.0 0.0200618406
C  C149  1  0.06389000  0.59560000  0.01750000  1.0 -0.0481660394
C  C150  1  0.06389000  0.90440000  0.51750000  1.0 -0.0481660394
C  C151  1  0.93610000  0.40440000  0.98250000  1.0 -0.0481660394
C  C152  1  0.93611000  0.09560000  0.48251000  1.0 -0.0481660394
C  C153  1  0.52916000  0.41580000  0.19395000  1.0 0.4150987171
C  C154  1  0.52916000  0.08420000  0.69395000  1.0 0.4150987171
C  C155  1  0.47084000  0.58420000  0.80605000  1.0 0.4150987171
C  C156  1  0.47085000  0.91580000  0.30605000  1.0 0.4150987171
S  S1  1  0.41159000  0.35061000  0.16436000  1.0 0.9836017691
S  S2  1  0.41159000  0.14939000  0.66436000  1.0 0.9836017691
S  S3  1  0.58840000  0.64939000  0.83565000  1.0 0.9836017691
S  S4  1  0.58840000  0.85061000  0.33565000  1.0 0.9836017691
N  N1  1  0.78092000  0.83096000  0.00373000  1.0 0.2824668291
N  N2  1  0.78092000  0.66904000  0.50372000  1.0 0.2824668291
N  N3  1  0.21908000  0.16904000  0.99628000  1.0 0.2824668291
N  N4  1  0.21907000  0.33096000  0.49628000  1.0 0.2824668291
N  N5  1  0.38757000  0.43767000  0.00558000  1.0 0.3072360359
N  N6  1  0.38757000  0.06233000  0.50557000  1.0 0.3072360359
N  N7  1  0.61242000  0.56233000  0.99443000  1.0 0.3072360359
N  N8  1  0.61242000  0.93767000  0.49443000  1.0 0.3072360359
N  N9  1  0.28170000  0.76445000  0.93471000  1.0 0.2824668291
N  N10  1  0.28170000  0.73555000  0.43471000  1.0 0.2824668291
N  N11  1  0.71830000  0.23555000  0.06530000  1.0 0.2824668291
N  N12  1  0.71830000  0.26445000  0.56529000  1.0 0.2824668291
N  N13  1  0.69694000  0.61871000  0.65385000  1.0 0.2824668291
N  N14  1  0.69694000  0.88129000  0.15385000  1.0 0.2824668291
N  N15  1  0.30306000  0.38129000  0.34615000  1.0 0.2824668291
N  N16  1  0.30306000  0.11871000  0.84616000  1.0 0.2824668291
N  N17  1  0.36432000  0.77095000  0.11232000  1.0 0.2690374494
N  N18  1  0.36433000  0.72905000  0.61233000  1.0 0.2690374494
N  N19  1  0.63567000  0.22905000  0.88767000  1.0 0.2690374494
N  N20  1  0.63567000  0.27095000  0.38767000  1.0 0.2690374494
N  N21  1  0.41974000  0.56032000  0.41200000  1.0 0.2690374494
N  N22  1  0.41974000  0.93968000  0.91200000  1.0 0.2690374494
N  N23  1  0.58027000  0.43968000  0.58800000  1.0 0.2690374494
N  N24  1  0.58027000  0.06032000  0.08800000  1.0 0.2690374494
O  O1  1  0.69222000  0.88538000  0.00539000  1.0 -0.5906377432
O  O2  1  0.69222000  0.61462000  0.50540000  1.0 -0.5906377432
O  O3  1  0.30777000  0.11462000  0.99460000  1.0 -0.5906377432
O  O4  1  0.30778000  0.38538000  0.49461000  1.0 -0.5906377432
O  O5  1  0.47147000  0.38367000  0.00417000  1.0 -0.4407844565
O  O6  1  0.47147000  0.11633000  0.50418000  1.0 -0.4407844565
O  O7  1  0.52852000  0.61633000  0.99582000  1.0 -0.4407844565
O  O8  1  0.52853000  0.88367000  0.49583000  1.0 -0.4407844565
O  O9  1  0.60303000  0.74231000  0.05076000  1.0 -0.8334421016
O  O10  1  0.60303000  0.75769000  0.55075000  1.0 -0.8334421016
O  O11  1  0.39696000  0.25769000  0.94925000  1.0 -0.8334421016
O  O12  1  0.39697000  0.24231000  0.44925000  1.0 -0.8334421016
O  O13  1  0.38059000  0.79637000  0.96776000  1.0 -0.5665072895
O  O14  1  0.38059000  0.70363000  0.46775000  1.0 -0.5665072895
O  O15  1  0.61940000  0.20363000  0.03225000  1.0 -0.5665072895
O  O16  1  0.61940000  0.29637000  0.53224000  1.0 -0.5665072895
O  O17  1  0.60511000  0.60828000  0.61330000  1.0 -0.5906377432
O  O18  1  0.60511000  0.89172000  0.11331000  1.0 -0.5906377432
O  O19  1  0.39489000  0.39172000  0.38670000  1.0 -0.5906377432
O  O20  1  0.39489000  0.10828000  0.88670000  1.0 -0.5906377432
O  O21  1  0.27874000  0.95300000  0.01871000  1.0 -0.6885953344
O  O22  1  0.27874000  0.54700000  0.51870000  1.0 -0.6885953344
O  O23  1  0.72127000  0.04700000  0.98130000  1.0 -0.6885953344
O  O24  1  0.72127000  0.45300000  0.48129000  1.0 -0.6885953344
O  O25  1  0.34740000  0.80771000  0.07050000  1.0 -0.5807471521
O  O26  1  0.34740000  0.69229000  0.57051000  1.0 -0.5807471521
O  O27  1  0.65260000  0.19229000  0.92949000  1.0 -0.5807471521
O  O28  1  0.65260000  0.30771000  0.42950000  1.0 -0.5807471521
O  O29  1  0.44970000  0.52713000  0.45580000  1.0 -0.6269730277
O  O30  1  0.44970000  0.97287000  0.95579000  1.0 -0.6269730277
O  O31  1  0.55029000  0.47287000  0.54421000  1.0 -0.6269730277
O  O32  1  0.55029000  0.02713000  0.04421000  1.0 -0.6269730277
O  O33  1  0.30461000  0.40500000  0.15021000  1.0 -0.5906377432
O  O34  1  0.45611000  0.32150000  0.12662000  1.0 -0.5807471521
O  O35  1  0.39919000  0.29180000  0.19678000  1.0 -0.5549809433
O  O36  1  0.30461000  0.09500000  0.65021000  1.0 -0.5906377432
O  O37  1  0.45611000  0.17850000  0.62662000  1.0 -0.5807471521
O  O38  1  0.39919000  0.20820000  0.69678000  1.0 -0.5569803215
O  O39  1  0.69539000  0.59500000  0.84979000  1.0 -0.5906377432
O  O40  1  0.54388000  0.67850000  0.87338000  1.0 -0.5807471521
O  O41  1  0.60081000  0.70820000  0.80322000  1.0 -0.5569803215
O  O42  1  0.69539000  0.90500000  0.34980000  1.0 -0.5906377432
O  O43  1  0.54388000  0.82150000  0.37339000  1.0 -0.5807471521
O  O44  1  0.60081000  0.79180000  0.30322000  1.0 -0.5569803215
F  F1  1  0.64738000  0.38058000  0.21168000  1.0 -0.1917486858
F  F2  1  0.50503000  0.44829000  0.23433000  1.0 -0.1917486858
F  F3  1  0.54911000  0.47435000  0.17111000  1.0 -0.1486892163
F  F4  1  0.64738000  0.11942000  0.71167000  1.0 -0.1917486858
F  F5  1  0.50502000  0.05171000  0.73433000  1.0 -0.1917486858
F  F6  1  0.54911000  0.02565000  0.67112000  1.0 -0.1486892163
F  F7  1  0.35263000  0.61942000  0.78833000  1.0 -0.1917486858
F  F8  1  0.49498000  0.55171000  0.76568000  1.0 -0.1917486858
F  F9  1  0.45088000  0.52565000  0.82888000  1.0 -0.1486892163
F  F10  1  0.35263000  0.88058000  0.28832000  1.0 -0.1917486858
F  F11  1  0.49497000  0.94829000  0.26567000  1.0 -0.1917486858
F  F12  1  0.45089000  0.97435000  0.32889000  1.0 -0.1486892163
