# DDEC6 charges by PACMAN v1.1 (https://github.com/mtap-research/PACMAN-charge/)
data_AXINAX_ASR_pacman
_symmetry_space_group_name_H-M   'P 1'
_cell_length_a   25.57110000
_cell_length_b   25.57110000
_cell_length_c   27.68200000
_cell_angle_alpha   68.83360000
_cell_angle_beta   111.16600000
_cell_angle_gamma   80.33810000
_symmetry_Int_Tables_number   1
_chemical_formula_structural   Co11H114(C19O5)10
_chemical_formula_sum   'Co11 H114 C190 O50'
_cell_volume   14786.42605819
_cell_formula_units_Z   1
loop_
 _symmetry_equiv_pos_site_id
 _symmetry_equiv_pos_as_xyz
  1  'x, y, z'
loop_
 _atom_site_type_symbol
 _atom_site_label
 _atom_site_symmetry_multiplicity
 _atom_site_fract_x
 _atom_site_fract_y
 _atom_site_fract_z
 _atom_site_occupancy
 _atom_site_charge
Co  Co1  1  0.50000000  0.50000000  0.50000000  1.0 0.7542371357
Co  Co2  1  0.38478000  0.61522000  0.47762000  1.0 0.7721460665
Co  Co3  1  0.61522000  0.38478000  0.52238000  1.0 0.7721460665
Co  Co4  1  0.13421000  0.40693000  0.96652000  1.0 0.8281929846
Co  Co5  1  0.40693000  0.13421000  0.03348000  1.0 0.8281929846
Co  Co6  1  0.86579000  0.59307000  0.03348000  1.0 0.8281929846
Co  Co7  1  0.59307000  0.86579000  0.96652000  1.0 0.8281929846
Co  Co8  1  0.08801000  0.53173000  0.84403000  1.0 1.0101489628
Co  Co9  1  0.53173000  0.08801000  0.15597000  1.0 1.0101489628
Co  Co10  1  0.91199000  0.46827000  0.15597000  1.0 1.0101489628
Co  Co11  1  0.46827000  0.91199000  0.84403000  1.0 1.0101489628
H  H1  1  0.49890000  0.04150000  0.96250000  1.0 0.125690709
H  H2  1  0.04150000  0.49890000  0.03750000  1.0 0.125690709
H  H3  1  0.50110000  0.95850000  0.03750000  1.0 0.125690709
H  H4  1  0.95850000  0.50110000  0.96250000  1.0 0.125690709
H  H5  1  0.44640000  0.14280000  0.92020000  1.0 0.1201480418
H  H6  1  0.14280000  0.44640000  0.07980000  1.0 0.1201480418
H  H7  1  0.55360000  0.85720000  0.07980000  1.0 0.1201480418
H  H8  1  0.85720000  0.55360000  0.92020000  1.0 0.1201480418
H  H9  1  0.41680000  0.15860000  0.76240000  1.0 0.1090824785
H  H10  1  0.15860000  0.41680000  0.23760000  1.0 0.1090824785
H  H11  1  0.58320000  0.84140000  0.23760000  1.0 0.1090824785
H  H12  1  0.84140000  0.58320000  0.76240000  1.0 0.1090824785
H  H13  1  0.46660000  0.05660000  0.80560000  1.0 0.1201480418
H  H14  1  0.05660000  0.46660000  0.19440000  1.0 0.1201480418
H  H15  1  0.53340000  0.94340000  0.19440000  1.0 0.1201480418
H  H16  1  0.94340000  0.53340000  0.80560000  1.0 0.1201480418
H  H17  1  0.43190000  0.25050000  0.75570000  1.0 0.0997052688
H  H18  1  0.25050000  0.43190000  0.24430000  1.0 0.0997052688
H  H19  1  0.56810000  0.74950000  0.24430000  1.0 0.0997052688
H  H20  1  0.74950000  0.56810000  0.75570000  1.0 0.0997052688
H  H21  1  0.33090000  0.39110000  0.75190000  1.0 0.1090824785
H  H22  1  0.39110000  0.33090000  0.24810000  1.0 0.1090824785
H  H23  1  0.66910000  0.60890000  0.24810000  1.0 0.1090824785
H  H24  1  0.60890000  0.66910000  0.75190000  1.0 0.1090824785
H  H25  1  0.35730000  0.22470000  0.86310000  1.0 0.1201480418
H  H26  1  0.22470000  0.35730000  0.13690000  1.0 0.1201480418
H  H27  1  0.64270000  0.77530000  0.13690000  1.0 0.1201480418
H  H28  1  0.77530000  0.64270000  0.86310000  1.0 0.1201480418
H  H29  1  0.31890000  0.57890000  0.16250000  1.0 0.1090824785
H  H30  1  0.57890000  0.31890000  0.83750000  1.0 0.1090824785
H  H31  1  0.68110000  0.42110000  0.83750000  1.0 0.1090824785
H  H32  1  0.42110000  0.68110000  0.16250000  1.0 0.1090824785
H  H33  1  0.35270000  0.64730000  0.02650000  1.0 0.1090824785
H  H34  1  0.64730000  0.35270000  0.97350000  1.0 0.1090824785
H  H35  1  0.34390000  0.27390000  0.91610000  1.0 0.1201480418
H  H36  1  0.27390000  0.34390000  0.08390000  1.0 0.1201480418
H  H37  1  0.65610000  0.72610000  0.08390000  1.0 0.1201480418
H  H38  1  0.72610000  0.65610000  0.91610000  1.0 0.1201480418
H  H39  1  0.25440000  0.46200000  0.08480000  1.0 0.1090824785
H  H40  1  0.46200000  0.25440000  0.91520000  1.0 0.1090824785
H  H41  1  0.74560000  0.53800000  0.91520000  1.0 0.1090824785
H  H42  1  0.53800000  0.74560000  0.08480000  1.0 0.1090824785
H  H43  1  0.31120000  0.50440000  0.12940000  1.0 0.1090824785
H  H44  1  0.50440000  0.31120000  0.87060000  1.0 0.1090824785
H  H45  1  0.68880000  0.49560000  0.87060000  1.0 0.1090824785
H  H46  1  0.49560000  0.68880000  0.12940000  1.0 0.1090824785
H  H47  1  0.19470000  0.60650000  0.93170000  1.0 0.1201480418
H  H48  1  0.60650000  0.19470000  0.06830000  1.0 0.125690709
H  H49  1  0.80530000  0.39350000  0.06830000  1.0 0.125690709
H  H50  1  0.39350000  0.80530000  0.93170000  1.0 0.1201480418
H  H51  1  0.47770000  0.32050000  0.72500000  1.0 0.0997052688
H  H52  1  0.32050000  0.47770000  0.27500000  1.0 0.0997052688
H  H53  1  0.52230000  0.67950000  0.27500000  1.0 0.0997052688
H  H54  1  0.67950000  0.52230000  0.72500000  1.0 0.0997052688
H  H55  1  0.48800000  0.38080000  0.64540000  1.0 0.0713117401
H  H56  1  0.38080000  0.48800000  0.35460000  1.0 0.0713117401
H  H57  1  0.51200000  0.61920000  0.35460000  1.0 0.0713117401
H  H58  1  0.61920000  0.51200000  0.64540000  1.0 0.0713117401
H  H59  1  0.30930000  0.43210000  0.64950000  1.0 0.1090824785
H  H60  1  0.43210000  0.30930000  0.35050000  1.0 0.1090824785
H  H61  1  0.69070000  0.56790000  0.35050000  1.0 0.1090824785
H  H62  1  0.56790000  0.69070000  0.64950000  1.0 0.1090824785
H  H63  1  0.32520000  0.49840000  0.57860000  1.0 0.1090824785
H  H64  1  0.49840000  0.32520000  0.42140000  1.0 0.1090824785
H  H65  1  0.67480000  0.50160000  0.42140000  1.0 0.1090824785
H  H66  1  0.50160000  0.67480000  0.57860000  1.0 0.1090824785
H  H67  1  0.36640000  0.71720000  0.20600000  1.0 0.0896664237
H  H68  1  0.71720000  0.36640000  0.79400000  1.0 0.0896664237
H  H69  1  0.63360000  0.28280000  0.79400000  1.0 0.0896664237
H  H70  1  0.28280000  0.63360000  0.20600000  1.0 0.0896664237
H  H71  1  0.37310000  0.71230000  0.29340000  1.0 0.0997052688
H  H72  1  0.71230000  0.37310000  0.70660000  1.0 0.0997052688
H  H73  1  0.62690000  0.28770000  0.70660000  1.0 0.0997052688
H  H74  1  0.28770000  0.62690000  0.29340000  1.0 0.0997052688
H  H75  1  0.40870000  0.53510000  0.35870000  1.0 0.0809593777
H  H76  1  0.53510000  0.40870000  0.64130000  1.0 0.0809593777
H  H77  1  0.59130000  0.46490000  0.64130000  1.0 0.0809593777
H  H78  1  0.46490000  0.59130000  0.35870000  1.0 0.0809593777
H  H79  1  0.40200000  0.54000000  0.27120000  1.0 0.0997052688
H  H80  1  0.54000000  0.40200000  0.72880000  1.0 0.0997052688
H  H81  1  0.59800000  0.46000000  0.72880000  1.0 0.0997052688
H  H82  1  0.46000000  0.59800000  0.27120000  1.0 0.0997052688
H  H83  1  0.28260000  0.31240000  0.94740000  1.0 0.1201480418
H  H84  1  0.31240000  0.28260000  0.05260000  1.0 0.1201480418
H  H85  1  0.71740000  0.68760000  0.05260000  1.0 0.1201480418
H  H86  1  0.68760000  0.71740000  0.94740000  1.0 0.1201480418
H  H87  1  0.24000000  0.40720000  0.75450000  1.0 0.1090824785
H  H88  1  0.40720000  0.24000000  0.24550000  1.0 0.1090824785
H  H89  1  0.76000000  0.59280000  0.24550000  1.0 0.1090824785
H  H90  1  0.59280000  0.76000000  0.75450000  1.0 0.1090824785
H  H91  1  0.25680000  0.64720000  0.97730000  1.0 0.1090824785
H  H92  1  0.64720000  0.25680000  0.02270000  1.0 0.1090824785
H  H93  1  0.74320000  0.35280000  0.02270000  1.0 0.1090824785
H  H94  1  0.35280000  0.74320000  0.97730000  1.0 0.1090824785
H  H95  1  0.18260000  0.44760000  0.79060000  1.0 0.1201480418
H  H96  1  0.44760000  0.18260000  0.20940000  1.0 0.1201480418
H  H97  1  0.81740000  0.55240000  0.20940000  1.0 0.1201480418
H  H98  1  0.55240000  0.81740000  0.79060000  1.0 0.1201480418
H  H99  1  0.68660000  0.58400000  0.66980000  1.0 0.1090824785
H  H100  1  0.58400000  0.68660000  0.33020000  1.0 0.1090824785
H  H101  1  0.31340000  0.41600000  0.33020000  1.0 0.1090824785
H  H102  1  0.41600000  0.31340000  0.66980000  1.0 0.1090824785
H  H103  1  0.62480000  0.56680000  0.60090000  1.0 0.0997052688
H  H104  1  0.56680000  0.62480000  0.39910000  1.0 0.0997052688
H  H105  1  0.37520000  0.43320000  0.39910000  1.0 0.0997052688
H  H106  1  0.43320000  0.37520000  0.60090000  1.0 0.0997052688
H  H107  1  0.56270000  0.62170000  0.71750000  1.0 0.1090824785
H  H108  1  0.62170000  0.56270000  0.28250000  1.0 0.1090824785
H  H109  1  0.43730000  0.37830000  0.28250000  1.0 0.1090824785
H  H110  1  0.37830000  0.43730000  0.71750000  1.0 0.1090824785
H  H111  1  0.49270000  0.61850000  0.63510000  1.0 0.0997052688
H  H112  1  0.61850000  0.49270000  0.36490000  1.0 0.0997052688
H  H113  1  0.50730000  0.38150000  0.36490000  1.0 0.0997052688
H  H114  1  0.38150000  0.50730000  0.63510000  1.0 0.0997052688
C  C1  1  0.33720000  0.31210000  0.81123000  1.0 0.0896664237
C  C2  1  0.31210000  0.33720000  0.18877000  1.0 0.0896664237
C  C3  1  0.66280000  0.68790000  0.18877000  1.0 0.0896664237
C  C4  1  0.68790000  0.66280000  0.81123000  1.0 0.0896664237
C  C5  1  0.52489000  0.96857000  0.92260000  1.0 0.5755503977
C  C6  1  0.96857000  0.52489000  0.07740000  1.0 0.5755503977
C  C7  1  0.47511000  0.03143000  0.07740000  1.0 0.5755503977
C  C8  1  0.03143000  0.47511000  0.92260000  1.0 0.5755503977
C  C9  1  0.48707000  0.03939000  0.88840000  1.0 -0.0217545115
C  C10  1  0.03939000  0.48707000  0.11160000  1.0 -0.0217545115
C  C11  1  0.51293000  0.96061000  0.11160000  1.0 -0.0217545115
C  C12  1  0.96061000  0.51293000  0.88840000  1.0 -0.0217545115
C  C13  1  0.48203000  0.06461000  0.92230000  1.0 -0.0799540129
C  C14  1  0.06461000  0.48203000  0.07770000  1.0 -0.0799540129
C  C15  1  0.51797000  0.93539000  0.07770000  1.0 -0.0799540129
C  C16  1  0.93539000  0.51797000  0.92230000  1.0 -0.0799540129
C  C17  1  0.45107000  0.12601000  0.89661000  1.0 -0.1410467458
C  C18  1  0.12601000  0.45107000  0.10339000  1.0 -0.1410467458
C  C19  1  0.54893000  0.87399000  0.10339000  1.0 -0.1410467458
C  C20  1  0.87399000  0.54893000  0.89661000  1.0 -0.1410467458
C  C21  1  0.42765000  0.16205000  0.83802000  1.0 0.0605569307
C  C22  1  0.16205000  0.42765000  0.16198000  1.0 0.0605569307
C  C23  1  0.57235000  0.83795000  0.16198000  1.0 0.0605569307
C  C24  1  0.83795000  0.57235000  0.83802000  1.0 0.0605569307
C  C25  1  0.43294000  0.13564000  0.80250000  1.0 -0.1609792625
C  C26  1  0.13564000  0.43294000  0.19750000  1.0 -0.1609792625
C  C27  1  0.56706000  0.86436000  0.19750000  1.0 -0.1609792625
C  C28  1  0.86436000  0.56706000  0.80250000  1.0 -0.1609792625
C  C29  1  0.46280000  0.07438000  0.82860000  1.0 -0.101599509
C  C30  1  0.07438000  0.46280000  0.17140000  1.0 -0.101599509
C  C31  1  0.53720000  0.92562000  0.17140000  1.0 -0.101599509
C  C32  1  0.92562000  0.53720000  0.82860000  1.0 -0.101599509
C  C33  1  0.39873000  0.22709000  0.81335000  1.0 0.0896664237
C  C34  1  0.22709000  0.39873000  0.18665000  1.0 0.0896664237
C  C35  1  0.60127000  0.77291000  0.18665000  1.0 0.0896664237
C  C36  1  0.77291000  0.60127000  0.81335000  1.0 0.0896664237
C  C37  1  0.40802000  0.26616000  0.76922000  1.0 -0.2173016836
C  C38  1  0.26616000  0.40802000  0.23078000  1.0 -0.2173016836
C  C39  1  0.59198000  0.73384000  0.23078000  1.0 -0.2173016836
C  C40  1  0.73384000  0.59198000  0.76922000  1.0 -0.2173016836
C  C41  1  0.34757000  0.34999000  0.76705000  1.0 -0.2271584396
C  C42  1  0.34999000  0.34757000  0.23295000  1.0 -0.2271584396
C  C43  1  0.65243000  0.65001000  0.23295000  1.0 -0.2271584396
C  C44  1  0.65001000  0.65243000  0.76705000  1.0 -0.2271584396
C  C45  1  0.38258000  0.32744000  0.74505000  1.0 0.0542748541
C  C46  1  0.32744000  0.38258000  0.25495000  1.0 0.0542748541
C  C47  1  0.61742000  0.67256000  0.25495000  1.0 0.0542748541
C  C48  1  0.67256000  0.61742000  0.74505000  1.0 0.0542748541
C  C49  1  0.36353000  0.25053000  0.83376000  1.0 -0.20087857
C  C50  1  0.25053000  0.36353000  0.16624000  1.0 -0.20087857
C  C51  1  0.63647000  0.74947000  0.16624000  1.0 -0.20087857
C  C52  1  0.74947000  0.63647000  0.83376000  1.0 -0.20087857
C  C53  1  0.39158000  0.36946000  0.69764000  1.0 0.0242948084
C  C54  1  0.36946000  0.39158000  0.30236000  1.0 0.0242948084
C  C55  1  0.60842000  0.63054000  0.30236000  1.0 0.0242948084
C  C56  1  0.63054000  0.60842000  0.69764000  1.0 0.0254497061
C  C57  1  0.33009000  0.60837000  0.08970000  1.0 0.0896664237
C  C58  1  0.60837000  0.33009000  0.91030000  1.0 0.0896664237
C  C59  1  0.66991000  0.39163000  0.91030000  1.0 0.0896664237
C  C60  1  0.39163000  0.66991000  0.08970000  1.0 0.0896664237
C  C61  1  0.33739000  0.60151000  0.14439000  1.0 -0.2361434175
C  C62  1  0.60151000  0.33739000  0.85561000  1.0 -0.2361434175
C  C63  1  0.66261000  0.39849000  0.85561000  1.0 -0.2271584396
C  C64  1  0.39849000  0.66261000  0.14439000  1.0 -0.2361434175
C  C65  1  0.29953000  0.33585000  0.83336000  1.0 0.0605569307
C  C66  1  0.33585000  0.29953000  0.16664000  1.0 0.0605569307
C  C67  1  0.70047000  0.66415000  0.16664000  1.0 0.0605569307
C  C68  1  0.66415000  0.70047000  0.83336000  1.0 0.0605569307
C  C69  1  0.35740000  0.64260000  0.06295000  1.0 -0.20087857
C  C70  1  0.64260000  0.35740000  0.93705000  1.0 -0.20087857
C  C71  1  0.40736000  0.44686000  0.60626000  1.0 -0.071183935
C  C72  1  0.44686000  0.40736000  0.39374000  1.0 -0.071183935
C  C73  1  0.59264000  0.55314000  0.39374000  1.0 -0.071183935
C  C74  1  0.55314000  0.59264000  0.60626000  1.0 -0.071183935
C  C75  1  0.41695000  0.48865000  0.55790000  1.0 0.3893899922
C  C76  1  0.48865000  0.41695000  0.44210000  1.0 0.3893899922
C  C77  1  0.58305000  0.51135000  0.44210000  1.0 0.3893899922
C  C78  1  0.51135000  0.58305000  0.55790000  1.0 0.3893899922
C  C79  1  0.31093000  0.30857000  0.88976000  1.0 -0.1410467458
C  C80  1  0.30857000  0.31093000  0.11024000  1.0 -0.1410467458
C  C81  1  0.68907000  0.69143000  0.11024000  1.0 -0.1410467458
C  C82  1  0.69143000  0.68907000  0.88976000  1.0 -0.1410467458
C  C83  1  0.25437000  0.49951000  0.06286000  1.0 -0.101599509
C  C84  1  0.49951000  0.25437000  0.93714000  1.0 -0.101599509
C  C85  1  0.74563000  0.50049000  0.93714000  1.0 -0.101599509
C  C86  1  0.50049000  0.74563000  0.06286000  1.0 -0.101599509
C  C87  1  0.28824000  0.52494000  0.08910000  1.0 -0.1410467458
C  C88  1  0.52494000  0.28824000  0.91090000  1.0 -0.1410467458
C  C89  1  0.71176000  0.47506000  0.91090000  1.0 -0.1410467458
C  C90  1  0.47506000  0.71176000  0.08910000  1.0 -0.1410467458
C  C91  1  0.29120000  0.58030000  0.05981000  1.0 0.0713117401
C  C92  1  0.58030000  0.29120000  0.94019000  1.0 0.0713117401
C  C93  1  0.70880000  0.41970000  0.94019000  1.0 0.0713117401
C  C94  1  0.41970000  0.70880000  0.05981000  1.0 0.0713117401
C  C95  1  0.21935000  0.58529000  0.97170000  1.0 -0.0890296373
C  C96  1  0.58529000  0.21935000  0.02830000  1.0 -0.0890296373
C  C97  1  0.78065000  0.41471000  0.02830000  1.0 -0.0890296373
C  C98  1  0.41471000  0.78065000  0.97170000  1.0 -0.0890296373
C  C99  1  0.44610000  0.35510000  0.69520000  1.0 -0.0799540129
C  C100  1  0.35510000  0.44610000  0.30480000  1.0 -0.0799540129
C  C101  1  0.55390000  0.64490000  0.30480000  1.0 -0.0799540129
C  C102  1  0.64490000  0.55390000  0.69520000  1.0 -0.0799540129
C  C103  1  0.45330000  0.39210000  0.64850000  1.0 -0.071183935
C  C104  1  0.39210000  0.45330000  0.35150000  1.0 -0.071183935
C  C105  1  0.54670000  0.60790000  0.35150000  1.0 -0.071183935
C  C106  1  0.60790000  0.54670000  0.64850000  1.0 -0.071183935
C  C107  1  0.34675000  0.42275000  0.65090000  1.0 -0.0585551854
C  C108  1  0.42275000  0.34675000  0.34910000  1.0 -0.0585551854
C  C109  1  0.65325000  0.57725000  0.34910000  1.0 -0.0585551854
C  C110  1  0.57725000  0.65325000  0.65090000  1.0 -0.0585551854
C  C111  1  0.35527000  0.46207000  0.60700000  1.0 -0.0799540129
C  C112  1  0.46207000  0.35527000  0.39300000  1.0 -0.0799540129
C  C113  1  0.64473000  0.53793000  0.39300000  1.0 -0.0799540129
C  C114  1  0.53793000  0.64473000  0.60700000  1.0 -0.0799540129
C  C115  1  0.38357000  0.62913000  0.22992000  1.0 0.0713117401
C  C116  1  0.62913000  0.38357000  0.77008000  1.0 0.0713117401
C  C117  1  0.61643000  0.37087000  0.77008000  1.0 0.0713117401
C  C118  1  0.37087000  0.61643000  0.22992000  1.0 0.0713117401
C  C119  1  0.37491000  0.68075000  0.23658000  1.0 -0.1609792625
C  C120  1  0.68075000  0.37491000  0.76342000  1.0 -0.1609792625
C  C121  1  0.62509000  0.31925000  0.76342000  1.0 -0.1609792625
C  C122  1  0.31925000  0.62509000  0.23658000  1.0 -0.1609792625
C  C123  1  0.37892000  0.67778000  0.28899000  1.0 -0.1730381084
C  C124  1  0.67778000  0.37892000  0.71101000  1.0 -0.1730381084
C  C125  1  0.62108000  0.32222000  0.71101000  1.0 -0.1730381084
C  C126  1  0.32222000  0.62108000  0.28899000  1.0 -0.1730381084
C  C127  1  0.39159000  0.62321000  0.33475000  1.0 0.0605569307
C  C128  1  0.62321000  0.39159000  0.66525000  1.0 0.0605569307
C  C129  1  0.60841000  0.37679000  0.66525000  1.0 0.0605569307
C  C130  1  0.37679000  0.60841000  0.33475000  1.0 0.0605569307
C  C131  1  0.40026000  0.57160000  0.32809000  1.0 -0.0405652111
C  C132  1  0.57160000  0.40026000  0.67191000  1.0 -0.0405652111
C  C133  1  0.59974000  0.42840000  0.67191000  1.0 -0.0405652111
C  C134  1  0.42840000  0.59974000  0.32809000  1.0 -0.0405652111
C  C135  1  0.39625000  0.57455000  0.27568000  1.0 -0.071183935
C  C136  1  0.57455000  0.39625000  0.72432000  1.0 -0.071183935
C  C137  1  0.60375000  0.42545000  0.72432000  1.0 -0.071183935
C  C138  1  0.42545000  0.60375000  0.27568000  1.0 -0.071183935
C  C139  1  0.21865000  0.52909000  0.00234000  1.0 -0.032860255
C  C140  1  0.52909000  0.21865000  0.99766000  1.0 -0.032860255
C  C141  1  0.78135000  0.47091000  0.99766000  1.0 -0.032860255
C  C142  1  0.47091000  0.78135000  0.00234000  1.0 -0.032860255
C  C143  1  0.38835000  0.61165000  0.39050000  1.0 0.3893899922
C  C144  1  0.61165000  0.38835000  0.60950000  1.0 0.3893899922
C  C145  1  0.22392000  0.38412000  0.86990000  1.0 -0.0014532358
C  C146  1  0.38412000  0.22392000  0.13010000  1.0 -0.0014532358
C  C147  1  0.77608000  0.61588000  0.13010000  1.0 -0.0014532358
C  C148  1  0.61588000  0.77608000  0.86990000  1.0 -0.0014532358
C  C149  1  0.37186000  0.62814000  0.17167000  1.0 0.0809593777
C  C150  1  0.62814000  0.37186000  0.82833000  1.0 0.0809593777
C  C151  1  0.18014000  0.50230000  0.97059000  1.0 0.5940665806
C  C152  1  0.50230000  0.18014000  0.02941000  1.0 0.5940665806
C  C153  1  0.81986000  0.49770000  0.02941000  1.0 0.5940665806
C  C154  1  0.49770000  0.81986000  0.97059000  1.0 0.5952816809
C  C155  1  0.27420000  0.33174000  0.90840000  1.0 -0.1068416407
C  C156  1  0.33174000  0.27420000  0.09160000  1.0 -0.1068416407
C  C157  1  0.72580000  0.66826000  0.09160000  1.0 -0.1068416407
C  C158  1  0.66826000  0.72580000  0.90840000  1.0 -0.1068416407
C  C159  1  0.24953000  0.38835000  0.79372000  1.0 -0.1609792625
C  C160  1  0.38835000  0.24953000  0.20628000  1.0 -0.1609792625
C  C161  1  0.75047000  0.61165000  0.20628000  1.0 -0.1609792625
C  C162  1  0.61165000  0.75047000  0.79372000  1.0 -0.1609792625
C  C163  1  0.25573000  0.61033000  0.99903000  1.0 -0.1609792625
C  C164  1  0.61033000  0.25573000  0.00097000  1.0 -0.1609792625
C  C165  1  0.74427000  0.38967000  0.00097000  1.0 -0.1609792625
C  C166  1  0.38967000  0.74427000  0.99903000  1.0 -0.1609792625
C  C167  1  0.21407000  0.41151000  0.81570000  1.0 -0.0890296373
C  C168  1  0.41151000  0.21407000  0.18430000  1.0 -0.0890296373
C  C169  1  0.78593000  0.58849000  0.18430000  1.0 -0.0890296373
C  C170  1  0.58849000  0.78593000  0.81570000  1.0 -0.0890296373
C  C171  1  0.18695000  0.40275000  0.89820000  1.0 0.5533922518
C  C172  1  0.40275000  0.18695000  0.10180000  1.0 0.5533922518
C  C173  1  0.81305000  0.59725000  0.10180000  1.0 0.5533922518
C  C174  1  0.59725000  0.81305000  0.89820000  1.0 0.5533922518
C  C175  1  0.64730000  0.59050000  0.66360000  1.0 -0.0585551854
C  C176  1  0.59050000  0.64730000  0.33640000  1.0 -0.0585551854
C  C177  1  0.35270000  0.40950000  0.33640000  1.0 -0.0585551854
C  C178  1  0.40950000  0.35270000  0.66360000  1.0 -0.0585551854
C  C179  1  0.60950000  0.58170000  0.62090000  1.0 -0.0405652111
C  C180  1  0.58170000  0.60950000  0.37910000  1.0 -0.0489221996
C  C181  1  0.39050000  0.41830000  0.37910000  1.0 -0.0489221996
C  C182  1  0.41830000  0.39050000  0.62090000  1.0 -0.0489221996
C  C183  1  0.57390000  0.61470000  0.69130000  1.0 -0.1410467458
C  C184  1  0.61470000  0.57390000  0.30870000  1.0 -0.1410467458
C  C185  1  0.42610000  0.38530000  0.30870000  1.0 -0.1410467458
C  C186  1  0.38530000  0.42610000  0.69130000  1.0 -0.1410467458
C  C187  1  0.53260000  0.61020000  0.64310000  1.0 -0.0489221996
C  C188  1  0.61020000  0.53260000  0.35690000  1.0 -0.0489221996
C  C189  1  0.46740000  0.38980000  0.35690000  1.0 -0.0489221996
C  C190  1  0.38980000  0.46740000  0.64310000  1.0 -0.0489221996
O  O1  1  0.38030000  0.71010000  0.43370000  1.0 -0.5494484102
O  O2  1  0.71010000  0.38030000  0.56630000  1.0 -0.5494484102
O  O3  1  0.61970000  0.28990000  0.56630000  1.0 -0.5494484102
O  O4  1  0.28990000  0.61970000  0.43370000  1.0 -0.5494484102
O  O5  1  0.42247000  0.57753000  0.43543000  1.0 -0.456615666
O  O6  1  0.57753000  0.42247000  0.56457000  1.0 -0.456615666
O  O7  1  0.33250000  0.62632000  0.39188000  1.0 -0.0799540129
O  O8  1  0.62632000  0.33250000  0.60812000  1.0 -0.0799540129
O  O9  1  0.66750000  0.37368000  0.60812000  1.0 -0.0799540129
O  O10  1  0.37368000  0.66750000  0.39188000  1.0 -0.0799540129
O  O11  1  0.19088000  0.37940000  0.94090000  1.0 -0.4299125567
O  O12  1  0.37940000  0.19088000  0.05910000  1.0 -0.4247799312
O  O13  1  0.80912000  0.62060000  0.05910000  1.0 -0.4299125567
O  O14  1  0.62060000  0.80912000  0.94090000  1.0 -0.4299125567
O  O15  1  0.17889000  0.45197000  0.00049000  1.0 -0.5494484102
O  O16  1  0.45197000  0.17889000  0.99951000  1.0 -0.5494484102
O  O17  1  0.82111000  0.54803000  0.99951000  1.0 -0.5494484102
O  O18  1  0.54803000  0.82111000  0.00049000  1.0 -0.5494484102
O  O19  1  0.15120000  0.53232000  0.91705000  1.0 -0.5890694951
O  O20  1  0.53232000  0.15120000  0.08295000  1.0 -0.5890694951
O  O21  1  0.84880000  0.46768000  0.08295000  1.0 -0.5890694951
O  O22  1  0.46768000  0.84880000  0.91705000  1.0 -0.5890694951
O  O23  1  0.14345000  0.45743000  0.85340000  1.0 -0.6732531731
O  O24  1  0.45743000  0.14345000  0.14660000  1.0 -0.6732531731
O  O25  1  0.85655000  0.54257000  0.14660000  1.0 -0.6732531731
O  O26  1  0.54257000  0.85655000  0.85340000  1.0 -0.6732531731
O  O27  1  0.55969000  0.94615000  0.97599000  1.0 -0.524329642
O  O28  1  0.94615000  0.55969000  0.02401000  1.0 -0.5256892239
O  O29  1  0.44031000  0.05385000  0.02401000  1.0 -0.5256892239
O  O30  1  0.05385000  0.44031000  0.97599000  1.0 -0.5256892239
O  O31  1  0.52294000  0.94944000  0.88946000  1.0 -0.5494484102
O  O32  1  0.94944000  0.52294000  0.11054000  1.0 -0.5494484102
O  O33  1  0.47706000  0.05056000  0.11054000  1.0 -0.5494484102
O  O34  1  0.05056000  0.47706000  0.88946000  1.0 -0.5494484102
O  O35  1  0.46350000  0.47030000  0.55390000  1.0 -0.2361434175
O  O36  1  0.47030000  0.46350000  0.44610000  1.0 -0.2361434175
O  O37  1  0.53650000  0.52970000  0.44610000  1.0 -0.2361434175
O  O38  1  0.52970000  0.53650000  0.55390000  1.0 -0.2361434175
O  O39  1  0.37580000  0.53920000  0.52400000  1.0 -0.1194958359
O  O40  1  0.53920000  0.37580000  0.47600000  1.0 -0.1194958359
O  O41  1  0.62420000  0.46080000  0.47600000  1.0 -0.1194958359
O  O42  1  0.46080000  0.62420000  0.52400000  1.0 -0.1270124485
O  O43  1  0.53170000  0.55670000  0.53810000  1.0 -0.1609792625
O  O44  1  0.55670000  0.53170000  0.46190000  1.0 -0.1609792625
O  O45  1  0.46830000  0.44330000  0.46190000  1.0 -0.1609792625
O  O46  1  0.44330000  0.46830000  0.53810000  1.0 -0.1609792625
O  O47  1  0.60600000  0.45580000  0.45390000  1.0 -0.1938839202
O  O48  1  0.45580000  0.60600000  0.54610000  1.0 -0.1938839202
O  O49  1  0.39400000  0.54420000  0.54610000  1.0 -0.1938839202
O  O50  1  0.54420000  0.39400000  0.45390000  1.0 -0.1938839202
