# DDEC6 charges by PACMAN v1.1 (https://github.com/mtap-research/PACMAN-charge/)
data_AXIPEE03_ASR_pacman
_symmetry_space_group_name_H-M   'P 1'
_cell_length_a   14.44440000
_cell_length_b   14.71160000
_cell_length_c   32.36890000
_cell_angle_alpha   90.00000000
_cell_angle_beta   109.32600000
_cell_angle_gamma   90.00000000
_symmetry_Int_Tables_number   1
_chemical_formula_structural   FeH10Au2(C9N4)2
_chemical_formula_sum   'Fe8 H80 Au16 C144 N64'
_cell_volume   6490.80707852
_cell_formula_units_Z   8
loop_
 _symmetry_equiv_pos_site_id
 _symmetry_equiv_pos_as_xyz
  1  'x, y, z'
loop_
 _atom_site_type_symbol
 _atom_site_label
 _atom_site_symmetry_multiplicity
 _atom_site_fract_x
 _atom_site_fract_y
 _atom_site_fract_z
 _atom_site_occupancy
 _atom_site_charge
Fe  Fe1  1  0.24722000  0.48066000  0.54986000  1.0 0.7906613258
Fe  Fe2  1  0.75278000  0.98066000  0.95014000  1.0 0.7906613258
Fe  Fe3  1  0.75278000  0.51934000  0.45014000  1.0 0.7906613258
Fe  Fe4  1  0.24722000  0.01934000  0.04986000  1.0 0.7906613258
Fe  Fe5  1  0.25248000  0.01916000  0.45022000  1.0 0.5759922175
Fe  Fe6  1  0.74752000  0.51916000  0.04978000  1.0 0.5759922175
Fe  Fe7  1  0.74752000  0.98084000  0.54978000  1.0 0.5746999888
Fe  Fe8  1  0.25248000  0.48084000  0.95022000  1.0 0.5746999888
H  H1  1  0.22140000  0.35150000  0.47010000  1.0 0.1124791337
H  H2  1  0.77860000  0.85150000  0.02990000  1.0 0.1124791337
H  H3  1  0.77860000  0.64850000  0.52990000  1.0 0.1124791337
H  H4  1  0.22140000  0.14850000  0.97010000  1.0 0.1124791337
H  H5  1  0.10210000  0.58860000  0.47340000  1.0 0.100497557
H  H6  1  0.89790000  0.08860000  0.02660000  1.0 0.100497557
H  H7  1  0.89790000  0.41140000  0.52660000  1.0 0.100497557
H  H8  1  0.10210000  0.91140000  0.97340000  1.0 0.100497557
H  H9  1  0.15070000  0.34560000  0.39520000  1.0 0.1364769142
H  H10  1  0.84930000  0.84560000  0.10480000  1.0 0.1364769142
H  H11  1  0.84930000  0.65440000  0.60480000  1.0 0.1364769142
H  H12  1  0.15070000  0.15440000  0.89520000  1.0 0.1364769142
H  H13  1  0.02180000  0.58650000  0.39930000  1.0 0.1364769142
H  H14  1  0.97820000  0.08650000  0.10070000  1.0 0.1364769142
H  H15  1  0.97820000  0.41350000  0.60070000  1.0 0.1364769142
H  H16  1  0.02180000  0.91350000  0.89930000  1.0 0.1364769142
H  H17  1  0.14500000  0.39870000  0.32530000  1.0 0.1364769142
H  H18  1  0.85500000  0.89870000  0.17470000  1.0 0.1364769142
H  H19  1  0.85500000  0.60130000  0.67470000  1.0 0.1364769142
H  H20  1  0.14500000  0.10130000  0.82530000  1.0 0.1364769142
H  H21  1  0.07370000  0.41540000  0.25000000  1.0 0.129047375
H  H22  1  0.92630000  0.91540000  0.25000000  1.0 0.129047375
H  H23  1  0.92630000  0.58460000  0.75000000  1.0 0.129047375
H  H24  1  0.07370000  0.08460000  0.75000000  1.0 0.129047375
H  H25  1  0.02630000  0.49730000  0.18850000  1.0 0.1364769142
H  H26  1  0.97370000  0.99730000  0.31150000  1.0 0.1364769142
H  H27  1  0.97370000  0.50270000  0.81150000  1.0 0.129047375
H  H28  1  0.02630000  0.00270000  0.68850000  1.0 0.1364769142
H  H29  1  0.76150000  0.50140000  0.20560000  1.0 0.129047375
H  H30  1  0.23850000  0.00140000  0.29440000  1.0 0.129047375
H  H31  1  0.23850000  0.49860000  0.79440000  1.0 0.129047375
H  H32  1  0.76150000  0.99860000  0.70560000  1.0 0.129047375
H  H33  1  0.94770000  0.51300000  0.11440000  1.0 0.1199051754
H  H34  1  0.05230000  0.01300000  0.38560000  1.0 0.1199051754
H  H35  1  0.05230000  0.48700000  0.88560000  1.0 0.1199051754
H  H36  1  0.94770000  0.98700000  0.61440000  1.0 0.1199051754
H  H37  1  0.68960000  0.51630000  0.13070000  1.0 0.1199051754
H  H38  1  0.31040000  0.01630000  0.36930000  1.0 0.1199051754
H  H39  1  0.31040000  0.48370000  0.86930000  1.0 0.1199051754
H  H40  1  0.68960000  0.98370000  0.63070000  1.0 0.1199051754
H  H41  1  0.36990000  0.90000000  0.52310000  1.0 0.1124791337
H  H42  1  0.63010000  0.40000000  0.97690000  1.0 0.1124791337
H  H43  1  0.63010000  0.10000000  0.47690000  1.0 0.1124791337
H  H44  1  0.36990000  0.60000000  0.02310000  1.0 0.1124791337
H  H45  1  0.28660000  0.15280000  0.52360000  1.0 0.1199051754
H  H46  1  0.71340000  0.65280000  0.97640000  1.0 0.1199051754
H  H47  1  0.71340000  0.84720000  0.47640000  1.0 0.1199051754
H  H48  1  0.28660000  0.34720000  0.02360000  1.0 0.1199051754
H  H49  1  0.44810000  0.90190000  0.59710000  1.0 0.1364769142
H  H50  1  0.55190000  0.40190000  0.90290000  1.0 0.1364769142
H  H51  1  0.55190000  0.09810000  0.40290000  1.0 0.1364769142
H  H52  1  0.44810000  0.59810000  0.09710000  1.0 0.1364769142
H  H53  1  0.35520000  0.15950000  0.59940000  1.0 0.1364769142
H  H54  1  0.64480000  0.65950000  0.90060000  1.0 0.1364769142
H  H55  1  0.64480000  0.84050000  0.40060000  1.0 0.1364769142
H  H56  1  0.35520000  0.34050000  0.09940000  1.0 0.1364769142
H  H57  1  0.34980000  0.10830000  0.66970000  1.0 0.1364769142
H  H58  1  0.65020000  0.60830000  0.83030000  1.0 0.1364769142
H  H59  1  0.65020000  0.89170000  0.33030000  1.0 0.1364769142
H  H60  1  0.34980000  0.39170000  0.16970000  1.0 0.1364769142
H  H61  1  0.42320000  0.09340000  0.74540000  1.0 0.129047375
H  H62  1  0.57680000  0.59340000  0.75460000  1.0 0.129047375
H  H63  1  0.57680000  0.90660000  0.25460000  1.0 0.129047375
H  H64  1  0.42320000  0.40660000  0.24540000  1.0 0.129047375
H  H65  1  0.73010000  0.00240000  0.78900000  1.0 0.129047375
H  H66  1  0.26990000  0.50240000  0.71100000  1.0 0.129047375
H  H67  1  0.26990000  0.99760000  0.21100000  1.0 0.129047375
H  H68  1  0.73010000  0.49760000  0.28900000  1.0 0.129047375
H  H69  1  0.80290000  0.98650000  0.86350000  1.0 0.1124791337
H  H70  1  0.19710000  0.48650000  0.63650000  1.0 0.1124791337
H  H71  1  0.19710000  0.01350000  0.13650000  1.0 0.1124791337
H  H72  1  0.80290000  0.51350000  0.36350000  1.0 0.1124791337
H  H73  1  0.54700000  0.98550000  0.88120000  1.0 0.1199051754
H  H74  1  0.45300000  0.48550000  0.61880000  1.0 0.1199051754
H  H75  1  0.45300000  0.01450000  0.11880000  1.0 0.1199051754
H  H76  1  0.54700000  0.51450000  0.38120000  1.0 0.1199051754
H  H77  1  0.46670000  0.00210000  0.80720000  1.0 0.1364769142
H  H78  1  0.53330000  0.50210000  0.69280000  1.0 0.1364769142
H  H79  1  0.53330000  0.99790000  0.19280000  1.0 0.1364769142
H  H80  1  0.46670000  0.49790000  0.30720000  1.0 0.1364769142
Au  Au1  1  0.51169000  0.23334000  0.55268000  1.0 -0.0163717538
Au  Au2  1  0.48831000  0.73334000  0.94732000  1.0 -0.0163717538
Au  Au3  1  0.48831000  0.76666000  0.44732000  1.0 -0.0163717538
Au  Au4  1  0.51169000  0.26666000  0.05268000  1.0 -0.0163717538
Au  Au5  1  0.50243000  0.26414000  0.45521000  1.0 -0.0321513011
Au  Au6  1  0.49757000  0.76414000  0.04479000  1.0 -0.0321513011
Au  Au7  1  0.49757000  0.73586000  0.54479000  1.0 -0.0321513011
Au  Au8  1  0.50243000  0.23586000  0.95521000  1.0 -0.0321513011
Au  Au9  1  0.98943000  0.22598000  0.54351000  1.0 -0.0321513011
Au  Au10  1  0.01057000  0.72598000  0.95649000  1.0 -0.0355148668
Au  Au11  1  0.01057000  0.77402000  0.45649000  1.0 -0.0321513011
Au  Au12  1  0.98943000  0.27402000  0.04351000  1.0 -0.0321513011
Au  Au13  1  0.00279000  0.74145000  0.55268000  1.0 -0.0127380426
Au  Au14  1  0.99721000  0.24145000  0.94732000  1.0 -0.0127380426
Au  Au15  1  0.99721000  0.25855000  0.44732000  1.0 -0.0127380426
Au  Au16  1  0.00279000  0.75855000  0.05268000  1.0 -0.0127380426
C  C1  1  0.41490000  0.32940000  0.54920000  1.0 0.0358010241
C  C2  1  0.58510000  0.82940000  0.95080000  1.0 0.0358010241
C  C3  1  0.58510000  0.67060000  0.45080000  1.0 0.0358010241
C  C4  1  0.41490000  0.17060000  0.04920000  1.0 0.0358010241
C  C5  1  0.09230000  0.31690000  0.55200000  1.0 0.0358010241
C  C6  1  0.90770000  0.81690000  0.94800000  1.0 0.0358010241
C  C7  1  0.90770000  0.68310000  0.44800000  1.0 0.0339244121
C  C8  1  0.09230000  0.18310000  0.05200000  1.0 0.0339244121
C  C9  1  0.09780000  0.64160000  0.55670000  1.0 0.0611340511
C  C10  1  0.90220000  0.14160000  0.94330000  1.0 0.0611340511
C  C11  1  0.90220000  0.35840000  0.44330000  1.0 0.0611340511
C  C12  1  0.09780000  0.85840000  0.05670000  1.0 0.0611340511
C  C13  1  0.11240000  0.86750000  0.45990000  1.0 0.0718358381
C  C14  1  0.88760000  0.36750000  0.04010000  1.0 0.0718358381
C  C15  1  0.88760000  0.13250000  0.54010000  1.0 0.0718358381
C  C16  1  0.11240000  0.63250000  0.95990000  1.0 0.0718358381
C  C17  1  0.09770000  0.16160000  0.45070000  1.0 0.0499875911
C  C18  1  0.90230000  0.66160000  0.04930000  1.0 0.0499875911
C  C19  1  0.90230000  0.83840000  0.54930000  1.0 0.0499875911
C  C20  1  0.09770000  0.33840000  0.95070000  1.0 0.0499875911
C  C21  1  0.39850000  0.16970000  0.44750000  1.0 0.0499875911
C  C22  1  0.60150000  0.66970000  0.05250000  1.0 0.0499875911
C  C23  1  0.60150000  0.83030000  0.55250000  1.0 0.0499875911
C  C24  1  0.39850000  0.33030000  0.94750000  1.0 0.0499875911
C  C25  1  0.60580000  0.13290000  0.55620000  1.0 0.0611340511
C  C26  1  0.39420000  0.63290000  0.94380000  1.0 0.0611340511
C  C27  1  0.39420000  0.86710000  0.44380000  1.0 0.0611340511
C  C28  1  0.60580000  0.36710000  0.05620000  1.0 0.0611340511
C  C29  1  0.60420000  0.35670000  0.45900000  1.0 0.0611340511
C  C30  1  0.39580000  0.85670000  0.04100000  1.0 0.0611340511
C  C31  1  0.39580000  0.64330000  0.54100000  1.0 0.0611340511
C  C32  1  0.60420000  0.14330000  0.95900000  1.0 0.0611340511
C  C33  1  0.18230000  0.40120000  0.45540000  1.0 0.0810079443
C  C34  1  0.81770000  0.90120000  0.04460000  1.0 0.0718358381
C  C35  1  0.81770000  0.59880000  0.54460000  1.0 0.0718358381
C  C36  1  0.18230000  0.09880000  0.95540000  1.0 0.0718358381
C  C37  1  0.11220000  0.53800000  0.45720000  1.0 0.100497557
C  C38  1  0.88780000  0.03800000  0.04280000  1.0 0.100497557
C  C39  1  0.88780000  0.46200000  0.54280000  1.0 0.100497557
C  C40  1  0.11220000  0.96200000  0.95720000  1.0 0.100497557
C  C41  1  0.13890000  0.39680000  0.41070000  1.0 -0.1816991063
C  C42  1  0.86110000  0.89680000  0.08930000  1.0 -0.1816991063
C  C43  1  0.86110000  0.60320000  0.58930000  1.0 -0.1816991063
C  C44  1  0.13890000  0.10320000  0.91070000  1.0 -0.1816991063
C  C45  1  0.06430000  0.53790000  0.41290000  1.0 -0.1688426963
C  C46  1  0.93570000  0.03790000  0.08710000  1.0 -0.1688426963
C  C47  1  0.93570000  0.46210000  0.58710000  1.0 -0.1584162977
C  C48  1  0.06430000  0.96210000  0.91290000  1.0 -0.1688426963
C  C49  1  0.07910000  0.46510000  0.38820000  1.0 0.0810079443
C  C50  1  0.92090000  0.96510000  0.11180000  1.0 0.0810079443
C  C51  1  0.92090000  0.53490000  0.61180000  1.0 0.0810079443
C  C52  1  0.07910000  0.03490000  0.88820000  1.0 0.0810079443
C  C53  1  0.03630000  0.46640000  0.34010000  1.0 0.1635173561
C  C54  1  0.96370000  0.96640000  0.15990000  1.0 0.1635173561
C  C55  1  0.96370000  0.53360000  0.65990000  1.0 0.1635173561
C  C56  1  0.03630000  0.03360000  0.84010000  1.0 0.1635173561
C  C57  1  0.08420000  0.42950000  0.31320000  1.0 -0.1495298082
C  C58  1  0.91580000  0.92950000  0.18680000  1.0 -0.1495298082
C  C59  1  0.91580000  0.57050000  0.68680000  1.0 -0.1495298082
C  C60  1  0.08420000  0.07050000  0.81320000  1.0 -0.1495298082
C  C61  1  0.04230000  0.43840000  0.26940000  1.0 -0.1495298082
C  C62  1  0.95770000  0.93840000  0.23060000  1.0 -0.1495298082
C  C63  1  0.95770000  0.56160000  0.73060000  1.0 -0.1495298082
C  C64  1  0.04230000  0.06160000  0.76940000  1.0 -0.1495298082
C  C65  1  0.95290000  0.48160000  0.25340000  1.0 0.1545865742
C  C66  1  0.04710000  0.98160000  0.24660000  1.0 0.1545865742
C  C67  1  0.04710000  0.51840000  0.74660000  1.0 0.1545865742
C  C68  1  0.95290000  0.01840000  0.75340000  1.0 0.1545865742
C  C69  1  0.90240000  0.49480000  0.20570000  1.0 0.0810079443
C  C70  1  0.09760000  0.99480000  0.29430000  1.0 0.0879193964
C  C71  1  0.09760000  0.50520000  0.79430000  1.0 0.0810079443
C  C72  1  0.90240000  0.00520000  0.70570000  1.0 0.0879193964
C  C73  1  0.95670000  0.50010000  0.17730000  1.0 -0.1902330758
C  C74  1  0.04330000  0.00010000  0.32270000  1.0 -0.1902330758
C  C75  1  0.04330000  0.49990000  0.82270000  1.0 -0.1902330758
C  C76  1  0.95670000  0.99990000  0.67730000  1.0 -0.1902330758
C  C77  1  0.80130000  0.50240000  0.18740000  1.0 -0.1688426963
C  C78  1  0.19870000  0.00240000  0.31260000  1.0 -0.1688426963
C  C79  1  0.19870000  0.49760000  0.81260000  1.0 -0.1688426963
C  C80  1  0.80130000  0.99760000  0.68740000  1.0 -0.1688426963
C  C81  1  0.90930000  0.50940000  0.13320000  1.0 0.0879193964
C  C82  1  0.09070000  0.00940000  0.36680000  1.0 0.0879193964
C  C83  1  0.09070000  0.49060000  0.86680000  1.0 0.0879193964
C  C84  1  0.90930000  0.99060000  0.63320000  1.0 0.0879193964
C  C85  1  0.75900000  0.51140000  0.14270000  1.0 0.0879193964
C  C86  1  0.24100000  0.01140000  0.35730000  1.0 0.0879193964
C  C87  1  0.24100000  0.48860000  0.85730000  1.0 0.0879193964
C  C88  1  0.75900000  0.98860000  0.64270000  1.0 0.0879193964
C  C89  1  0.36700000  0.95400000  0.53870000  1.0 0.0810079443
C  C90  1  0.63300000  0.45400000  0.96130000  1.0 0.0810079443
C  C91  1  0.63300000  0.04600000  0.46130000  1.0 0.0810079443
C  C92  1  0.36700000  0.54600000  0.03870000  1.0 0.0810079443
C  C93  1  0.31760000  0.10000000  0.53900000  1.0 0.0718358381
C  C94  1  0.68240000  0.60000000  0.96100000  1.0 0.0718358381
C  C95  1  0.68240000  0.90000000  0.46100000  1.0 0.0718358381
C  C96  1  0.31760000  0.40000000  0.03900000  1.0 0.0718358381
C  C97  1  0.41350000  0.95420000  0.58290000  1.0 -0.1688426963
C  C98  1  0.58650000  0.45420000  0.91710000  1.0 -0.1688426963
C  C99  1  0.58650000  0.04580000  0.41710000  1.0 -0.1688426963
C  C100  1  0.41350000  0.54580000  0.08290000  1.0 -0.1688426963
C  C101  1  0.36020000  0.10540000  0.58430000  1.0 -0.1816991063
C  C102  1  0.63980000  0.60540000  0.91570000  1.0 -0.1816991063
C  C103  1  0.63980000  0.89460000  0.41570000  1.0 -0.1816991063
C  C104  1  0.36020000  0.39460000  0.08430000  1.0 -0.1816991063
C  C105  1  0.40990000  0.03090000  0.60690000  1.0 0.0718358381
C  C106  1  0.59010000  0.53090000  0.89310000  1.0 0.0718358381
C  C107  1  0.59010000  0.96910000  0.39310000  1.0 0.0718358381
C  C108  1  0.40990000  0.46910000  0.10690000  1.0 0.0718358381
C  C109  1  0.45520000  0.03200000  0.65530000  1.0 0.1764186827
C  C110  1  0.54480000  0.53200000  0.84470000  1.0 0.1764186827
C  C111  1  0.54480000  0.96800000  0.34470000  1.0 0.1764186827
C  C112  1  0.45520000  0.46800000  0.15530000  1.0 0.1764186827
C  C113  1  0.40880000  0.07480000  0.68190000  1.0 -0.1584162977
C  C114  1  0.59120000  0.57480000  0.81810000  1.0 -0.1584162977
C  C115  1  0.59120000  0.92520000  0.31810000  1.0 -0.1584162977
C  C116  1  0.40880000  0.42520000  0.18190000  1.0 -0.1584162977
C  C117  1  0.45180000  0.06620000  0.72590000  1.0 -0.1495298082
C  C118  1  0.54820000  0.56620000  0.77410000  1.0 -0.1495298082
C  C119  1  0.54820000  0.93380000  0.27410000  1.0 -0.1495298082
C  C120  1  0.45180000  0.43380000  0.22590000  1.0 -0.1495298082
C  C121  1  0.53820000  0.01690000  0.74190000  1.0 0.1635173561
C  C122  1  0.46180000  0.51690000  0.75810000  1.0 0.1635173561
C  C123  1  0.46180000  0.98310000  0.25810000  1.0 0.1635173561
C  C124  1  0.53820000  0.48310000  0.24190000  1.0 0.1635173561
C  C125  1  0.59020000  0.00460000  0.78970000  1.0 0.0879193964
C  C126  1  0.40980000  0.50460000  0.71030000  1.0 0.0879193964
C  C127  1  0.40980000  0.99540000  0.21030000  1.0 0.0879193964
C  C128  1  0.59020000  0.49540000  0.28970000  1.0 0.0879193964
C  C129  1  0.69070000  0.99940000  0.80740000  1.0 -0.1688426963
C  C130  1  0.30930000  0.49940000  0.69260000  1.0 -0.1688426963
C  C131  1  0.30930000  0.00060000  0.19260000  1.0 -0.1688426963
C  C132  1  0.69070000  0.50060000  0.30740000  1.0 -0.1688426963
C  C133  1  0.73340000  0.99000000  0.85180000  1.0 0.100497557
C  C134  1  0.26660000  0.49000000  0.64820000  1.0 0.100497557
C  C135  1  0.26660000  0.01000000  0.14820000  1.0 0.100497557
C  C136  1  0.73340000  0.51000000  0.35180000  1.0 0.100497557
C  C137  1  0.58490000  0.98960000  0.86220000  1.0 0.100497557
C  C138  1  0.41510000  0.48960000  0.63780000  1.0 0.100497557
C  C139  1  0.41510000  0.01040000  0.13780000  1.0 0.100497557
C  C140  1  0.58490000  0.51040000  0.36220000  1.0 0.100497557
C  C141  1  0.53640000  0.99920000  0.81820000  1.0 -0.1816991063
C  C142  1  0.46360000  0.49920000  0.68180000  1.0 -0.1816991063
C  C143  1  0.46360000  0.00080000  0.18180000  1.0 -0.1816991063
C  C144  1  0.53640000  0.50080000  0.31820000  1.0 -0.1816991063
N  N1  1  0.35420000  0.38200000  0.54720000  1.0 -0.3663823951
N  N2  1  0.64580000  0.88200000  0.95280000  1.0 -0.3578529114
N  N3  1  0.64580000  0.61800000  0.45280000  1.0 -0.3663823951
N  N4  1  0.35420000  0.11800000  0.04720000  1.0 -0.3663823951
N  N5  1  0.15250000  0.37220000  0.55620000  1.0 -0.3663823951
N  N6  1  0.84750000  0.87220000  0.94380000  1.0 -0.3663823951
N  N7  1  0.84750000  0.62780000  0.44380000  1.0 -0.3663823951
N  N8  1  0.15250000  0.12780000  0.05620000  1.0 -0.3663823951
N  N9  1  0.14800000  0.58190000  0.55650000  1.0 -0.3578529114
N  N10  1  0.85200000  0.08190000  0.94350000  1.0 -0.3537418934
N  N11  1  0.85200000  0.41810000  0.44350000  1.0 -0.3578529114
N  N12  1  0.14800000  0.91810000  0.05650000  1.0 -0.3578529114
N  N13  1  0.16540000  0.92320000  0.45740000  1.0 -0.298399008
N  N14  1  0.83460000  0.42320000  0.04260000  1.0 -0.298399008
N  N15  1  0.83460000  0.07680000  0.54260000  1.0 -0.298399008
N  N16  1  0.16540000  0.57680000  0.95740000  1.0 -0.298399008
N  N17  1  0.15615000  0.11030000  0.45245000  1.0 -0.298399008
N  N18  1  0.84385000  0.61030000  0.04755000  1.0 -0.298399008
N  N19  1  0.84385000  0.88970000  0.54755000  1.0 -0.298399008
N  N20  1  0.15615000  0.38970000  0.95245000  1.0 -0.298399008
N  N21  1  0.34150000  0.11560000  0.44550000  1.0 -0.298399008
N  N22  1  0.65850000  0.61560000  0.05450000  1.0 -0.298399008
N  N23  1  0.65850000  0.88440000  0.55450000  1.0 -0.298399008
N  N24  1  0.34150000  0.38440000  0.94550000  1.0 -0.298399008
N  N25  1  0.65540000  0.07370000  0.55440000  1.0 -0.3054835143
N  N26  1  0.34460000  0.57370000  0.94560000  1.0 -0.3054835143
N  N27  1  0.34460000  0.92630000  0.44560000  1.0 -0.3054835143
N  N28  1  0.65540000  0.42630000  0.05440000  1.0 -0.3054835143
N  N29  1  0.66030000  0.41290000  0.45910000  1.0 -0.3578529114
N  N30  1  0.33970000  0.91290000  0.04090000  1.0 -0.3578529114
N  N31  1  0.33970000  0.58710000  0.54090000  1.0 -0.3578529114
N  N32  1  0.66030000  0.08710000  0.95910000  1.0 -0.3578529114
N  N33  1  0.17130000  0.47320000  0.47910000  1.0 -0.2017969413
N  N34  1  0.82870000  0.97320000  0.02090000  1.0 -0.2017969413
N  N35  1  0.82870000  0.52680000  0.52090000  1.0 -0.2017969413
N  N36  1  0.17130000  0.02680000  0.97910000  1.0 -0.2017969413
N  N37  1  0.94940000  0.50850000  0.32350000  1.0 -0.1378605668
N  N38  1  0.05060000  0.00850000  0.17650000  1.0 -0.1378605668
N  N39  1  0.05060000  0.49150000  0.67650000  1.0 -0.1378605668
N  N40  1  0.94940000  0.99150000  0.82350000  1.0 -0.1378605668
N  N41  1  0.90720000  0.51530000  0.28000000  1.0 -0.1378605668
N  N42  1  0.09280000  0.01530000  0.22000000  1.0 -0.1378605668
N  N43  1  0.09280000  0.48470000  0.72000000  1.0 -0.1378605668
N  N44  1  0.90720000  0.98470000  0.78000000  1.0 -0.1378605668
N  N45  1  0.81170000  0.51350000  0.11540000  1.0 -0.1378605668
N  N46  1  0.18830000  0.01350000  0.38460000  1.0 -0.1378605668
N  N47  1  0.18830000  0.48650000  0.88460000  1.0 -0.1378605668
N  N48  1  0.81170000  0.98650000  0.61540000  1.0 -0.1378605668
N  N49  1  0.31764000  0.02460000  0.51584000  1.0 -0.1293569224
N  N50  1  0.68236000  0.52460000  0.98416000  1.0 -0.1293569224
N  N51  1  0.68236000  0.97540000  0.48416000  1.0 -0.1293569224
N  N52  1  0.31764000  0.47540000  0.01584000  1.0 -0.1293569224
N  N53  1  0.53890000  0.98660000  0.67150000  1.0 -0.1495298082
N  N54  1  0.46110000  0.48660000  0.82850000  1.0 -0.1495298082
N  N55  1  0.46110000  0.01340000  0.32850000  1.0 -0.1584162977
N  N56  1  0.53890000  0.51340000  0.17150000  1.0 -0.1495298082
N  N57  1  0.58230000  0.98030000  0.71530000  1.0 -0.1495298082
N  N58  1  0.41770000  0.48030000  0.78470000  1.0 -0.1495298082
N  N59  1  0.41770000  0.01970000  0.28470000  1.0 -0.1495298082
N  N60  1  0.58230000  0.51970000  0.21530000  1.0 -0.1495298082
N  N61  1  0.68220000  0.98560000  0.87970000  1.0 -0.2017969413
N  N62  1  0.31780000  0.48560000  0.62030000  1.0 -0.2017969413
N  N63  1  0.31780000  0.01440000  0.12030000  1.0 -0.2017969413
N  N64  1  0.68220000  0.51440000  0.37970000  1.0 -0.2017969413
