# DDEC6 charges by PACMAN v1.1 (https://github.com/mtap-research/PACMAN-charge/)
data_AXUBOL_ASR_pacman
_symmetry_space_group_name_H-M   'P 1'
_cell_length_a   18.76980000
_cell_length_b   18.76980000
_cell_length_c   18.76980000
_cell_angle_alpha   109.47100000
_cell_angle_beta   109.47100000
_cell_angle_gamma   109.47100000
_symmetry_Int_Tables_number   1
_chemical_formula_structural   Ni3H25C36N3O13
_chemical_formula_sum   'Ni12 H100 C144 N12 O52'
_cell_volume   5090.50176107
_cell_formula_units_Z   4
loop_
 _symmetry_equiv_pos_site_id
 _symmetry_equiv_pos_as_xyz
  1  'x, y, z'
loop_
 _atom_site_type_symbol
 _atom_site_label
 _atom_site_symmetry_multiplicity
 _atom_site_fract_x
 _atom_site_fract_y
 _atom_site_fract_z
 _atom_site_occupancy
 _atom_site_charge
Ni  Ni1  1  0.46476000  0.11301000  0.11301000  1.0 0.9232728087
Ni  Ni2  1  0.00000000  0.35175000  0.88699000  1.0 0.9232728087
Ni  Ni3  1  0.00000000  0.88699000  0.35175000  1.0 0.9232728087
Ni  Ni4  1  0.53524000  0.64825000  0.64825000  1.0 0.9232728087
Ni  Ni5  1  0.11301000  0.46476000  0.11301000  1.0 0.9232728087
Ni  Ni6  1  0.88699000  0.00000000  0.35175000  1.0 0.9232728087
Ni  Ni7  1  0.35175000  0.00000000  0.88699000  1.0 0.9232728087
Ni  Ni8  1  0.64825000  0.53524000  0.64825000  1.0 0.9232728087
Ni  Ni9  1  0.11301000  0.11301000  0.46476000  1.0 0.9232728087
Ni  Ni10  1  0.35175000  0.88699000  0.00000000  1.0 0.9232728087
Ni  Ni11  1  0.88699000  0.35175000  0.00000000  1.0 0.9232728087
Ni  Ni12  1  0.64825000  0.64825000  0.53524000  1.0 0.9232728087
H  H1  1  0.44600000  0.00000000  0.00000000  1.0 0.3333917165
H  H2  1  0.00000000  0.44600000  0.00000000  1.0 0.3333917165
H  H3  1  0.00000000  0.00000000  0.44600000  1.0 0.3333917165
H  H4  1  0.55400000  0.55400000  0.55400000  1.0 0.3333917165
H  H5  1  0.37160000  0.12990000  0.29430000  1.0 0.082043263
H  H6  1  0.83560000  0.07730000  0.70570000  1.0 0.082043263
H  H7  1  0.16440000  0.87010000  0.24170000  1.0 0.082043263
H  H8  1  0.62840000  0.92270000  0.75830000  1.0 0.082043263
H  H9  1  0.29430000  0.37160000  0.12990000  1.0 0.082043263
H  H10  1  0.70570000  0.83560000  0.07730000  1.0 0.082043263
H  H11  1  0.24170000  0.16440000  0.87010000  1.0 0.082043263
H  H12  1  0.75830000  0.62840000  0.92270000  1.0 0.082043263
H  H13  1  0.12990000  0.29430000  0.37160000  1.0 0.082043263
H  H14  1  0.07730000  0.70570000  0.83560000  1.0 0.082043263
H  H15  1  0.87010000  0.24170000  0.16440000  1.0 0.082043263
H  H16  1  0.92270000  0.75830000  0.62840000  1.0 0.082043263
H  H17  1  0.12990000  0.37160000  0.29430000  1.0 0.082043263
H  H18  1  0.07730000  0.83560000  0.70570000  1.0 0.082043263
H  H19  1  0.87010000  0.16440000  0.24170000  1.0 0.082043263
H  H20  1  0.92270000  0.62840000  0.75830000  1.0 0.082043263
H  H21  1  0.37160000  0.29430000  0.12990000  1.0 0.082043263
H  H22  1  0.83560000  0.70570000  0.07730000  1.0 0.082043263
H  H23  1  0.16440000  0.24170000  0.87010000  1.0 0.082043263
H  H24  1  0.62840000  0.75830000  0.92270000  1.0 0.082043263
H  H25  1  0.29430000  0.12990000  0.37160000  1.0 0.082043263
H  H26  1  0.70570000  0.07730000  0.83560000  1.0 0.082043263
H  H27  1  0.24170000  0.87010000  0.16440000  1.0 0.082043263
H  H28  1  0.75830000  0.92270000  0.62840000  1.0 0.082043263
H  H29  1  0.69550000  0.29280000  0.13170000  1.0 0.1348448747
H  H30  1  0.16110000  0.56380000  0.86830000  1.0 0.1348448747
H  H31  1  0.83890000  0.70720000  0.40270000  1.0 0.1348448747
H  H32  1  0.30450000  0.43620000  0.59730000  1.0 0.1348448747
H  H33  1  0.13170000  0.69550000  0.29280000  1.0 0.1348448747
H  H34  1  0.86830000  0.16110000  0.56380000  1.0 0.1348448747
H  H35  1  0.40270000  0.83890000  0.70720000  1.0 0.1348448747
H  H36  1  0.59730000  0.30450000  0.43620000  1.0 0.1348448747
H  H37  1  0.29280000  0.13170000  0.69550000  1.0 0.1348448747
H  H38  1  0.56380000  0.86830000  0.16110000  1.0 0.1348448747
H  H39  1  0.70720000  0.40270000  0.83890000  1.0 0.1348448747
H  H40  1  0.43620000  0.59730000  0.30450000  1.0 0.1348448747
H  H41  1  0.29280000  0.69550000  0.13170000  1.0 0.1348448747
H  H42  1  0.56380000  0.16110000  0.86830000  1.0 0.1348448747
H  H43  1  0.70720000  0.83890000  0.40270000  1.0 0.1348448747
H  H44  1  0.43620000  0.30450000  0.59730000  1.0 0.1348448747
H  H45  1  0.69550000  0.13170000  0.29280000  1.0 0.1348448747
H  H46  1  0.16110000  0.86830000  0.56380000  1.0 0.1348448747
H  H47  1  0.83890000  0.40270000  0.70720000  1.0 0.1348448747
H  H48  1  0.30450000  0.59730000  0.43620000  1.0 0.1348448747
H  H49  1  0.13170000  0.29280000  0.69550000  1.0 0.1348448747
H  H50  1  0.86830000  0.56380000  0.16110000  1.0 0.1348448747
H  H51  1  0.40270000  0.70720000  0.83890000  1.0 0.1348448747
H  H52  1  0.59730000  0.43620000  0.30450000  1.0 0.1348448747
H  H53  1  0.81910000  0.36590000  0.12640000  1.0 0.1041000836
H  H54  1  0.23950000  0.69270000  0.87360000  1.0 0.1041000836
H  H55  1  0.76050000  0.63410000  0.45320000  1.0 0.1041000836
H  H56  1  0.18090000  0.30730000  0.54680000  1.0 0.1041000836
H  H57  1  0.12640000  0.81910000  0.36590000  1.0 0.1041000836
H  H58  1  0.87360000  0.23950000  0.69270000  1.0 0.1041000836
H  H59  1  0.45320000  0.76050000  0.63410000  1.0 0.1041000836
H  H60  1  0.54680000  0.18090000  0.30730000  1.0 0.1041000836
H  H61  1  0.36590000  0.12640000  0.81910000  1.0 0.1041000836
H  H62  1  0.69270000  0.87360000  0.23950000  1.0 0.1041000836
H  H63  1  0.63410000  0.45320000  0.76050000  1.0 0.1041000836
H  H64  1  0.30730000  0.54680000  0.18090000  1.0 0.1041000836
H  H65  1  0.36590000  0.81910000  0.12640000  1.0 0.1041000836
H  H66  1  0.69270000  0.23950000  0.87360000  1.0 0.1041000836
H  H67  1  0.63410000  0.76050000  0.45320000  1.0 0.1041000836
H  H68  1  0.30730000  0.18090000  0.54680000  1.0 0.1041000836
H  H69  1  0.81910000  0.12640000  0.36590000  1.0 0.1041000836
H  H70  1  0.23950000  0.87360000  0.69270000  1.0 0.1041000836
H  H71  1  0.76050000  0.45320000  0.63410000  1.0 0.1041000836
H  H72  1  0.18090000  0.54680000  0.30730000  1.0 0.1041000836
H  H73  1  0.12640000  0.36590000  0.81910000  1.0 0.1041000836
H  H74  1  0.87360000  0.69270000  0.23950000  1.0 0.1041000836
H  H75  1  0.45320000  0.63410000  0.76050000  1.0 0.1041000836
H  H76  1  0.54680000  0.30730000  0.18090000  1.0 0.1041000836
H  H77  1  0.30610000  0.11920000  0.22610000  1.0 0.0868918129
H  H78  1  0.89310000  0.08000000  0.77390000  1.0 0.0868918129
H  H79  1  0.10690000  0.88080000  0.18690000  1.0 0.0868918129
H  H80  1  0.69390000  0.92000000  0.81310000  1.0 0.0868918129
H  H81  1  0.22610000  0.30610000  0.11920000  1.0 0.0868918129
H  H82  1  0.77390000  0.89310000  0.08000000  1.0 0.0868918129
H  H83  1  0.18690000  0.10690000  0.88080000  1.0 0.0868918129
H  H84  1  0.81310000  0.69390000  0.92000000  1.0 0.0868918129
H  H85  1  0.11920000  0.22610000  0.30610000  1.0 0.0868918129
H  H86  1  0.08000000  0.77390000  0.89310000  1.0 0.0868918129
H  H87  1  0.88080000  0.18690000  0.10690000  1.0 0.0868918129
H  H88  1  0.92000000  0.81310000  0.69390000  1.0 0.0868918129
H  H89  1  0.11920000  0.30610000  0.22610000  1.0 0.0868918129
H  H90  1  0.08000000  0.89310000  0.77390000  1.0 0.0868918129
H  H91  1  0.88080000  0.10690000  0.18690000  1.0 0.0868918129
H  H92  1  0.92000000  0.69390000  0.81310000  1.0 0.0868918129
H  H93  1  0.30610000  0.22610000  0.11920000  1.0 0.0868918129
H  H94  1  0.89310000  0.77390000  0.08000000  1.0 0.0868918129
H  H95  1  0.10690000  0.18690000  0.88080000  1.0 0.0868918129
H  H96  1  0.69390000  0.81310000  0.92000000  1.0 0.0868918129
H  H97  1  0.22610000  0.11920000  0.30610000  1.0 0.0868918129
H  H98  1  0.77390000  0.08000000  0.89310000  1.0 0.0868918129
H  H99  1  0.18690000  0.88080000  0.10690000  1.0 0.0868918129
H  H100  1  0.81310000  0.92000000  0.69390000  1.0 0.0868918129
C  C1  1  0.33910000  0.00000000  0.15010000  1.0 0.5401504242
C  C2  1  0.84990000  0.18900000  0.84990000  1.0 0.5401504242
C  C3  1  0.15010000  0.00000000  0.33910000  1.0 0.5401504242
C  C4  1  0.66090000  0.81100000  0.66090000  1.0 0.5401504242
C  C5  1  0.15010000  0.33910000  0.00000000  1.0 0.5401504242
C  C6  1  0.84990000  0.84990000  0.18900000  1.0 0.5401504242
C  C7  1  0.33910000  0.15010000  0.00000000  1.0 0.5401504242
C  C8  1  0.66090000  0.66090000  0.81100000  1.0 0.5401504242
C  C9  1  0.00000000  0.15010000  0.33910000  1.0 0.5401504242
C  C10  1  0.18900000  0.84990000  0.84990000  1.0 0.5401504242
C  C11  1  0.00000000  0.33910000  0.15010000  1.0 0.5401504242
C  C12  1  0.81100000  0.66090000  0.66090000  1.0 0.5401504242
C  C13  1  0.29720000  0.00000000  0.20560000  1.0 -0.0185035827
C  C14  1  0.79440000  0.09160000  0.79440000  1.0 -0.0185035827
C  C15  1  0.20560000  0.00000000  0.29720000  1.0 -0.0185035827
C  C16  1  0.70280000  0.90840000  0.70280000  1.0 -0.0185035827
C  C17  1  0.20560000  0.29720000  0.00000000  1.0 -0.0185035827
C  C18  1  0.79440000  0.79440000  0.09160000  1.0 -0.0185035827
C  C19  1  0.29720000  0.20560000  0.00000000  1.0 -0.0185035827
C  C20  1  0.70280000  0.70280000  0.90840000  1.0 -0.0185035827
C  C21  1  0.00000000  0.20560000  0.29720000  1.0 -0.0185035827
C  C22  1  0.09160000  0.79440000  0.79440000  1.0 -0.0185035827
C  C23  1  0.00000000  0.29720000  0.20560000  1.0 -0.0185035827
C  C24  1  0.90840000  0.70280000  0.70280000  1.0 -0.0185035827
C  C25  1  0.32290000  0.07710000  0.27660000  1.0 -0.0438758649
C  C26  1  0.80050000  0.04630000  0.72340000  1.0 -0.0438758649
C  C27  1  0.19950000  0.92290000  0.24580000  1.0 -0.0438758649
C  C28  1  0.67710000  0.95370000  0.75420000  1.0 -0.0438758649
C  C29  1  0.27660000  0.32290000  0.07710000  1.0 -0.0438758649
C  C30  1  0.72340000  0.80050000  0.04630000  1.0 -0.0438758649
C  C31  1  0.24580000  0.19950000  0.92290000  1.0 -0.0461223681
C  C32  1  0.75420000  0.67710000  0.95370000  1.0 -0.0438758649
C  C33  1  0.07710000  0.27660000  0.32290000  1.0 -0.0438758649
C  C34  1  0.04630000  0.72340000  0.80050000  1.0 -0.0461223681
C  C35  1  0.92290000  0.24580000  0.19950000  1.0 -0.0438758649
C  C36  1  0.95370000  0.75420000  0.67710000  1.0 -0.0438758649
C  C37  1  0.07710000  0.32290000  0.27660000  1.0 -0.0438758649
C  C38  1  0.04630000  0.80050000  0.72340000  1.0 -0.0438758649
C  C39  1  0.92290000  0.19950000  0.24580000  1.0 -0.0438758649
C  C40  1  0.95370000  0.67710000  0.75420000  1.0 -0.0438758649
C  C41  1  0.32290000  0.27660000  0.07710000  1.0 -0.0438758649
C  C42  1  0.80050000  0.72340000  0.04630000  1.0 -0.0438758649
C  C43  1  0.19950000  0.24580000  0.92290000  1.0 -0.0461223681
C  C44  1  0.67710000  0.75420000  0.95370000  1.0 -0.0438758649
C  C45  1  0.27660000  0.07710000  0.32290000  1.0 -0.0438758649
C  C46  1  0.72340000  0.04630000  0.80050000  1.0 -0.0438758649
C  C47  1  0.24580000  0.92290000  0.19950000  1.0 -0.0438758649
C  C48  1  0.75420000  0.95370000  0.67710000  1.0 -0.0438758649
C  C49  1  0.53890000  0.15430000  0.00000000  1.0 0.5623377317
C  C50  1  0.15430000  0.53890000  0.00000000  1.0 0.5623377317
C  C51  1  0.84570000  0.84570000  0.38460000  1.0 0.5623377317
C  C52  1  0.46110000  0.46110000  0.61540000  1.0 0.5623377317
C  C53  1  0.00000000  0.53890000  0.15430000  1.0 0.5623377317
C  C54  1  0.00000000  0.15430000  0.53890000  1.0 0.5623377317
C  C55  1  0.38460000  0.84570000  0.84570000  1.0 0.5623377317
C  C56  1  0.61540000  0.46110000  0.46110000  1.0 0.5623377317
C  C57  1  0.15430000  0.00000000  0.53890000  1.0 0.5623377317
C  C58  1  0.53890000  0.00000000  0.15430000  1.0 0.5623377317
C  C59  1  0.84570000  0.38460000  0.84570000  1.0 0.5623377317
C  C60  1  0.46110000  0.61540000  0.46110000  1.0 0.5623377317
C  C61  1  0.61680000  0.21340000  0.00000000  1.0 0.0421433707
C  C62  1  0.21340000  0.61680000  0.00000000  1.0 0.0421433707
C  C63  1  0.78660000  0.78660000  0.40340000  1.0 0.0421433707
C  C64  1  0.38320000  0.38320000  0.59660000  1.0 0.0421433707
C  C65  1  0.00000000  0.61680000  0.21340000  1.0 0.0421433707
C  C66  1  0.00000000  0.21340000  0.61680000  1.0 0.0421433707
C  C67  1  0.40340000  0.78660000  0.78660000  1.0 0.0421433707
C  C68  1  0.59660000  0.38320000  0.38320000  1.0 0.0421433707
C  C69  1  0.21340000  0.00000000  0.61680000  1.0 0.0421433707
C  C70  1  0.61680000  0.00000000  0.21340000  1.0 0.0421433707
C  C71  1  0.78660000  0.40340000  0.78660000  1.0 0.0421433707
C  C72  1  0.38320000  0.59660000  0.38320000  1.0 0.0421433707
C  C73  1  0.69320000  0.27830000  0.07710000  1.0 -0.1789456726
C  C74  1  0.20120000  0.61610000  0.92290000  1.0 -0.1789456726
C  C75  1  0.79880000  0.72170000  0.41490000  1.0 -0.1789456726
C  C76  1  0.30680000  0.38390000  0.58510000  1.0 -0.1789456726
C  C77  1  0.07710000  0.69320000  0.27830000  1.0 -0.1789456726
C  C78  1  0.92290000  0.20120000  0.61610000  1.0 -0.1789456726
C  C79  1  0.41490000  0.79880000  0.72170000  1.0 -0.1789456726
C  C80  1  0.58510000  0.30680000  0.38390000  1.0 -0.1789456726
C  C81  1  0.27830000  0.07710000  0.69320000  1.0 -0.1789456726
C  C82  1  0.61610000  0.92290000  0.20120000  1.0 -0.1789456726
C  C83  1  0.72170000  0.41490000  0.79880000  1.0 -0.1789456726
C  C84  1  0.38390000  0.58510000  0.30680000  1.0 -0.1789456726
C  C85  1  0.27830000  0.69320000  0.07710000  1.0 -0.1789456726
C  C86  1  0.61610000  0.20120000  0.92290000  1.0 -0.1789456726
C  C87  1  0.72170000  0.79880000  0.41490000  1.0 -0.1789456726
C  C88  1  0.38390000  0.30680000  0.58510000  1.0 -0.1789456726
C  C89  1  0.69320000  0.07710000  0.27830000  1.0 -0.1789456726
C  C90  1  0.20120000  0.92290000  0.61610000  1.0 -0.1789456726
C  C91  1  0.79880000  0.41490000  0.72170000  1.0 -0.1789456726
C  C92  1  0.30680000  0.58510000  0.38390000  1.0 -0.1789456726
C  C93  1  0.07710000  0.27830000  0.69320000  1.0 -0.1789456726
C  C94  1  0.92290000  0.61610000  0.20120000  1.0 -0.1789456726
C  C95  1  0.41490000  0.72170000  0.79880000  1.0 -0.1789456726
C  C96  1  0.58510000  0.38390000  0.30680000  1.0 -0.1789456726
C  C97  1  0.76670000  0.32200000  0.07310000  1.0 0.082043263
C  C98  1  0.24890000  0.69360000  0.92690000  1.0 0.082043263
C  C99  1  0.75110000  0.67800000  0.44470000  1.0 0.082043263
C  C100  1  0.23330000  0.30640000  0.55530000  1.0 0.082043263
C  C101  1  0.07310000  0.76670000  0.32200000  1.0 0.082043263
C  C102  1  0.92690000  0.24890000  0.69360000  1.0 0.082043263
C  C103  1  0.44470000  0.75110000  0.67800000  1.0 0.082043263
C  C104  1  0.55530000  0.23330000  0.30640000  1.0 0.082043263
C  C105  1  0.32200000  0.07310000  0.76670000  1.0 0.082043263
C  C106  1  0.69360000  0.92690000  0.24890000  1.0 0.082043263
C  C107  1  0.67800000  0.44470000  0.75110000  1.0 0.082043263
C  C108  1  0.30640000  0.55530000  0.23330000  1.0 0.082043263
C  C109  1  0.32200000  0.76670000  0.07310000  1.0 0.082043263
C  C110  1  0.69360000  0.24890000  0.92690000  1.0 0.082043263
C  C111  1  0.67800000  0.75110000  0.44470000  1.0 0.082043263
C  C112  1  0.30640000  0.23330000  0.55530000  1.0 0.082043263
C  C113  1  0.76670000  0.07310000  0.32200000  1.0 0.082043263
C  C114  1  0.24890000  0.92690000  0.69360000  1.0 0.082043263
C  C115  1  0.75110000  0.44470000  0.67800000  1.0 0.082043263
C  C116  1  0.23330000  0.55530000  0.30640000  1.0 0.082043263
C  C117  1  0.07310000  0.32200000  0.76670000  1.0 0.082043263
C  C118  1  0.92690000  0.69360000  0.24890000  1.0 0.082043263
C  C119  1  0.44470000  0.67800000  0.75110000  1.0 0.082043263
C  C120  1  0.55530000  0.30640000  0.23330000  1.0 0.082043263
C  C121  1  0.28410000  0.07220000  0.23610000  1.0 -0.0614230483
C  C122  1  0.83610000  0.04800000  0.76390000  1.0 -0.0614230483
C  C123  1  0.16390000  0.92780000  0.21190000  1.0 -0.0614230483
C  C124  1  0.71590000  0.95200000  0.78810000  1.0 -0.0614230483
C  C125  1  0.23610000  0.28410000  0.07220000  1.0 -0.0614230483
C  C126  1  0.76390000  0.83610000  0.04800000  1.0 -0.0614230483
C  C127  1  0.21190000  0.16390000  0.92780000  1.0 -0.0614230483
C  C128  1  0.78810000  0.71590000  0.95200000  1.0 -0.0614230483
C  C129  1  0.07220000  0.23610000  0.28410000  1.0 -0.0614230483
C  C130  1  0.04800000  0.76390000  0.83610000  1.0 -0.0614230483
C  C131  1  0.92780000  0.21190000  0.16390000  1.0 -0.0614230483
C  C132  1  0.95200000  0.78810000  0.71590000  1.0 -0.0614230483
C  C133  1  0.07220000  0.28410000  0.23610000  1.0 -0.0614230483
C  C134  1  0.04800000  0.83610000  0.76390000  1.0 -0.0614230483
C  C135  1  0.92780000  0.16390000  0.21190000  1.0 -0.0614230483
C  C136  1  0.95200000  0.71590000  0.78810000  1.0 -0.0614230483
C  C137  1  0.28410000  0.23610000  0.07220000  1.0 -0.0614230483
C  C138  1  0.83610000  0.76390000  0.04800000  1.0 -0.0614230483
C  C139  1  0.16390000  0.21190000  0.92780000  1.0 -0.0614230483
C  C140  1  0.71590000  0.78810000  0.95200000  1.0 -0.0614230483
C  C141  1  0.23610000  0.07220000  0.28410000  1.0 -0.0614230483
C  C142  1  0.76390000  0.04800000  0.83610000  1.0 -0.0614230483
C  C143  1  0.21190000  0.92780000  0.16390000  1.0 -0.0614230483
C  C144  1  0.78810000  0.95200000  0.71590000  1.0 -0.0614230483
N  N1  1  0.76790000  0.30630000  0.00000000  1.0 -0.1966764501
N  N2  1  0.30630000  0.76790000  0.00000000  1.0 -0.1966764501
N  N3  1  0.69370000  0.69370000  0.46160000  1.0 -0.1966764501
N  N4  1  0.23210000  0.23210000  0.53840000  1.0 -0.1966764501
N  N5  1  0.00000000  0.76790000  0.30630000  1.0 -0.1966764501
N  N6  1  0.00000000  0.30630000  0.76790000  1.0 -0.1966764501
N  N7  1  0.46160000  0.69370000  0.69370000  1.0 -0.1966764501
N  N8  1  0.53840000  0.23210000  0.23210000  1.0 -0.1966764501
N  N9  1  0.30630000  0.00000000  0.76790000  1.0 -0.1966764501
N  N10  1  0.76790000  0.00000000  0.30630000  1.0 -0.1966764501
N  N11  1  0.69370000  0.46160000  0.69370000  1.0 -0.1966764501
N  N12  1  0.23210000  0.53840000  0.23210000  1.0 -0.1966764501
O  O1  1  0.39280000  0.00000000  0.00000000  1.0 -0.8613925821
O  O2  1  0.00000000  0.39280000  0.00000000  1.0 -0.8613925821
O  O3  1  0.00000000  0.00000000  0.39280000  1.0 -0.8613925821
O  O4  1  0.60720000  0.60720000  0.60720000  1.0 -0.8613925821
O  O5  1  0.39080000  0.07225000  0.16585000  1.0 -0.5019348844
O  O6  1  0.90640000  0.22495000  0.83415000  1.0 -0.5019348844
O  O7  1  0.09360000  0.92775000  0.31855000  1.0 -0.5019348844
O  O8  1  0.60920000  0.77505000  0.68145000  1.0 -0.5019348844
O  O9  1  0.16585000  0.39080000  0.07225000  1.0 -0.5019348844
O  O10  1  0.83415000  0.90640000  0.22495000  1.0 -0.5019348844
O  O11  1  0.31855000  0.09360000  0.92775000  1.0 -0.5019348844
O  O12  1  0.68145000  0.60920000  0.77505000  1.0 -0.5019348844
O  O13  1  0.07225000  0.16585000  0.39080000  1.0 -0.5019348844
O  O14  1  0.22495000  0.83415000  0.90640000  1.0 -0.5019348844
O  O15  1  0.92775000  0.31855000  0.09360000  1.0 -0.5019348844
O  O16  1  0.77505000  0.68145000  0.60920000  1.0 -0.5019348844
O  O17  1  0.07225000  0.39080000  0.16585000  1.0 -0.5019348844
O  O18  1  0.22495000  0.90640000  0.83415000  1.0 -0.5019348844
O  O19  1  0.92775000  0.09360000  0.31855000  1.0 -0.5019348844
O  O20  1  0.77505000  0.60920000  0.68145000  1.0 -0.5019348844
O  O21  1  0.39080000  0.16585000  0.07225000  1.0 -0.5019348844
O  O22  1  0.90640000  0.83415000  0.22495000  1.0 -0.5019348844
O  O23  1  0.09360000  0.31855000  0.92775000  1.0 -0.5019348844
O  O24  1  0.60920000  0.68145000  0.77505000  1.0 -0.5019348844
O  O25  1  0.16585000  0.07225000  0.39080000  1.0 -0.5019348844
O  O26  1  0.83415000  0.22495000  0.90640000  1.0 -0.5019348844
O  O27  1  0.31855000  0.92775000  0.09360000  1.0 -0.5019348844
O  O28  1  0.68145000  0.77505000  0.60920000  1.0 -0.5019348844
O  O29  1  0.54808000  0.16859000  0.07351000  1.0 -0.541825021
O  O30  1  0.09508000  0.47457000  0.92649000  1.0 -0.541825021
O  O31  1  0.90492000  0.83141000  0.37949000  1.0 -0.541825021
O  O32  1  0.45192000  0.52543000  0.62051000  1.0 -0.541825021
O  O33  1  0.07351000  0.54808000  0.16859000  1.0 -0.541825021
O  O34  1  0.92649000  0.09508000  0.47457000  1.0 -0.541825021
O  O35  1  0.37949000  0.90492000  0.83141000  1.0 -0.541825021
O  O36  1  0.62051000  0.45192000  0.52543000  1.0 -0.541825021
O  O37  1  0.16859000  0.07351000  0.54808000  1.0 -0.541825021
O  O38  1  0.47457000  0.92649000  0.09508000  1.0 -0.541825021
O  O39  1  0.83141000  0.37949000  0.90492000  1.0 -0.541825021
O  O40  1  0.52543000  0.62051000  0.45192000  1.0 -0.541825021
O  O41  1  0.16859000  0.54808000  0.07351000  1.0 -0.541825021
O  O42  1  0.47457000  0.09508000  0.92649000  1.0 -0.541825021
O  O43  1  0.83141000  0.90492000  0.37949000  1.0 -0.541825021
O  O44  1  0.52543000  0.45192000  0.62051000  1.0 -0.541825021
O  O45  1  0.54808000  0.07351000  0.16859000  1.0 -0.541825021
O  O46  1  0.09508000  0.92649000  0.47457000  1.0 -0.541825021
O  O47  1  0.90492000  0.37949000  0.83141000  1.0 -0.541825021
O  O48  1  0.45192000  0.62051000  0.52543000  1.0 -0.541825021
O  O49  1  0.07351000  0.16859000  0.54808000  1.0 -0.541825021
O  O50  1  0.92649000  0.47457000  0.09508000  1.0 -0.541825021
O  O51  1  0.37949000  0.83141000  0.90492000  1.0 -0.541825021
O  O52  1  0.62051000  0.52543000  0.45192000  1.0 -0.541825021
