# DDEC6 charges by PACMAN v1.1 (https://github.com/mtap-research/PACMAN-charge/)
data_AYUWUM_FSR_pacman
_symmetry_space_group_name_H-M   'P 1'
_cell_length_a   9.99800000
_cell_length_b   16.21600000
_cell_length_c   16.66300000
_cell_angle_alpha   94.89900000
_cell_angle_beta   102.41000000
_cell_angle_gamma   96.10100000
_symmetry_Int_Tables_number   1
_chemical_formula_structural   Na3H39C30S7O23
_chemical_formula_sum   'Na6 H78 C60 S14 O46'
_cell_volume   2607.11879441
_cell_formula_units_Z   2
loop_
 _symmetry_equiv_pos_site_id
 _symmetry_equiv_pos_as_xyz
  1  'x, y, z'
loop_
 _atom_site_type_symbol
 _atom_site_label
 _atom_site_symmetry_multiplicity
 _atom_site_fract_x
 _atom_site_fract_y
 _atom_site_fract_z
 _atom_site_occupancy
 _atom_site_charge
Na  Na1  1  0.88940000  0.05380000  0.54750000  1.0 0.8534444253
Na  Na2  1  0.11060000  0.94620000  0.45250000  1.0 0.8534444253
Na  Na3  1  0.52730000  0.89600000  0.45820000  1.0 0.8595464806
Na  Na4  1  0.47270000  0.10400000  0.54180000  1.0 0.8595464806
Na  Na5  1  0.74800000  0.84390000  0.13680000  1.0 0.8595464806
Na  Na6  1  0.25200000  0.15610000  0.86320000  1.0 0.8595464806
H  H1  1  0.28300000  0.49840000  0.84330000  1.0 0.1406651535
H  H2  1  0.71700000  0.50160000  0.15670000  1.0 0.1406651535
H  H3  1  0.65580000  0.41450000  0.84680000  1.0 0.1406651535
H  H4  1  0.34420000  0.58550000  0.15320000  1.0 0.1406651535
H  H5  1  0.05850000  0.75390000  0.76610000  1.0 0.1223859749
H  H6  1  0.94150000  0.24610000  0.23390000  1.0 0.1223859749
H  H7  1  0.88160000  0.51660000  0.79420000  1.0 0.1289403568
H  H8  1  0.11840000  0.48340000  0.20580000  1.0 0.1289403568
H  H9  1  0.71130000  0.05110000  0.88290000  1.0 0.1406651535
H  H10  1  0.28870000  0.94890000  0.11710000  1.0 0.1406651535
H  H11  1  0.04010000  0.95780000  0.81750000  1.0 0.1475310827
H  H12  1  0.95990000  0.04220000  0.18250000  1.0 0.1475310827
H  H13  1  0.49580000  0.95670000  0.82910000  1.0 0.1124867033
H  H14  1  0.50420000  0.04330000  0.17090000  1.0 0.1124867033
H  H15  1  0.28670000  0.71260000  0.79190000  1.0 0.1289403568
H  H16  1  0.71330000  0.28740000  0.20810000  1.0 0.1289403568
H  H17  1  0.06390000  0.49240000  0.71860000  1.0 0.1406651535
H  H18  1  0.93610000  0.50760000  0.28140000  1.0 0.1406651535
H  H19  1  0.16110000  0.56150000  0.69320000  1.0 0.1406651535
H  H20  1  0.83890000  0.43850000  0.30680000  1.0 0.1406651535
H  H21  1  0.04580000  0.49770000  0.61270000  1.0 0.1289403568
H  H22  1  0.95420000  0.50230000  0.38730000  1.0 0.1289403568
H  H23  1  0.83420000  0.50800000  0.58620000  1.0 0.1223859749
H  H24  1  0.16580000  0.49200000  0.41380000  1.0 0.1223859749
H  H25  1  0.75080000  0.57210000  0.61910000  1.0 0.1124867033
H  H26  1  0.24920000  0.42790000  0.38090000  1.0 0.1124867033
H  H27  1  0.79340000  0.49900000  0.66910000  1.0 0.1223859749
H  H28  1  0.20660000  0.50100000  0.33090000  1.0 0.1223859749
H  H29  1  0.07870000  0.68690000  0.64070000  1.0 0.1406651535
H  H30  1  0.92130000  0.31310000  0.35930000  1.0 0.1406651535
H  H31  1  0.97380000  0.62380000  0.55950000  1.0 0.1223859749
H  H32  1  0.02620000  0.37620000  0.44050000  1.0 0.1223859749
H  H33  1  0.92310000  0.69770000  0.62150000  1.0 0.1124867033
H  H34  1  0.07690000  0.30230000  0.37850000  1.0 0.1124867033
H  H35  1  0.15620000  0.74270000  0.09500000  1.0 0.1406651535
H  H36  1  0.84380000  0.25730000  0.90500000  1.0 0.1406651535
H  H37  1  0.12090000  0.64240000  0.06160000  1.0 0.1124867033
H  H38  1  0.87910000  0.35760000  0.93840000  1.0 0.1124867033
H  H39  1  0.87380000  0.66590000  0.18830000  1.0 0.368538646
H  H40  1  0.12620000  0.33410000  0.81170000  1.0 0.368538646
H  H41  1  0.73790000  0.64730000  0.01930000  1.0 0.3392383139
H  H42  1  0.26210000  0.35270000  0.98070000  1.0 0.3392383139
H  H43  1  0.92960000  0.81250000  0.01430000  1.0 0.3317951839
H  H44  1  0.07040000  0.18750000  0.98570000  1.0 0.3317951839
H  H45  1  0.51870000  0.73940000  0.04110000  1.0 0.3209584634
H  H46  1  0.48130000  0.26060000  0.95890000  1.0 0.3209584634
H  H47  1  0.10150000  0.19910000  0.59770000  1.0 0.3860872667
H  H48  1  0.89850000  0.80090000  0.40230000  1.0 0.3860872667
H  H49  1  0.09420000  0.13800000  0.68160000  1.0 0.3988935332
H  H50  1  0.90580000  0.86200000  0.31840000  1.0 0.3988935332
H  H51  1  0.10530000  0.11820000  0.45210000  1.0 0.3777857701
H  H52  1  0.89470000  0.88180000  0.54790000  1.0 0.3777857701
H  H53  1  0.96330000  0.08610000  0.38810000  1.0 0.3988935332
H  H54  1  0.03670000  0.91390000  0.61190000  1.0 0.3988935332
H  H55  1  0.71000000  0.99790000  0.39710000  1.0 0.3209584634
H  H56  1  0.29000000  0.00210000  0.60290000  1.0 0.3096718272
H  H57  1  0.77670000  0.93390000  0.41430000  1.0 0.3096718272
H  H58  1  0.22330000  0.06610000  0.58570000  1.0 0.3096718272
H  H59  1  0.64270000  0.99480000  0.62470000  1.0 0.3003743122
H  H60  1  0.35730000  0.00520000  0.37530000  1.0 0.3003743122
H  H61  1  0.52900000  0.95090000  0.62610000  1.0 0.3003743122
H  H62  1  0.47100000  0.04910000  0.37390000  1.0 0.3003743122
H  H63  1  0.37370000  0.83390000  0.28710000  1.0 0.3988935332
H  H64  1  0.62630000  0.16610000  0.71290000  1.0 0.3988935332
H  H65  1  0.48060000  0.77320000  0.30650000  1.0 0.3988935332
H  H66  1  0.51940000  0.22680000  0.69350000  1.0 0.3988935332
H  H67  1  0.73740000  0.19730000  0.55300000  1.0 0.3209584634
H  H68  1  0.26260000  0.80270000  0.44700000  1.0 0.3209584634
H  H69  1  0.70620000  0.17930000  0.46980000  1.0 0.345112292
H  H70  1  0.29380000  0.82070000  0.53020000  1.0 0.345112292
H  H71  1  0.75370000  0.76020000  0.48530000  1.0 0.3860872667
H  H72  1  0.24630000  0.23980000  0.51470000  1.0 0.3860872667
H  H73  1  0.68160000  0.76750000  0.55190000  1.0 0.3860872667
H  H74  1  0.31840000  0.23250000  0.44810000  1.0 0.3860872667
H  H75  1  0.58410000  0.88450000  0.25860000  1.0 0.3317951839
H  H76  1  0.41590000  0.11550000  0.74140000  1.0 0.3317951839
H  H77  1  0.65130000  0.96150000  0.27080000  1.0 0.3209584634
H  H78  1  0.34870000  0.03850000  0.72920000  1.0 0.3209584634
C  C1  1  0.59390000  0.58360000  0.94210000  1.0 0.2243597786
C  C2  1  0.40610000  0.41640000  0.05790000  1.0 0.2243597786
C  C3  1  0.45090000  0.57480000  0.91200000  1.0 -0.031496151
C  C4  1  0.54910000  0.42520000  0.08800000  1.0 -0.031496151
C  C5  1  0.38390000  0.50360000  0.85960000  1.0 -0.1372481827
C  C6  1  0.61610000  0.49640000  0.14040000  1.0 -0.1372481827
C  C7  1  0.46040000  0.44230000  0.83700000  1.0 -0.0621141345
C  C8  1  0.53960000  0.55770000  0.16300000  1.0 -0.0621141345
C  C9  1  0.60200000  0.45120000  0.86540000  1.0 -0.1202706639
C  C10  1  0.39800000  0.54880000  0.13460000  1.0 -0.1202706639
C  C11  1  0.66970000  0.52140000  0.91870000  1.0 -0.0478454726
C  C12  1  0.33030000  0.47860000  0.08130000  1.0 -0.0478454726
C  C13  1  0.97000000  0.68040000  0.92990000  1.0 0.1475310827
C  C14  1  0.03000000  0.31960000  0.07010000  1.0 0.1475310827
C  C15  1  0.01730000  0.73490000  0.87880000  1.0 -0.0197806713
C  C16  1  0.98270000  0.26510000  0.12120000  1.0 -0.0197806713
C  C17  1  0.00920000  0.70740000  0.79610000  1.0 -0.1716980618
C  C18  1  0.99080000  0.29260000  0.20390000  1.0 -0.1716980618
C  C19  1  0.96010000  0.62440000  0.76410000  1.0 0.0864716674
C  C20  1  0.03990000  0.37560000  0.23590000  1.0 0.0864716674
C  C21  1  0.91440000  0.57130000  0.81650000  1.0 -0.1716980618
C  C22  1  0.08560000  0.42870000  0.18350000  1.0 -0.1716980618
C  C23  1  0.91580000  0.59860000  0.89790000  1.0 -0.0126818356
C  C24  1  0.08420000  0.40140000  0.10210000  1.0 -0.0126818356
C  C25  1  0.87310000  0.90510000  0.95440000  1.0 0.2434418182
C  C26  1  0.12690000  0.09490000  0.04560000  1.0 0.2434418182
C  C27  1  0.77750000  0.96230000  0.94210000  1.0 -0.0420607385
C  C28  1  0.22250000  0.03770000  0.05790000  1.0 -0.0420607385
C  C29  1  0.78520000  0.02020000  0.88540000  1.0 -0.1202706639
C  C30  1  0.21480000  0.97980000  0.11460000  1.0 -0.1202706639
C  C31  1  0.88420000  0.01890000  0.83930000  1.0 -0.0786290114
C  C32  1  0.11580000  0.98110000  0.16070000  1.0 -0.0786290114
C  C33  1  0.97670000  0.96010000  0.84860000  1.0 -0.1094524135
C  C34  1  0.02330000  0.03990000  0.15140000  1.0 -0.1094524135
C  C35  1  0.97170000  0.90360000  0.90540000  1.0 -0.0478454726
C  C36  1  0.02830000  0.09640000  0.09460000  1.0 -0.0478454726
C  C37  1  0.48800000  0.80560000  0.96240000  1.0 0.2322758119
C  C38  1  0.51200000  0.19440000  0.03760000  1.0 0.2322758119
C  C39  1  0.52470000  0.88140000  0.93370000  1.0 -0.031496151
C  C40  1  0.47530000  0.11860000  0.06630000  1.0 -0.031496151
C  C41  1  0.46750000  0.89540000  0.85320000  1.0 -0.0986707528
C  C42  1  0.53250000  0.10460000  0.14680000  1.0 -0.0986707528
C  C43  1  0.37740000  0.83330000  0.80060000  1.0 -0.0786290114
C  C44  1  0.62260000  0.16670000  0.19940000  1.0 -0.0786290114
C  C45  1  0.34530000  0.75630000  0.82730000  1.0 -0.1321209837
C  C46  1  0.65470000  0.24370000  0.17270000  1.0 -0.1321209837
C  C47  1  0.40010000  0.74260000  0.90820000  1.0 -0.0420607385
C  C48  1  0.59990000  0.25740000  0.09180000  1.0 -0.0420607385
C  C49  1  0.07970000  0.69120000  0.07370000  1.0 -0.1920748372
C  C50  1  0.92030000  0.30880000  0.92630000  1.0 -0.1920748372
C  C51  1  0.02800000  0.67070000  0.14870000  1.0 0.5985382478
C  C52  1  0.97200000  0.32930000  0.85130000  1.0 0.5985382478
C  C53  1  0.95930000  0.59000000  0.67540000  1.0 0.2450552563
C  C54  1  0.04070000  0.41000000  0.32460000  1.0 0.2450552563
C  C55  1  0.07040000  0.53210000  0.67920000  1.0 -0.4309374412
C  C56  1  0.92960000  0.46790000  0.32080000  1.0 -0.4309374412
C  C57  1  0.82200000  0.53820000  0.63370000  1.0 -0.4309374412
C  C58  1  0.17800000  0.46180000  0.36630000  1.0 -0.4309374412
C  C59  1  0.98800000  0.65760000  0.62190000  1.0 -0.446870776
C  C60  1  0.01200000  0.34240000  0.37810000  1.0 -0.446870776
S  S1  1  0.84920000  0.52951000  0.96245000  1.0 -0.0126818356
S  S2  1  0.15080000  0.47049000  0.03755000  1.0 -0.0126818356
S  S3  1  0.10330000  0.83648000  0.92335000  1.0 -0.0018115897
S  S4  1  0.89670000  0.16352000  0.07665000  1.0 -0.0018115897
S  S5  1  0.64610000  0.96194000  0.99916000  1.0 -0.0197806713
S  S6  1  0.35390000  0.03806000  0.00084000  1.0 -0.0197806713
S  S7  1  0.34690000  0.64719000  0.94581000  1.0 -0.0126818356
S  S8  1  0.65310000  0.35281000  0.05419000  1.0 -0.0126818356
S  S9  1  0.89100000  0.09121000  0.76515000  1.0 1.1986258905
S  S10  1  0.10900000  0.90879000  0.23485000  1.0 1.1986258905
S  S11  1  0.29700000  0.85370000  0.69973000  1.0 1.1595680396
S  S12  1  0.70300000  0.14630000  0.30027000  1.0 1.1595680396
S  S13  1  0.37670000  0.34968000  0.77309000  1.0 1.1769415419
S  S14  1  0.62330000  0.65032000  0.22691000  1.0 1.1769415419
O  O1  1  0.65370000  0.65240000  0.99320000  1.0 -0.3908427973
O  O2  1  0.34630000  0.34760000  0.00680000  1.0 -0.3908427973
O  O3  1  0.96810000  0.70900000  0.01010000  1.0 -0.2023148631
O  O4  1  0.03190000  0.29100000  0.98990000  1.0 -0.2023148631
O  O5  1  0.86240000  0.85200000  0.01150000  1.0 -0.4641354104
O  O6  1  0.13760000  0.14800000  0.98850000  1.0 -0.4641354104
O  O7  1  0.53810000  0.79750000  0.04310000  1.0 -0.4641354104
O  O8  1  0.46190000  0.20250000  0.95690000  1.0 -0.4641354104
O  O9  1  0.10190000  0.64580000  0.20640000  1.0 -0.4748151024
O  O10  1  0.89810000  0.35420000  0.79360000  1.0 -0.4748151024
O  O11  1  0.89850000  0.68260000  0.14450000  1.0 -0.483706208
O  O12  1  0.10150000  0.31740000  0.85550000  1.0 -0.483706208
O  O13  1  0.03620000  0.12440000  0.77850000  1.0 -0.6702828129
O  O14  1  0.96380000  0.87560000  0.22150000  1.0 -0.6702828129
O  O15  1  0.83980000  0.04450000  0.68350000  1.0 -0.6470744331
O  O16  1  0.16020000  0.95550000  0.31650000  1.0 -0.6470744331
O  O17  1  0.80530000  0.15370000  0.78310000  1.0 -0.5911198576
O  O18  1  0.19470000  0.84630000  0.21690000  1.0 -0.5911198576
O  O19  1  0.37480000  0.93170000  0.68660000  1.0 -0.5911198576
O  O20  1  0.62520000  0.06830000  0.31340000  1.0 -0.5911198576
O  O21  1  0.31100000  0.78430000  0.64360000  1.0 -0.5823164155
O  O22  1  0.68900000  0.21570000  0.35640000  1.0 -0.5823164155
O  O23  1  0.15560000  0.86440000  0.70170000  1.0 -0.5823164155
O  O24  1  0.84440000  0.13560000  0.29830000  1.0 -0.5823164155
O  O25  1  0.23380000  0.36530000  0.74280000  1.0 -0.6143722256
O  O26  1  0.76620000  0.63470000  0.25720000  1.0 -0.6143722256
O  O27  1  0.44920000  0.33850000  0.70780000  1.0 -0.602459373
O  O28  1  0.55080000  0.66150000  0.29220000  1.0 -0.602459373
O  O29  1  0.38480000  0.28300000  0.82560000  1.0 -0.6388267596
O  O30  1  0.61520000  0.71700000  0.17440000  1.0 -0.6388267596
O  O31  1  0.09550000  0.13610000  0.62220000  1.0 -0.8143083473
O  O32  1  0.90450000  0.86390000  0.37780000  1.0 -0.8143083473
O  O33  1  0.02420000  0.08180000  0.43780000  1.0 -0.8409371097
O  O34  1  0.97580000  0.91820000  0.56220000  1.0 -0.8409371097
O  O35  1  0.73510000  0.96830000  0.43570000  1.0 -0.752441736
O  O36  1  0.26490000  0.03170000  0.56430000  1.0 -0.752441736
O  O37  1  0.56980000  0.97710000  0.59270000  1.0 -0.7595362385
O  O38  1  0.43020000  0.02290000  0.40730000  1.0 -0.7595362385
O  O39  1  0.45970000  0.82760000  0.31700000  1.0 -0.7968961914
O  O40  1  0.54030000  0.17240000  0.68300000  1.0 -0.7968961914
O  O41  1  0.70780000  0.15200000  0.52010000  1.0 -0.7837903221
O  O42  1  0.29220000  0.84800000  0.47990000  1.0 -0.7837903221
O  O43  1  0.70840000  0.79810000  0.50600000  1.0 -0.7427857836
O  O44  1  0.29160000  0.20190000  0.49400000  1.0 -0.7427857836
O  O45  1  0.63560000  0.91160000  0.22210000  1.0 -0.7861785014
O  O46  1  0.36440000  0.08840000  0.77790000  1.0 -0.7861785014
