# DDEC6 charges by PACMAN v1.1 (https://github.com/mtap-research/PACMAN-charge/)
data_AZALUL_ASR_pacman
_symmetry_space_group_name_H-M   'P 1'
_cell_length_a   14.68520000
_cell_length_b   14.68520000
_cell_length_c   14.68520000
_cell_angle_alpha   60.00000000
_cell_angle_beta   60.00000000
_cell_angle_gamma   60.00000000
_symmetry_Int_Tables_number   1
_chemical_formula_structural   Zr3H28(C3O4)8
_chemical_formula_sum   'Zr6 H56 C48 O64'
_cell_volume   2239.36351954
_cell_formula_units_Z   2
loop_
 _symmetry_equiv_pos_site_id
 _symmetry_equiv_pos_as_xyz
  1  'x, y, z'
loop_
 _atom_site_type_symbol
 _atom_site_label
 _atom_site_symmetry_multiplicity
 _atom_site_fract_x
 _atom_site_fract_y
 _atom_site_fract_z
 _atom_site_occupancy
 _atom_site_charge
Zr  Zr1  1  0.11969000  0.88031000  0.88031000  1.0 1.7653671586
Zr  Zr2  1  0.88031000  0.11969000  0.11969000  1.0 1.7638284945
Zr  Zr3  1  0.88031000  0.88031000  0.11969000  1.0 1.7638284945
Zr  Zr4  1  0.11969000  0.11969000  0.88031000  1.0 1.7638284945
Zr  Zr5  1  0.88031000  0.11969000  0.88031000  1.0 1.7638284945
Zr  Zr6  1  0.11969000  0.88031000  0.11969000  1.0 1.7653671586
H  H1  1  0.14184000  0.57892000  0.85816000  1.0 0.1045814091
H  H2  1  0.10980000  0.67680000  0.89020000  1.0 0.2693522531
H  H3  1  0.85816000  0.42108000  0.14184000  1.0 0.1045814091
H  H4  1  0.89020000  0.32320000  0.10980000  1.0 0.2693522531
H  H5  1  0.57892000  0.14184000  0.42108000  1.0 0.1045814091
H  H6  1  0.67680000  0.10980000  0.32320000  1.0 0.2693522531
H  H7  1  0.42108000  0.85816000  0.57892000  1.0 0.1045814091
H  H8  1  0.32320000  0.89020000  0.67680000  1.0 0.2693522531
H  H9  1  0.57892000  0.85816000  0.14184000  1.0 0.1045814091
H  H10  1  0.67680000  0.89020000  0.10980000  1.0 0.2693522531
H  H11  1  0.42108000  0.14184000  0.85816000  1.0 0.1045814091
H  H12  1  0.32320000  0.10980000  0.89020000  1.0 0.2693522531
H  H13  1  0.14184000  0.42108000  0.57892000  1.0 0.1045814091
H  H14  1  0.10980000  0.32320000  0.67680000  1.0 0.2693522531
H  H15  1  0.85816000  0.57892000  0.42108000  1.0 0.1045814091
H  H16  1  0.89020000  0.67680000  0.32320000  1.0 0.2693522531
H  H17  1  0.85816000  0.14184000  0.57892000  1.0 0.1045814091
H  H18  1  0.89020000  0.10980000  0.67680000  1.0 0.2693522531
H  H19  1  0.14184000  0.85816000  0.42108000  1.0 0.1045814091
H  H20  1  0.10980000  0.89020000  0.32320000  1.0 0.2693522531
H  H21  1  0.42108000  0.57892000  0.14184000  1.0 0.1045814091
H  H22  1  0.32320000  0.67680000  0.10980000  1.0 0.2693522531
H  H23  1  0.57892000  0.42108000  0.85816000  1.0 0.1045814091
H  H24  1  0.67680000  0.32320000  0.89020000  1.0 0.2693522531
H  H25  1  0.85816000  0.57892000  0.14184000  1.0 0.1045814091
H  H26  1  0.89020000  0.67680000  0.10980000  1.0 0.2693522531
H  H27  1  0.14184000  0.42108000  0.85816000  1.0 0.1045814091
H  H28  1  0.10980000  0.32320000  0.89020000  1.0 0.2693522531
H  H29  1  0.42108000  0.14184000  0.57892000  1.0 0.1045814091
H  H30  1  0.32320000  0.10980000  0.67680000  1.0 0.2693522531
H  H31  1  0.57892000  0.85816000  0.42108000  1.0 0.1045814091
H  H32  1  0.67680000  0.89020000  0.32320000  1.0 0.2693522531
H  H33  1  0.42108000  0.57892000  0.85816000  1.0 0.1045814091
H  H34  1  0.32320000  0.67680000  0.89020000  1.0 0.2693522531
H  H35  1  0.57892000  0.42108000  0.14184000  1.0 0.1045814091
H  H36  1  0.67680000  0.32320000  0.10980000  1.0 0.2693522531
H  H37  1  0.85816000  0.14184000  0.42108000  1.0 0.1045814091
H  H38  1  0.89020000  0.10980000  0.32320000  1.0 0.2693522531
H  H39  1  0.14184000  0.85816000  0.57892000  1.0 0.1045814091
H  H40  1  0.10980000  0.89020000  0.67680000  1.0 0.2693522531
H  H41  1  0.14184000  0.57892000  0.42108000  1.0 0.1045814091
H  H42  1  0.10980000  0.67680000  0.32320000  1.0 0.2693522531
H  H43  1  0.85816000  0.42108000  0.57892000  1.0 0.1045814091
H  H44  1  0.89020000  0.32320000  0.67680000  1.0 0.2693522531
H  H45  1  0.57892000  0.14184000  0.85816000  1.0 0.1045814091
H  H46  1  0.67680000  0.10980000  0.89020000  1.0 0.2693522531
H  H47  1  0.42108000  0.85816000  0.14184000  1.0 0.1045814091
H  H48  1  0.32320000  0.89020000  0.10980000  1.0 0.2693522531
H  H49  1  0.90490000  0.90490000  0.90490000  1.0 0.2934174024
H  H50  1  0.90490000  0.28530000  0.90490000  1.0 0.2934174024
H  H51  1  0.90490000  0.90490000  0.28530000  1.0 0.2934174024
H  H52  1  0.28530000  0.90490000  0.90490000  1.0 0.2934174024
H  H53  1  0.09510000  0.71470000  0.09510000  1.0 0.2934174024
H  H54  1  0.09510000  0.09510000  0.09510000  1.0 0.2934174024
H  H55  1  0.09510000  0.09510000  0.71470000  1.0 0.2934174024
H  H56  1  0.71470000  0.09510000  0.09510000  1.0 0.2934174024
C  C1  1  0.08659000  0.54941000  0.91341000  1.0 -0.1537393587
C  C2  1  0.91341000  0.45059000  0.08659000  1.0 -0.1537393587
C  C3  1  0.54941000  0.08659000  0.45059000  1.0 -0.1537393587
C  C4  1  0.45059000  0.91341000  0.54941000  1.0 -0.1537393587
C  C5  1  0.54941000  0.91341000  0.08659000  1.0 -0.1537393587
C  C6  1  0.45059000  0.08659000  0.91341000  1.0 -0.1537393587
C  C7  1  0.08659000  0.45059000  0.54941000  1.0 -0.1552828914
C  C8  1  0.91341000  0.54941000  0.45059000  1.0 -0.1537393587
C  C9  1  0.91341000  0.08659000  0.54941000  1.0 -0.1537393587
C  C10  1  0.08659000  0.91341000  0.45059000  1.0 -0.1537393587
C  C11  1  0.45059000  0.54941000  0.08659000  1.0 -0.1537393587
C  C12  1  0.54941000  0.45059000  0.91341000  1.0 -0.1537393587
C  C13  1  0.91341000  0.54941000  0.08659000  1.0 -0.1537393587
C  C14  1  0.08659000  0.45059000  0.91341000  1.0 -0.1552828914
C  C15  1  0.45059000  0.08659000  0.54941000  1.0 -0.1537393587
C  C16  1  0.54941000  0.91341000  0.45059000  1.0 -0.1537393587
C  C17  1  0.45059000  0.54941000  0.91341000  1.0 -0.1537393587
C  C18  1  0.54941000  0.45059000  0.08659000  1.0 -0.1537393587
C  C19  1  0.91341000  0.08659000  0.45059000  1.0 -0.1537393587
C  C20  1  0.08659000  0.91341000  0.54941000  1.0 -0.1537393587
C  C21  1  0.08659000  0.54941000  0.45059000  1.0 -0.1537393587
C  C22  1  0.91341000  0.45059000  0.54941000  1.0 -0.1537393587
C  C23  1  0.54941000  0.08659000  0.91341000  1.0 -0.1537393587
C  C24  1  0.45059000  0.91341000  0.08659000  1.0 -0.1537393587
C  C25  1  0.00000000  0.69770000  0.00000000  1.0 0.1305862885
C  C26  1  0.00000000  0.59486000  0.00000000  1.0 -0.0998118039
C  C27  1  0.00000000  0.30230000  0.00000000  1.0 0.1305862885
C  C28  1  0.00000000  0.40514000  0.00000000  1.0 -0.0998118039
C  C29  1  0.69770000  0.00000000  0.30230000  1.0 0.1305862885
C  C30  1  0.59486000  0.00000000  0.40514000  1.0 -0.0998118039
C  C31  1  0.30230000  0.00000000  0.69770000  1.0 0.1305862885
C  C32  1  0.40514000  0.00000000  0.59486000  1.0 -0.0998118039
C  C33  1  0.69770000  0.00000000  0.00000000  1.0 0.1305862885
C  C34  1  0.59486000  0.00000000  0.00000000  1.0 -0.0998118039
C  C35  1  0.30230000  0.00000000  0.00000000  1.0 0.1305862885
C  C36  1  0.40514000  0.00000000  0.00000000  1.0 -0.0998118039
C  C37  1  0.00000000  0.30230000  0.69770000  1.0 0.1305862885
C  C38  1  0.00000000  0.40514000  0.59486000  1.0 -0.0998118039
C  C39  1  0.00000000  0.69770000  0.30230000  1.0 0.1305862885
C  C40  1  0.00000000  0.59486000  0.40514000  1.0 -0.0998118039
C  C41  1  0.00000000  0.00000000  0.69770000  1.0 0.1305862885
C  C42  1  0.00000000  0.00000000  0.59486000  1.0 -0.0998118039
C  C43  1  0.00000000  0.00000000  0.30230000  1.0 0.1305862885
C  C44  1  0.00000000  0.00000000  0.40514000  1.0 -0.0998118039
C  C45  1  0.30230000  0.69770000  0.00000000  1.0 0.1305862885
C  C46  1  0.40514000  0.59486000  0.00000000  1.0 -0.0998118039
C  C47  1  0.69770000  0.30230000  0.00000000  1.0 0.1305862885
C  C48  1  0.59486000  0.40514000  0.00000000  1.0 -0.0998118039
O  O1  1  0.07610000  0.73070000  0.92390000  1.0 -0.2305737086
O  O2  1  0.11080000  0.73460000  0.88920000  1.0 -0.2690725598
O  O3  1  0.92390000  0.26930000  0.07610000  1.0 -0.2305737086
O  O4  1  0.88920000  0.26540000  0.11080000  1.0 -0.2690725598
O  O5  1  0.73070000  0.07610000  0.26930000  1.0 -0.2305737086
O  O6  1  0.73460000  0.11080000  0.26540000  1.0 -0.2690725598
O  O7  1  0.26930000  0.92390000  0.73070000  1.0 -0.2305737086
O  O8  1  0.26540000  0.88920000  0.73460000  1.0 -0.2690725598
O  O9  1  0.73070000  0.92390000  0.07610000  1.0 -0.2305737086
O  O10  1  0.73460000  0.88920000  0.11080000  1.0 -0.2690725598
O  O11  1  0.26930000  0.07610000  0.92390000  1.0 -0.2305737086
O  O12  1  0.26540000  0.11080000  0.88920000  1.0 -0.2690725598
O  O13  1  0.07610000  0.26930000  0.73070000  1.0 -0.2305737086
O  O14  1  0.11080000  0.26540000  0.73460000  1.0 -0.2690725598
O  O15  1  0.92390000  0.73070000  0.26930000  1.0 -0.2305737086
O  O16  1  0.88920000  0.73460000  0.26540000  1.0 -0.2690725598
O  O17  1  0.92390000  0.07610000  0.73070000  1.0 -0.2305737086
O  O18  1  0.88920000  0.11080000  0.73460000  1.0 -0.2690725598
O  O19  1  0.07610000  0.92390000  0.26930000  1.0 -0.2305737086
O  O20  1  0.11080000  0.88920000  0.26540000  1.0 -0.2690725598
O  O21  1  0.26930000  0.73070000  0.07610000  1.0 -0.2305737086
O  O22  1  0.26540000  0.73460000  0.11080000  1.0 -0.2690725598
O  O23  1  0.73070000  0.26930000  0.92390000  1.0 -0.2305737086
O  O24  1  0.73460000  0.26540000  0.88920000  1.0 -0.2690725598
O  O25  1  0.92390000  0.73070000  0.07610000  1.0 -0.2305737086
O  O26  1  0.88920000  0.73460000  0.11080000  1.0 -0.2690725598
O  O27  1  0.07610000  0.26930000  0.92390000  1.0 -0.2305737086
O  O28  1  0.11080000  0.26540000  0.88920000  1.0 -0.2690725598
O  O29  1  0.26930000  0.07610000  0.73070000  1.0 -0.2305737086
O  O30  1  0.26540000  0.11080000  0.73460000  1.0 -0.2690725598
O  O31  1  0.73070000  0.92390000  0.26930000  1.0 -0.2305737086
O  O32  1  0.73460000  0.88920000  0.26540000  1.0 -0.2690725598
O  O33  1  0.26930000  0.73070000  0.92390000  1.0 -0.2305737086
O  O34  1  0.26540000  0.73460000  0.88920000  1.0 -0.2690725598
O  O35  1  0.73070000  0.26930000  0.07610000  1.0 -0.2305737086
O  O36  1  0.73460000  0.26540000  0.11080000  1.0 -0.2690725598
O  O37  1  0.92390000  0.07610000  0.26930000  1.0 -0.2305737086
O  O38  1  0.88920000  0.11080000  0.26540000  1.0 -0.2690725598
O  O39  1  0.07610000  0.92390000  0.73070000  1.0 -0.2305737086
O  O40  1  0.11080000  0.88920000  0.73460000  1.0 -0.2690725598
O  O41  1  0.07610000  0.73070000  0.26930000  1.0 -0.2305737086
O  O42  1  0.11080000  0.73460000  0.26540000  1.0 -0.2690725598
O  O43  1  0.92390000  0.26930000  0.73070000  1.0 -0.2305737086
O  O44  1  0.88920000  0.26540000  0.73460000  1.0 -0.2690725598
O  O45  1  0.73070000  0.07610000  0.92390000  1.0 -0.2305737086
O  O46  1  0.73460000  0.11080000  0.88920000  1.0 -0.2690725598
O  O47  1  0.26930000  0.92390000  0.07610000  1.0 -0.2305737086
O  O48  1  0.26540000  0.88920000  0.11080000  1.0 -0.2690725598
O  O49  1  0.92990000  0.92990000  0.92990000  1.0 -0.3734729281
O  O50  1  0.94914000  0.94914000  0.94914000  1.0 -0.4497783548
O  O51  1  0.92990000  0.21030000  0.92990000  1.0 -0.3751571393
O  O52  1  0.94914000  0.15258000  0.94914000  1.0 -0.4497783548
O  O53  1  0.92990000  0.92990000  0.21030000  1.0 -0.3734729281
O  O54  1  0.94914000  0.94914000  0.15258000  1.0 -0.4497783548
O  O55  1  0.21030000  0.92990000  0.92990000  1.0 -0.3751571393
O  O56  1  0.15258000  0.94914000  0.94914000  1.0 -0.4497783548
O  O57  1  0.07010000  0.78970000  0.07010000  1.0 -0.3751571393
O  O58  1  0.05086000  0.84742000  0.05086000  1.0 -0.4497783548
O  O59  1  0.07010000  0.07010000  0.07010000  1.0 -0.3734729281
O  O60  1  0.05086000  0.05086000  0.05086000  1.0 -0.4497783548
O  O61  1  0.07010000  0.07010000  0.78970000  1.0 -0.3751571393
O  O62  1  0.05086000  0.05086000  0.84742000  1.0 -0.4497783548
O  O63  1  0.78970000  0.07010000  0.07010000  1.0 -0.3734729281
O  O64  1  0.84742000  0.05086000  0.05086000  1.0 -0.4497783548
