# DDEC6 charges by PACMAN v1.1 (https://github.com/mtap-research/PACMAN-charge/)
data_AZAPUP_FSR_pacman
_symmetry_space_group_name_H-M   'P 1'
_cell_length_a   13.11910000
_cell_length_b   13.11910000
_cell_length_c   11.01000000
_cell_angle_alpha   89.20760000
_cell_angle_beta   90.79240000
_cell_angle_gamma   67.14760000
_symmetry_Int_Tables_number   1
_chemical_formula_structural   EuH7C12Br3O7
_chemical_formula_sum   'Eu4 H28 C48 Br12 O28'
_cell_volume   1745.65670611
_cell_formula_units_Z   4
loop_
 _symmetry_equiv_pos_site_id
 _symmetry_equiv_pos_as_xyz
  1  'x, y, z'
loop_
 _atom_site_type_symbol
 _atom_site_label
 _atom_site_symmetry_multiplicity
 _atom_site_fract_x
 _atom_site_fract_y
 _atom_site_fract_z
 _atom_site_occupancy
 _atom_site_charge
Eu  Eu1  1  0.65156000  0.93564000  0.07414000  1.0 2.1067435285
Eu  Eu2  1  0.93564000  0.65156000  0.42586000  1.0 2.1067435285
Eu  Eu3  1  0.34844000  0.06436000  0.92586000  1.0 2.1067435285
Eu  Eu4  1  0.06436000  0.34844000  0.57414000  1.0 2.1067435285
H  H1  1  0.78280000  0.07540000  0.13850000  1.0 0.3226557067
H  H2  1  0.85890000  0.98810000  0.09510000  1.0 0.3268307141
H  H3  1  0.70770000  0.88850000  0.62910000  1.0 0.1431365948
H  H4  1  0.56690000  0.11010000  0.35390000  1.0 0.1180391783
H  H5  1  0.48870000  0.24730000  0.49650000  1.0 0.1180391783
H  H6  1  0.54600000  0.35240000  0.12170000  1.0 0.1486923536
H  H7  1  0.07540000  0.78280000  0.36150000  1.0 0.3226557067
H  H8  1  0.98810000  0.85890000  0.40490000  1.0 0.3268307141
H  H9  1  0.88850000  0.70770000  0.87090000  1.0 0.1431365948
H  H10  1  0.11010000  0.56690000  0.14610000  1.0 0.1180391783
H  H11  1  0.24730000  0.48870000  0.00350000  1.0 0.1180391783
H  H12  1  0.35240000  0.54600000  0.37830000  1.0 0.1486923536
H  H13  1  0.21720000  0.92460000  0.86150000  1.0 0.3226557067
H  H14  1  0.14110000  0.01190000  0.90490000  1.0 0.3268307141
H  H15  1  0.29230000  0.11150000  0.37090000  1.0 0.1431365948
H  H16  1  0.43310000  0.88990000  0.64610000  1.0 0.1180391783
H  H17  1  0.51130000  0.75270000  0.50350000  1.0 0.1180391783
H  H18  1  0.45400000  0.64760000  0.87830000  1.0 0.1486923536
H  H19  1  0.92460000  0.21720000  0.63850000  1.0 0.3226557067
H  H20  1  0.01190000  0.14110000  0.59510000  1.0 0.3268307141
H  H21  1  0.11150000  0.29230000  0.12910000  1.0 0.1431365948
H  H22  1  0.88990000  0.43310000  0.85390000  1.0 0.1180391783
H  H23  1  0.75270000  0.51130000  0.99650000  1.0 0.1180391783
H  H24  1  0.64760000  0.45400000  0.62170000  1.0 0.1486923536
H  H25  1  0.29830000  0.29830000  0.25000000  1.0 0.1431365948
H  H26  1  0.50190000  0.50190000  0.25000000  1.0 0.0755214384
H  H27  1  0.70170000  0.70170000  0.75000000  1.0 0.1431365948
H  H28  1  0.49810000  0.49810000  0.75000000  1.0 0.0755214384
C  C1  1  0.64630000  0.98650000  0.47640000  1.0 -0.0203160262
C  C2  1  0.43450000  0.30550000  0.18040000  1.0 -0.0203160262
C  C3  1  0.61040000  0.04340000  0.68730000  1.0 -0.0511012273
C  C4  1  0.48790000  0.36770000  0.17500000  1.0 -0.0562053602
C  C5  1  0.66300000  0.95980000  0.60260000  1.0 -0.0969024235
C  C6  1  0.46570000  0.20330000  0.10680000  1.0 0.6227163812
C  C7  1  0.57950000  0.09350000  0.43660000  1.0 -0.0751019875
C  C8  1  0.62300000  0.01060000  0.82070000  1.0 0.5927704116
C  C9  1  0.70680000  0.89640000  0.38570000  1.0 0.6259317836
C  C10  1  0.53200000  0.17500000  0.52110000  1.0 -0.1796936439
C  C11  1  0.55090000  0.14570000  0.64300000  1.0 0.0372337326
C  C12  1  0.98650000  0.64630000  0.02360000  1.0 -0.0203160262
C  C13  1  0.30550000  0.43450000  0.31960000  1.0 -0.0203160262
C  C14  1  0.04340000  0.61040000  0.81270000  1.0 -0.0511012273
C  C15  1  0.36770000  0.48790000  0.32500000  1.0 -0.0562053602
C  C16  1  0.95980000  0.66300000  0.89740000  1.0 -0.0969024235
C  C17  1  0.20330000  0.46570000  0.39320000  1.0 0.6227163812
C  C18  1  0.09350000  0.57950000  0.06340000  1.0 -0.0746654877
C  C19  1  0.01060000  0.62300000  0.67930000  1.0 0.5927704116
C  C20  1  0.89640000  0.70680000  0.11430000  1.0 0.6259317836
C  C21  1  0.17500000  0.53200000  0.97890000  1.0 -0.1796936439
C  C22  1  0.14570000  0.55090000  0.85700000  1.0 0.0372337326
C  C23  1  0.35370000  0.01350000  0.52360000  1.0 -0.0203160262
C  C24  1  0.56550000  0.69450000  0.81960000  1.0 -0.0203160262
C  C25  1  0.38960000  0.95660000  0.31270000  1.0 -0.0511012273
C  C26  1  0.51210000  0.63230000  0.82500000  1.0 -0.0562053602
C  C27  1  0.33700000  0.04020000  0.39740000  1.0 -0.0969024235
C  C28  1  0.53430000  0.79670000  0.89320000  1.0 0.6227163812
C  C29  1  0.42050000  0.90650000  0.56340000  1.0 -0.0746654877
C  C30  1  0.37700000  0.98940000  0.17930000  1.0 0.5927704116
C  C31  1  0.29320000  0.10360000  0.61430000  1.0 0.6259317836
C  C32  1  0.46800000  0.82500000  0.47890000  1.0 -0.1796936439
C  C33  1  0.44910000  0.85430000  0.35700000  1.0 0.0372337326
C  C34  1  0.01350000  0.35370000  0.97640000  1.0 -0.0203160262
C  C35  1  0.69450000  0.56550000  0.68040000  1.0 -0.0203160262
C  C36  1  0.95660000  0.38960000  0.18730000  1.0 -0.0511012273
C  C37  1  0.63230000  0.51210000  0.67500000  1.0 -0.0562053602
C  C38  1  0.04020000  0.33700000  0.10260000  1.0 -0.0969024235
C  C39  1  0.79670000  0.53430000  0.60680000  1.0 0.6227163812
C  C40  1  0.90650000  0.42050000  0.93660000  1.0 -0.0751019875
C  C41  1  0.98940000  0.37700000  0.32070000  1.0 0.5927704116
C  C42  1  0.10360000  0.29320000  0.88570000  1.0 0.6259317836
C  C43  1  0.82500000  0.46800000  0.02110000  1.0 -0.1796936439
C  C44  1  0.85430000  0.44910000  0.14300000  1.0 0.0372337326
C  C45  1  0.34090000  0.34090000  0.25000000  1.0 -0.1269586952
C  C46  1  0.45940000  0.45940000  0.25000000  1.0 -0.2682215282
C  C47  1  0.65910000  0.65910000  0.75000000  1.0 -0.1269586952
C  C48  1  0.54060000  0.54060000  0.75000000  1.0 -0.2682215282
Br  Br1  1  0.51110000  0.26290000  0.75900000  1.0 0.1020673877
Br  Br2  1  0.59520000  0.35620000  0.04380000  1.0 -0.1422871174
Br  Br3  1  0.45060000  0.26100000  0.75050000  1.0 0.1180391783
Br  Br4  1  0.26290000  0.51110000  0.74100000  1.0 0.1020673877
Br  Br5  1  0.35620000  0.59520000  0.45620000  1.0 -0.1422871174
Br  Br6  1  0.26100000  0.45060000  0.74950000  1.0 0.1148352688
Br  Br7  1  0.48890000  0.73710000  0.24100000  1.0 0.1020673877
Br  Br8  1  0.40480000  0.64380000  0.95620000  1.0 -0.1422871174
Br  Br9  1  0.54940000  0.73900000  0.24950000  1.0 0.1180391783
Br  Br10  1  0.73710000  0.48890000  0.25900000  1.0 0.1020673877
Br  Br11  1  0.64380000  0.40480000  0.54380000  1.0 -0.1422871174
Br  Br12  1  0.73900000  0.54940000  0.25050000  1.0 0.1180391783
O  O1  1  0.56220000  0.13140000  0.11850000  1.0 -0.65056263
O  O2  1  0.53980000  0.03240000  0.88310000  1.0 -0.7196831116
O  O3  1  0.38990000  0.19550000  0.04320000  1.0 -0.6588968048
O  O4  1  0.71860000  0.96020000  0.86490000  1.0 -0.575414584
O  O5  1  0.79060000  0.01420000  0.11200000  1.0 -0.7278477708
O  O6  1  0.66900000  0.91540000  0.28060000  1.0 -0.6900774101
O  O7  1  0.77990000  0.81450000  0.42350000  1.0 -0.6297997394
O  O8  1  0.13140000  0.56220000  0.38150000  1.0 -0.65056263
O  O9  1  0.03240000  0.53980000  0.61690000  1.0 -0.7196831116
O  O10  1  0.19550000  0.38990000  0.45680000  1.0 -0.6588968048
O  O11  1  0.96020000  0.71860000  0.63510000  1.0 -0.575414584
O  O12  1  0.01420000  0.79060000  0.38800000  1.0 -0.7278477708
O  O13  1  0.91540000  0.66900000  0.21940000  1.0 -0.6900774101
O  O14  1  0.81450000  0.77990000  0.07650000  1.0 -0.6297997394
O  O15  1  0.43780000  0.86860000  0.88150000  1.0 -0.65056263
O  O16  1  0.46020000  0.96760000  0.11690000  1.0 -0.7196831116
O  O17  1  0.61010000  0.80450000  0.95680000  1.0 -0.6588968048
O  O18  1  0.28140000  0.03980000  0.13510000  1.0 -0.5748003582
O  O19  1  0.20940000  0.98580000  0.88800000  1.0 -0.7278477708
O  O20  1  0.33100000  0.08460000  0.71940000  1.0 -0.6900774101
O  O21  1  0.22010000  0.18550000  0.57650000  1.0 -0.6297997394
O  O22  1  0.86860000  0.43780000  0.61850000  1.0 -0.65056263
O  O23  1  0.96760000  0.46020000  0.38310000  1.0 -0.7196831116
O  O24  1  0.80450000  0.61010000  0.54320000  1.0 -0.6588968048
O  O25  1  0.03980000  0.28140000  0.36490000  1.0 -0.575414584
O  O26  1  0.98580000  0.20940000  0.61200000  1.0 -0.7278477708
O  O27  1  0.08460000  0.33100000  0.78060000  1.0 -0.6900774101
O  O28  1  0.18550000  0.22010000  0.92350000  1.0 -0.6297997394
