# DDEC6 charges by PACMAN v1.1 (https://github.com/mtap-research/PACMAN-charge/)
data_AZEJAT_FSR_pacman
_symmetry_space_group_name_H-M   'P 1'
_cell_length_a   16.04560000
_cell_length_b   16.04560000
_cell_length_c   16.02110000
_cell_angle_alpha   90.00000000
_cell_angle_beta   90.00000000
_cell_angle_gamma   90.00000000
_symmetry_Int_Tables_number   1
_chemical_formula_structural   Cd4H48C60N32Cl5
_chemical_formula_sum   'Cd4 H48 C60 N32 Cl5'
_cell_volume   4124.81290275
_cell_formula_units_Z   1
loop_
 _symmetry_equiv_pos_site_id
 _symmetry_equiv_pos_as_xyz
  1  'x, y, z'
loop_
 _atom_site_type_symbol
 _atom_site_label
 _atom_site_symmetry_multiplicity
 _atom_site_fract_x
 _atom_site_fract_y
 _atom_site_fract_z
 _atom_site_occupancy
 _atom_site_charge
Cd  Cd1  1  0.87794000  0.87794000  0.00000000  1.0 0.6714489842
Cd  Cd2  1  0.12206000  0.12206000  0.00000000  1.0 0.6714489842
Cd  Cd3  1  0.87794000  0.12206000  0.00000000  1.0 0.6714489842
Cd  Cd4  1  0.12206000  0.87794000  0.00000000  1.0 0.6714489842
H  H1  1  0.68016000  0.87034000  0.70921000  1.0 0.1124709705
H  H2  1  0.59825000  0.87059000  0.58946000  1.0 0.1236578421
H  H3  1  0.75444000  0.87741000  0.82245000  1.0 0.2867294782
H  H4  1  0.31984000  0.12966000  0.70921000  1.0 0.1124709705
H  H5  1  0.40175000  0.12941000  0.58946000  1.0 0.1236578421
H  H6  1  0.24556000  0.12259000  0.82245000  1.0 0.2867294782
H  H7  1  0.87034000  0.31984000  0.70921000  1.0 0.1124709705
H  H8  1  0.87059000  0.40175000  0.58946000  1.0 0.1236578421
H  H9  1  0.87741000  0.24556000  0.82245000  1.0 0.2867294782
H  H10  1  0.12966000  0.68016000  0.70921000  1.0 0.1124709705
H  H11  1  0.12941000  0.59825000  0.58946000  1.0 0.1236578421
H  H12  1  0.12259000  0.75444000  0.82245000  1.0 0.2867294782
H  H13  1  0.68016000  0.12966000  0.29079000  1.0 0.1124709705
H  H14  1  0.59825000  0.12941000  0.41054000  1.0 0.1236578421
H  H15  1  0.75444000  0.12259000  0.17755000  1.0 0.2867294782
H  H16  1  0.31984000  0.87034000  0.29079000  1.0 0.1124709705
H  H17  1  0.40175000  0.87059000  0.41054000  1.0 0.1236578421
H  H18  1  0.24556000  0.87741000  0.17755000  1.0 0.2867294782
H  H19  1  0.87034000  0.68016000  0.29079000  1.0 0.1124709705
H  H20  1  0.87059000  0.59825000  0.41054000  1.0 0.1236578421
H  H21  1  0.87741000  0.75444000  0.17755000  1.0 0.2867294782
H  H22  1  0.12966000  0.31984000  0.29079000  1.0 0.1124709705
H  H23  1  0.12941000  0.40175000  0.41054000  1.0 0.1236578421
H  H24  1  0.12259000  0.24556000  0.17755000  1.0 0.2867294782
H  H25  1  0.31984000  0.12966000  0.29079000  1.0 0.1124709705
H  H26  1  0.40175000  0.12941000  0.41054000  1.0 0.1236578421
H  H27  1  0.24556000  0.12259000  0.17755000  1.0 0.2867294782
H  H28  1  0.68016000  0.87034000  0.29079000  1.0 0.1124709705
H  H29  1  0.59825000  0.87059000  0.41054000  1.0 0.1236578421
H  H30  1  0.75444000  0.87741000  0.17755000  1.0 0.2867294782
H  H31  1  0.12966000  0.68016000  0.29079000  1.0 0.1124709705
H  H32  1  0.12941000  0.59825000  0.41054000  1.0 0.1236578421
H  H33  1  0.12259000  0.75444000  0.17755000  1.0 0.2867294782
H  H34  1  0.87034000  0.31984000  0.29079000  1.0 0.1124709705
H  H35  1  0.87059000  0.40175000  0.41054000  1.0 0.1236578421
H  H36  1  0.87741000  0.24556000  0.17755000  1.0 0.2867294782
H  H37  1  0.31984000  0.87034000  0.70921000  1.0 0.1124709705
H  H38  1  0.40175000  0.87059000  0.58946000  1.0 0.1236578421
H  H39  1  0.24556000  0.87741000  0.82245000  1.0 0.2867294782
H  H40  1  0.68016000  0.12966000  0.70921000  1.0 0.1124709705
H  H41  1  0.59825000  0.12941000  0.58946000  1.0 0.1236578421
H  H42  1  0.75444000  0.12259000  0.82245000  1.0 0.2867294782
H  H43  1  0.12966000  0.31984000  0.70921000  1.0 0.1124709705
H  H44  1  0.12941000  0.40175000  0.58946000  1.0 0.1236578421
H  H45  1  0.12259000  0.24556000  0.82245000  1.0 0.2867294782
H  H46  1  0.87034000  0.68016000  0.70921000  1.0 0.1124709705
H  H47  1  0.87059000  0.59825000  0.58946000  1.0 0.1236578421
H  H48  1  0.87741000  0.75444000  0.82245000  1.0 0.2867294782
C  C1  1  0.66400000  0.92030000  0.68460000  1.0 -0.1517182533
C  C2  1  0.61560000  0.92040000  0.61360000  1.0 -0.1596711791
C  C3  1  0.33600000  0.07970000  0.68460000  1.0 -0.1517182533
C  C4  1  0.38440000  0.07960000  0.61360000  1.0 -0.1596711791
C  C5  1  0.92030000  0.33600000  0.68460000  1.0 -0.1517182533
C  C6  1  0.92040000  0.38440000  0.61360000  1.0 -0.1596711791
C  C7  1  0.07970000  0.66400000  0.68460000  1.0 -0.1517182533
C  C8  1  0.07960000  0.61560000  0.61360000  1.0 -0.1596711791
C  C9  1  0.66400000  0.07970000  0.31540000  1.0 -0.1517182533
C  C10  1  0.61560000  0.07960000  0.38640000  1.0 -0.1596711791
C  C11  1  0.33600000  0.92030000  0.31540000  1.0 -0.1517182533
C  C12  1  0.38440000  0.92040000  0.38640000  1.0 -0.1596711791
C  C13  1  0.92030000  0.66400000  0.31540000  1.0 -0.1517182533
C  C14  1  0.92040000  0.61560000  0.38640000  1.0 -0.1596711791
C  C15  1  0.07970000  0.33600000  0.31540000  1.0 -0.1517182533
C  C16  1  0.07960000  0.38440000  0.38640000  1.0 -0.1596711791
C  C17  1  0.33600000  0.07970000  0.31540000  1.0 -0.1517182533
C  C18  1  0.38440000  0.07960000  0.38640000  1.0 -0.1596711791
C  C19  1  0.66400000  0.92030000  0.31540000  1.0 -0.1517182533
C  C20  1  0.61560000  0.92040000  0.38640000  1.0 -0.1596711791
C  C21  1  0.07970000  0.66400000  0.31540000  1.0 -0.1517182533
C  C22  1  0.07960000  0.61560000  0.38640000  1.0 -0.1596711791
C  C23  1  0.92030000  0.33600000  0.31540000  1.0 -0.1517182533
C  C24  1  0.92040000  0.38440000  0.38640000  1.0 -0.1596711791
C  C25  1  0.33600000  0.92030000  0.68460000  1.0 -0.1517182533
C  C26  1  0.38440000  0.92040000  0.61360000  1.0 -0.1596711791
C  C27  1  0.66400000  0.07970000  0.68460000  1.0 -0.1517182533
C  C28  1  0.61560000  0.07960000  0.61360000  1.0 -0.1596711791
C  C29  1  0.07970000  0.33600000  0.68460000  1.0 -0.1517182533
C  C30  1  0.07960000  0.38440000  0.61360000  1.0 -0.1596711791
C  C31  1  0.92030000  0.66400000  0.68460000  1.0 -0.1517182533
C  C32  1  0.92040000  0.61560000  0.61360000  1.0 -0.1596711791
C  C33  1  0.73720000  0.00000000  0.79280000  1.0 0.2328008571
C  C34  1  0.68940000  0.00000000  0.72050000  1.0 -0.0243522907
C  C35  1  0.59210000  0.00000000  0.57710000  1.0 0.0918803653
C  C36  1  0.26280000  0.00000000  0.79280000  1.0 0.2328008571
C  C37  1  0.31060000  0.00000000  0.72050000  1.0 -0.0243522907
C  C38  1  0.40790000  0.00000000  0.57710000  1.0 0.0918803653
C  C39  1  0.00000000  0.26280000  0.79280000  1.0 0.2328008571
C  C40  1  0.00000000  0.31060000  0.72050000  1.0 -0.0243522907
C  C41  1  0.00000000  0.40790000  0.57710000  1.0 0.0918803653
C  C42  1  0.00000000  0.73720000  0.79280000  1.0 0.2328008571
C  C43  1  0.00000000  0.68940000  0.72050000  1.0 -0.0243522907
C  C44  1  0.00000000  0.59210000  0.57710000  1.0 0.0918803653
C  C45  1  0.73720000  0.00000000  0.20720000  1.0 0.2328008571
C  C46  1  0.68940000  0.00000000  0.27950000  1.0 -0.0254685534
C  C47  1  0.59210000  0.00000000  0.42290000  1.0 0.0918803653
C  C48  1  0.26280000  0.00000000  0.20720000  1.0 0.2328008571
C  C49  1  0.31060000  0.00000000  0.27950000  1.0 -0.0254685534
C  C50  1  0.40790000  0.00000000  0.42290000  1.0 0.0918803653
C  C51  1  0.00000000  0.73720000  0.20720000  1.0 0.2328008571
C  C52  1  0.00000000  0.68940000  0.27950000  1.0 -0.0254685534
C  C53  1  0.00000000  0.59210000  0.42290000  1.0 0.0918803653
C  C54  1  0.00000000  0.26280000  0.20720000  1.0 0.2328008571
C  C55  1  0.00000000  0.31060000  0.27950000  1.0 -0.0254685534
C  C56  1  0.00000000  0.40790000  0.42290000  1.0 0.0918803653
C  C57  1  0.54220000  0.00000000  0.50000000  1.0 -0.0468703816
C  C58  1  0.45780000  0.00000000  0.50000000  1.0 -0.0468703816
C  C59  1  0.00000000  0.45780000  0.50000000  1.0 -0.0468703816
C  C60  1  0.00000000  0.54220000  0.50000000  1.0 -0.0468703816
N  N1  1  0.76484000  0.92821000  0.83555000  1.0 -0.1980292947
N  N2  1  0.81258000  0.95512000  0.90449000  1.0 -0.1091842451
N  N3  1  0.23516000  0.07179000  0.83555000  1.0 -0.1980292947
N  N4  1  0.18742000  0.04488000  0.90449000  1.0 -0.1091842451
N  N5  1  0.92821000  0.23516000  0.83555000  1.0 -0.1980292947
N  N6  1  0.95512000  0.18742000  0.90449000  1.0 -0.1091842451
N  N7  1  0.07179000  0.76484000  0.83555000  1.0 -0.1980292947
N  N8  1  0.04488000  0.81258000  0.90449000  1.0 -0.1091842451
N  N9  1  0.76484000  0.07179000  0.16445000  1.0 -0.1980292947
N  N10  1  0.81258000  0.04488000  0.09551000  1.0 -0.1091842451
N  N11  1  0.23516000  0.92821000  0.16445000  1.0 -0.1980292947
N  N12  1  0.18742000  0.95512000  0.09551000  1.0 -0.1091842451
N  N13  1  0.92821000  0.76484000  0.16445000  1.0 -0.1980292947
N  N14  1  0.95512000  0.81258000  0.09551000  1.0 -0.1091842451
N  N15  1  0.07179000  0.23516000  0.16445000  1.0 -0.1980292947
N  N16  1  0.04488000  0.18742000  0.09551000  1.0 -0.1091842451
N  N17  1  0.23516000  0.07179000  0.16445000  1.0 -0.1980292947
N  N18  1  0.18742000  0.04488000  0.09551000  1.0 -0.1091842451
N  N19  1  0.76484000  0.92821000  0.16445000  1.0 -0.1980292947
N  N20  1  0.81258000  0.95512000  0.09551000  1.0 -0.1091842451
N  N21  1  0.07179000  0.76484000  0.16445000  1.0 -0.1980292947
N  N22  1  0.04488000  0.81258000  0.09551000  1.0 -0.1091842451
N  N23  1  0.92821000  0.23516000  0.16445000  1.0 -0.1980292947
N  N24  1  0.95512000  0.18742000  0.09551000  1.0 -0.1091842451
N  N25  1  0.23516000  0.92821000  0.83555000  1.0 -0.1980292947
N  N26  1  0.18742000  0.95512000  0.90449000  1.0 -0.1091842451
N  N27  1  0.76484000  0.07179000  0.83555000  1.0 -0.1980292947
N  N28  1  0.81258000  0.04488000  0.90449000  1.0 -0.1091842451
N  N29  1  0.07179000  0.23516000  0.83555000  1.0 -0.1980292947
N  N30  1  0.04488000  0.18742000  0.90449000  1.0 -0.1091842451
N  N31  1  0.92821000  0.76484000  0.83555000  1.0 -0.1980292947
N  N32  1  0.95512000  0.81258000  0.90449000  1.0 -0.1091842451
Cl  Cl1  1  0.75749000  0.75749000  0.00000000  1.0 -0.6939288145
Cl  Cl2  1  0.24251000  0.24251000  0.00000000  1.0 -0.6939288145
Cl  Cl3  1  0.75749000  0.24251000  0.00000000  1.0 -0.6939288145
Cl  Cl4  1  0.24251000  0.75749000  0.00000000  1.0 -0.6939288145
Cl  Cl5  1  0.00000000  0.00000000  0.00000000  1.0 -0.5888506538
