# DDEC6 charges by PACMAN v1.1 (https://github.com/mtap-research/PACMAN-charge/)
data_AZILEC_FSR_pacman
_symmetry_space_group_name_H-M   'P 1'
_cell_length_a   13.34400000
_cell_length_b   14.59500000
_cell_length_c   21.32400000
_cell_angle_alpha   90.00000000
_cell_angle_beta   90.00000000
_cell_angle_gamma   90.00000000
_symmetry_Int_Tables_number   1
_chemical_formula_structural   CoH12C16(NO)4
_chemical_formula_sum   'Co8 H96 C128 N32 O32'
_cell_volume   4152.97012032
_cell_formula_units_Z   8
loop_
 _symmetry_equiv_pos_site_id
 _symmetry_equiv_pos_as_xyz
  1  'x, y, z'
loop_
 _atom_site_type_symbol
 _atom_site_label
 _atom_site_symmetry_multiplicity
 _atom_site_fract_x
 _atom_site_fract_y
 _atom_site_fract_z
 _atom_site_occupancy
 _atom_site_charge
Co  Co1  1  0.59573000  0.90095000  0.40874000  1.0 0.8233559483
Co  Co2  1  0.59573000  0.59905000  0.90874000  1.0 0.8233559483
Co  Co3  1  0.65186000  0.09620000  0.54035000  1.0 0.8285594934
Co  Co4  1  0.65186000  0.40380000  0.04035000  1.0 0.8285594934
Co  Co5  1  0.40427000  0.09905000  0.90874000  1.0 0.8233559483
Co  Co6  1  0.40427000  0.40095000  0.40874000  1.0 0.8233559483
Co  Co7  1  0.34814000  0.90380000  0.04035000  1.0 0.8285594934
Co  Co8  1  0.34814000  0.59620000  0.54035000  1.0 0.8285594934
H  H1  1  0.66370000  0.26500000  0.85700000  1.0 0.1313171049
H  H2  1  0.66370000  0.23500000  0.35700000  1.0 0.1313171049
H  H3  1  0.65950000  0.21030000  0.74920000  1.0 0.119973207
H  H4  1  0.65950000  0.28970000  0.24920000  1.0 0.119973207
H  H5  1  0.61250000  0.39770000  0.77310000  1.0 0.119973207
H  H6  1  0.61250000  0.10230000  0.27310000  1.0 0.119973207
H  H7  1  0.63950000  0.89810000  0.67460000  1.0 0.119973207
H  H8  1  0.63950000  0.60190000  0.17460000  1.0 0.119973207
H  H9  1  0.24810000  0.83090000  0.49130000  1.0 0.1505874262
H  H10  1  0.24810000  0.66910000  0.99130000  1.0 0.1505874262
H  H11  1  0.41740000  0.83710000  0.49120000  1.0 0.119973207
H  H12  1  0.41740000  0.66290000  0.99120000  1.0 0.119973207
H  H13  1  0.61090000  0.71060000  0.70160000  1.0 0.1313171049
H  H14  1  0.61090000  0.78940000  0.20160000  1.0 0.1313171049
H  H15  1  0.30740000  0.01460000  0.62000000  1.0 0.1505874262
H  H16  1  0.30740000  0.48540000  0.12000000  1.0 0.1505874262
H  H17  1  0.61690000  0.34580000  0.66250000  1.0 0.1313171049
H  H18  1  0.61690000  0.15420000  0.16250000  1.0 0.1313171049
H  H19  1  0.62580000  0.84860000  0.78440000  1.0 0.1379802071
H  H20  1  0.62580000  0.65140000  0.28440000  1.0 0.1379802071
H  H21  1  0.29920000  0.15680000  0.46130000  1.0 0.1379802071
H  H22  1  0.29920000  0.34320000  0.96130000  1.0 0.1379802071
H  H23  1  0.46860000  0.15950000  0.45950000  1.0 0.119973207
H  H24  1  0.46860000  0.34050000  0.95950000  1.0 0.119973207
H  H25  1  0.41880000  0.98590000  0.33790000  1.0 0.1116224779
H  H26  1  0.41880000  0.51410000  0.83790000  1.0 0.1116224779
H  H27  1  0.60010000  0.75860000  0.59170000  1.0 0.1313171049
H  H28  1  0.60010000  0.74140000  0.09170000  1.0 0.1313171049
H  H29  1  0.47700000  0.01210000  0.61290000  1.0 0.1116224779
H  H30  1  0.47700000  0.48790000  0.11290000  1.0 0.1116224779
H  H31  1  0.24350000  0.97550000  0.33333333  1.0 0.1379802071
H  H32  1  0.24350000  0.52450000  0.83330000  1.0 0.1379802071
H  H33  1  0.83240000  0.16870000  0.46750000  1.0 0.119973207
H  H34  1  0.83240000  0.33130000  0.96750000  1.0 0.119973207
H  H35  1  0.95840000  0.85300000  0.48820000  1.0 0.1313171049
H  H36  1  0.95840000  0.64700000  0.98820000  1.0 0.1313171049
H  H37  1  0.83460000  0.03750000  0.61860000  1.0 0.119973207
H  H38  1  0.83460000  0.46250000  0.11860000  1.0 0.119973207
H  H39  1  0.78150000  0.83240000  0.48420000  1.0 0.1008926739
H  H40  1  0.78150000  0.66760000  0.98420000  1.0 0.1008926739
H  H41  1  0.77200000  0.98220000  0.33300000  1.0 0.1116224779
H  H42  1  0.77200000  0.51780000  0.83300000  1.0 0.1116224779
H  H43  1  0.94780000  0.99000000  0.33060000  1.0 0.1379802071
H  H44  1  0.94780000  0.51000000  0.83060000  1.0 0.1379802071
H  H45  1  0.99630000  0.13240000  0.44830000  1.0 0.1313171049
H  H46  1  0.99630000  0.36760000  0.94830000  1.0 0.1313171049
H  H47  1  0.00830000  0.02310000  0.60880000  1.0 0.1379802071
H  H48  1  0.00830000  0.47690000  0.10880000  1.0 0.1379802071
H  H49  1  0.33630000  0.73500000  0.35700000  1.0 0.1313171049
H  H50  1  0.33630000  0.76500000  0.85700000  1.0 0.1313171049
H  H51  1  0.34050000  0.78970000  0.24920000  1.0 0.119973207
H  H52  1  0.34050000  0.71030000  0.74920000  1.0 0.119973207
H  H53  1  0.38750000  0.60230000  0.27310000  1.0 0.119973207
H  H54  1  0.38750000  0.89770000  0.77310000  1.0 0.119973207
H  H55  1  0.36050000  0.10190000  0.17460000  1.0 0.119973207
H  H56  1  0.36050000  0.39810000  0.67460000  1.0 0.119973207
H  H57  1  0.75190000  0.16910000  0.99130000  1.0 0.1505874262
H  H58  1  0.75190000  0.33090000  0.49130000  1.0 0.1505874262
H  H59  1  0.58260000  0.16290000  0.99120000  1.0 0.119973207
H  H60  1  0.58260000  0.33710000  0.49120000  1.0 0.119973207
H  H61  1  0.38910000  0.28940000  0.20160000  1.0 0.1313171049
H  H62  1  0.38910000  0.21060000  0.70160000  1.0 0.1313171049
H  H63  1  0.69260000  0.98540000  0.12000000  1.0 0.1505874262
H  H64  1  0.69260000  0.51460000  0.62000000  1.0 0.1505874262
H  H65  1  0.38310000  0.65420000  0.16250000  1.0 0.1313171049
H  H66  1  0.38310000  0.84580000  0.66250000  1.0 0.1313171049
H  H67  1  0.37420000  0.15140000  0.28440000  1.0 0.1379802071
H  H68  1  0.37420000  0.34860000  0.78440000  1.0 0.1379802071
H  H69  1  0.70080000  0.84320000  0.96130000  1.0 0.1379802071
H  H70  1  0.70080000  0.65680000  0.46130000  1.0 0.1379802071
H  H71  1  0.53140000  0.84050000  0.95950000  1.0 0.119973207
H  H72  1  0.53140000  0.65950000  0.45950000  1.0 0.119973207
H  H73  1  0.58120000  0.01410000  0.83790000  1.0 0.1116224779
H  H74  1  0.58120000  0.48590000  0.33790000  1.0 0.1116224779
H  H75  1  0.39990000  0.24140000  0.09170000  1.0 0.1313171049
H  H76  1  0.39990000  0.25860000  0.59170000  1.0 0.1313171049
H  H77  1  0.52300000  0.98790000  0.11290000  1.0 0.1116224779
H  H78  1  0.52300000  0.51210000  0.61290000  1.0 0.1116224779
H  H79  1  0.75650000  0.02450000  0.83330000  1.0 0.1379802071
H  H80  1  0.75650000  0.47550000  0.33333333  1.0 0.1379802071
H  H81  1  0.16760000  0.83130000  0.96750000  1.0 0.119973207
H  H82  1  0.16760000  0.66870000  0.46750000  1.0 0.119973207
H  H83  1  0.04160000  0.14700000  0.98820000  1.0 0.1313171049
H  H84  1  0.04160000  0.35300000  0.48820000  1.0 0.1313171049
H  H85  1  0.16540000  0.96250000  0.11860000  1.0 0.119973207
H  H86  1  0.16540000  0.53750000  0.61860000  1.0 0.119973207
H  H87  1  0.21850000  0.16760000  0.98420000  1.0 0.1008926739
H  H88  1  0.21850000  0.33240000  0.48420000  1.0 0.1008926739
H  H89  1  0.22800000  0.01780000  0.83300000  1.0 0.1116224779
H  H90  1  0.22800000  0.48220000  0.33300000  1.0 0.1116224779
H  H91  1  0.05220000  0.01000000  0.83060000  1.0 0.1379802071
H  H92  1  0.05220000  0.49000000  0.33060000  1.0 0.1379802071
H  H93  1  0.00370000  0.86760000  0.94830000  1.0 0.1313171049
H  H94  1  0.00370000  0.63240000  0.44830000  1.0 0.1313171049
H  H95  1  0.99170000  0.97690000  0.10880000  1.0 0.1379802071
H  H96  1  0.99170000  0.52310000  0.60880000  1.0 0.1379802071
C  C1  1  0.64430000  0.32370000  0.84520000  1.0 -0.240029634
C  C2  1  0.64430000  0.17630000  0.34520000  1.0 -0.240029634
C  C3  1  0.22770000  0.90830000  0.41840000  1.0 0.119973207
C  C4  1  0.22770000  0.59170000  0.91840000  1.0 0.119973207
C  C5  1  0.28260000  0.08220000  0.54150000  1.0 0.1313171049
C  C6  1  0.28260000  0.41780000  0.04150000  1.0 0.1313171049
C  C7  1  0.64330000  0.26960000  0.73690000  1.0 -0.0520724452
C  C8  1  0.64330000  0.23040000  0.23690000  1.0 -0.0520724452
C  C9  1  0.63100000  0.33900000  0.78540000  1.0 -0.063281365
C  C10  1  0.63100000  0.16100000  0.28540000  1.0 -0.063281365
C  C11  1  0.64470000  0.21480000  0.62770000  1.0 0.5832178348
C  C12  1  0.64470000  0.28520000  0.12770000  1.0 0.5832178348
C  C13  1  0.62550000  0.83780000  0.66370000  1.0 -0.063281365
C  C14  1  0.62550000  0.66220000  0.16370000  1.0 -0.063281365
C  C15  1  0.28070000  0.86380000  0.46000000  1.0 -0.1786812603
C  C16  1  0.28070000  0.63620000  0.96000000  1.0 -0.1786812603
C  C17  1  0.62450000  0.88940000  0.55280000  1.0 0.6045448982
C  C18  1  0.62450000  0.61060000  0.05280000  1.0 0.6045448982
C  C19  1  0.38270000  0.86460000  0.45850000  1.0 0.0910481014
C  C20  1  0.38270000  0.63540000  0.95850000  1.0 0.0910481014
C  C21  1  0.61730000  0.77160000  0.71350000  1.0 -0.0655387065
C  C22  1  0.61730000  0.72840000  0.21350000  1.0 -0.0655387065
C  C23  1  0.33860000  0.04280000  0.58610000  1.0 -0.2000692173
C  C24  1  0.33860000  0.45720000  0.08610000  1.0 -0.2000692173
C  C25  1  0.63250000  0.28670000  0.67530000  1.0 -0.2510826373
C  C26  1  0.63250000  0.21330000  0.17530000  1.0 -0.2510826373
C  C27  1  0.61790000  0.78800000  0.77200000  1.0 -0.2000692173
C  C28  1  0.61790000  0.71200000  0.27200000  1.0 -0.2000692173
C  C29  1  0.60670000  0.71670000  0.82340000  1.0 0.5610467547
C  C30  1  0.60670000  0.78330000  0.32340000  1.0 0.5610467547
C  C31  1  0.63110000  0.39240000  0.89580000  1.0 0.6068193668
C  C32  1  0.63110000  0.10760000  0.39580000  1.0 0.6068193668
C  C33  1  0.33490000  0.12760000  0.49300000  1.0 -0.186102981
C  C34  1  0.33490000  0.37240000  0.99300000  1.0 -0.186102981
C  C35  1  0.43570000  0.12920000  0.49180000  1.0 0.0910481014
C  C36  1  0.43570000  0.37080000  0.99180000  1.0 0.0910481014
C  C37  1  0.38450000  0.95150000  0.36770000  1.0 0.1008926739
C  C38  1  0.38450000  0.54850000  0.86770000  1.0 0.1008926739
C  C39  1  0.61460000  0.81860000  0.60320000  1.0 -0.240029634
C  C40  1  0.61460000  0.68140000  0.10320000  1.0 -0.240029634
C  C41  1  0.44050000  0.04340000  0.58250000  1.0 0.0910481014
C  C42  1  0.44050000  0.45660000  0.08250000  1.0 0.0910481014
C  C43  1  0.27890000  0.95010000  0.36660000  1.0 -0.2127758062
C  C44  1  0.27890000  0.54990000  0.86660000  1.0 -0.2127758062
C  C45  1  0.86650000  0.13170000  0.49590000  1.0 0.0910481014
C  C46  1  0.86650000  0.36830000  0.99590000  1.0 0.0910481014
C  C47  1  0.92270000  0.87500000  0.45400000  1.0 -0.2000692173
C  C48  1  0.92270000  0.62500000  0.95400000  1.0 -0.2000692173
C  C49  1  0.86700000  0.06040000  0.58330000  1.0 0.119973207
C  C50  1  0.86700000  0.43960000  0.08330000  1.0 0.119973207
C  C51  1  0.81350000  0.86610000  0.45310000  1.0 0.1313171049
C  C52  1  0.81350000  0.63390000  0.95310000  1.0 0.1313171049
C  C53  1  0.80920000  0.95240000  0.36370000  1.0 0.0910481014
C  C54  1  0.80920000  0.54760000  0.86370000  1.0 0.0910481014
C  C55  1  0.91500000  0.95800000  0.36210000  1.0 -0.2261163018
C  C56  1  0.91500000  0.54200000  0.86210000  1.0 -0.2261163018
C  C57  1  0.96940000  0.91240000  0.40980000  1.0 0.163802942
C  C58  1  0.96940000  0.58760000  0.90980000  1.0 0.163802942
C  C59  1  0.96760000  0.12100000  0.48720000  1.0 -0.2510826373
C  C60  1  0.96760000  0.37900000  0.98720000  1.0 -0.2510826373
C  C61  1  0.97380000  0.05600000  0.57820000  1.0 -0.2261163018
C  C62  1  0.97380000  0.44400000  0.07820000  1.0 -0.2261163018
C  C63  1  0.02440000  0.09290000  0.53540000  1.0 0.163802942
C  C64  1  0.02440000  0.40710000  0.03540000  1.0 0.163802942
C  C65  1  0.35570000  0.67630000  0.34520000  1.0 -0.240029634
C  C66  1  0.35570000  0.82370000  0.84520000  1.0 -0.240029634
C  C67  1  0.77230000  0.09170000  0.91840000  1.0 0.119973207
C  C68  1  0.77230000  0.40830000  0.41840000  1.0 0.119973207
C  C69  1  0.71740000  0.91780000  0.04150000  1.0 0.1313171049
C  C70  1  0.71740000  0.58220000  0.54150000  1.0 0.1313171049
C  C71  1  0.35670000  0.73040000  0.23690000  1.0 -0.0520724452
C  C72  1  0.35670000  0.76960000  0.73690000  1.0 -0.0520724452
C  C73  1  0.36900000  0.66100000  0.28540000  1.0 -0.063281365
C  C74  1  0.36900000  0.83900000  0.78540000  1.0 -0.063281365
C  C75  1  0.35530000  0.78520000  0.12770000  1.0 0.5832178348
C  C76  1  0.35530000  0.71480000  0.62770000  1.0 0.5832178348
C  C77  1  0.37450000  0.16220000  0.16370000  1.0 -0.063281365
C  C78  1  0.37450000  0.33780000  0.66370000  1.0 -0.063281365
C  C79  1  0.71930000  0.13620000  0.96000000  1.0 -0.1786812603
C  C80  1  0.71930000  0.36380000  0.46000000  1.0 -0.1786812603
C  C81  1  0.37550000  0.11060000  0.05280000  1.0 0.6045448982
C  C82  1  0.37550000  0.38940000  0.55280000  1.0 0.6045448982
C  C83  1  0.61730000  0.13540000  0.95850000  1.0 0.0910481014
C  C84  1  0.61730000  0.36460000  0.45850000  1.0 0.0910481014
C  C85  1  0.38270000  0.22840000  0.21350000  1.0 -0.0655387065
C  C86  1  0.38270000  0.27160000  0.71350000  1.0 -0.0655387065
C  C87  1  0.66140000  0.95720000  0.08610000  1.0 -0.2000692173
C  C88  1  0.66140000  0.54280000  0.58610000  1.0 -0.2000692173
C  C89  1  0.36750000  0.71330000  0.17530000  1.0 -0.2510826373
C  C90  1  0.36750000  0.78670000  0.67530000  1.0 -0.2510826373
C  C91  1  0.38210000  0.21200000  0.27200000  1.0 -0.2000692173
C  C92  1  0.38210000  0.28800000  0.77200000  1.0 -0.2000692173
C  C93  1  0.39330000  0.28330000  0.32340000  1.0 0.5610467547
C  C94  1  0.39330000  0.21670000  0.82340000  1.0 0.5610467547
C  C95  1  0.36890000  0.60760000  0.39580000  1.0 0.6068193668
C  C96  1  0.36890000  0.89240000  0.89580000  1.0 0.6068193668
C  C97  1  0.66510000  0.87240000  0.99300000  1.0 -0.186102981
C  C98  1  0.66510000  0.62760000  0.49300000  1.0 -0.186102981
C  C99  1  0.56430000  0.87080000  0.99180000  1.0 0.0910481014
C  C100  1  0.56430000  0.62920000  0.49180000  1.0 0.0910481014
C  C101  1  0.61550000  0.04850000  0.86770000  1.0 0.1008926739
C  C102  1  0.61550000  0.45150000  0.36770000  1.0 0.1008926739
C  C103  1  0.38540000  0.18140000  0.10320000  1.0 -0.240029634
C  C104  1  0.38540000  0.31860000  0.60320000  1.0 -0.240029634
C  C105  1  0.55950000  0.95660000  0.08250000  1.0 0.0910481014
C  C106  1  0.55950000  0.54340000  0.58250000  1.0 0.0910481014
C  C107  1  0.72110000  0.04990000  0.86660000  1.0 -0.2127758062
C  C108  1  0.72110000  0.45010000  0.36660000  1.0 -0.2127758062
C  C109  1  0.13350000  0.86830000  0.99590000  1.0 0.0910481014
C  C110  1  0.13350000  0.63170000  0.49590000  1.0 0.0910481014
C  C111  1  0.07730000  0.12500000  0.95400000  1.0 -0.2000692173
C  C112  1  0.07730000  0.37500000  0.45400000  1.0 -0.2000692173
C  C113  1  0.13300000  0.93960000  0.08330000  1.0 0.119973207
C  C114  1  0.13300000  0.56040000  0.58330000  1.0 0.119973207
C  C115  1  0.18650000  0.13390000  0.95310000  1.0 0.1313171049
C  C116  1  0.18650000  0.36610000  0.45310000  1.0 0.1313171049
C  C117  1  0.19080000  0.04760000  0.86370000  1.0 0.0910481014
C  C118  1  0.19080000  0.45240000  0.36370000  1.0 0.0910481014
C  C119  1  0.08500000  0.04200000  0.86210000  1.0 -0.2261163018
C  C120  1  0.08500000  0.45800000  0.36210000  1.0 -0.2261163018
C  C121  1  0.03060000  0.08760000  0.90980000  1.0 0.163802942
C  C122  1  0.03060000  0.41240000  0.40980000  1.0 0.163802942
C  C123  1  0.03240000  0.87900000  0.98720000  1.0 -0.2510826373
C  C124  1  0.03240000  0.62100000  0.48720000  1.0 -0.2510826373
C  C125  1  0.02620000  0.94400000  0.07820000  1.0 -0.2261163018
C  C126  1  0.02620000  0.55600000  0.57820000  1.0 -0.2261163018
C  C127  1  0.97560000  0.90710000  0.03540000  1.0 0.163802942
C  C128  1  0.97560000  0.59290000  0.53540000  1.0 0.163802942
N  N1  1  0.43680000  0.90420000  0.41070000  1.0 -0.2673953421
N  N2  1  0.43680000  0.59580000  0.91070000  1.0 -0.2673953421
N  N3  1  0.48980000  0.08700000  0.53730000  1.0 -0.2510826373
N  N4  1  0.48980000  0.41300000  0.03730000  1.0 -0.2510826373
N  N5  1  0.76100000  0.90470000  0.40910000  1.0 -0.240029634
N  N6  1  0.76100000  0.59530000  0.90910000  1.0 -0.240029634
N  N7  1  0.81700000  0.09640000  0.53870000  1.0 -0.2000692173
N  N8  1  0.81700000  0.40360000  0.03870000  1.0 -0.2000692173
N  N9  1  0.16000000  0.06910000  0.55990000  1.0 -0.0377465899
N  N10  1  0.16000000  0.43090000  0.05990000  1.0 -0.0377465899
N  N11  1  0.13890000  0.10870000  0.51760000  1.0 -0.077062473
N  N12  1  0.13890000  0.39130000  0.01760000  1.0 -0.077062473
N  N13  1  0.10570000  0.89910000  0.42920000  1.0 -0.1004667862
N  N14  1  0.10570000  0.60090000  0.92920000  1.0 -0.1004667862
N  N15  1  0.08300000  0.93600000  0.38730000  1.0 -0.063281365
N  N16  1  0.08300000  0.56400000  0.88730000  1.0 -0.063281365
N  N17  1  0.56320000  0.09580000  0.91070000  1.0 -0.2673953421
N  N18  1  0.56320000  0.40420000  0.41070000  1.0 -0.2673953421
N  N19  1  0.51020000  0.91300000  0.03730000  1.0 -0.2510826373
N  N20  1  0.51020000  0.58700000  0.53730000  1.0 -0.2510826373
N  N21  1  0.23900000  0.09530000  0.90910000  1.0 -0.240029634
N  N22  1  0.23900000  0.40470000  0.40910000  1.0 -0.240029634
N  N23  1  0.18300000  0.90360000  0.03870000  1.0 -0.2000692173
N  N24  1  0.18300000  0.59640000  0.53870000  1.0 -0.2000692173
N  N25  1  0.84000000  0.93090000  0.05990000  1.0 -0.0377465899
N  N26  1  0.84000000  0.56910000  0.55990000  1.0 -0.0377465899
N  N27  1  0.86110000  0.89130000  0.01760000  1.0 -0.077062473
N  N28  1  0.86110000  0.60870000  0.51760000  1.0 -0.077062473
N  N29  1  0.89430000  0.10090000  0.92920000  1.0 -0.1004667862
N  N30  1  0.89430000  0.39910000  0.42920000  1.0 -0.1004667862
N  N31  1  0.91700000  0.06400000  0.88730000  1.0 -0.063281365
N  N32  1  0.91700000  0.43600000  0.38730000  1.0 -0.063281365
O  O1  1  0.59580000  0.86610000  0.49950000  1.0 -0.5420506891
O  O2  1  0.59580000  0.63390000  0.99950000  1.0 -0.5420506891
O  O3  1  0.64990000  0.12910000  0.64350000  1.0 -0.581847573
O  O4  1  0.64990000  0.37090000  0.14350000  1.0 -0.581847573
O  O5  1  0.60790000  0.74100000  0.87880000  1.0 -0.5198547042
O  O6  1  0.60790000  0.75900000  0.37880000  1.0 -0.5198547042
O  O7  1  0.66200000  0.96540000  0.56590000  1.0 -0.5575619585
O  O8  1  0.66200000  0.53460000  0.06590000  1.0 -0.5575619585
O  O9  1  0.59420000  0.63630000  0.80880000  1.0 -0.5024670011
O  O10  1  0.59420000  0.86370000  0.30880000  1.0 -0.5024670011
O  O11  1  0.65990000  0.36890000  0.94990000  1.0 -0.5669989831
O  O12  1  0.65990000  0.13110000  0.44990000  1.0 -0.5669989831
O  O13  1  0.59290000  0.46640000  0.88150000  1.0 -0.5420506891
O  O14  1  0.59290000  0.03360000  0.38150000  1.0 -0.5420506891
O  O15  1  0.64300000  0.23510000  0.57060000  1.0 -0.5420506891
O  O16  1  0.64300000  0.26490000  0.07060000  1.0 -0.5420506891
O  O17  1  0.40420000  0.13390000  0.99950000  1.0 -0.5420506891
O  O18  1  0.40420000  0.36610000  0.49950000  1.0 -0.5420506891
O  O19  1  0.35010000  0.87090000  0.14350000  1.0 -0.581847573
O  O20  1  0.35010000  0.62910000  0.64350000  1.0 -0.581847573
O  O21  1  0.39210000  0.25900000  0.37880000  1.0 -0.5198547042
O  O22  1  0.39210000  0.24100000  0.87880000  1.0 -0.5198547042
O  O23  1  0.33800000  0.03460000  0.06590000  1.0 -0.5575619585
O  O24  1  0.33800000  0.46540000  0.56590000  1.0 -0.5575619585
O  O25  1  0.40580000  0.36370000  0.30880000  1.0 -0.5024670011
O  O26  1  0.40580000  0.13630000  0.80880000  1.0 -0.5024670011
O  O27  1  0.34010000  0.63110000  0.44990000  1.0 -0.5669989831
O  O28  1  0.34010000  0.86890000  0.94990000  1.0 -0.5669989831
O  O29  1  0.40710000  0.53360000  0.38150000  1.0 -0.5420506891
O  O30  1  0.40710000  0.96640000  0.88150000  1.0 -0.5420506891
O  O31  1  0.35700000  0.76490000  0.07060000  1.0 -0.5420506891
O  O32  1  0.35700000  0.73510000  0.57060000  1.0 -0.5420506891
