# DDEC6 charges by PACMAN v1.1 (https://github.com/mtap-research/PACMAN-charge/)
data_AZIVAI_ASR_pacman
_symmetry_space_group_name_H-M   'P 1'
_cell_length_a   13.63600000
_cell_length_b   13.63600000
_cell_length_c   19.46700000
_cell_angle_alpha   90.00000000
_cell_angle_beta   90.00000000
_cell_angle_gamma   90.00000000
_symmetry_Int_Tables_number   1
_chemical_formula_structural   CuH12C20N4Cl
_chemical_formula_sum   'Cu4 H48 C80 N16 Cl4'
_cell_volume   3619.70363563
_cell_formula_units_Z   4
loop_
 _symmetry_equiv_pos_site_id
 _symmetry_equiv_pos_as_xyz
  1  'x, y, z'
loop_
 _atom_site_type_symbol
 _atom_site_label
 _atom_site_symmetry_multiplicity
 _atom_site_fract_x
 _atom_site_fract_y
 _atom_site_fract_z
 _atom_site_occupancy
 _atom_site_charge
Cu  Cu1  1  0.50000000  0.50000000  0.00000000  1.0 0.5991128168
Cu  Cu2  1  0.00000000  0.00000000  0.50000000  1.0 0.5991128168
Cu  Cu3  1  0.00000000  0.00000000  0.00000000  1.0 0.6316362403
Cu  Cu4  1  0.50000000  0.50000000  0.50000000  1.0 0.6316362403
H  H1  1  0.40310000  0.32700000  0.22280000  1.0 0.1319946429
H  H2  1  0.59690000  0.67300000  0.22280000  1.0 0.1319946429
H  H3  1  0.17300000  0.90310000  0.72280000  1.0 0.1319946429
H  H4  1  0.82700000  0.09690000  0.72280000  1.0 0.1319946429
H  H5  1  0.09690000  0.82700000  0.27720000  1.0 0.1319946429
H  H6  1  0.90310000  0.17300000  0.27720000  1.0 0.1319946429
H  H7  1  0.32700000  0.40310000  0.77720000  1.0 0.1319946429
H  H8  1  0.67300000  0.59690000  0.77720000  1.0 0.1319946429
H  H9  1  0.30960000  0.24110000  0.13130000  1.0 0.1319946429
H  H10  1  0.69040000  0.75890000  0.13130000  1.0 0.1319946429
H  H11  1  0.25890000  0.80960000  0.63130000  1.0 0.1319946429
H  H12  1  0.74110000  0.19040000  0.63130000  1.0 0.1319946429
H  H13  1  0.19040000  0.74110000  0.36870000  1.0 0.1319946429
H  H14  1  0.80960000  0.25890000  0.36870000  1.0 0.1319946429
H  H15  1  0.24110000  0.30960000  0.86870000  1.0 0.1319946429
H  H16  1  0.75890000  0.69040000  0.86870000  1.0 0.1319946429
H  H17  1  0.14950000  0.31700000  0.06260000  1.0 0.1371728263
H  H18  1  0.85050000  0.68300000  0.06260000  1.0 0.1371728263
H  H19  1  0.18300000  0.64950000  0.56260000  1.0 0.1371728263
H  H20  1  0.81700000  0.35050000  0.56260000  1.0 0.1371728263
H  H21  1  0.35050000  0.81700000  0.43740000  1.0 0.1371728263
H  H22  1  0.64950000  0.18300000  0.43740000  1.0 0.1371728263
H  H23  1  0.31700000  0.14950000  0.93740000  1.0 0.1371728263
H  H24  1  0.68300000  0.85050000  0.93740000  1.0 0.1371728263
H  H25  1  0.03430000  0.19560000  0.06070000  1.0 0.1164820312
H  H26  1  0.96570000  0.80440000  0.06070000  1.0 0.1164820312
H  H27  1  0.30440000  0.53430000  0.56070000  1.0 0.1164820312
H  H28  1  0.69560000  0.46570000  0.56070000  1.0 0.1164820312
H  H29  1  0.46570000  0.69560000  0.43930000  1.0 0.1164820312
H  H30  1  0.53430000  0.30440000  0.43930000  1.0 0.1164820312
H  H31  1  0.19560000  0.03430000  0.93930000  1.0 0.1164820312
H  H32  1  0.80440000  0.96570000  0.93930000  1.0 0.1164820312
H  H33  1  0.64880000  0.50080000  0.26590000  1.0 0.1319946429
H  H34  1  0.35120000  0.49920000  0.26590000  1.0 0.1319946429
H  H35  1  0.99920000  0.14880000  0.76590000  1.0 0.1319946429
H  H36  1  0.00080000  0.85120000  0.76590000  1.0 0.1319946429
H  H37  1  0.85120000  0.00080000  0.23410000  1.0 0.1319946429
H  H38  1  0.14880000  0.99920000  0.23410000  1.0 0.1319946429
H  H39  1  0.50080000  0.64880000  0.73410000  1.0 0.1319946429
H  H40  1  0.49920000  0.35120000  0.73410000  1.0 0.1319946429
H  H41  1  0.64490000  0.50490000  0.38420000  1.0 0.1138692058
H  H42  1  0.35510000  0.49510000  0.38420000  1.0 0.1138692058
H  H43  1  0.99510000  0.14490000  0.88420000  1.0 0.1138692058
H  H44  1  0.00490000  0.85510000  0.88420000  1.0 0.1138692058
H  H45  1  0.85510000  0.00490000  0.11580000  1.0 0.1138692058
H  H46  1  0.14490000  0.99510000  0.11580000  1.0 0.1138692058
H  H47  1  0.50490000  0.64490000  0.61580000  1.0 0.1138692058
H  H48  1  0.49510000  0.35510000  0.61580000  1.0 0.1138692058
C  C1  1  0.44900000  0.42590000  0.14250000  1.0 0.1883077246
C  C2  1  0.55100000  0.57410000  0.14250000  1.0 0.1883077246
C  C3  1  0.07410000  0.94900000  0.64250000  1.0 0.1883077246
C  C4  1  0.92590000  0.05100000  0.64250000  1.0 0.1883077246
C  C5  1  0.05100000  0.92590000  0.35750000  1.0 0.1883077246
C  C6  1  0.94900000  0.07410000  0.35750000  1.0 0.1883077246
C  C7  1  0.42590000  0.44900000  0.85750000  1.0 0.1883077246
C  C8  1  0.57410000  0.55100000  0.85750000  1.0 0.1883077246
C  C9  1  0.40040000  0.34410000  0.17550000  1.0 -0.1833676224
C  C10  1  0.59960000  0.65590000  0.17550000  1.0 -0.1833676224
C  C11  1  0.15590000  0.90040000  0.67550000  1.0 -0.1833676224
C  C12  1  0.84410000  0.09960000  0.67550000  1.0 -0.1833676224
C  C13  1  0.09960000  0.84410000  0.32450000  1.0 -0.1833676224
C  C14  1  0.90040000  0.15590000  0.32450000  1.0 -0.1833676224
C  C15  1  0.34410000  0.40040000  0.82450000  1.0 -0.1833676224
C  C16  1  0.65590000  0.59960000  0.82450000  1.0 -0.1833676224
C  C17  1  0.35050000  0.29680000  0.12530000  1.0 -0.1918706182
C  C18  1  0.64950000  0.70320000  0.12530000  1.0 -0.1918706182
C  C19  1  0.20320000  0.85050000  0.62530000  1.0 -0.1918706182
C  C20  1  0.79680000  0.14950000  0.62530000  1.0 -0.1918706182
C  C21  1  0.14950000  0.79680000  0.37470000  1.0 -0.1918706182
C  C22  1  0.85050000  0.20320000  0.37470000  1.0 -0.1918706182
C  C23  1  0.29680000  0.35050000  0.87470000  1.0 -0.1918706182
C  C24  1  0.70320000  0.64950000  0.87470000  1.0 -0.1918706182
C  C25  1  0.37000000  0.34550000  0.06190000  1.0 0.1883077246
C  C26  1  0.63000000  0.65450000  0.06190000  1.0 0.1883077246
C  C27  1  0.15450000  0.87000000  0.56190000  1.0 0.1883077246
C  C28  1  0.84550000  0.13000000  0.56190000  1.0 0.1883077246
C  C29  1  0.13000000  0.84550000  0.43810000  1.0 0.1883077246
C  C30  1  0.87000000  0.15450000  0.43810000  1.0 0.1883077246
C  C31  1  0.34550000  0.37000000  0.93810000  1.0 0.1883077246
C  C32  1  0.65450000  0.63000000  0.93810000  1.0 0.1883077246
C  C33  1  0.32460000  0.32460000  0.00000000  1.0 -0.090216446
C  C34  1  0.67540000  0.67540000  0.00000000  1.0 -0.090216446
C  C35  1  0.17540000  0.82460000  0.50000000  1.0 -0.090216446
C  C36  1  0.82460000  0.17540000  0.50000000  1.0 -0.090216446
C  C37  1  0.24720000  0.24720000  0.00000000  1.0 0.1319946429
C  C38  1  0.75280000  0.75280000  0.00000000  1.0 0.1319946429
C  C39  1  0.25280000  0.74720000  0.50000000  1.0 0.1319946429
C  C40  1  0.74720000  0.25280000  0.50000000  1.0 0.1319946429
C  C41  1  0.16080000  0.25900000  0.03680000  1.0 -0.1918706182
C  C42  1  0.83920000  0.74100000  0.03680000  1.0 -0.1918706182
C  C43  1  0.24100000  0.66080000  0.53680000  1.0 -0.1918706182
C  C44  1  0.75900000  0.33920000  0.53680000  1.0 -0.1918706182
C  C45  1  0.33920000  0.75900000  0.46320000  1.0 -0.1918706182
C  C46  1  0.66080000  0.24100000  0.46320000  1.0 -0.1918706182
C  C47  1  0.25900000  0.16080000  0.96320000  1.0 -0.1918706182
C  C48  1  0.74100000  0.83920000  0.96320000  1.0 -0.1918706182
C  C49  1  0.09310000  0.18690000  0.03520000  1.0 0.0829094547
C  C50  1  0.90690000  0.81310000  0.03520000  1.0 0.0829094547
C  C51  1  0.31310000  0.59310000  0.53520000  1.0 0.0829094547
C  C52  1  0.68690000  0.40690000  0.53520000  1.0 0.0829094547
C  C53  1  0.40690000  0.68690000  0.46480000  1.0 0.0829094547
C  C54  1  0.59310000  0.31310000  0.46480000  1.0 0.0829094547
C  C55  1  0.18690000  0.09310000  0.96480000  1.0 0.0829094547
C  C56  1  0.81310000  0.90690000  0.96480000  1.0 0.0829094547
C  C57  1  0.50000000  0.50000000  0.17550000  1.0 -0.1004364335
C  C58  1  0.00000000  0.00000000  0.67550000  1.0 -0.1004364335
C  C59  1  0.00000000  0.00000000  0.32450000  1.0 -0.1004364335
C  C60  1  0.50000000  0.50000000  0.82450000  1.0 -0.1004364335
C  C61  1  0.50000000  0.50000000  0.25210000  1.0 0.1371728263
C  C62  1  0.00000000  0.00000000  0.75210000  1.0 0.1371728263
C  C63  1  0.00000000  0.00000000  0.24790000  1.0 0.1371728263
C  C64  1  0.50000000  0.50000000  0.74790000  1.0 0.1371728263
C  C65  1  0.58760000  0.50100000  0.28920000  1.0 -0.1918706182
C  C66  1  0.41240000  0.49900000  0.28920000  1.0 -0.1918706182
C  C67  1  0.99900000  0.08760000  0.78920000  1.0 -0.1918706182
C  C68  1  0.00100000  0.91240000  0.78920000  1.0 -0.1918706182
C  C69  1  0.91240000  0.00100000  0.21080000  1.0 -0.1918706182
C  C70  1  0.08760000  0.99900000  0.21080000  1.0 -0.1918706182
C  C71  1  0.50100000  0.58760000  0.71080000  1.0 -0.1918706182
C  C72  1  0.49900000  0.41240000  0.71080000  1.0 -0.1918706182
C  C73  1  0.58460000  0.50230000  0.35970000  1.0 0.0829094547
C  C74  1  0.41540000  0.49770000  0.35970000  1.0 0.0829094547
C  C75  1  0.99770000  0.08460000  0.85970000  1.0 0.0829094547
C  C76  1  0.00230000  0.91540000  0.85970000  1.0 0.0829094547
C  C77  1  0.91540000  0.00230000  0.14030000  1.0 0.0829094547
C  C78  1  0.08460000  0.99770000  0.14030000  1.0 0.0829094547
C  C79  1  0.50230000  0.58460000  0.64030000  1.0 0.0829094547
C  C80  1  0.49770000  0.41540000  0.64030000  1.0 0.0829094547
N  N1  1  0.43210000  0.42300000  0.07310000  1.0 -0.343133583
N  N2  1  0.56790000  0.57700000  0.07310000  1.0 -0.343133583
N  N3  1  0.07700000  0.93210000  0.57310000  1.0 -0.343133583
N  N4  1  0.92300000  0.06790000  0.57310000  1.0 -0.343133583
N  N5  1  0.06790000  0.92300000  0.42690000  1.0 -0.343133583
N  N6  1  0.93210000  0.07700000  0.42690000  1.0 -0.343133583
N  N7  1  0.42300000  0.43210000  0.92690000  1.0 -0.343133583
N  N8  1  0.57700000  0.56790000  0.92690000  1.0 -0.343133583
N  N9  1  0.10450000  0.10450000  0.00000000  1.0 -0.1918706182
N  N10  1  0.89550000  0.89550000  0.00000000  1.0 -0.1918706182
N  N11  1  0.39550000  0.60450000  0.50000000  1.0 -0.1961876669
N  N12  1  0.60450000  0.39550000  0.50000000  1.0 -0.1961876669
N  N13  1  0.50000000  0.50000000  0.39600000  1.0 -0.207452684
N  N14  1  0.00000000  0.00000000  0.89600000  1.0 -0.207452684
N  N15  1  0.00000000  0.00000000  0.10400000  1.0 -0.207452684
N  N16  1  0.50000000  0.50000000  0.60400000  1.0 -0.207452684
Cl  Cl1  1  0.14289000  0.85711000  0.00000000  1.0 -0.7000658729
Cl  Cl2  1  0.85711000  0.14289000  0.00000000  1.0 -0.7000658729
Cl  Cl3  1  0.64289000  0.64289000  0.50000000  1.0 -0.7000658729
Cl  Cl4  1  0.35711000  0.35711000  0.50000000  1.0 -0.7000658729
