# DDEC6 charges by PACMAN v1.1 (https://github.com/mtap-research/PACMAN-charge/)
data_AZOHEC_FSR_pacman
_symmetry_space_group_name_H-M   'P 1'
_cell_length_a   14.36350000
_cell_length_b   12.00290000
_cell_length_c   16.99740000
_cell_angle_alpha   90.00000000
_cell_angle_beta   113.38100000
_cell_angle_gamma   90.00000000
_symmetry_Int_Tables_number   1
_chemical_formula_structural   Zn5P4H24C32(N3O8)2
_chemical_formula_sum   'Zn10 P8 H48 C64 N12 O32'
_cell_volume   2689.78667069
_cell_formula_units_Z   2
loop_
 _symmetry_equiv_pos_site_id
 _symmetry_equiv_pos_as_xyz
  1  'x, y, z'
loop_
 _atom_site_type_symbol
 _atom_site_label
 _atom_site_symmetry_multiplicity
 _atom_site_fract_x
 _atom_site_fract_y
 _atom_site_fract_z
 _atom_site_occupancy
 _atom_site_charge
Zn  Zn1  1  0.10632000  0.06245000  0.10909000  1.0 0.9376290037
Zn  Zn2  1  0.10632000  0.93755000  0.60909000  1.0 0.9376290037
Zn  Zn3  1  0.89368000  0.93755000  0.89091000  1.0 0.9376290037
Zn  Zn4  1  0.89368000  0.06245000  0.39091000  1.0 0.9376290037
Zn  Zn5  1  0.68124000  0.92414000  0.06496000  1.0 0.8402028127
Zn  Zn6  1  0.68124000  0.07586000  0.56496000  1.0 0.8402028127
Zn  Zn7  1  0.31876000  0.07586000  0.93504000  1.0 0.8402028127
Zn  Zn8  1  0.31876000  0.92414000  0.43504000  1.0 0.8402028127
Zn  Zn9  1  0.50000000  0.98580000  0.75000000  1.0 0.9878283187
Zn  Zn10  1  0.50000000  0.01420000  0.25000000  1.0 0.9878283187
P  P1  1  0.88291000  0.99351000  0.06927000  1.0 1.28661931
P  P2  1  0.88291000  0.00649000  0.56927000  1.0 1.28661931
P  P3  1  0.11709000  0.00649000  0.93073000  1.0 1.28661931
P  P4  1  0.11709000  0.99351000  0.43073000  1.0 1.28661931
P  P5  1  0.68600000  0.07122000  0.21207000  1.0 1.3072565242
P  P6  1  0.68600000  0.92878000  0.71207000  1.0 1.3072565242
P  P7  1  0.31400000  0.92878000  0.78793000  1.0 1.3072565242
P  P8  1  0.31400000  0.07122000  0.28793000  1.0 1.3072565242
H  H1  1  0.60330000  0.17590000  0.08800000  1.0 0.140779621
H  H2  1  0.60330000  0.82410000  0.58800000  1.0 0.140779621
H  H3  1  0.39670000  0.82410000  0.91200000  1.0 0.140779621
H  H4  1  0.39670000  0.17590000  0.41200000  1.0 0.140779621
H  H5  1  0.70760000  0.23180000  0.14370000  1.0 0.140779621
H  H6  1  0.70760000  0.76820000  0.64370000  1.0 0.140779621
H  H7  1  0.29240000  0.76820000  0.85630000  1.0 0.140779621
H  H8  1  0.29240000  0.23180000  0.35630000  1.0 0.140779621
H  H9  1  0.73330000  0.17000000  0.96250000  1.0 0.1488400145
H  H10  1  0.73330000  0.83000000  0.46250000  1.0 0.1488400145
H  H11  1  0.26670000  0.83000000  0.03750000  1.0 0.1488400145
H  H12  1  0.26670000  0.17000000  0.53750000  1.0 0.1488400145
H  H13  1  0.63990000  0.21820000  0.97700000  1.0 0.1336992762
H  H14  1  0.63990000  0.78180000  0.47700000  1.0 0.1336992762
H  H15  1  0.36010000  0.78180000  0.02300000  1.0 0.1336992762
H  H16  1  0.36010000  0.21820000  0.52300000  1.0 0.1336992762
H  H17  1  0.85870000  0.10910000  0.16920000  1.0 0.1635572618
H  H18  1  0.85870000  0.89090000  0.66920000  1.0 0.1635572618
H  H19  1  0.14130000  0.89090000  0.83080000  1.0 0.1635572618
H  H20  1  0.14130000  0.10910000  0.33080000  1.0 0.1635572618
H  H21  1  0.85830000  0.18030000  0.09140000  1.0 0.1336992762
H  H22  1  0.85830000  0.81970000  0.59140000  1.0 0.1336992762
H  H23  1  0.14170000  0.81970000  0.90860000  1.0 0.1336992762
H  H24  1  0.14170000  0.18030000  0.40860000  1.0 0.1336992762
H  H25  1  0.91710000  0.36530000  0.90890000  1.0 0.1488400145
H  H26  1  0.91710000  0.63470000  0.40890000  1.0 0.1488400145
H  H27  1  0.08290000  0.63470000  0.09110000  1.0 0.1488400145
H  H28  1  0.08290000  0.36530000  0.59110000  1.0 0.1488400145
H  H29  1  0.95630000  0.18930000  0.95690000  1.0 0.140779621
H  H30  1  0.95630000  0.81070000  0.45690000  1.0 0.140779621
H  H31  1  0.04370000  0.81070000  0.04310000  1.0 0.140779621
H  H32  1  0.04370000  0.18930000  0.54310000  1.0 0.140779621
H  H33  1  0.61930000  0.74630000  0.93010000  1.0 0.1336992762
H  H34  1  0.61930000  0.25370000  0.43010000  1.0 0.1336992762
H  H35  1  0.38070000  0.25370000  0.06990000  1.0 0.1336992762
H  H36  1  0.38070000  0.74630000  0.56990000  1.0 0.1336992762
H  H37  1  0.54770000  0.57400000  0.90020000  1.0 0.140779621
H  H38  1  0.54770000  0.42600000  0.40020000  1.0 0.140779621
H  H39  1  0.45230000  0.42600000  0.09980000  1.0 0.140779621
H  H40  1  0.45230000  0.57400000  0.59980000  1.0 0.140779621
H  H41  1  0.51240000  0.58690000  0.12050000  1.0 0.140779621
H  H42  1  0.51240000  0.41310000  0.62050000  1.0 0.140779621
H  H43  1  0.48760000  0.41310000  0.87950000  1.0 0.140779621
H  H44  1  0.48760000  0.58690000  0.37950000  1.0 0.140779621
H  H45  1  0.58920000  0.75620000  0.14510000  1.0 0.1336992762
H  H46  1  0.58920000  0.24380000  0.64510000  1.0 0.1336992762
H  H47  1  0.41080000  0.24380000  0.85490000  1.0 0.1336992762
H  H48  1  0.41080000  0.75620000  0.35490000  1.0 0.1336992762
C  C1  1  0.60960000  0.06660000  0.91650000  1.0 0.6289134069
C  C2  1  0.60960000  0.93340000  0.41650000  1.0 0.6289134069
C  C3  1  0.39040000  0.93340000  0.08350000  1.0 0.6289134069
C  C4  1  0.39040000  0.06660000  0.58350000  1.0 0.6289134069
C  C5  1  0.67440000  0.16120000  0.12220000  1.0 -0.4592930072
C  C6  1  0.67440000  0.83880000  0.62220000  1.0 -0.4592930072
C  C7  1  0.32560000  0.83880000  0.87780000  1.0 -0.4592930072
C  C8  1  0.32560000  0.16120000  0.37780000  1.0 -0.4592930072
C  C9  1  0.67820000  0.15080000  0.97940000  1.0 -0.2746559636
C  C10  1  0.67820000  0.84920000  0.47940000  1.0 -0.2753525631
C  C11  1  0.32180000  0.84920000  0.02060000  1.0 -0.2746559636
C  C12  1  0.32180000  0.15080000  0.52060000  1.0 -0.2746559636
C  C13  1  0.83450000  0.11170000  0.10720000  1.0 -0.4592930072
C  C14  1  0.83450000  0.88830000  0.60720000  1.0 -0.4592930072
C  C15  1  0.16550000  0.88830000  0.89280000  1.0 -0.4592930072
C  C16  1  0.16550000  0.11170000  0.39280000  1.0 -0.4592930072
C  C17  1  0.08430000  0.30420000  0.12770000  1.0 0.0503710328
C  C18  1  0.08430000  0.69580000  0.62770000  1.0 0.0570322494
C  C19  1  0.91570000  0.69580000  0.87230000  1.0 0.0570322494
C  C20  1  0.91570000  0.30420000  0.37230000  1.0 0.0570322494
C  C21  1  0.06000000  0.41700000  0.10440000  1.0 0.0187094776
C  C22  1  0.06000000  0.58300000  0.60440000  1.0 0.0187094776
C  C23  1  0.94000000  0.58300000  0.89560000  1.0 0.0187094776
C  C24  1  0.94000000  0.41700000  0.39560000  1.0 0.0187094776
C  C25  1  0.01340000  0.44090000  0.01420000  1.0 0.0698599095
C  C26  1  0.01340000  0.55910000  0.51420000  1.0 0.0698599095
C  C27  1  0.98660000  0.55910000  0.98580000  1.0 0.0698599095
C  C28  1  0.98660000  0.44090000  0.48580000  1.0 0.0698599095
C  C29  1  0.96660000  0.35300000  0.96350000  1.0 -0.2203804174
C  C30  1  0.96660000  0.64700000  0.46350000  1.0 -0.2203804174
C  C31  1  0.03340000  0.64700000  0.03650000  1.0 -0.2203804174
C  C32  1  0.03340000  0.35300000  0.53650000  1.0 -0.2203804174
C  C33  1  0.99170000  0.24740000  0.99240000  1.0 0.0076238169
C  C34  1  0.99170000  0.75260000  0.49240000  1.0 0.0076238169
C  C35  1  0.00830000  0.75260000  0.00760000  1.0 0.0076238169
C  C36  1  0.00830000  0.24740000  0.50760000  1.0 0.0076238169
C  C37  1  0.59970000  0.71250000  0.97040000  1.0 0.0971442504
C  C38  1  0.59970000  0.28750000  0.47040000  1.0 0.0971442504
C  C39  1  0.40030000  0.28750000  0.02960000  1.0 0.0971442504
C  C40  1  0.40030000  0.71250000  0.52960000  1.0 0.0971442504
C  C41  1  0.55590000  0.60870000  0.95140000  1.0 -0.1974454143
C  C42  1  0.55590000  0.39130000  0.45140000  1.0 -0.1974454143
C  C43  1  0.44410000  0.39130000  0.04860000  1.0 -0.1974454143
C  C44  1  0.44410000  0.60870000  0.54860000  1.0 -0.1974454143
C  C45  1  0.52410000  0.55610000  0.00850000  1.0 0.1114243741
C  C46  1  0.52410000  0.44390000  0.50850000  1.0 0.1114243741
C  C47  1  0.47590000  0.44390000  0.99150000  1.0 0.1114243741
C  C48  1  0.47590000  0.55610000  0.49150000  1.0 0.1114243741
C  C49  1  0.53580000  0.61610000  0.08100000  1.0 -0.1974454143
C  C50  1  0.53580000  0.38390000  0.58100000  1.0 -0.1974454143
C  C51  1  0.46420000  0.38390000  0.91900000  1.0 -0.1974454143
C  C52  1  0.46420000  0.61610000  0.41900000  1.0 -0.1974454143
C  C53  1  0.58170000  0.71870000  0.09500000  1.0 0.0934735953
C  C54  1  0.58170000  0.28130000  0.59500000  1.0 0.0934735953
C  C55  1  0.41830000  0.28130000  0.90500000  1.0 0.0934735953
C  C56  1  0.41830000  0.71870000  0.40500000  1.0 0.0934735953
C  C57  1  0.87090000  0.69440000  0.89440000  1.0 0.0570322494
C  C58  1  0.87090000  0.30560000  0.39440000  1.0 0.0570322494
C  C59  1  0.12910000  0.30560000  0.10560000  1.0 0.0570322494
C  C60  1  0.12910000  0.69440000  0.60560000  1.0 0.0570322494
C  C61  1  0.89300000  0.58510000  0.92120000  1.0 -0.0072019394
C  C62  1  0.89300000  0.41490000  0.42120000  1.0 -0.0072019394
C  C63  1  0.10700000  0.41490000  0.07880000  1.0 -0.0072019394
C  C64  1  0.10700000  0.58510000  0.57880000  1.0 -0.0072019394
N  N1  1  0.72080000  0.10870000  0.06800000  1.0 0.0503710328
N  N2  1  0.72080000  0.89130000  0.56800000  1.0 0.0503710328
N  N3  1  0.27920000  0.89130000  0.93200000  1.0 0.0503710328
N  N4  1  0.27920000  0.10870000  0.43200000  1.0 0.0503710328
N  N5  1  0.06300000  0.22160000  0.06740000  1.0 -0.1505725862
N  N6  1  0.06300000  0.77840000  0.56740000  1.0 -0.1505725862
N  N7  1  0.93700000  0.77840000  0.93260000  1.0 -0.1505725862
N  N8  1  0.93700000  0.22160000  0.43260000  1.0 -0.1505725862
N  N9  1  0.61610000  0.76790000  0.04240000  1.0 -0.1942156808
N  N10  1  0.61610000  0.23210000  0.54240000  1.0 -0.1942156808
N  N11  1  0.38390000  0.23210000  0.95760000  1.0 -0.1942156808
N  N12  1  0.38390000  0.76790000  0.45760000  1.0 -0.1942156808
O  O1  1  0.59490000  0.97240000  0.94200000  1.0 -0.5490623371
O  O2  1  0.59490000  0.02760000  0.44200000  1.0 -0.5490623371
O  O3  1  0.40510000  0.02760000  0.05800000  1.0 -0.5490623371
O  O4  1  0.40510000  0.97240000  0.55800000  1.0 -0.5490623371
O  O5  1  0.57150000  0.09740000  0.83970000  1.0 -0.5272351758
O  O6  1  0.57150000  0.90260000  0.33970000  1.0 -0.5272351758
O  O7  1  0.42850000  0.90260000  0.16030000  1.0 -0.5272351758
O  O8  1  0.42850000  0.09740000  0.66030000  1.0 -0.5272351758
O  O9  1  0.99540000  0.98430000  0.12470000  1.0 -0.7359084046
O  O10  1  0.99540000  0.01570000  0.62470000  1.0 -0.7359084046
O  O11  1  0.00460000  0.01570000  0.87530000  1.0 -0.7359084046
O  O12  1  0.00460000  0.98430000  0.37530000  1.0 -0.7289388375
O  O13  1  0.82430000  0.89340000  0.08210000  1.0 -0.7289388375
O  O14  1  0.82430000  0.10660000  0.58210000  1.0 -0.7289388375
O  O15  1  0.17570000  0.10660000  0.91790000  1.0 -0.7289388375
O  O16  1  0.17570000  0.89340000  0.41790000  1.0 -0.7289388375
O  O17  1  0.86100000  0.01490000  0.97560000  1.0 -0.7779660182
O  O18  1  0.86100000  0.98510000  0.47560000  1.0 -0.7779660182
O  O19  1  0.13900000  0.98510000  0.02440000  1.0 -0.7779660182
O  O20  1  0.13900000  0.01490000  0.52440000  1.0 -0.7779660182
O  O21  1  0.79160000  0.08720000  0.27990000  1.0 -0.7540330694
O  O22  1  0.79160000  0.91280000  0.77990000  1.0 -0.7540330694
O  O23  1  0.20840000  0.91280000  0.72010000  1.0 -0.7540330694
O  O24  1  0.20840000  0.08720000  0.22010000  1.0 -0.7540330694
O  O25  1  0.66740000  0.95310000  0.17530000  1.0 -0.7616971688
O  O26  1  0.66740000  0.04690000  0.67530000  1.0 -0.7616971688
O  O27  1  0.33260000  0.04690000  0.82470000  1.0 -0.7616971688
O  O28  1  0.33260000  0.95310000  0.32470000  1.0 -0.7616971688
O  O29  1  0.60450000  0.10950000  0.24260000  1.0 -0.7616971688
O  O30  1  0.60450000  0.89050000  0.74260000  1.0 -0.7616971688
O  O31  1  0.39550000  0.89050000  0.75740000  1.0 -0.7616971688
O  O32  1  0.39550000  0.10950000  0.25740000  1.0 -0.7616971688
