# DDEC6 charges by PACMAN v1.1 (https://github.com/mtap-research/PACMAN-charge/)
data_AZUHUB_ASR_pacman
_symmetry_space_group_name_H-M   'P 1'
_cell_length_a   17.43550000
_cell_length_b   17.43550000
_cell_length_c   17.43550000
_cell_angle_alpha   116.54700000
_cell_angle_beta   116.54700000
_cell_angle_gamma   96.09190000
_symmetry_Int_Tables_number   1
_chemical_formula_structural   Zn2FeP2(C8O7)2
_chemical_formula_sum   'Zn8 Fe4 P8 C64 O56'
_cell_volume   3919.54521906
_cell_formula_units_Z   4
loop_
 _symmetry_equiv_pos_site_id
 _symmetry_equiv_pos_as_xyz
  1  'x, y, z'
loop_
 _atom_site_type_symbol
 _atom_site_label
 _atom_site_symmetry_multiplicity
 _atom_site_fract_x
 _atom_site_fract_y
 _atom_site_fract_z
 _atom_site_occupancy
 _atom_site_charge
Zn  Zn1  1  0.55158000  0.50613000  0.50331000  1.0 1.0646481454
Zn  Zn2  1  0.00282000  0.04827000  0.49669000  1.0 1.0646481454
Zn  Zn3  1  0.95173000  0.44842000  0.95455000  1.0 1.0646481454
Zn  Zn4  1  0.49387000  0.99718000  0.04545000  1.0 1.0684081494
Zn  Zn5  1  0.74718000  0.74387000  0.54545000  1.0 1.0684081494
Zn  Zn6  1  0.19842000  0.20173000  0.45455000  1.0 1.0646481454
Zn  Zn7  1  0.25613000  0.80158000  0.00331000  1.0 1.0684081494
Zn  Zn8  1  0.79827000  0.25282000  0.99669000  1.0 1.0646481454
Fe  Fe1  1  0.49895000  0.62500000  0.37395000  1.0 1.1121373354
Fe  Fe2  1  0.25105000  0.12500000  0.62605000  1.0 1.1199004828
Fe  Fe3  1  0.87500000  0.50105000  0.12605000  1.0 1.1199004828
Fe  Fe4  1  0.37500000  0.74895000  0.87395000  1.0 1.1199004828
P  P1  1  0.64902000  0.53465000  0.39953000  1.0 1.3614962428
P  P2  1  0.13512000  0.24949000  0.60047000  1.0 1.3614962428
P  P3  1  0.75051000  0.35098000  0.88563000  1.0 1.3614962428
P  P4  1  0.46535000  0.86488000  0.11437000  1.0 1.3614962428
P  P5  1  0.61488000  0.71535000  0.61437000  1.0 1.3614962428
P  P6  1  0.10098000  0.00051000  0.38563000  1.0 1.3614962428
P  P7  1  0.28465000  0.89902000  0.89953000  1.0 1.3614962428
P  P8  1  0.99949000  0.38512000  0.10047000  1.0 1.3614962428
C  C1  1  0.57090000  0.18110000  0.16540000  1.0 0.601950395
C  C2  1  0.62280000  0.27780000  0.20380000  1.0 -0.0899571612
C  C3  1  0.61700000  0.35030000  0.27510000  1.0 0.1526655658
C  C4  1  0.66100000  0.44280000  0.31020000  1.0 -0.2503823758
C  C5  1  0.71400000  0.45750000  0.27370000  1.0 0.1371258116
C  C6  1  0.72160000  0.38500000  0.20460000  1.0 -0.0899571612
C  C7  1  0.67700000  0.29510000  0.17070000  1.0 0.0799405762
C  C8  1  0.77800000  0.40220000  0.16540000  1.0 0.6656637444
C  C9  1  0.01570000  0.40550000  0.83460000  1.0 0.601950395
C  C10  1  0.07400000  0.41900000  0.79620000  1.0 -0.0899571612
C  C11  1  0.07520000  0.34190000  0.72490000  1.0 0.1526655658
C  C12  1  0.13260000  0.35080000  0.68980000  1.0 -0.2503823758
C  C13  1  0.18380000  0.44030000  0.72630000  1.0 0.1371258116
C  C14  1  0.18040000  0.51700000  0.79540000  1.0 -0.0899571612
C  C15  1  0.12440000  0.50630000  0.82930000  1.0 0.0799405762
C  C16  1  0.23680000  0.61260000  0.83460000  1.0 0.6656637444
C  C17  1  0.59450000  0.42910000  0.61020000  1.0 0.601950395
C  C18  1  0.58100000  0.37720000  0.65500000  1.0 -0.0899571612
C  C19  1  0.65810000  0.38300000  0.73330000  1.0 0.1526655658
C  C20  1  0.64920000  0.33900000  0.78180000  1.0 -0.2503823758
C  C21  1  0.55970000  0.28600000  0.74350000  1.0 0.1371258116
C  C22  1  0.48300000  0.27840000  0.66340000  1.0 -0.0899571612
C  C23  1  0.49370000  0.32300000  0.61810000  1.0 0.0799405762
C  C24  1  0.38740000  0.22200000  0.62420000  1.0 0.6656637444
C  C25  1  0.81890000  0.98430000  0.38980000  1.0 0.601950395
C  C26  1  0.72220000  0.92600000  0.34500000  1.0 -0.0899571612
C  C27  1  0.64970000  0.92480000  0.26670000  1.0 0.1526655658
C  C28  1  0.55720000  0.86740000  0.21820000  1.0 -0.2503823758
C  C29  1  0.54250000  0.81620000  0.25650000  1.0 0.1371258116
C  C30  1  0.61500000  0.81960000  0.33660000  1.0 -0.0899571612
C  C31  1  0.70490000  0.87560000  0.38190000  1.0 0.0799405762
C  C32  1  0.59780000  0.76320000  0.37580000  1.0 0.6656637444
C  C33  1  0.73430000  0.06890000  0.88980000  1.0 0.601950395
C  C34  1  0.67600000  0.97220000  0.84500000  1.0 -0.0899571612
C  C35  1  0.67480000  0.89970000  0.76670000  1.0 0.1526655658
C  C36  1  0.61740000  0.80720000  0.71820000  1.0 -0.2503823758
C  C37  1  0.56620000  0.79250000  0.75650000  1.0 0.1371258116
C  C38  1  0.56960000  0.86500000  0.83660000  1.0 -0.0899571612
C  C39  1  0.62560000  0.95490000  0.88190000  1.0 0.0799405762
C  C40  1  0.51320000  0.84780000  0.87580000  1.0 0.6656637444
C  C41  1  0.17910000  0.84450000  0.11020000  1.0 0.601950395
C  C42  1  0.12720000  0.83100000  0.15500000  1.0 -0.0899571612
C  C43  1  0.13300000  0.90810000  0.23330000  1.0 0.1526655658
C  C44  1  0.08900000  0.89920000  0.28180000  1.0 -0.2503823758
C  C45  1  0.03600000  0.80970000  0.24350000  1.0 0.1371258116
C  C46  1  0.02840000  0.73300000  0.16340000  1.0 -0.0899571612
C  C47  1  0.07300000  0.74370000  0.11810000  1.0 0.0799405762
C  C48  1  0.97200000  0.63740000  0.12420000  1.0 0.6656637444
C  C49  1  0.93110000  0.82090000  0.66540000  1.0 0.601950395
C  C50  1  0.02780000  0.87280000  0.70380000  1.0 -0.0899571612
C  C51  1  0.10030000  0.86700000  0.77510000  1.0 0.1526655658
C  C52  1  0.19280000  0.91100000  0.81020000  1.0 -0.2503823758
C  C53  1  0.20750000  0.96400000  0.77370000  1.0 0.1371258116
C  C54  1  0.13500000  0.97160000  0.70460000  1.0 -0.0899571612
C  C55  1  0.04510000  0.92700000  0.67070000  1.0 0.0799405762
C  C56  1  0.15220000  0.02800000  0.66540000  1.0 0.6656637444
C  C57  1  0.15550000  0.26570000  0.33460000  1.0 0.601950395
C  C58  1  0.16900000  0.32400000  0.29620000  1.0 -0.0899571612
C  C59  1  0.09190000  0.32520000  0.22490000  1.0 0.1526655658
C  C60  1  0.10080000  0.38260000  0.18980000  1.0 -0.2503823758
C  C61  1  0.19030000  0.43380000  0.22630000  1.0 0.1371258116
C  C62  1  0.26700000  0.43040000  0.29540000  1.0 -0.0899571612
C  C63  1  0.25630000  0.37440000  0.32930000  1.0 0.0799405762
C  C64  1  0.36260000  0.48680000  0.33460000  1.0 0.6656637444
O  O1  1  0.56090000  0.54610000  0.33460000  1.0 -0.73827215
O  O2  1  0.63550000  0.50360000  0.46190000  1.0 -0.7065694155
O  O3  1  0.73530000  0.61860000  0.46110000  1.0 -0.6946939733
O  O4  1  0.52000000  0.16560000  0.19140000  1.0 -0.4649883033
O  O5  1  0.57730000  0.11570000  0.09760000  1.0 -0.5139655463
O  O6  1  0.79200000  0.33430000  0.11350000  1.0 -0.5555307211
O  O7  1  0.81070000  0.48290000  0.18960000  1.0 -0.5192039431
O  O8  1  0.21150000  0.22630000  0.66540000  1.0 -0.73827215
O  O9  1  0.04170000  0.17360000  0.53810000  1.0 -0.7065694155
O  O10  1  0.15750000  0.27420000  0.53890000  1.0 -0.6946939733
O  O11  1  0.97420000  0.32860000  0.80860000  1.0 -0.4649883033
O  O12  1  0.01810000  0.47970000  0.90240000  1.0 -0.5139655463
O  O13  1  0.22080000  0.67850000  0.88650000  1.0 -0.5555307211
O  O14  1  0.29330000  0.62110000  0.81040000  1.0 -0.5192039431
O  O15  1  0.77370000  0.43910000  0.98520000  1.0 -0.73827215
O  O16  1  0.82640000  0.36450000  0.86810000  1.0 -0.7065694155
O  O17  1  0.72580000  0.26470000  0.88330000  1.0 -0.6946939733
O  O18  1  0.67140000  0.48000000  0.64560000  1.0 -0.466177863
O  O19  1  0.52030000  0.42270000  0.53840000  1.0 -0.5192039431
O  O20  1  0.32150000  0.20800000  0.54230000  1.0 -0.5555307211
O  O21  1  0.37890000  0.18930000  0.67220000  1.0 -0.5192039431
O  O22  1  0.45390000  0.78850000  0.01480000  1.0 -0.73827215
O  O23  1  0.49640000  0.95830000  0.13190000  1.0 -0.7065694155
O  O24  1  0.38140000  0.84250000  0.11670000  1.0 -0.6946939733
O  O25  1  0.83440000  0.02580000  0.35440000  1.0 -0.466177863
O  O26  1  0.88430000  0.98190000  0.46160000  1.0 -0.5139655463
O  O27  1  0.66570000  0.77920000  0.45770000  1.0 -0.5534459373
O  O28  1  0.51710000  0.70670000  0.32780000  1.0 -0.5192039431
O  O29  1  0.53850000  0.70390000  0.51480000  1.0 -0.73827215
O  O30  1  0.70830000  0.74640000  0.63190000  1.0 -0.7065694155
O  O31  1  0.59250000  0.63140000  0.61670000  1.0 -0.6946939733
O  O32  1  0.77580000  0.08440000  0.85440000  1.0 -0.4649883033
O  O33  1  0.73190000  0.13430000  0.96160000  1.0 -0.5139655463
O  O34  1  0.52920000  0.91570000  0.95770000  1.0 -0.5555307211
O  O35  1  0.45670000  0.76710000  0.82780000  1.0 -0.5192039431
O  O36  1  0.18910000  0.02370000  0.48520000  1.0 -0.73827215
O  O37  1  0.11450000  0.07640000  0.36810000  1.0 -0.7065694155
O  O38  1  0.01470000  0.97580000  0.38330000  1.0 -0.6946939733
O  O39  1  0.23000000  0.92140000  0.14560000  1.0 -0.4649883033
O  O40  1  0.17270000  0.77030000  0.03840000  1.0 -0.5139655463
O  O41  1  0.95800000  0.57150000  0.04230000  1.0 -0.5555307211
O  O42  1  0.93930000  0.62890000  0.17220000  1.0 -0.5192039431
O  O43  1  0.29610000  0.81090000  0.83460000  1.0 -0.73827215
O  O44  1  0.25360000  0.88550000  0.96190000  1.0 -0.7065694155
O  O45  1  0.36860000  0.98530000  0.96110000  1.0 -0.696207446
O  O46  1  0.91560000  0.77000000  0.69140000  1.0 -0.4649883033
O  O47  1  0.86570000  0.82730000  0.59760000  1.0 -0.5139655463
O  O48  1  0.08430000  0.04200000  0.61350000  1.0 -0.5534459373
O  O49  1  0.23290000  0.06070000  0.68960000  1.0 -0.5192039431
O  O50  1  0.97630000  0.46150000  0.16540000  1.0 -0.73827215
O  O51  1  0.92360000  0.29170000  0.03810000  1.0 -0.7065694155
O  O52  1  0.02420000  0.40750000  0.03890000  1.0 -0.6946939733
O  O53  1  0.07860000  0.22420000  0.30860000  1.0 -0.4649883033
O  O54  1  0.22970000  0.26810000  0.40240000  1.0 -0.5139655463
O  O55  1  0.42850000  0.47080000  0.38650000  1.0 -0.5534459373
O  O56  1  0.37110000  0.54330000  0.31040000  1.0 -0.5192039431
