# DDEC6 charges by PACMAN v1.1 (https://github.com/mtap-research/PACMAN-charge/)
data_BACMOH_ASR_pacman
_symmetry_space_group_name_H-M   'P 1'
_cell_length_a   7.46500000
_cell_length_b   9.62200000
_cell_length_c   16.04900000
_cell_angle_alpha   90.00000000
_cell_angle_beta   90.00000000
_cell_angle_gamma   90.00000000
_symmetry_Int_Tables_number   1
_chemical_formula_structural   CuC7N3O4
_chemical_formula_sum   'Cu4 C28 N12 O16'
_cell_volume   1152.77126327
_cell_formula_units_Z   4
loop_
 _symmetry_equiv_pos_site_id
 _symmetry_equiv_pos_as_xyz
  1  'x, y, z'
loop_
 _atom_site_type_symbol
 _atom_site_label
 _atom_site_symmetry_multiplicity
 _atom_site_fract_x
 _atom_site_fract_y
 _atom_site_fract_z
 _atom_site_occupancy
 _atom_site_charge
Cu  Cu1  1  0.99020000  0.90830000  0.41560000  1.0 0.8868974636
Cu  Cu2  1  0.50980000  0.09170000  0.91560000  1.0 0.8868974636
Cu  Cu3  1  0.00980000  0.40830000  0.08440000  1.0 0.8868974636
Cu  Cu4  1  0.49020000  0.59170000  0.58440000  1.0 0.8868974636
C  C1  1  0.15190000  0.65660000  0.46260000  1.0 0.5319614301
C  C2  1  0.34810000  0.34340000  0.96260000  1.0 0.5319614301
C  C3  1  0.84810000  0.15660000  0.03740000  1.0 0.5319614301
C  C4  1  0.65190000  0.84340000  0.53740000  1.0 0.5319614301
C  C5  1  0.03890000  0.61250000  0.38810000  1.0 0.1603813136
C  C6  1  0.46110000  0.38750000  0.88810000  1.0 0.1603813136
C  C7  1  0.96110000  0.11250000  0.11190000  1.0 0.1603813136
C  C8  1  0.53890000  0.88750000  0.61190000  1.0 0.1603813136
C  C9  1  0.14640000  0.58940000  0.31050000  1.0 0.0045394751
C  C10  1  0.35360000  0.41060000  0.81050000  1.0 0.0045394751
C  C11  1  0.85360000  0.08940000  0.18950000  1.0 0.0050122363
C  C12  1  0.64640000  0.91060000  0.68950000  1.0 0.0050122363
C  C13  1  0.05390000  0.52100000  0.24000000  1.0 0.5636249374
C  C14  1  0.44610000  0.47900000  0.74000000  1.0 0.5636249374
C  C15  1  0.94610000  0.02100000  0.26000000  1.0 0.5636249374
C  C16  1  0.55390000  0.97900000  0.76000000  1.0 0.5636249374
C  C17  1  0.12960000  0.19740000  0.44010000  1.0 0.3461242209
C  C18  1  0.37040000  0.80260000  0.94010000  1.0 0.3461242209
C  C19  1  0.87040000  0.69740000  0.05990000  1.0 0.3461242209
C  C20  1  0.62960000  0.30260000  0.55990000  1.0 0.3461242209
C  C21  1  0.17600000  0.20970000  0.57270000  1.0 0.1113395209
C  C22  1  0.32400000  0.79030000  0.07270000  1.0 0.1113395209
C  C23  1  0.82400000  0.70970000  0.92730000  1.0 0.1113395209
C  C24  1  0.67600000  0.29030000  0.42730000  1.0 0.1113395209
C  C25  1  0.12410000  0.08120000  0.55560000  1.0 0.0905282314
C  C26  1  0.37590000  0.91880000  0.05560000  1.0 0.0905282314
C  C27  1  0.87590000  0.58120000  0.94440000  1.0 0.0905282314
C  C28  1  0.62410000  0.41880000  0.44440000  1.0 0.0905282314
N  N1  1  0.89790000  0.72600000  0.37690000  1.0 -0.3013566245
N  N2  1  0.60210000  0.27400000  0.87690000  1.0 -0.3013566245
N  N3  1  0.10210000  0.22600000  0.12310000  1.0 -0.3013566245
N  N4  1  0.39790000  0.77400000  0.62310000  1.0 -0.3013566245
N  N5  1  0.09240000  0.07380000  0.47160000  1.0 -0.3013566245
N  N6  1  0.40760000  0.92620000  0.97160000  1.0 -0.3013566245
N  N7  1  0.90760000  0.57380000  0.02840000  1.0 -0.3013566245
N  N8  1  0.59240000  0.42620000  0.52840000  1.0 -0.3013566245
N  N9  1  0.18170000  0.28570000  0.50160000  1.0 -0.0998013203
N  N10  1  0.31830000  0.71430000  0.00160000  1.0 -0.0998013203
N  N11  1  0.81830000  0.78570000  0.99840000  1.0 -0.0998013203
N  N12  1  0.68170000  0.21430000  0.49840000  1.0 -0.0998013203
O  O1  1  0.24680000  0.56570000  0.49100000  1.0 -0.5087021351
O  O2  1  0.25320000  0.43430000  0.99100000  1.0 -0.5087021351
O  O3  1  0.75320000  0.06570000  0.00900000  1.0 -0.5087021351
O  O4  1  0.74680000  0.93430000  0.50900000  1.0 -0.5087021351
O  O5  1  0.15120000  0.78230000  0.47980000  1.0 -0.4670119991
O  O6  1  0.34880000  0.21770000  0.97980000  1.0 -0.4670119991
O  O7  1  0.84880000  0.28230000  0.02020000  1.0 -0.4670119991
O  O8  1  0.65120000  0.71770000  0.52020000  1.0 -0.4670119991
O  O9  1  0.12540000  0.52190000  0.16870000  1.0 -0.5087021351
O  O10  1  0.37460000  0.47810000  0.66870000  1.0 -0.5087021351
O  O11  1  0.87460000  0.02190000  0.33130000  1.0 -0.5087021351
O  O12  1  0.62540000  0.97810000  0.83130000  1.0 -0.5087021351
O  O13  1  0.91330000  0.45650000  0.25190000  1.0 -0.5087021351
O  O14  1  0.58670000  0.54350000  0.75190000  1.0 -0.5087021351
O  O15  1  0.08670000  0.95650000  0.24810000  1.0 -0.5087021351
O  O16  1  0.41330000  0.04350000  0.74810000  1.0 -0.5087021351
