# DDEC6 charges by PACMAN v1.1 (https://github.com/mtap-research/PACMAN-charge/)
data_BACNAY_ASR_pacman
_symmetry_space_group_name_H-M   'P 1'
_cell_length_a   19.08910000
_cell_length_b   19.08910000
_cell_length_c   19.08910000
_cell_angle_alpha   92.21480000
_cell_angle_beta   92.21480000
_cell_angle_gamma   92.21480000
_symmetry_Int_Tables_number   1
_chemical_formula_structural   Yb2Re6H2C12Se8S(N3O2)2
_chemical_formula_sum   'Yb12 Re36 H12 C72 Se48 S6 N36 O24'
_cell_volume   6939.94548465
_cell_formula_units_Z   6
loop_
 _symmetry_equiv_pos_site_id
 _symmetry_equiv_pos_as_xyz
  1  'x, y, z'
loop_
 _atom_site_type_symbol
 _atom_site_label
 _atom_site_symmetry_multiplicity
 _atom_site_fract_x
 _atom_site_fract_y
 _atom_site_fract_z
 _atom_site_occupancy
 _atom_site_charge
Yb  Yb1  1  0.99742000  0.05285000  0.38027000  1.0 1.9665277668
Yb  Yb2  1  0.05285000  0.38027000  0.99742000  1.0 1.9665277668
Yb  Yb3  1  0.38027000  0.99742000  0.05285000  1.0 1.9665277668
Yb  Yb4  1  0.50258000  0.11973000  0.44715000  1.0 1.9665277668
Yb  Yb5  1  0.44715000  0.50258000  0.11973000  1.0 1.9665277668
Yb  Yb6  1  0.11973000  0.44715000  0.50258000  1.0 1.9665277668
Yb  Yb7  1  0.00258000  0.94715000  0.61973000  1.0 1.9665277668
Yb  Yb8  1  0.94715000  0.61973000  0.00258000  1.0 1.9665277668
Yb  Yb9  1  0.61973000  0.00258000  0.94715000  1.0 1.9665277668
Yb  Yb10  1  0.49742000  0.88027000  0.55285000  1.0 1.9665277668
Yb  Yb11  1  0.55285000  0.49742000  0.88027000  1.0 1.9665277668
Yb  Yb12  1  0.88027000  0.55285000  0.49742000  1.0 1.9665277668
Re  Re1  1  0.81617000  0.23438000  0.24418000  1.0 0.0779690071
Re  Re2  1  0.72310000  0.22383000  0.13831000  1.0 0.1116314043
Re  Re3  1  0.81599000  0.32949000  0.14817000  1.0 0.1019977863
Re  Re4  1  0.23438000  0.24418000  0.81617000  1.0 0.0779690071
Re  Re5  1  0.22383000  0.13831000  0.72310000  1.0 0.1116314043
Re  Re6  1  0.32949000  0.14817000  0.81599000  1.0 0.1116314043
Re  Re7  1  0.24418000  0.81617000  0.23438000  1.0 0.0779690071
Re  Re8  1  0.13831000  0.72310000  0.22383000  1.0 0.1116314043
Re  Re9  1  0.14817000  0.81599000  0.32949000  1.0 0.1019977863
Re  Re10  1  0.68383000  0.25582000  0.26562000  1.0 0.0779690071
Re  Re11  1  0.77690000  0.36169000  0.27617000  1.0 0.1116314043
Re  Re12  1  0.68401000  0.35183000  0.17051000  1.0 0.1019977863
Re  Re13  1  0.26562000  0.68383000  0.25582000  1.0 0.0779690071
Re  Re14  1  0.27617000  0.77690000  0.36169000  1.0 0.1116314043
Re  Re15  1  0.17051000  0.68401000  0.35183000  1.0 0.1019977863
Re  Re16  1  0.25582000  0.26562000  0.68383000  1.0 0.0779690071
Re  Re17  1  0.36169000  0.27617000  0.77690000  1.0 0.1116314043
Re  Re18  1  0.35183000  0.17051000  0.68401000  1.0 0.1116314043
Re  Re19  1  0.18383000  0.76562000  0.75582000  1.0 0.0779690071
Re  Re20  1  0.27690000  0.77617000  0.86169000  1.0 0.1116314043
Re  Re21  1  0.18401000  0.67051000  0.85183000  1.0 0.1116314043
Re  Re22  1  0.76562000  0.75582000  0.18383000  1.0 0.0779690071
Re  Re23  1  0.77617000  0.86169000  0.27690000  1.0 0.1116314043
Re  Re24  1  0.67051000  0.85183000  0.18401000  1.0 0.1019977863
Re  Re25  1  0.75582000  0.18383000  0.76562000  1.0 0.0779690071
Re  Re26  1  0.86169000  0.27690000  0.77617000  1.0 0.1116314043
Re  Re27  1  0.85183000  0.18401000  0.67051000  1.0 0.1019977863
Re  Re28  1  0.31617000  0.74418000  0.73438000  1.0 0.0779690071
Re  Re29  1  0.22310000  0.63831000  0.72383000  1.0 0.1116314043
Re  Re30  1  0.31599000  0.64817000  0.82949000  1.0 0.1116314043
Re  Re31  1  0.73438000  0.31617000  0.74418000  1.0 0.0779690071
Re  Re32  1  0.72383000  0.22310000  0.63831000  1.0 0.1116314043
Re  Re33  1  0.82949000  0.31599000  0.64817000  1.0 0.1019977863
Re  Re34  1  0.74418000  0.73438000  0.31617000  1.0 0.0779690071
Re  Re35  1  0.63831000  0.72383000  0.22310000  1.0 0.1116314043
Re  Re36  1  0.64817000  0.82949000  0.31599000  1.0 0.1019977863
H  H1  1  0.81348000  0.07662000  0.41474000  1.0 0.1019977863
H  H2  1  0.07662000  0.41474000  0.81348000  1.0 0.1019977863
H  H3  1  0.41474000  0.81348000  0.07662000  1.0 0.1019977863
H  H4  1  0.68652000  0.08526000  0.42338000  1.0 0.1019977863
H  H5  1  0.42338000  0.68652000  0.08526000  1.0 0.1019977863
H  H6  1  0.08526000  0.42338000  0.68652000  1.0 0.1019977863
H  H7  1  0.18652000  0.92338000  0.58526000  1.0 0.1019977863
H  H8  1  0.92338000  0.58526000  0.18652000  1.0 0.1019977863
H  H9  1  0.58526000  0.18652000  0.92338000  1.0 0.1019977863
H  H10  1  0.31348000  0.91474000  0.57662000  1.0 0.1019977863
H  H11  1  0.57662000  0.31348000  0.91474000  1.0 0.1019977863
H  H12  1  0.91474000  0.57662000  0.31348000  1.0 0.1019977863
C  C1  1  0.88957000  0.16767000  0.28807000  1.0 0.1822888857
C  C2  1  0.69255000  0.14385000  0.06185000  1.0 0.0779690071
C  C3  1  0.89153000  0.36493000  0.07913000  1.0 0.087080663
C  C4  1  0.88801000  0.98551000  0.50041000  1.0 0.6448640096
C  C5  1  0.81373000  0.00203000  0.49073000  1.0 -0.1772038696
C  C6  1  0.78610000  0.04990000  0.44550000  1.0 -0.1711688868
C  C7  1  0.16767000  0.28807000  0.88957000  1.0 0.1822888857
C  C8  1  0.14385000  0.06185000  0.69255000  1.0 0.0779690071
C  C9  1  0.36493000  0.07913000  0.89153000  1.0 0.087080663
C  C10  1  0.98551000  0.50041000  0.88801000  1.0 0.6448640096
C  C11  1  0.00203000  0.49073000  0.81373000  1.0 -0.1772038696
C  C12  1  0.04990000  0.44550000  0.78610000  1.0 -0.1711688868
C  C13  1  0.28807000  0.88957000  0.16767000  1.0 0.1822888857
C  C14  1  0.06185000  0.69255000  0.14385000  1.0 0.0779690071
C  C15  1  0.07913000  0.89153000  0.36493000  1.0 0.087080663
C  C16  1  0.50041000  0.88801000  0.98551000  1.0 0.6448640096
C  C17  1  0.49073000  0.81373000  0.00203000  1.0 -0.1772038696
C  C18  1  0.44550000  0.78610000  0.04990000  1.0 -0.1711688868
C  C19  1  0.61043000  0.21193000  0.33233000  1.0 0.1822888857
C  C20  1  0.80745000  0.43815000  0.35615000  1.0 0.0779690071
C  C21  1  0.60847000  0.42087000  0.13507000  1.0 0.087080663
C  C22  1  0.61199000  0.99959000  0.51449000  1.0 0.6448640096
C  C23  1  0.68627000  0.00927000  0.49797000  1.0 -0.1772038696
C  C24  1  0.71390000  0.05450000  0.45010000  1.0 -0.1711688868
C  C25  1  0.33233000  0.61043000  0.21193000  1.0 0.1822888857
C  C26  1  0.35615000  0.80745000  0.43815000  1.0 0.0779690071
C  C27  1  0.13507000  0.60847000  0.42087000  1.0 0.087080663
C  C28  1  0.51449000  0.61199000  0.99959000  1.0 0.6448640096
C  C29  1  0.49797000  0.68627000  0.00927000  1.0 -0.1772038696
C  C30  1  0.45010000  0.71390000  0.05450000  1.0 -0.1711688868
C  C31  1  0.21193000  0.33233000  0.61043000  1.0 0.1822888857
C  C32  1  0.43815000  0.35615000  0.80745000  1.0 0.0779690071
C  C33  1  0.42087000  0.13507000  0.60847000  1.0 0.087080663
C  C34  1  0.99959000  0.51449000  0.61199000  1.0 0.6448640096
C  C35  1  0.00927000  0.49797000  0.68627000  1.0 -0.1772038696
C  C36  1  0.05450000  0.45010000  0.71390000  1.0 -0.1711688868
C  C37  1  0.11043000  0.83233000  0.71193000  1.0 0.1822888857
C  C38  1  0.30745000  0.85615000  0.93815000  1.0 0.0779690071
C  C39  1  0.10847000  0.63507000  0.92087000  1.0 0.087080663
C  C40  1  0.11199000  0.01449000  0.49959000  1.0 0.6448640096
C  C41  1  0.18627000  0.99797000  0.50927000  1.0 -0.1772038696
C  C42  1  0.21390000  0.95010000  0.55450000  1.0 -0.1711688868
C  C43  1  0.83233000  0.71193000  0.11043000  1.0 0.1822888857
C  C44  1  0.85615000  0.93815000  0.30745000  1.0 0.0779690071
C  C45  1  0.63507000  0.92087000  0.10847000  1.0 0.087080663
C  C46  1  0.01449000  0.49959000  0.11199000  1.0 0.6448640096
C  C47  1  0.99797000  0.50927000  0.18627000  1.0 -0.1772038696
C  C48  1  0.95010000  0.55450000  0.21390000  1.0 -0.1711688868
C  C49  1  0.71193000  0.11043000  0.83233000  1.0 0.1822888857
C  C50  1  0.93815000  0.30745000  0.85615000  1.0 0.0779690071
C  C51  1  0.92087000  0.10847000  0.63507000  1.0 0.087080663
C  C52  1  0.49959000  0.11199000  0.01449000  1.0 0.6448640096
C  C53  1  0.50927000  0.18627000  0.99797000  1.0 -0.1772038696
C  C54  1  0.55450000  0.21390000  0.95010000  1.0 -0.1711688868
C  C55  1  0.38957000  0.78807000  0.66767000  1.0 0.1822888857
C  C56  1  0.19255000  0.56185000  0.64385000  1.0 0.0779690071
C  C57  1  0.39153000  0.57913000  0.86493000  1.0 0.087080663
C  C58  1  0.38801000  0.00041000  0.48551000  1.0 0.6448640096
C  C59  1  0.31373000  0.99073000  0.50203000  1.0 -0.1772038696
C  C60  1  0.28610000  0.94550000  0.54990000  1.0 -0.1711688868
C  C61  1  0.66767000  0.38957000  0.78807000  1.0 0.1822888857
C  C62  1  0.64385000  0.19255000  0.56185000  1.0 0.0779690071
C  C63  1  0.86493000  0.39153000  0.57913000  1.0 0.087080663
C  C64  1  0.48551000  0.38801000  0.00041000  1.0 0.6448640096
C  C65  1  0.50203000  0.31373000  0.99073000  1.0 -0.1772038696
C  C66  1  0.54990000  0.28610000  0.94550000  1.0 -0.1711688868
C  C67  1  0.78807000  0.66767000  0.38957000  1.0 0.1822888857
C  C68  1  0.56185000  0.64385000  0.19255000  1.0 0.0779690071
C  C69  1  0.57913000  0.86493000  0.39153000  1.0 0.087080663
C  C70  1  0.00041000  0.48551000  0.38801000  1.0 0.6448640096
C  C71  1  0.99073000  0.50203000  0.31373000  1.0 -0.1772038696
C  C72  1  0.94550000  0.54990000  0.28610000  1.0 -0.1711688868
Se  Se1  1  0.85165000  0.20651000  0.12086000  1.0 0.1116314043
Se  Se2  1  0.90206000  0.33776000  0.25114000  1.0 -0.0022731138
Se  Se3  1  0.77478000  0.26686000  0.36493000  1.0 -0.0198227311
Se  Se4  1  0.77649000  0.45028000  0.18172000  1.0 -0.0601278861
Se  Se5  1  0.20651000  0.12086000  0.85165000  1.0 0.1116314043
Se  Se6  1  0.33776000  0.25114000  0.90206000  1.0 -0.0022731138
Se  Se7  1  0.26686000  0.36493000  0.77478000  1.0 -0.0198227311
Se  Se8  1  0.45028000  0.18172000  0.77649000  1.0 -0.0601278861
Se  Se9  1  0.12086000  0.85165000  0.20651000  1.0 0.1116314043
Se  Se10  1  0.25114000  0.90206000  0.33776000  1.0 -0.0022731138
Se  Se11  1  0.36493000  0.77478000  0.26686000  1.0 -0.0198227311
Se  Se12  1  0.18172000  0.77649000  0.45028000  1.0 -0.0601278861
Se  Se13  1  0.64835000  0.37914000  0.29349000  1.0 0.1116314043
Se  Se14  1  0.59794000  0.24886000  0.16224000  1.0 -0.0022731138
Se  Se15  1  0.72522000  0.13507000  0.23314000  1.0 -0.0198227311
Se  Se16  1  0.72351000  0.31828000  0.04972000  1.0 -0.0601278861
Se  Se17  1  0.29349000  0.64835000  0.37914000  1.0 0.1116314043
Se  Se18  1  0.16224000  0.59794000  0.24886000  1.0 -0.0022731138
Se  Se19  1  0.23314000  0.72522000  0.13507000  1.0 -0.0198227311
Se  Se20  1  0.04972000  0.72351000  0.31828000  1.0 -0.0601278861
Se  Se21  1  0.37914000  0.29349000  0.64835000  1.0 0.1116314043
Se  Se22  1  0.24886000  0.16224000  0.59794000  1.0 -0.0022731138
Se  Se23  1  0.13507000  0.23314000  0.72522000  1.0 -0.0198227311
Se  Se24  1  0.31828000  0.04972000  0.72351000  1.0 -0.0601278861
Se  Se25  1  0.14835000  0.79349000  0.87914000  1.0 0.1116314043
Se  Se26  1  0.09794000  0.66224000  0.74886000  1.0 -0.0022731138
Se  Se27  1  0.22522000  0.73314000  0.63507000  1.0 -0.0198227311
Se  Se28  1  0.22351000  0.54972000  0.81828000  1.0 -0.0601278861
Se  Se29  1  0.79349000  0.87914000  0.14835000  1.0 0.1116314043
Se  Se30  1  0.66224000  0.74886000  0.09794000  1.0 -0.0022731138
Se  Se31  1  0.73314000  0.63507000  0.22522000  1.0 -0.0198227311
Se  Se32  1  0.54972000  0.81828000  0.22351000  1.0 -0.0601278861
Se  Se33  1  0.87914000  0.14835000  0.79349000  1.0 0.1116314043
Se  Se34  1  0.74886000  0.09794000  0.66224000  1.0 -0.0022731138
Se  Se35  1  0.63507000  0.22522000  0.73314000  1.0 -0.0198227311
Se  Se36  1  0.81828000  0.22351000  0.54972000  1.0 -0.0601278861
Se  Se37  1  0.35165000  0.62086000  0.70651000  1.0 0.1116314043
Se  Se38  1  0.40206000  0.75114000  0.83776000  1.0 -0.0022731138
Se  Se39  1  0.27478000  0.86493000  0.76686000  1.0 -0.0198227311
Se  Se40  1  0.27649000  0.68172000  0.95028000  1.0 -0.0601278861
Se  Se41  1  0.70651000  0.35165000  0.62086000  1.0 0.1116314043
Se  Se42  1  0.83776000  0.40206000  0.75114000  1.0 -0.0022731138
Se  Se43  1  0.76686000  0.27478000  0.86493000  1.0 -0.0198227311
Se  Se44  1  0.95028000  0.27649000  0.68172000  1.0 -0.0601278861
Se  Se45  1  0.62086000  0.70651000  0.35165000  1.0 0.1116314043
Se  Se46  1  0.75114000  0.83776000  0.40206000  1.0 -0.0022731138
Se  Se47  1  0.86493000  0.76686000  0.27478000  1.0 -0.0198227311
Se  Se48  1  0.68172000  0.95028000  0.27649000  1.0 -0.0601278861
S  S1  1  0.75000000  0.96207000  0.53793000  1.0 0.121540881
S  S2  1  0.96207000  0.53793000  0.75000000  1.0 0.121540881
S  S3  1  0.53793000  0.75000000  0.96207000  1.0 0.121540881
S  S4  1  0.25000000  0.03793000  0.46207000  1.0 0.121540881
S  S5  1  0.03793000  0.46207000  0.25000000  1.0 0.121540881
S  S6  1  0.46207000  0.25000000  0.03793000  1.0 0.121540881
N  N1  1  0.92761000  0.13041000  0.31351000  1.0 -0.5993118814
N  N2  1  0.67694000  0.09814000  0.02264000  1.0 -0.5031959844
N  N3  1  0.93543000  0.37933000  0.04213000  1.0 -0.5088213416
N  N4  1  0.13041000  0.31351000  0.92761000  1.0 -0.5993118814
N  N5  1  0.09814000  0.02264000  0.67694000  1.0 -0.5031959844
N  N6  1  0.37933000  0.04213000  0.93543000  1.0 -0.5088213416
N  N7  1  0.31351000  0.92761000  0.13041000  1.0 -0.5993118814
N  N8  1  0.02264000  0.67694000  0.09814000  1.0 -0.5031959844
N  N9  1  0.04213000  0.93543000  0.37933000  1.0 -0.5088213416
N  N10  1  0.57239000  0.18649000  0.36959000  1.0 -0.5993118814
N  N11  1  0.82306000  0.47736000  0.40186000  1.0 -0.5031959844
N  N12  1  0.56457000  0.45787000  0.12067000  1.0 -0.5088213416
N  N13  1  0.36959000  0.57239000  0.18649000  1.0 -0.5993118814
N  N14  1  0.40186000  0.82306000  0.47736000  1.0 -0.5031959844
N  N15  1  0.12067000  0.56457000  0.45787000  1.0 -0.5088213416
N  N16  1  0.18649000  0.36959000  0.57239000  1.0 -0.5993118814
N  N17  1  0.47736000  0.40186000  0.82306000  1.0 -0.5031959844
N  N18  1  0.45787000  0.12067000  0.56457000  1.0 -0.5088213416
N  N19  1  0.07239000  0.86959000  0.68649000  1.0 -0.5993118814
N  N20  1  0.32306000  0.90186000  0.97736000  1.0 -0.5031959844
N  N21  1  0.06457000  0.62067000  0.95787000  1.0 -0.5088213416
N  N22  1  0.86959000  0.68649000  0.07239000  1.0 -0.5993118814
N  N23  1  0.90186000  0.97736000  0.32306000  1.0 -0.5031959844
N  N24  1  0.62067000  0.95787000  0.06457000  1.0 -0.5088213416
N  N25  1  0.68649000  0.07239000  0.86959000  1.0 -0.5993118814
N  N26  1  0.97736000  0.32306000  0.90186000  1.0 -0.5031959844
N  N27  1  0.95787000  0.06457000  0.62067000  1.0 -0.5088213416
N  N28  1  0.42761000  0.81351000  0.63041000  1.0 -0.5993118814
N  N29  1  0.17694000  0.52264000  0.59814000  1.0 -0.5031959844
N  N30  1  0.43543000  0.54213000  0.87933000  1.0 -0.5088213416
N  N31  1  0.63041000  0.42761000  0.81351000  1.0 -0.5993118814
N  N32  1  0.59814000  0.17694000  0.52264000  1.0 -0.5031959844
N  N33  1  0.87933000  0.43543000  0.54213000  1.0 -0.5088213416
N  N34  1  0.81351000  0.63041000  0.42761000  1.0 -0.5993118814
N  N35  1  0.52264000  0.59814000  0.17694000  1.0 -0.5031959844
N  N36  1  0.54213000  0.87933000  0.43543000  1.0 -0.5088213416
O  O1  1  0.93049000  0.01854000  0.46414000  1.0 -0.7481469146
O  O2  1  0.90516000  0.94238000  0.54556000  1.0 -0.7378667575
O  O3  1  0.01854000  0.46414000  0.93049000  1.0 -0.7481469146
O  O4  1  0.94238000  0.54556000  0.90516000  1.0 -0.7378667575
O  O5  1  0.46414000  0.93049000  0.01854000  1.0 -0.7481469146
O  O6  1  0.54556000  0.90516000  0.94238000  1.0 -0.7378667575
O  O7  1  0.56951000  0.03586000  0.48146000  1.0 -0.7481469146
O  O8  1  0.59484000  0.95444000  0.55762000  1.0 -0.7378667575
O  O9  1  0.48146000  0.56951000  0.03586000  1.0 -0.7481469146
O  O10  1  0.55762000  0.59484000  0.95444000  1.0 -0.7378667575
O  O11  1  0.03586000  0.48146000  0.56951000  1.0 -0.7481469146
O  O12  1  0.95444000  0.55762000  0.59484000  1.0 -0.7378667575
O  O13  1  0.06951000  0.98146000  0.53586000  1.0 -0.7481469146
O  O14  1  0.09484000  0.05762000  0.45444000  1.0 -0.7378667575
O  O15  1  0.98146000  0.53586000  0.06951000  1.0 -0.7481469146
O  O16  1  0.05762000  0.45444000  0.09484000  1.0 -0.7378667575
O  O17  1  0.53586000  0.06951000  0.98146000  1.0 -0.7481469146
O  O18  1  0.45444000  0.09484000  0.05762000  1.0 -0.7378667575
O  O19  1  0.43049000  0.96414000  0.51854000  1.0 -0.7481469146
O  O20  1  0.40516000  0.04556000  0.44238000  1.0 -0.7378667575
O  O21  1  0.51854000  0.43049000  0.96414000  1.0 -0.7481469146
O  O22  1  0.44238000  0.40516000  0.04556000  1.0 -0.7378667575
O  O23  1  0.96414000  0.51854000  0.43049000  1.0 -0.7481469146
O  O24  1  0.04556000  0.44238000  0.40516000  1.0 -0.7378667575
