# DDEC6 charges by PACMAN v1.1 (https://github.com/mtap-research/PACMAN-charge/)
data_BADJIC_ASR_pacman
_symmetry_space_group_name_H-M   'P 1'
_cell_length_a   17.71820000
_cell_length_b   17.71820000
_cell_length_c   11.06520000
_cell_angle_alpha   84.94200000
_cell_angle_beta   95.05800000
_cell_angle_gamma   28.59370000
_symmetry_Int_Tables_number   1
_chemical_formula_structural   ScH8(C7O3)2
_chemical_formula_sum   'Sc4 H32 C56 O24'
_cell_volume   1552.95573594
_cell_formula_units_Z   4
loop_
 _symmetry_equiv_pos_site_id
 _symmetry_equiv_pos_as_xyz
  1  'x, y, z'
loop_
 _atom_site_type_symbol
 _atom_site_label
 _atom_site_symmetry_multiplicity
 _atom_site_fract_x
 _atom_site_fract_y
 _atom_site_fract_z
 _atom_site_occupancy
 _atom_site_charge
Sc  Sc1  1  0.13395000  0.13395000  0.75000000  1.0 1.8234384308
Sc  Sc2  1  0.86605000  0.86605000  0.25000000  1.0 1.8234384308
Sc  Sc3  1  0.61275000  0.61275000  0.75000000  1.0 1.8032512913
Sc  Sc4  1  0.38725000  0.38725000  0.25000000  1.0 1.8032512913
H  H1  1  0.87420000  0.33360000  0.34220000  1.0 0.0834482225
H  H2  1  0.33360000  0.87420000  0.15780000  1.0 0.0834482225
H  H3  1  0.12580000  0.66640000  0.65780000  1.0 0.0834482225
H  H4  1  0.66640000  0.12580000  0.84220000  1.0 0.0834482225
H  H5  1  0.74770000  0.45910000  0.11820000  1.0 0.0834482225
H  H6  1  0.45910000  0.74770000  0.38180000  1.0 0.0834482225
H  H7  1  0.25230000  0.54090000  0.88180000  1.0 0.0834482225
H  H8  1  0.54090000  0.25230000  0.61820000  1.0 0.0834482225
H  H9  1  0.74850000  0.27730000  0.00140000  1.0 0.1200868313
H  H10  1  0.27730000  0.74850000  0.49860000  1.0 0.1200868313
H  H11  1  0.25150000  0.72270000  0.99860000  1.0 0.1200868313
H  H12  1  0.72270000  0.25150000  0.50140000  1.0 0.1200868313
H  H13  1  0.84170000  0.07410000  0.10700000  1.0 0.1200868313
H  H14  1  0.07410000  0.84170000  0.39300000  1.0 0.1200868313
H  H15  1  0.15830000  0.92590000  0.89300000  1.0 0.1200868313
H  H16  1  0.92590000  0.15830000  0.60700000  1.0 0.1200868313
H  H17  1  0.20830000  0.27850000  0.92180000  1.0 0.1251960943
H  H18  1  0.27850000  0.20830000  0.57820000  1.0 0.1251960943
H  H19  1  0.79170000  0.72150000  0.07820000  1.0 0.1251960943
H  H20  1  0.72150000  0.79170000  0.42180000  1.0 0.1251960943
H  H21  1  0.23520000  0.36320000  0.03160000  1.0 0.1200868313
H  H22  1  0.36320000  0.23520000  0.46840000  1.0 0.1200868313
H  H23  1  0.76480000  0.63680000  0.96840000  1.0 0.1200868313
H  H24  1  0.63680000  0.76480000  0.53160000  1.0 0.1200868313
H  H25  1  0.91490000  0.36330000  0.34780000  1.0 0.0834482225
H  H26  1  0.36330000  0.91490000  0.15220000  1.0 0.0834482225
H  H27  1  0.08510000  0.63670000  0.65220000  1.0 0.0834482225
H  H28  1  0.63670000  0.08510000  0.84780000  1.0 0.0834482225
H  H29  1  0.79510000  0.48050000  0.12170000  1.0 0.086467276
H  H30  1  0.48050000  0.79510000  0.37830000  1.0 0.086467276
H  H31  1  0.20490000  0.51950000  0.87830000  1.0 0.086467276
H  H32  1  0.51950000  0.20490000  0.62170000  1.0 0.086467276
C  C1  1  0.77840000  0.46500000  0.52780000  1.0 0.5869308958
C  C2  1  0.46500000  0.77840000  0.97220000  1.0 0.5869308958
C  C3  1  0.22160000  0.53500000  0.47220000  1.0 0.5869308958
C  C4  1  0.53500000  0.22160000  0.02780000  1.0 0.5869308958
C  C5  1  0.69610000  0.54490000  0.38310000  1.0 -0.0226207744
C  C6  1  0.54490000  0.69610000  0.11690000  1.0 -0.0226207744
C  C7  1  0.30390000  0.45510000  0.61690000  1.0 -0.0226207744
C  C8  1  0.45510000  0.30390000  0.88310000  1.0 -0.0226207744
C  C9  1  0.77060000  0.45060000  0.30480000  1.0 -0.0572267988
C  C10  1  0.45060000  0.77060000  0.19520000  1.0 -0.0572267988
C  C11  1  0.22940000  0.54940000  0.69520000  1.0 -0.0572267988
C  C12  1  0.54940000  0.22940000  0.80480000  1.0 -0.0572267988
C  C13  1  0.69630000  0.52430000  0.17030000  1.0 -0.0572267988
C  C14  1  0.52430000  0.69630000  0.32970000  1.0 -0.0572267988
C  C15  1  0.30370000  0.47570000  0.82970000  1.0 -0.0572267988
C  C16  1  0.47570000  0.30370000  0.67030000  1.0 -0.0572267988
C  C17  1  0.88360000  0.24880000  0.86210000  1.0 0.6352048168
C  C18  1  0.24880000  0.88360000  0.63790000  1.0 0.6352048168
C  C19  1  0.11640000  0.75120000  0.13790000  1.0 0.6345791469
C  C20  1  0.75120000  0.11640000  0.36210000  1.0 0.6352048168
C  C21  1  0.94430000  0.12010000  0.93320000  1.0 -0.0419252416
C  C22  1  0.12010000  0.94430000  0.56680000  1.0 -0.0419252416
C  C23  1  0.05570000  0.87990000  0.06680000  1.0 -0.0419252416
C  C24  1  0.87990000  0.05570000  0.43320000  1.0 -0.0419252416
C  C25  1  0.84700000  0.16840000  0.00000000  1.0 -0.1380817716
C  C26  1  0.16840000  0.84700000  0.50000000  1.0 -0.1380817716
C  C27  1  0.15300000  0.83160000  0.00000000  1.0 -0.1380817716
C  C28  1  0.83160000  0.15300000  0.50000000  1.0 -0.1380817716
C  C29  1  0.90530000  0.04470000  0.06480000  1.0 -0.110481012
C  C30  1  0.04470000  0.90530000  0.43520000  1.0 -0.110481012
C  C31  1  0.09470000  0.95530000  0.93520000  1.0 -0.110481012
C  C32  1  0.95530000  0.09470000  0.56480000  1.0 -0.110481012
C  C33  1  0.95090000  0.40970000  0.86030000  1.0 0.6352048168
C  C34  1  0.40970000  0.95090000  0.63970000  1.0 0.6352048168
C  C35  1  0.04910000  0.59030000  0.13970000  1.0 0.6352048168
C  C36  1  0.59030000  0.04910000  0.36030000  1.0 0.6352048168
C  C37  1  0.97620000  0.45820000  0.93180000  1.0 -0.0226207744
C  C38  1  0.45820000  0.97620000  0.56820000  1.0 -0.0226207744
C  C39  1  0.02380000  0.54180000  0.06820000  1.0 -0.0226207744
C  C40  1  0.54180000  0.02380000  0.43180000  1.0 -0.0226207744
C  C41  1  0.12500000  0.36720000  0.95180000  1.0 -0.1163983916
C  C42  1  0.36720000  0.12500000  0.54820000  1.0 -0.1163983916
C  C43  1  0.87500000  0.63280000  0.04820000  1.0 -0.1163983916
C  C44  1  0.63280000  0.87500000  0.45180000  1.0 -0.1163983916
C  C45  1  0.14040000  0.41760000  0.01950000  1.0 -0.110481012
C  C46  1  0.41760000  0.14040000  0.48050000  1.0 -0.110481012
C  C47  1  0.85960000  0.58240000  0.98050000  1.0 -0.110481012
C  C48  1  0.58240000  0.85960000  0.51950000  1.0 -0.110481012
C  C49  1  0.79860000  0.46460000  0.30800000  1.0 -0.0419252416
C  C50  1  0.46460000  0.79860000  0.19200000  1.0 -0.0419252416
C  C51  1  0.20140000  0.53540000  0.69200000  1.0 -0.0419252416
C  C52  1  0.53540000  0.20140000  0.80800000  1.0 -0.0419252416
C  C53  1  0.72830000  0.53430000  0.17300000  1.0 -0.0463175935
C  C54  1  0.53430000  0.72830000  0.32700000  1.0 -0.0463175935
C  C55  1  0.27170000  0.46570000  0.82700000  1.0 -0.0463175935
C  C56  1  0.46570000  0.27170000  0.67300000  1.0 -0.0463175935
O  O1  1  0.68460000  0.54080000  0.59320000  1.0 -0.6005972376
O  O2  1  0.54080000  0.68460000  0.90680000  1.0 -0.6005972376
O  O3  1  0.31540000  0.45920000  0.40680000  1.0 -0.6005972376
O  O4  1  0.45920000  0.31540000  0.09320000  1.0 -0.6005972376
O  O5  1  0.93610000  0.32830000  0.57260000  1.0 -0.5928919365
O  O6  1  0.32830000  0.93610000  0.92740000  1.0 -0.5928919365
O  O7  1  0.06390000  0.67170000  0.42740000  1.0 -0.5928919365
O  O8  1  0.67170000  0.06390000  0.07260000  1.0 -0.5928919365
O  O9  1  0.73712000  0.39992000  0.84420000  1.0 -0.612450247
O  O10  1  0.39992000  0.73712000  0.65580000  1.0 -0.612450247
O  O11  1  0.26288000  0.60008000  0.15580000  1.0 -0.612450247
O  O12  1  0.60008000  0.26288000  0.34420000  1.0 -0.612450247
O  O13  1  0.98650000  0.19550000  0.82100000  1.0 -0.6815379014
O  O14  1  0.19550000  0.98650000  0.67900000  1.0 -0.6815379014
O  O15  1  0.01350000  0.80450000  0.17900000  1.0 -0.6815379014
O  O16  1  0.80450000  0.01350000  0.32100000  1.0 -0.6815379014
O  O17  1  0.81840000  0.49260000  0.84210000  1.0 -0.6275645246
O  O18  1  0.49260000  0.81840000  0.65790000  1.0 -0.6275645246
O  O19  1  0.18160000  0.50740000  0.15790000  1.0 -0.6275645246
O  O20  1  0.50740000  0.18160000  0.34210000  1.0 -0.6275645246
O  O21  1  0.06840000  0.28600000  0.82600000  1.0 -0.612450247
O  O22  1  0.28600000  0.06840000  0.67400000  1.0 -0.612450247
O  O23  1  0.93160000  0.71400000  0.17400000  1.0 -0.612450247
O  O24  1  0.71400000  0.93160000  0.32600000  1.0 -0.612450247
