# DDEC6 charges by PACMAN v1.1 (https://github.com/mtap-research/PACMAN-charge/)
data_BAKYIY_FSR_pacman
_symmetry_space_group_name_H-M   'P 1'
_cell_length_a   11.38150000
_cell_length_b   11.38150000
_cell_length_c   12.48000000
_cell_angle_alpha   90.00000000
_cell_angle_beta   90.00000000
_cell_angle_gamma   95.77260000
_symmetry_Int_Tables_number   1
_chemical_formula_structural   Mg2H16C16N5O11
_chemical_formula_sum   'Mg4 H32 C32 N10 O22'
_cell_volume   1608.44289500
_cell_formula_units_Z   2
loop_
 _symmetry_equiv_pos_site_id
 _symmetry_equiv_pos_as_xyz
  1  'x, y, z'
loop_
 _atom_site_type_symbol
 _atom_site_label
 _atom_site_symmetry_multiplicity
 _atom_site_fract_x
 _atom_site_fract_y
 _atom_site_fract_z
 _atom_site_occupancy
 _atom_site_charge
Mg  Mg1  1  0.89102000  0.10898000  0.25000000  1.0 1.3182344439
Mg  Mg2  1  0.10898000  0.89102000  0.75000000  1.0 1.326055368
Mg  Mg3  1  0.00000000  0.00000000  0.00000000  1.0 1.3182344439
Mg  Mg4  1  0.00000000  0.00000000  0.50000000  1.0 1.3182344439
H  H1  1  0.92010000  0.44490000  0.16300000  1.0 0.1214926444
H  H2  1  0.07990000  0.55510000  0.66300000  1.0 0.1214926444
H  H3  1  0.55510000  0.07990000  0.33700000  1.0 0.1214926444
H  H4  1  0.44490000  0.92010000  0.83700000  1.0 0.1214926444
H  H5  1  0.07990000  0.55510000  0.83700000  1.0 0.1214926444
H  H6  1  0.92010000  0.44490000  0.33700000  1.0 0.1214926444
H  H7  1  0.44490000  0.92010000  0.66300000  1.0 0.1214926444
H  H8  1  0.55510000  0.07990000  0.16300000  1.0 0.1214926444
H  H9  1  0.12930000  0.35490000  0.80870000  1.0 0.2441104256
H  H10  1  0.87070000  0.64510000  0.30870000  1.0 0.2441104256
H  H11  1  0.64510000  0.87070000  0.69130000  1.0 0.2441104256
H  H12  1  0.35490000  0.12930000  0.19130000  1.0 0.2441104256
H  H13  1  0.87070000  0.64510000  0.19130000  1.0 0.2441104256
H  H14  1  0.12930000  0.35490000  0.69130000  1.0 0.2441104256
H  H15  1  0.35490000  0.12930000  0.30870000  1.0 0.2441104256
H  H16  1  0.64510000  0.87070000  0.80870000  1.0 0.2441104256
H  H17  1  0.08610000  0.25850000  0.88390000  1.0 0.2817566596
H  H18  1  0.91390000  0.74150000  0.38390000  1.0 0.2817566596
H  H19  1  0.74150000  0.91390000  0.61610000  1.0 0.2817566596
H  H20  1  0.25850000  0.08610000  0.11610000  1.0 0.2817566596
H  H21  1  0.91390000  0.74150000  0.11610000  1.0 0.2817566596
H  H22  1  0.08610000  0.25850000  0.61610000  1.0 0.2817566596
H  H23  1  0.25850000  0.08610000  0.38390000  1.0 0.2817566596
H  H24  1  0.74150000  0.91390000  0.88390000  1.0 0.2817566596
H  H25  1  0.09000000  0.81040000  0.23860000  1.0 0.302976539
H  H26  1  0.91000000  0.18960000  0.73860000  1.0 0.302976539
H  H27  1  0.18960000  0.91000000  0.26140000  1.0 0.302976539
H  H28  1  0.81040000  0.09000000  0.76140000  1.0 0.302976539
H  H29  1  0.91000000  0.18960000  0.76140000  1.0 0.302976539
H  H30  1  0.09000000  0.81040000  0.26140000  1.0 0.302976539
H  H31  1  0.81040000  0.09000000  0.73860000  1.0 0.302976539
H  H32  1  0.18960000  0.91000000  0.23860000  1.0 0.302976539
C  C1  1  0.98103000  0.25417000  0.06630000  1.0 0.611388614
C  C2  1  0.01897000  0.74583000  0.56630000  1.0 0.611388614
C  C3  1  0.74583000  0.01897000  0.43370000  1.0 0.611388614
C  C4  1  0.25417000  0.98103000  0.93370000  1.0 0.611388614
C  C5  1  0.01897000  0.74583000  0.93370000  1.0 0.611388614
C  C6  1  0.98103000  0.25417000  0.43370000  1.0 0.611388614
C  C7  1  0.25417000  0.98103000  0.56630000  1.0 0.611388614
C  C8  1  0.74583000  0.01897000  0.06630000  1.0 0.611388614
C  C9  1  0.99620000  0.38160000  0.03070000  1.0 -0.1139295552
C  C10  1  0.00380000  0.61840000  0.53070000  1.0 -0.1139295552
C  C11  1  0.61840000  0.00380000  0.46930000  1.0 -0.1139295552
C  C12  1  0.38160000  0.99620000  0.96930000  1.0 -0.1139295552
C  C13  1  0.00380000  0.61840000  0.96930000  1.0 -0.1139295552
C  C14  1  0.99620000  0.38160000  0.46930000  1.0 -0.1139295552
C  C15  1  0.38160000  0.99620000  0.53070000  1.0 -0.1139295552
C  C16  1  0.61840000  0.00380000  0.03070000  1.0 -0.1139295552
C  C17  1  0.03730000  0.41550000  0.93090000  1.0 0.2205670342
C  C18  1  0.96270000  0.58450000  0.43090000  1.0 0.2205670342
C  C19  1  0.58450000  0.96270000  0.56910000  1.0 0.2205670342
C  C20  1  0.41550000  0.03730000  0.06910000  1.0 0.2205670342
C  C21  1  0.96270000  0.58450000  0.06910000  1.0 0.2205670342
C  C22  1  0.03730000  0.41550000  0.56910000  1.0 0.2205670342
C  C23  1  0.41550000  0.03730000  0.43090000  1.0 0.2205670342
C  C24  1  0.58450000  0.96270000  0.93090000  1.0 0.2205670342
C  C25  1  0.95440000  0.46780000  0.09760000  1.0 -0.2135349348
C  C26  1  0.04560000  0.53220000  0.59760000  1.0 -0.2135349348
C  C27  1  0.53220000  0.04560000  0.40240000  1.0 -0.2135349348
C  C28  1  0.46780000  0.95440000  0.90240000  1.0 -0.2135349348
C  C29  1  0.04560000  0.53220000  0.90240000  1.0 -0.2135349348
C  C30  1  0.95440000  0.46780000  0.40240000  1.0 -0.2135349348
C  C31  1  0.46780000  0.95440000  0.59760000  1.0 -0.2135349348
C  C32  1  0.53220000  0.04560000  0.09760000  1.0 -0.2135349348
N  N1  1  0.04270000  0.95730000  0.25000000  1.0 0.2679671698
N  N2  1  0.95730000  0.04270000  0.75000000  1.0 0.2679671698
N  N3  1  0.09150000  0.33170000  0.86580000  1.0 -0.6479643531
N  N4  1  0.90850000  0.66830000  0.36580000  1.0 -0.6479643531
N  N5  1  0.66830000  0.90850000  0.63420000  1.0 -0.6479643531
N  N6  1  0.33170000  0.09150000  0.13420000  1.0 -0.6479643531
N  N7  1  0.90850000  0.66830000  0.13420000  1.0 -0.6479643531
N  N8  1  0.09150000  0.33170000  0.63420000  1.0 -0.6479643531
N  N9  1  0.33170000  0.09150000  0.36580000  1.0 -0.6479643531
N  N10  1  0.66830000  0.90850000  0.86580000  1.0 -0.6479643531
O  O1  1  0.93742000  0.23126000  0.15395000  1.0 -0.5805687852
O  O2  1  0.06258000  0.76874000  0.65395000  1.0 -0.5805687852
O  O3  1  0.76874000  0.06258000  0.34605000  1.0 -0.5805687852
O  O4  1  0.23126000  0.93742000  0.84605000  1.0 -0.5805687852
O  O5  1  0.06258000  0.76874000  0.84605000  1.0 -0.5805687852
O  O6  1  0.93742000  0.23126000  0.34605000  1.0 -0.5805687852
O  O7  1  0.23126000  0.93742000  0.65395000  1.0 -0.5805687852
O  O8  1  0.76874000  0.06258000  0.15395000  1.0 -0.5805687852
O  O9  1  0.00912000  0.18090000  0.00407000  1.0 -0.5686268978
O  O10  1  0.99088000  0.81910000  0.50407000  1.0 -0.5686268978
O  O11  1  0.81910000  0.99088000  0.49593000  1.0 -0.5686268978
O  O12  1  0.18090000  0.00912000  0.99593000  1.0 -0.5686268978
O  O13  1  0.99088000  0.81910000  0.99593000  1.0 -0.5686268978
O  O14  1  0.00912000  0.18090000  0.49593000  1.0 -0.5686268978
O  O15  1  0.18090000  0.00912000  0.50407000  1.0 -0.5686268978
O  O16  1  0.81910000  0.99088000  0.00407000  1.0 -0.5686268978
O  O17  1  0.00075000  0.99925000  0.16230000  1.0 -0.6091795363
O  O18  1  0.99925000  0.00075000  0.66230000  1.0 -0.6091795363
O  O19  1  0.00075000  0.99925000  0.33770000  1.0 -0.6091795363
O  O20  1  0.99925000  0.00075000  0.83770000  1.0 -0.6091795363
O  O21  1  0.12360000  0.87640000  0.25000000  1.0 -0.3206570096
O  O22  1  0.87640000  0.12360000  0.75000000  1.0 -0.3206570096
