# DDEC6 charges by PACMAN v1.1 (https://github.com/mtap-research/PACMAN-charge/)
data_BANMAG_ASR_pacman
_symmetry_space_group_name_H-M   'P 1'
_cell_length_a   15.08410000
_cell_length_b   15.08410000
_cell_length_c   15.42760000
_cell_angle_alpha   90.00000000
_cell_angle_beta   90.00000000
_cell_angle_gamma   120.00000000
_symmetry_Int_Tables_number   1
_chemical_formula_structural   Nd2Co3H24(C4O5)6
_chemical_formula_sum   'Nd4 Co6 H48 C48 O60'
_cell_volume   3039.95956927
_cell_formula_units_Z   2
loop_
 _symmetry_equiv_pos_site_id
 _symmetry_equiv_pos_as_xyz
  1  'x, y, z'
loop_
 _atom_site_type_symbol
 _atom_site_label
 _atom_site_symmetry_multiplicity
 _atom_site_fract_x
 _atom_site_fract_y
 _atom_site_fract_z
 _atom_site_occupancy
 _atom_site_charge
Nd  Nd1  1  0.66666667  0.33333333  0.25000000  1.0 1.9223695106
Nd  Nd2  1  0.33333333  0.66666667  0.25000000  1.0 1.9223695106
Nd  Nd3  1  0.33333333  0.66666667  0.75000000  1.0 1.9223695106
Nd  Nd4  1  0.66666667  0.33333333  0.75000000  1.0 1.9223695106
Co  Co1  1  0.50000000  0.00000000  0.00000000  1.0 1.0458246774
Co  Co2  1  0.00000000  0.50000000  0.00000000  1.0 1.0421728498
Co  Co3  1  0.50000000  0.50000000  0.00000000  1.0 1.0458246774
Co  Co4  1  0.00000000  0.50000000  0.50000000  1.0 1.0421728498
Co  Co5  1  0.50000000  0.00000000  0.50000000  1.0 1.0458246774
Co  Co6  1  0.50000000  0.50000000  0.50000000  1.0 1.0458246774
H  H1  1  0.71480000  0.09060000  0.23560000  1.0 0.1240043646
H  H2  1  0.90940000  0.62420000  0.23560000  1.0 0.1240043646
H  H3  1  0.37580000  0.28520000  0.23560000  1.0 0.1240043646
H  H4  1  0.28520000  0.90940000  0.23560000  1.0 0.1240043646
H  H5  1  0.09060000  0.37580000  0.23560000  1.0 0.1240043646
H  H6  1  0.62420000  0.71480000  0.23560000  1.0 0.1240043646
H  H7  1  0.09060000  0.71480000  0.26440000  1.0 0.1240043646
H  H8  1  0.62420000  0.90940000  0.26440000  1.0 0.1240043646
H  H9  1  0.28520000  0.37580000  0.26440000  1.0 0.1240043646
H  H10  1  0.90940000  0.28520000  0.26440000  1.0 0.1240043646
H  H11  1  0.37580000  0.09060000  0.26440000  1.0 0.1240043646
H  H12  1  0.71480000  0.62420000  0.26440000  1.0 0.1240043646
H  H13  1  0.28520000  0.90940000  0.76440000  1.0 0.1240043646
H  H14  1  0.09060000  0.37580000  0.76440000  1.0 0.1240043646
H  H15  1  0.62420000  0.71480000  0.76440000  1.0 0.1240043646
H  H16  1  0.71480000  0.09060000  0.76440000  1.0 0.1240043646
H  H17  1  0.90940000  0.62420000  0.76440000  1.0 0.1240043646
H  H18  1  0.37580000  0.28520000  0.76440000  1.0 0.1240043646
H  H19  1  0.90940000  0.28520000  0.73560000  1.0 0.1240043646
H  H20  1  0.37580000  0.09060000  0.73560000  1.0 0.1240043646
H  H21  1  0.71480000  0.62420000  0.73560000  1.0 0.1240043646
H  H22  1  0.09060000  0.71480000  0.73560000  1.0 0.1240043646
H  H23  1  0.62420000  0.90940000  0.73560000  1.0 0.1240043646
H  H24  1  0.28520000  0.37580000  0.73560000  1.0 0.1240043646
H  H25  1  0.79230000  0.15950000  0.16360000  1.0 0.1379231668
H  H26  1  0.84050000  0.63280000  0.16360000  1.0 0.1379231668
H  H27  1  0.36720000  0.20770000  0.16360000  1.0 0.1379231668
H  H28  1  0.20770000  0.84050000  0.16360000  1.0 0.1379231668
H  H29  1  0.15950000  0.36720000  0.16360000  1.0 0.1379231668
H  H30  1  0.63280000  0.79230000  0.16360000  1.0 0.1379231668
H  H31  1  0.15950000  0.79230000  0.33640000  1.0 0.1379231668
H  H32  1  0.63280000  0.84050000  0.33640000  1.0 0.1379231668
H  H33  1  0.20770000  0.36720000  0.33640000  1.0 0.1379231668
H  H34  1  0.84050000  0.20770000  0.33640000  1.0 0.1379231668
H  H35  1  0.36720000  0.15950000  0.33640000  1.0 0.1379231668
H  H36  1  0.79230000  0.63280000  0.33640000  1.0 0.1379231668
H  H37  1  0.20770000  0.84050000  0.83640000  1.0 0.1379231668
H  H38  1  0.15950000  0.36720000  0.83640000  1.0 0.1379231668
H  H39  1  0.63280000  0.79230000  0.83640000  1.0 0.1379231668
H  H40  1  0.79230000  0.15950000  0.83640000  1.0 0.1379231668
H  H41  1  0.84050000  0.63280000  0.83640000  1.0 0.1379231668
H  H42  1  0.36720000  0.20770000  0.83640000  1.0 0.1379231668
H  H43  1  0.84050000  0.20770000  0.66360000  1.0 0.1379231668
H  H44  1  0.36720000  0.15950000  0.66360000  1.0 0.1379231668
H  H45  1  0.79230000  0.63280000  0.66360000  1.0 0.1379231668
H  H46  1  0.15950000  0.79230000  0.66360000  1.0 0.1379231668
H  H47  1  0.63280000  0.84050000  0.66360000  1.0 0.1379231668
H  H48  1  0.20770000  0.36720000  0.66360000  1.0 0.1379231668
C  C1  1  0.64700000  0.13100000  0.14110000  1.0 0.6292063302
C  C2  1  0.86900000  0.51600000  0.14110000  1.0 0.6292063302
C  C3  1  0.48400000  0.35300000  0.14110000  1.0 0.6292063302
C  C4  1  0.35300000  0.86900000  0.14110000  1.0 0.6292063302
C  C5  1  0.13100000  0.48400000  0.14110000  1.0 0.6292063302
C  C6  1  0.51600000  0.64700000  0.14110000  1.0 0.6292063302
C  C7  1  0.13100000  0.64700000  0.35890000  1.0 0.6292063302
C  C8  1  0.51600000  0.86900000  0.35890000  1.0 0.6292063302
C  C9  1  0.35300000  0.48400000  0.35890000  1.0 0.6292063302
C  C10  1  0.86900000  0.35300000  0.35890000  1.0 0.6292063302
C  C11  1  0.48400000  0.13100000  0.35890000  1.0 0.6292063302
C  C12  1  0.64700000  0.51600000  0.35890000  1.0 0.6292063302
C  C13  1  0.35300000  0.86900000  0.85890000  1.0 0.6292063302
C  C14  1  0.13100000  0.48400000  0.85890000  1.0 0.6292063302
C  C15  1  0.51600000  0.64700000  0.85890000  1.0 0.6292063302
C  C16  1  0.64700000  0.13100000  0.85890000  1.0 0.6292063302
C  C17  1  0.86900000  0.51600000  0.85890000  1.0 0.6292063302
C  C18  1  0.48400000  0.35300000  0.85890000  1.0 0.6292063302
C  C19  1  0.86900000  0.35300000  0.64110000  1.0 0.6292063302
C  C20  1  0.48400000  0.13100000  0.64110000  1.0 0.6292063302
C  C21  1  0.64700000  0.51600000  0.64110000  1.0 0.6292063302
C  C22  1  0.13100000  0.64700000  0.64110000  1.0 0.6292063302
C  C23  1  0.51600000  0.86900000  0.64110000  1.0 0.6292063302
C  C24  1  0.35300000  0.48400000  0.64110000  1.0 0.6292063302
C  C25  1  0.73480000  0.14970000  0.19870000  1.0 -0.1663126759
C  C26  1  0.85030000  0.58510000  0.19870000  1.0 -0.1663126759
C  C27  1  0.41490000  0.26520000  0.19870000  1.0 -0.1663126759
C  C28  1  0.26520000  0.85030000  0.19870000  1.0 -0.1663126759
C  C29  1  0.14970000  0.41490000  0.19870000  1.0 -0.1663126759
C  C30  1  0.58510000  0.73480000  0.19870000  1.0 -0.1663126759
C  C31  1  0.14970000  0.73480000  0.30130000  1.0 -0.1663126759
C  C32  1  0.58510000  0.85030000  0.30130000  1.0 -0.1663126759
C  C33  1  0.26520000  0.41490000  0.30130000  1.0 -0.1663126759
C  C34  1  0.85030000  0.26520000  0.30130000  1.0 -0.1663126759
C  C35  1  0.41490000  0.14970000  0.30130000  1.0 -0.1663126759
C  C36  1  0.73480000  0.58510000  0.30130000  1.0 -0.1663126759
C  C37  1  0.26520000  0.85030000  0.80130000  1.0 -0.1663126759
C  C38  1  0.14970000  0.41490000  0.80130000  1.0 -0.1663126759
C  C39  1  0.58510000  0.73480000  0.80130000  1.0 -0.1663126759
C  C40  1  0.73480000  0.14970000  0.80130000  1.0 -0.1663126759
C  C41  1  0.85030000  0.58510000  0.80130000  1.0 -0.1663126759
C  C42  1  0.41490000  0.26520000  0.80130000  1.0 -0.1663126759
C  C43  1  0.85030000  0.26520000  0.69870000  1.0 -0.1663126759
C  C44  1  0.41490000  0.14970000  0.69870000  1.0 -0.1663126759
C  C45  1  0.73480000  0.58510000  0.69870000  1.0 -0.1663126759
C  C46  1  0.14970000  0.73480000  0.69870000  1.0 -0.1663126759
C  C47  1  0.58510000  0.85030000  0.69870000  1.0 -0.1663126759
C  C48  1  0.26520000  0.41490000  0.69870000  1.0 -0.1663126759
O  O1  1  0.61640000  0.19470000  0.14350000  1.0 -0.623348161
O  O2  1  0.80530000  0.42170000  0.14350000  1.0 -0.623348161
O  O3  1  0.57830000  0.38360000  0.14350000  1.0 -0.623348161
O  O4  1  0.38360000  0.80530000  0.14350000  1.0 -0.623348161
O  O5  1  0.19470000  0.57830000  0.14350000  1.0 -0.623348161
O  O6  1  0.42170000  0.61640000  0.14350000  1.0 -0.623348161
O  O7  1  0.19470000  0.61640000  0.35650000  1.0 -0.623348161
O  O8  1  0.42170000  0.80530000  0.35650000  1.0 -0.623348161
O  O9  1  0.38360000  0.57830000  0.35650000  1.0 -0.623348161
O  O10  1  0.80530000  0.38360000  0.35650000  1.0 -0.623348161
O  O11  1  0.57830000  0.19470000  0.35650000  1.0 -0.623348161
O  O12  1  0.61640000  0.42170000  0.35650000  1.0 -0.623348161
O  O13  1  0.38360000  0.80530000  0.85650000  1.0 -0.623348161
O  O14  1  0.19470000  0.57830000  0.85650000  1.0 -0.623348161
O  O15  1  0.42170000  0.61640000  0.85650000  1.0 -0.623348161
O  O16  1  0.61640000  0.19470000  0.85650000  1.0 -0.623348161
O  O17  1  0.80530000  0.42170000  0.85650000  1.0 -0.623348161
O  O18  1  0.57830000  0.38360000  0.85650000  1.0 -0.623348161
O  O19  1  0.80530000  0.38360000  0.64350000  1.0 -0.623348161
O  O20  1  0.57830000  0.19470000  0.64350000  1.0 -0.623348161
O  O21  1  0.61640000  0.42170000  0.64350000  1.0 -0.623348161
O  O22  1  0.19470000  0.61640000  0.64350000  1.0 -0.623348161
O  O23  1  0.42170000  0.80530000  0.64350000  1.0 -0.623348161
O  O24  1  0.38360000  0.57830000  0.64350000  1.0 -0.623348161
O  O25  1  0.61180000  0.05330000  0.09420000  1.0 -0.5736018115
O  O26  1  0.94670000  0.55850000  0.09420000  1.0 -0.5736018115
O  O27  1  0.44150000  0.38820000  0.09420000  1.0 -0.5736018115
O  O28  1  0.38820000  0.94670000  0.09420000  1.0 -0.5736018115
O  O29  1  0.05330000  0.44150000  0.09420000  1.0 -0.5736018115
O  O30  1  0.55850000  0.61180000  0.09420000  1.0 -0.5736018115
O  O31  1  0.05330000  0.61180000  0.40580000  1.0 -0.5736018115
O  O32  1  0.55850000  0.94670000  0.40580000  1.0 -0.5736018115
O  O33  1  0.38820000  0.44150000  0.40580000  1.0 -0.5736018115
O  O34  1  0.94670000  0.38820000  0.40580000  1.0 -0.5736018115
O  O35  1  0.44150000  0.05330000  0.40580000  1.0 -0.5736018115
O  O36  1  0.61180000  0.55850000  0.40580000  1.0 -0.5736018115
O  O37  1  0.38820000  0.94670000  0.90580000  1.0 -0.5736018115
O  O38  1  0.05330000  0.44150000  0.90580000  1.0 -0.5736018115
O  O39  1  0.55850000  0.61180000  0.90580000  1.0 -0.5736018115
O  O40  1  0.61180000  0.05330000  0.90580000  1.0 -0.5736018115
O  O41  1  0.94670000  0.55850000  0.90580000  1.0 -0.5736018115
O  O42  1  0.44150000  0.38820000  0.90580000  1.0 -0.5736018115
O  O43  1  0.94670000  0.38820000  0.59420000  1.0 -0.5736018115
O  O44  1  0.44150000  0.05330000  0.59420000  1.0 -0.5736018115
O  O45  1  0.61180000  0.55850000  0.59420000  1.0 -0.5736018115
O  O46  1  0.05330000  0.61180000  0.59420000  1.0 -0.5736018115
O  O47  1  0.55850000  0.94670000  0.59420000  1.0 -0.5736018115
O  O48  1  0.38820000  0.44150000  0.59420000  1.0 -0.5736018115
O  O49  1  0.76395000  0.23605000  0.25000000  1.0 -0.2188359642
O  O50  1  0.76395000  0.52790000  0.25000000  1.0 -0.2188359642
O  O51  1  0.47210000  0.23605000  0.25000000  1.0 -0.2188359642
O  O52  1  0.23605000  0.76395000  0.25000000  1.0 -0.2188359642
O  O53  1  0.23605000  0.47210000  0.25000000  1.0 -0.2188359642
O  O54  1  0.52790000  0.76395000  0.25000000  1.0 -0.2188359642
O  O55  1  0.23605000  0.76395000  0.75000000  1.0 -0.2188359642
O  O56  1  0.23605000  0.47210000  0.75000000  1.0 -0.2188359642
O  O57  1  0.52790000  0.76395000  0.75000000  1.0 -0.2188359642
O  O58  1  0.76395000  0.23605000  0.75000000  1.0 -0.2188359642
O  O59  1  0.76395000  0.52790000  0.75000000  1.0 -0.2188359642
O  O60  1  0.47210000  0.23605000  0.75000000  1.0 -0.2188359642
