# DDEC6 charges by PACMAN v1.1 (https://github.com/mtap-research/PACMAN-charge/)
data_BAPVEW_FSR_pacman
_symmetry_space_group_name_H-M   'P 1'
_cell_length_a   13.49380000
_cell_length_b   8.72310000
_cell_length_c   25.20000000
_cell_angle_alpha   90.00000000
_cell_angle_beta   116.85100000
_cell_angle_gamma   90.00000000
_symmetry_Int_Tables_number   1
_chemical_formula_structural   MnH26C26N4O9
_chemical_formula_sum   'Mn4 H104 C104 N16 O36'
_cell_volume   2646.42843992
_cell_formula_units_Z   4
loop_
 _symmetry_equiv_pos_site_id
 _symmetry_equiv_pos_as_xyz
  1  'x, y, z'
loop_
 _atom_site_type_symbol
 _atom_site_label
 _atom_site_symmetry_multiplicity
 _atom_site_fract_x
 _atom_site_fract_y
 _atom_site_fract_z
 _atom_site_occupancy
 _atom_site_charge
Mn  Mn1  1  0.44922000  0.48804000  0.68654000  1.0 0.9127813017
Mn  Mn2  1  0.55078000  0.98804000  0.81346000  1.0 0.9127813017
Mn  Mn3  1  0.55078000  0.51196000  0.31346000  1.0 0.9127813017
Mn  Mn4  1  0.44922000  0.01196000  0.18654000  1.0 0.9127813017
H  H1  1  0.67910000  0.66940000  0.73340000  1.0 0.1015643513
H  H2  1  0.32090000  0.16940000  0.76660000  1.0 0.1015643513
H  H3  1  0.32090000  0.33060000  0.26660000  1.0 0.1015643513
H  H4  1  0.67910000  0.83060000  0.23340000  1.0 0.1015643513
H  H5  1  0.85230000  0.65960000  0.73410000  1.0 0.1352318933
H  H6  1  0.14770000  0.15960000  0.76590000  1.0 0.1352318933
H  H7  1  0.14770000  0.34040000  0.26590000  1.0 0.1352318933
H  H8  1  0.85230000  0.84040000  0.23410000  1.0 0.1352318933
H  H9  1  0.73280000  0.31810000  0.61120000  1.0 0.1319730585
H  H10  1  0.26720000  0.81810000  0.88880000  1.0 0.1319730585
H  H11  1  0.26720000  0.68190000  0.38880000  1.0 0.1319730585
H  H12  1  0.73280000  0.18190000  0.11120000  1.0 0.1319730585
H  H13  1  0.56450000  0.33610000  0.61550000  1.0 0.1015643513
H  H14  1  0.43550000  0.83610000  0.88450000  1.0 0.1015643513
H  H15  1  0.43550000  0.66390000  0.38450000  1.0 0.1015643513
H  H16  1  0.56450000  0.16390000  0.11550000  1.0 0.1015643513
H  H17  1  0.19470000  0.58590000  0.79000000  1.0 0.1319730585
H  H18  1  0.80530000  0.08590000  0.71000000  1.0 0.1319730585
H  H19  1  0.80530000  0.41410000  0.21000000  1.0 0.1319730585
H  H20  1  0.19470000  0.91410000  0.29000000  1.0 0.1319730585
H  H21  1  0.36020000  0.56350000  0.78260000  1.0 0.1015643513
H  H22  1  0.63980000  0.06350000  0.71740000  1.0 0.1015643513
H  H23  1  0.63980000  0.43650000  0.21740000  1.0 0.1015643513
H  H24  1  0.36020000  0.93650000  0.28260000  1.0 0.1015643513
H  H25  1  0.20540000  0.36440000  0.62580000  1.0 0.1015643513
H  H26  1  0.79460000  0.86440000  0.87420000  1.0 0.1015643513
H  H27  1  0.79460000  0.63560000  0.37420000  1.0 0.1015643513
H  H28  1  0.20540000  0.13560000  0.12580000  1.0 0.1015643513
H  H29  1  0.03560000  0.38050000  0.62820000  1.0 0.1319730585
H  H30  1  0.96440000  0.88050000  0.87180000  1.0 0.1319730585
H  H31  1  0.96440000  0.61950000  0.37180000  1.0 0.1319730585
H  H32  1  0.03560000  0.11950000  0.12820000  1.0 0.1319730585
H  H33  1  0.68800000  0.28370000  0.89900000  1.0 0.147174465
H  H34  1  0.31200000  0.78370000  0.60100000  1.0 0.147174465
H  H35  1  0.31200000  0.71630000  0.10100000  1.0 0.147174465
H  H36  1  0.68800000  0.21630000  0.39900000  1.0 0.147174465
H  H37  1  0.65430000  0.46030000  0.89740000  1.0 0.1319730585
H  H38  1  0.34570000  0.96030000  0.60260000  1.0 0.1319730585
H  H39  1  0.34570000  0.53970000  0.10260000  1.0 0.1319730585
H  H40  1  0.65430000  0.03970000  0.39740000  1.0 0.1319730585
H  H41  1  0.83490000  0.58060000  0.94510000  1.0 0.1100095173
H  H42  1  0.16510000  0.08060000  0.55490000  1.0 0.1100095173
H  H43  1  0.16510000  0.41940000  0.05490000  1.0 0.1100095173
H  H44  1  0.83490000  0.91940000  0.44510000  1.0 0.1100095173
H  H45  1  0.00550000  0.63940000  0.94790000  1.0 0.1100095173
H  H46  1  0.99450000  0.13940000  0.55210000  1.0 0.1100095173
H  H47  1  0.99450000  0.36060000  0.05210000  1.0 0.1100095173
H  H48  1  0.00550000  0.86060000  0.44790000  1.0 0.1100095173
H  H49  1  0.93980000  0.34950000  0.81090000  1.0 0.117145907
H  H50  1  0.06020000  0.84950000  0.68910000  1.0 0.117145907
H  H51  1  0.06020000  0.65050000  0.18910000  1.0 0.117145907
H  H52  1  0.93980000  0.15050000  0.31090000  1.0 0.117145907
H  H53  1  0.76960000  0.29010000  0.80840000  1.0 0.1100095173
H  H54  1  0.23040000  0.79010000  0.69160000  1.0 0.1100095173
H  H55  1  0.23040000  0.70990000  0.19160000  1.0 0.1100095173
H  H56  1  0.76960000  0.20990000  0.30840000  1.0 0.1100095173
H  H57  1  0.10650000  0.65230000  0.87730000  1.0 0.0693233694
H  H58  1  0.89350000  0.15230000  0.62270000  1.0 0.0693233694
H  H59  1  0.89350000  0.34770000  0.12270000  1.0 0.0693233694
H  H60  1  0.10650000  0.84770000  0.37730000  1.0 0.0693233694
H  H61  1  0.10850000  0.48900000  0.84870000  1.0 0.0930731512
H  H62  1  0.89150000  0.98900000  0.65130000  1.0 0.0930731512
H  H63  1  0.89150000  0.51100000  0.15130000  1.0 0.0930731512
H  H64  1  0.10850000  0.01100000  0.34870000  1.0 0.0930731512
H  H65  1  0.20020000  0.44980000  0.45500000  1.0 0.1100095173
H  H66  1  0.79980000  0.94980000  0.04500000  1.0 0.1100095173
H  H67  1  0.79980000  0.55020000  0.54500000  1.0 0.1100095173
H  H68  1  0.20020000  0.05020000  0.95500000  1.0 0.1100095173
H  H69  1  0.22830000  0.61400000  0.48700000  1.0 0.147174465
H  H70  1  0.77170000  0.11400000  0.01300000  1.0 0.147174465
H  H71  1  0.77170000  0.38600000  0.51300000  1.0 0.147174465
H  H72  1  0.22830000  0.88600000  0.98700000  1.0 0.147174465
H  H73  1  0.12260000  0.70480000  0.53970000  1.0 0.117145907
H  H74  1  0.87740000  0.20480000  0.96030000  1.0 0.117145907
H  H75  1  0.87740000  0.29520000  0.46030000  1.0 0.117145907
H  H76  1  0.12260000  0.79520000  0.03970000  1.0 0.117145907
H  H77  1  0.95750000  0.70080000  0.54770000  1.0 0.1015643513
H  H78  1  0.04250000  0.20080000  0.95230000  1.0 0.1015643513
H  H79  1  0.04250000  0.29920000  0.45230000  1.0 0.1015643513
H  H80  1  0.95750000  0.79920000  0.04770000  1.0 0.1015643513
H  H81  1  0.25170000  0.31300000  0.97900000  1.0 0.2818243279
H  H82  1  0.74830000  0.81300000  0.52100000  1.0 0.2818243279
H  H83  1  0.74830000  0.68700000  0.02100000  1.0 0.2818243279
H  H84  1  0.25170000  0.18700000  0.47900000  1.0 0.2818243279
H  H85  1  0.39890000  0.23300000  0.62620000  1.0 0.3281463122
H  H86  1  0.60110000  0.73300000  0.87380000  1.0 0.3281463122
H  H87  1  0.60110000  0.76700000  0.37380000  1.0 0.3281463122
H  H88  1  0.39890000  0.26700000  0.12620000  1.0 0.3281463122
H  H89  1  0.43890000  0.16700000  0.68160000  1.0 0.3372269308
H  H90  1  0.56110000  0.66700000  0.81840000  1.0 0.3372269308
H  H91  1  0.56110000  0.83300000  0.31840000  1.0 0.3372269308
H  H92  1  0.43890000  0.33300000  0.18160000  1.0 0.3372269308
H  H93  1  0.09590000  0.54490000  0.84140000  1.0 0.0693233694
H  H94  1  0.90410000  0.04490000  0.65860000  1.0 0.0693233694
H  H95  1  0.90410000  0.45510000  0.15860000  1.0 0.0693233694
H  H96  1  0.09590000  0.95510000  0.34140000  1.0 0.0693233694
H  H97  1  0.12910000  0.64020000  0.90180000  1.0 0.0930731512
H  H98  1  0.87090000  0.14020000  0.59820000  1.0 0.0930731512
H  H99  1  0.87090000  0.35980000  0.09820000  1.0 0.0930731512
H  H100  1  0.12910000  0.85980000  0.40180000  1.0 0.0930731512
H  H101  1  0.25500000  0.31140000  0.97880000  1.0 0.2818243279
H  H102  1  0.74500000  0.81140000  0.52120000  1.0 0.2818243279
H  H103  1  0.74500000  0.68860000  0.02120000  1.0 0.2818243279
H  H104  1  0.25500000  0.18860000  0.47880000  1.0 0.2818243279
C  C1  1  0.69113000  0.59639000  0.70896000  1.0 0.0930731512
C  C2  1  0.30887000  0.09639000  0.79104000  1.0 0.0930731512
C  C3  1  0.30887000  0.40361000  0.29104000  1.0 0.0930731512
C  C4  1  0.69113000  0.90361000  0.20896000  1.0 0.0930731512
C  C5  1  0.79459000  0.59166000  0.70974000  1.0 -0.2102658539
C  C6  1  0.20541000  0.09166000  0.79026000  1.0 -0.2102658539
C  C7  1  0.20541000  0.40834000  0.29026000  1.0 -0.2102658539
C  C8  1  0.79459000  0.90834000  0.20974000  1.0 -0.2102658539
C  C9  1  0.81108000  0.48387000  0.67363000  1.0 0.1936105376
C  C10  1  0.18892000  0.98387000  0.82637000  1.0 0.1936105376
C  C11  1  0.18892000  0.51613000  0.32637000  1.0 0.1936105376
C  C12  1  0.81108000  0.01613000  0.17363000  1.0 0.1936105376
C  C13  1  0.72399000  0.38939000  0.63721000  1.0 -0.2102658539
C  C14  1  0.27601000  0.88939000  0.86279000  1.0 -0.2102658539
C  C15  1  0.27601000  0.61061000  0.36279000  1.0 -0.2102658539
C  C16  1  0.72399000  0.11061000  0.13721000  1.0 -0.2102658539
C  C17  1  0.62386000  0.40173000  0.63980000  1.0 0.0835985241
C  C18  1  0.37614000  0.90173000  0.86020000  1.0 0.0835985241
C  C19  1  0.37614000  0.59827000  0.36020000  1.0 0.0835985241
C  C20  1  0.62386000  0.09827000  0.13980000  1.0 0.0835985241
C  C21  1  0.09689000  0.49008000  0.70867000  1.0 0.1826508378
C  C22  1  0.90311000  0.99008000  0.79133000  1.0 0.1826508378
C  C23  1  0.90311000  0.50992000  0.29133000  1.0 0.1826508378
C  C24  1  0.09689000  0.00992000  0.20867000  1.0 0.1826508378
C  C25  1  0.19497000  0.54205000  0.75555000  1.0 -0.2201161796
C  C26  1  0.80503000  0.04205000  0.74445000  1.0 -0.2201161796
C  C27  1  0.80503000  0.45795000  0.24445000  1.0 -0.2201161796
C  C28  1  0.19497000  0.95795000  0.25555000  1.0 -0.2201161796
C  C29  1  0.29316000  0.52824000  0.75075000  1.0 0.0693233694
C  C30  1  0.70684000  0.02824000  0.74925000  1.0 0.0693233694
C  C31  1  0.70684000  0.47176000  0.24925000  1.0 0.0693233694
C  C32  1  0.29316000  0.97176000  0.25075000  1.0 0.0693233694
C  C33  1  0.20239000  0.41177000  0.65899000  1.0 0.0835985241
C  C34  1  0.79761000  0.91177000  0.84101000  1.0 0.0835985241
C  C35  1  0.79761000  0.58823000  0.34101000  1.0 0.0835985241
C  C36  1  0.20239000  0.08823000  0.15899000  1.0 0.0835985241
C  C37  1  0.10079000  0.42065000  0.65991000  1.0 -0.1989559384
C  C38  1  0.89921000  0.92065000  0.84009000  1.0 -0.1989559384
C  C39  1  0.89921000  0.57935000  0.34009000  1.0 -0.1989559384
C  C40  1  0.10079000  0.07935000  0.15991000  1.0 -0.1989559384
C  C41  1  0.58332000  0.35949000  0.81406000  1.0 0.6565075701
C  C42  1  0.41668000  0.85949000  0.68594000  1.0 0.6565075701
C  C43  1  0.41668000  0.64051000  0.18594000  1.0 0.6565075701
C  C44  1  0.58332000  0.14051000  0.31406000  1.0 0.6565075701
C  C45  1  0.67633000  0.38094000  0.87668000  1.0 -0.4277616874
C  C46  1  0.32367000  0.88094000  0.62332000  1.0 -0.4277616874
C  C47  1  0.32367000  0.61906000  0.12332000  1.0 -0.4277616874
C  C48  1  0.67633000  0.11906000  0.37668000  1.0 -0.4239213431
C  C49  1  0.78419000  0.42831000  0.87651000  1.0 0.147174465
C  C50  1  0.21581000  0.92831000  0.62349000  1.0 0.147174465
C  C51  1  0.21581000  0.57169000  0.12349000  1.0 0.147174465
C  C52  1  0.78419000  0.07169000  0.37651000  1.0 0.147174465
C  C53  1  0.85581000  0.53297000  0.91778000  1.0 -0.1870176421
C  C54  1  0.14419000  0.03297000  0.58222000  1.0 -0.1870176421
C  C55  1  0.14419000  0.46703000  0.08222000  1.0 -0.1870176421
C  C56  1  0.85581000  0.96703000  0.41778000  1.0 -0.1870176421
C  C57  1  0.95758000  0.56827000  0.91928000  1.0 -0.2102658539
C  C58  1  0.04242000  0.06827000  0.58072000  1.0 -0.2102658539
C  C59  1  0.04242000  0.43173000  0.08072000  1.0 -0.2102658539
C  C60  1  0.95758000  0.93173000  0.41928000  1.0 -0.2102658539
C  C61  1  0.99054000  0.50128000  0.87958000  1.0 -0.0113077621
C  C62  1  0.00946000  0.00128000  0.62042000  1.0 -0.0113077621
C  C63  1  0.00946000  0.49872000  0.12042000  1.0 -0.0113077621
C  C64  1  0.99054000  0.99872000  0.37958000  1.0 -0.0113077621
C  C65  1  0.91905000  0.39692000  0.83834000  1.0 -0.1546303594
C  C66  1  0.08095000  0.89692000  0.66166000  1.0 -0.159511133
C  C67  1  0.08095000  0.60308000  0.16166000  1.0 -0.1546303594
C  C68  1  0.91905000  0.10308000  0.33834000  1.0 -0.159511133
C  C69  1  0.81740000  0.36146000  0.83695000  1.0 -0.144234013
C  C70  1  0.18260000  0.86146000  0.66305000  1.0 -0.144234013
C  C71  1  0.18260000  0.63854000  0.16305000  1.0 -0.144234013
C  C72  1  0.81740000  0.13854000  0.33695000  1.0 -0.144234013
C  C73  1  0.10173000  0.54021000  0.88195000  1.0 -0.308686089
C  C74  1  0.89827000  0.04021000  0.61805000  1.0 -0.308686089
C  C75  1  0.89827000  0.45979000  0.11805000  1.0 -0.308686089
C  C76  1  0.10173000  0.95979000  0.38195000  1.0 -0.308686089
C  C77  1  0.19555000  0.48928000  0.94022000  1.0 0.2947331007
C  C78  1  0.80445000  0.98928000  0.55978000  1.0 0.2956316507
C  C79  1  0.80445000  0.51072000  0.05978000  1.0 0.2956316507
C  C80  1  0.19555000  0.01072000  0.44022000  1.0 0.2947331007
C  C81  1  0.30096000  0.43378000  0.54636000  1.0 0.6341526841
C  C82  1  0.69904000  0.93378000  0.95364000  1.0 0.6341526841
C  C83  1  0.69904000  0.56622000  0.45364000  1.0 0.6341526841
C  C84  1  0.30096000  0.06622000  0.04636000  1.0 0.6341526841
C  C85  1  0.20859000  0.50661000  0.49079000  1.0 -0.4277616874
C  C86  1  0.79141000  0.00661000  0.00921000  1.0 -0.4277616874
C  C87  1  0.79141000  0.49339000  0.50921000  1.0 -0.4277616874
C  C88  1  0.20859000  0.99339000  0.99079000  1.0 -0.4277616874
C  C89  1  0.10033000  0.50295000  0.49507000  1.0 0.1319730585
C  C90  1  0.89967000  0.00295000  0.00493000  1.0 0.1319730585
C  C91  1  0.89967000  0.49705000  0.50493000  1.0 0.1319730585
C  C92  1  0.10033000  0.99705000  0.99507000  1.0 0.1319730585
C  C93  1  0.07290000  0.62107000  0.52339000  1.0 -0.159511133
C  C94  1  0.92710000  0.12107000  0.97661000  1.0 -0.159511133
C  C95  1  0.92710000  0.37893000  0.47661000  1.0 -0.159511133
C  C96  1  0.07290000  0.87893000  0.02339000  1.0 -0.159511133
C  C97  1  0.97424000  0.61880000  0.52827000  1.0 -0.1767174814
C  C98  1  0.02576000  0.11880000  0.97173000  1.0 -0.1767174814
C  C99  1  0.02576000  0.38120000  0.47173000  1.0 -0.1685397118
C  C100  1  0.97424000  0.88120000  0.02827000  1.0 -0.1685397118
C  C101  1  0.17900000  0.41090000  0.91760000  1.0 0.2956316507
C  C102  1  0.82100000  0.91090000  0.58240000  1.0 0.2956316507
C  C103  1  0.82100000  0.58910000  0.08240000  1.0 0.2956316507
C  C104  1  0.17900000  0.08910000  0.41760000  1.0 0.2947331007
N  N1  1  0.60728000  0.50252000  0.67526000  1.0 -0.2470110694
N  N2  1  0.39272000  0.00252000  0.82474000  1.0 -0.2470110694
N  N3  1  0.39272000  0.49748000  0.32474000  1.0 -0.2470110694
N  N4  1  0.60728000  0.99748000  0.17526000  1.0 -0.2470110694
N  N5  1  0.91322000  0.46082000  0.67069000  1.0 -0.1767174814
N  N6  1  0.08678000  0.96082000  0.82931000  1.0 -0.1767174814
N  N7  1  0.08678000  0.53918000  0.32931000  1.0 -0.1767174814
N  N8  1  0.91322000  0.03918000  0.17069000  1.0 -0.1767174814
N  N9  1  0.99651000  0.51459000  0.71380000  1.0 -0.1685397118
N  N10  1  0.00349000  0.01459000  0.78620000  1.0 -0.1685397118
N  N11  1  0.00349000  0.48541000  0.28620000  1.0 -0.1685397118
N  N12  1  0.99651000  0.98541000  0.21380000  1.0 -0.1685397118
N  N13  1  0.29710000  0.46695000  0.70279000  1.0 -0.2623633111
N  N14  1  0.70290000  0.96695000  0.79721000  1.0 -0.2623633111
N  N15  1  0.70290000  0.53305000  0.29721000  1.0 -0.2623633111
N  N16  1  0.29710000  0.03305000  0.20279000  1.0 -0.2623633111
O  O1  1  0.55365000  0.47789000  0.78103000  1.0 -0.5705374593
O  O2  1  0.44635000  0.97789000  0.71897000  1.0 -0.5705374593
O  O3  1  0.44635000  0.52211000  0.21897000  1.0 -0.5705374593
O  O4  1  0.55365000  0.02211000  0.28103000  1.0 -0.5705374593
O  O5  1  0.54016000  0.23084000  0.79686000  1.0 -0.5705374593
O  O6  1  0.45984000  0.73084000  0.70314000  1.0 -0.5705374593
O  O7  1  0.45984000  0.76916000  0.20314000  1.0 -0.5705374593
O  O8  1  0.54016000  0.26916000  0.29686000  1.0 -0.5705374593
O  O9  1  0.24944000  0.57585000  0.98045000  1.0 -0.2470110694
O  O10  1  0.75056000  0.07585000  0.51955000  1.0 -0.2470110694
O  O11  1  0.75056000  0.42415000  0.01955000  1.0 -0.2470110694
O  O12  1  0.24944000  0.92415000  0.48045000  1.0 -0.2470110694
O  O13  1  0.20831000  0.33858000  0.94274000  1.0 -0.0560953125
O  O14  1  0.79169000  0.83858000  0.55726000  1.0 -0.0560953125
O  O15  1  0.79169000  0.66142000  0.05726000  1.0 -0.0560953125
O  O16  1  0.20831000  0.16142000  0.44274000  1.0 -0.0560953125
O  O17  1  0.34677000  0.51772000  0.59154000  1.0 -0.5601795876
O  O18  1  0.65323000  0.01772000  0.90846000  1.0 -0.5601795876
O  O19  1  0.65323000  0.48228000  0.40846000  1.0 -0.5601795876
O  O20  1  0.34677000  0.98228000  0.09154000  1.0 -0.5601795876
O  O21  1  0.32390000  0.29361000  0.54485000  1.0 -0.5774390364
O  O22  1  0.67610000  0.79361000  0.95515000  1.0 -0.5774390364
O  O23  1  0.67610000  0.70639000  0.45515000  1.0 -0.5774390364
O  O24  1  0.32390000  0.20639000  0.04485000  1.0 -0.5774390364
O  O25  1  0.43851000  0.24761000  0.66364000  1.0 -0.695545332
O  O26  1  0.56149000  0.74761000  0.83636000  1.0 -0.695545332
O  O27  1  0.56149000  0.75239000  0.33636000  1.0 -0.695545332
O  O28  1  0.43851000  0.25239000  0.16364000  1.0 -0.6944456661
O  O29  1  0.18880000  0.29830000  0.89270000  1.0 -0.2201161796
O  O30  1  0.81120000  0.79830000  0.60730000  1.0 -0.2201161796
O  O31  1  0.81120000  0.70170000  0.10730000  1.0 -0.22605427
O  O32  1  0.18880000  0.20170000  0.39270000  1.0 -0.22605427
O  O33  1  0.22820000  0.43060000  0.97630000  1.0 -0.0727969615
O  O34  1  0.77180000  0.93060000  0.52370000  1.0 -0.0727969615
O  O35  1  0.77180000  0.56940000  0.02370000  1.0 -0.0727969615
O  O36  1  0.22820000  0.06940000  0.47630000  1.0 -0.0727969615
