# DDEC6 charges by PACMAN v1.1 (https://github.com/mtap-research/PACMAN-charge/)
data_BARZUR_ASR_pacman
_symmetry_space_group_name_H-M   'P 1'
_cell_length_a   15.72900000
_cell_length_b   15.72900000
_cell_length_c   12.40300000
_cell_angle_alpha   90.00000000
_cell_angle_beta   90.00000000
_cell_angle_gamma   120.00000000
_symmetry_Int_Tables_number   1
_chemical_formula_structural   ZnH26(C11N6)2
_chemical_formula_sum   'Zn3 H78 C66 N36'
_cell_volume   2657.41633500
_cell_formula_units_Z   3
loop_
 _symmetry_equiv_pos_site_id
 _symmetry_equiv_pos_as_xyz
  1  'x, y, z'
loop_
 _atom_site_type_symbol
 _atom_site_label
 _atom_site_symmetry_multiplicity
 _atom_site_fract_x
 _atom_site_fract_y
 _atom_site_fract_z
 _atom_site_occupancy
 _atom_site_charge
Zn  Zn1  1  0.00000000  0.57877000  0.16667000  1.0 0.4802304503
Zn  Zn2  1  0.42123000  0.42123000  0.50000000  1.0 0.4802304503
Zn  Zn3  1  0.57877000  0.00000000  0.83333000  1.0 0.4863647518
H  H1  1  0.18230000  0.54980000  0.15630000  1.0 0.1212320101
H  H2  1  0.45020000  0.63250000  0.48963000  1.0 0.1212320101
H  H3  1  0.36750000  0.81770000  0.82297000  1.0 0.1212320101
H  H4  1  0.54980000  0.18230000  0.84370000  1.0 0.1212320101
H  H5  1  0.63250000  0.45020000  0.51037000  1.0 0.1212320101
H  H6  1  0.81770000  0.36750000  0.17703000  1.0 0.1212320101
H  H7  1  0.94650000  0.41900000  0.97670000  1.0 0.133907437
H  H8  1  0.58100000  0.52750000  0.31003000  1.0 0.133907437
H  H9  1  0.47250000  0.05350000  0.64337000  1.0 0.133907437
H  H10  1  0.41900000  0.94650000  0.02330000  1.0 0.133907437
H  H11  1  0.52750000  0.58100000  0.68997000  1.0 0.133907437
H  H12  1  0.05350000  0.47250000  0.35663000  1.0 0.133907437
H  H13  1  0.94140000  0.19250000  0.77950000  1.0 0.1101401669
H  H14  1  0.80750000  0.74890000  0.11283000  1.0 0.1101401669
H  H15  1  0.25110000  0.05860000  0.44617000  1.0 0.1101401669
H  H16  1  0.19250000  0.94140000  0.22050000  1.0 0.1101401669
H  H17  1  0.74890000  0.80750000  0.88717000  1.0 0.1101401669
H  H18  1  0.05860000  0.25110000  0.55383000  1.0 0.1101401669
H  H19  1  0.04200000  0.22440000  0.83620000  1.0 0.1488013029
H  H20  1  0.77560000  0.81760000  0.16953000  1.0 0.1488013029
H  H21  1  0.18240000  0.95800000  0.50287000  1.0 0.1488013029
H  H22  1  0.22440000  0.04200000  0.16380000  1.0 0.1488013029
H  H23  1  0.81760000  0.77560000  0.83047000  1.0 0.1488013029
H  H24  1  0.95800000  0.18240000  0.49713000  1.0 0.1488013029
H  H25  1  0.02850000  0.30050000  0.76740000  1.0 0.1488013029
H  H26  1  0.69950000  0.72800000  0.10073000  1.0 0.1488013029
H  H27  1  0.27200000  0.97150000  0.43407000  1.0 0.1488013029
H  H28  1  0.30050000  0.02850000  0.23260000  1.0 0.1488013029
H  H29  1  0.72800000  0.69950000  0.89927000  1.0 0.1488013029
H  H30  1  0.97150000  0.27200000  0.56593000  1.0 0.1488013029
H  H31  1  0.80470000  0.13200000  0.81570000  1.0 0.1044354262
H  H32  1  0.86800000  0.67270000  0.14903000  1.0 0.1044354262
H  H33  1  0.32730000  0.19530000  0.48237000  1.0 0.1044354262
H  H34  1  0.13200000  0.80470000  0.18430000  1.0 0.1044354262
H  H35  1  0.67270000  0.86800000  0.85097000  1.0 0.1044354262
H  H36  1  0.19530000  0.32730000  0.51763000  1.0 0.1044354262
H  H37  1  0.62850000  0.05790000  0.06560000  1.0 0.1212320101
H  H38  1  0.94210000  0.57060000  0.39893000  1.0 0.1212320101
H  H39  1  0.42940000  0.37150000  0.73227000  1.0 0.1212320101
H  H40  1  0.05790000  0.62850000  0.93440000  1.0 0.1212320101
H  H41  1  0.57060000  0.94210000  0.60107000  1.0 0.1212320101
H  H42  1  0.37150000  0.42940000  0.26773000  1.0 0.1212320101
H  H43  1  0.71520000  0.06700000  0.29800000  1.0 0.0814479297
H  H44  1  0.93300000  0.64820000  0.63133000  1.0 0.0814479297
H  H45  1  0.35180000  0.28480000  0.96467000  1.0 0.0814479297
H  H46  1  0.06700000  0.71520000  0.70200000  1.0 0.0814479297
H  H47  1  0.64820000  0.93300000  0.36867000  1.0 0.0814479297
H  H48  1  0.28480000  0.35180000  0.03533000  1.0 0.0814479297
H  H49  1  0.62720000  0.06160000  0.23280000  1.0 0.0706900662
H  H50  1  0.93840000  0.56560000  0.56613000  1.0 0.0706900662
H  H51  1  0.43440000  0.37280000  0.89947000  1.0 0.0706900662
H  H52  1  0.06160000  0.62720000  0.76720000  1.0 0.0706900662
H  H53  1  0.56560000  0.93840000  0.43387000  1.0 0.0706900662
H  H54  1  0.37280000  0.43440000  0.10053000  1.0 0.0706900662
H  H55  1  0.66840000  0.13020000  0.33400000  1.0 0.0814479297
H  H56  1  0.86980000  0.53820000  0.66733000  1.0 0.0814479297
H  H57  1  0.46180000  0.33160000  0.00067000  1.0 0.0814479297
H  H58  1  0.13020000  0.66840000  0.66600000  1.0 0.0814479297
H  H59  1  0.53820000  0.86980000  0.33267000  1.0 0.0814479297
H  H60  1  0.33160000  0.46180000  0.99933000  1.0 0.0814479297
H  H61  1  0.61680000  0.11240000  0.26060000  1.0 0.0706900662
H  H62  1  0.88760000  0.50440000  0.59393000  1.0 0.0706900662
H  H63  1  0.49560000  0.38320000  0.92727000  1.0 0.0706900662
H  H64  1  0.11240000  0.61680000  0.73940000  1.0 0.0706900662
H  H65  1  0.50440000  0.88760000  0.40607000  1.0 0.0706900662
H  H66  1  0.38320000  0.49560000  0.07273000  1.0 0.0706900662
H  H67  1  0.69190000  0.10350000  0.33610000  1.0 0.0814479297
H  H68  1  0.89650000  0.58840000  0.66943000  1.0 0.0814479297
H  H69  1  0.41160000  0.30810000  0.00277000  1.0 0.0814479297
H  H70  1  0.10350000  0.69190000  0.66390000  1.0 0.0814479297
H  H71  1  0.58840000  0.89650000  0.33057000  1.0 0.0814479297
H  H72  1  0.30810000  0.41160000  0.99723000  1.0 0.0814479297
H  H73  1  0.65690000  0.04240000  0.22920000  1.0 0.0706900662
H  H74  1  0.95760000  0.61450000  0.56253000  1.0 0.0706900662
H  H75  1  0.38550000  0.34310000  0.89587000  1.0 0.0706900662
H  H76  1  0.04240000  0.65690000  0.77080000  1.0 0.0706900662
H  H77  1  0.61450000  0.95760000  0.43747000  1.0 0.0706900662
H  H78  1  0.34310000  0.38550000  0.10413000  1.0 0.0706900662
C  C1  1  0.16460000  0.42890000  0.07920000  1.0 0.2249062183
C  C2  1  0.57110000  0.73570000  0.41253000  1.0 0.2249062183
C  C3  1  0.26430000  0.83540000  0.74587000  1.0 0.2249062183
C  C4  1  0.42890000  0.16460000  0.92080000  1.0 0.2249062183
C  C5  1  0.73570000  0.57110000  0.58747000  1.0 0.2249062183
C  C6  1  0.83540000  0.26430000  0.25413000  1.0 0.2249062183
C  C7  1  0.14070000  0.49950000  0.11010000  1.0 -0.0525561226
C  C8  1  0.50050000  0.64120000  0.44343000  1.0 -0.0525561226
C  C9  1  0.35880000  0.85930000  0.77677000  1.0 -0.0525561226
C  C10  1  0.49950000  0.14070000  0.88990000  1.0 -0.0525561226
C  C11  1  0.64120000  0.50050000  0.55657000  1.0 -0.0525561226
C  C12  1  0.85930000  0.35880000  0.22323000  1.0 -0.0525561226
C  C13  1  0.00300000  0.42270000  0.00520000  1.0 -0.1749589744
C  C14  1  0.57730000  0.58030000  0.33853000  1.0 -0.1749589744
C  C15  1  0.41970000  0.99700000  0.67187000  1.0 -0.1749589744
C  C16  1  0.42270000  0.00300000  0.99480000  1.0 -0.1749589744
C  C17  1  0.58030000  0.57730000  0.66147000  1.0 -0.1749589744
C  C18  1  0.99700000  0.41970000  0.32813000  1.0 -0.1749589744
C  C19  1  0.02800000  0.35310000  0.97620000  1.0 0.2389422056
C  C20  1  0.64690000  0.67490000  0.30953000  1.0 0.2389422056
C  C21  1  0.32510000  0.97200000  0.64287000  1.0 0.2389422056
C  C22  1  0.35310000  0.02800000  0.02380000  1.0 0.2389422056
C  C23  1  0.67490000  0.64690000  0.69047000  1.0 0.2389422056
C  C24  1  0.97200000  0.32510000  0.35713000  1.0 0.2389422056
C  C25  1  0.99660000  0.24540000  0.81540000  1.0 -0.3272753659
C  C26  1  0.75460000  0.75120000  0.14873000  1.0 -0.3272753659
C  C27  1  0.24880000  0.00340000  0.48207000  1.0 -0.3272753659
C  C28  1  0.24540000  0.99660000  0.18460000  1.0 -0.3272753659
C  C29  1  0.75120000  0.75460000  0.85127000  1.0 -0.3272753659
C  C30  1  0.00340000  0.24880000  0.51793000  1.0 -0.3272753659
C  C31  1  0.86900000  0.21430000  0.94990000  1.0 0.2590927479
C  C32  1  0.78570000  0.65470000  0.28323000  1.0 0.2590927479
C  C33  1  0.34530000  0.13100000  0.61657000  1.0 0.2590927479
C  C34  1  0.21430000  0.86900000  0.05010000  1.0 0.2590927479
C  C35  1  0.65470000  0.78570000  0.71677000  1.0 0.2590927479
C  C36  1  0.13100000  0.34530000  0.38343000  1.0 0.2590927479
C  C37  1  0.79310000  0.14150000  0.88700000  1.0 -0.1060848711
C  C38  1  0.85850000  0.65160000  0.22033000  1.0 -0.1060848711
C  C39  1  0.34840000  0.20690000  0.55367000  1.0 -0.1060848711
C  C40  1  0.14150000  0.79310000  0.11300000  1.0 -0.1060848711
C  C41  1  0.65160000  0.85850000  0.77967000  1.0 -0.1060848711
C  C42  1  0.20690000  0.34840000  0.44633000  1.0 -0.1060848711
C  C43  1  0.68960000  0.09770000  0.03410000  1.0 -0.1532662713
C  C44  1  0.90230000  0.59190000  0.36743000  1.0 -0.1532662713
C  C45  1  0.40810000  0.31040000  0.70077000  1.0 -0.1532662713
C  C46  1  0.09770000  0.68960000  0.96590000  1.0 -0.1532662713
C  C47  1  0.59190000  0.90230000  0.63257000  1.0 -0.1532662713
C  C48  1  0.31040000  0.40810000  0.29923000  1.0 -0.1532662713
C  C49  1  0.76640000  0.17050000  0.09590000  1.0 0.2326853869
C  C50  1  0.82950000  0.59590000  0.42923000  1.0 0.2326853869
C  C51  1  0.40410000  0.23360000  0.76257000  1.0 0.2326853869
C  C52  1  0.17050000  0.76640000  0.90410000  1.0 0.2326853869
C  C53  1  0.59590000  0.82950000  0.57077000  1.0 0.2326853869
C  C54  1  0.23360000  0.40410000  0.23743000  1.0 0.2326853869
C  C55  1  0.68540000  0.10400000  0.27300000  1.0 -0.263659105
C  C56  1  0.89600000  0.58140000  0.60633000  1.0 -0.2717299874
C  C57  1  0.41860000  0.31460000  0.93967000  1.0 -0.263659105
C  C58  1  0.10400000  0.68540000  0.72700000  1.0 -0.2717299874
C  C59  1  0.58140000  0.89600000  0.39367000  1.0 -0.263659105
C  C60  1  0.31460000  0.41860000  0.06033000  1.0 -0.263659105
C  C61  1  0.67300000  0.10400000  0.26300000  1.0 -0.2717299874
C  C62  1  0.89600000  0.56900000  0.59633000  1.0 -0.2717299874
C  C63  1  0.43100000  0.32700000  0.92967000  1.0 -0.2717299874
C  C64  1  0.10400000  0.67300000  0.73700000  1.0 -0.2717299874
C  C65  1  0.56900000  0.89600000  0.40367000  1.0 -0.2717299874
C  C66  1  0.32700000  0.43100000  0.07033000  1.0 -0.2717299874
N  N1  1  0.10950000  0.35640000  0.01070000  1.0 -0.3160068395
N  N2  1  0.64360000  0.75310000  0.34403000  1.0 -0.3160068395
N  N3  1  0.24690000  0.89050000  0.67737000  1.0 -0.3160068395
N  N4  1  0.35640000  0.10950000  0.98930000  1.0 -0.3160068395
N  N5  1  0.75310000  0.64360000  0.65597000  1.0 -0.3160068395
N  N6  1  0.89050000  0.24690000  0.32263000  1.0 -0.3160068395
N  N7  1  0.05940000  0.49630000  0.07450000  1.0 -0.16253834
N  N8  1  0.50370000  0.56310000  0.40783000  1.0 -0.16253834
N  N9  1  0.43690000  0.94060000  0.74117000  1.0 -0.16253834
N  N10  1  0.49630000  0.05940000  0.92550000  1.0 -0.16253834
N  N11  1  0.56310000  0.50370000  0.59217000  1.0 -0.16253834
N  N12  1  0.94060000  0.43690000  0.25883000  1.0 -0.16253834
N  N13  1  0.96320000  0.27350000  0.91020000  1.0 -0.0899901989
N  N14  1  0.72650000  0.68970000  0.24353000  1.0 -0.0899901989
N  N15  1  0.31030000  0.03680000  0.57687000  1.0 -0.0899901989
N  N16  1  0.27350000  0.96320000  0.08980000  1.0 -0.0899901989
N  N17  1  0.68970000  0.72650000  0.75647000  1.0 -0.0899901989
N  N18  1  0.03680000  0.31030000  0.42313000  1.0 -0.0899901989
N  N19  1  0.85470000  0.22770000  0.05360000  1.0 -0.3693745139
N  N20  1  0.77230000  0.62700000  0.38693000  1.0 -0.3693745139
N  N21  1  0.37300000  0.14530000  0.72027000  1.0 -0.3693745139
N  N22  1  0.22770000  0.85470000  0.94640000  1.0 -0.3693745139
N  N23  1  0.62700000  0.77230000  0.61307000  1.0 -0.3693745139
N  N24  1  0.14530000  0.37300000  0.27973000  1.0 -0.3693745139
N  N25  1  0.70380000  0.08550000  0.93080000  1.0 -0.1786431748
N  N26  1  0.91450000  0.61830000  0.26413000  1.0 -0.1786431748
N  N27  1  0.38170000  0.29620000  0.59747000  1.0 -0.1786431748
N  N28  1  0.08550000  0.70380000  0.06920000  1.0 -0.1786431748
N  N29  1  0.61830000  0.91450000  0.73587000  1.0 -0.1786431748
N  N30  1  0.29620000  0.38170000  0.40253000  1.0 -0.1786431748
N  N31  1  0.75480000  0.18460000  0.20400000  1.0 -0.0729537522
N  N32  1  0.81540000  0.57020000  0.53733000  1.0 -0.0729537522
N  N33  1  0.42980000  0.24520000  0.87067000  1.0 -0.0729537522
N  N34  1  0.18460000  0.75480000  0.79600000  1.0 -0.0729537522
N  N35  1  0.57020000  0.81540000  0.46267000  1.0 -0.0729537522
N  N36  1  0.24520000  0.42980000  0.12933000  1.0 -0.0729537522
