# DDEC6 charges by PACMAN v1.1 (https://github.com/mtap-research/PACMAN-charge/)
data_BATRUM_ASR_pacman
_symmetry_space_group_name_H-M   'P 1'
_cell_length_a   6.79190000
_cell_length_b   21.65140000
_cell_length_c   22.83750000
_cell_angle_alpha   90.00000000
_cell_angle_beta   90.00000000
_cell_angle_gamma   90.00000000
_symmetry_Int_Tables_number   1
_chemical_formula_structural   HoH5C12(NO5)2
_chemical_formula_sum   'Ho8 H40 C96 N16 O80'
_cell_volume   3358.34900584
_cell_formula_units_Z   8
loop_
 _symmetry_equiv_pos_site_id
 _symmetry_equiv_pos_as_xyz
  1  'x, y, z'
loop_
 _atom_site_type_symbol
 _atom_site_label
 _atom_site_symmetry_multiplicity
 _atom_site_fract_x
 _atom_site_fract_y
 _atom_site_fract_z
 _atom_site_occupancy
 _atom_site_charge
Ho  Ho1  1  0.56820000  0.23300000  0.54833000  1.0 2.0224867227
Ho  Ho2  1  0.93180000  0.76700000  0.04833000  1.0 2.0224867227
Ho  Ho3  1  0.43180000  0.73300000  0.95167000  1.0 2.0250464442
Ho  Ho4  1  0.06820000  0.26700000  0.45167000  1.0 2.0250464442
Ho  Ho5  1  0.43180000  0.76700000  0.45167000  1.0 2.0250464442
Ho  Ho6  1  0.06820000  0.23300000  0.95167000  1.0 2.0250464442
Ho  Ho7  1  0.56820000  0.26700000  0.04833000  1.0 2.0224867227
Ho  Ho8  1  0.93180000  0.73300000  0.54833000  1.0 2.0224867227
H  H1  1  0.62850000  0.43440000  0.56900000  1.0 0.0983670119
H  H2  1  0.30150000  0.46150000  0.42710000  1.0 0.1225882105
H  H3  1  0.55100000  0.34450000  0.73460000  1.0 0.0826327192
H  H4  1  0.58880000  0.15990000  0.75250000  1.0 0.1306095558
H  H5  1  0.58260000  0.16990000  0.85390000  1.0 0.1392558391
H  H6  1  0.87150000  0.56560000  0.06900000  1.0 0.0983670119
H  H7  1  0.19850000  0.53850000  0.92710000  1.0 0.1225882105
H  H8  1  0.94900000  0.65550000  0.23460000  1.0 0.0826327192
H  H9  1  0.91120000  0.84010000  0.25250000  1.0 0.1306095558
H  H10  1  0.91740000  0.83010000  0.35390000  1.0 0.1392558391
H  H11  1  0.37150000  0.93440000  0.93100000  1.0 0.0983670119
H  H12  1  0.69850000  0.96150000  0.07290000  1.0 0.1225882105
H  H13  1  0.44900000  0.84450000  0.76540000  1.0 0.0826327192
H  H14  1  0.41120000  0.65990000  0.74750000  1.0 0.1306095558
H  H15  1  0.41740000  0.66990000  0.64610000  1.0 0.1392558391
H  H16  1  0.12850000  0.06560000  0.43100000  1.0 0.0983670119
H  H17  1  0.80150000  0.03850000  0.57290000  1.0 0.1225882105
H  H18  1  0.05100000  0.15550000  0.26540000  1.0 0.0826327192
H  H19  1  0.08880000  0.34010000  0.24750000  1.0 0.1306095558
H  H20  1  0.08260000  0.33010000  0.14610000  1.0 0.1392558391
H  H21  1  0.37150000  0.56560000  0.43100000  1.0 0.0983670119
H  H22  1  0.69850000  0.53850000  0.57290000  1.0 0.1225882105
H  H23  1  0.44900000  0.65550000  0.26540000  1.0 0.0826327192
H  H24  1  0.41120000  0.84010000  0.24750000  1.0 0.1306095558
H  H25  1  0.41740000  0.83010000  0.14610000  1.0 0.1392558391
H  H26  1  0.12850000  0.43440000  0.93100000  1.0 0.0983670119
H  H27  1  0.80150000  0.46150000  0.07290000  1.0 0.1225882105
H  H28  1  0.05100000  0.34450000  0.76540000  1.0 0.0826327192
H  H29  1  0.08880000  0.15990000  0.74750000  1.0 0.1306095558
H  H30  1  0.08260000  0.16990000  0.64610000  1.0 0.1392558391
H  H31  1  0.62850000  0.06560000  0.06900000  1.0 0.0983670119
H  H32  1  0.30150000  0.03850000  0.92710000  1.0 0.1225882105
H  H33  1  0.55100000  0.15550000  0.23460000  1.0 0.0826327192
H  H34  1  0.58880000  0.34010000  0.25250000  1.0 0.1306095558
H  H35  1  0.58260000  0.33010000  0.35390000  1.0 0.1392558391
H  H36  1  0.87150000  0.93440000  0.56900000  1.0 0.0983670119
H  H37  1  0.19850000  0.96150000  0.42710000  1.0 0.1225882105
H  H38  1  0.94900000  0.84450000  0.73460000  1.0 0.0826327192
H  H39  1  0.91120000  0.65990000  0.75250000  1.0 0.1306095558
H  H40  1  0.91740000  0.66990000  0.85390000  1.0 0.1392558391
C  C1  1  0.41850000  0.36900000  0.49310000  1.0 0.6431766066
C  C2  1  0.57260000  0.24390000  0.66830000  1.0 0.5416195902
C  C3  1  0.45770000  0.43730000  0.49760000  1.0 -0.0182352517
C  C4  1  0.56770000  0.24970000  0.73380000  1.0 -0.0079440121
C  C5  1  0.57600000  0.46070000  0.54090000  1.0 -0.1543101606
C  C6  1  0.38200000  0.47670000  0.45680000  1.0 -0.1375941162
C  C7  1  0.55640000  0.30950000  0.75810000  1.0 -0.3442876915
C  C8  1  0.57930000  0.19890000  0.76920000  1.0 -0.1036624772
C  C9  1  0.55370000  0.31360000  0.81860000  1.0 0.0565528988
C  C10  1  0.57710000  0.20480000  0.83030000  1.0 -0.0794182185
C  C11  1  0.56670000  0.26250000  0.85520000  1.0 -0.1171808106
C  C12  1  0.56350000  0.26640000  0.92070000  1.0 0.5773381579
C  C13  1  0.08150000  0.63100000  0.99310000  1.0 0.6431766066
C  C14  1  0.92740000  0.75610000  0.16830000  1.0 0.5416195902
C  C15  1  0.04230000  0.56270000  0.99760000  1.0 -0.0182352517
C  C16  1  0.93230000  0.75030000  0.23380000  1.0 -0.0079440121
C  C17  1  0.92400000  0.53930000  0.04090000  1.0 -0.1543101606
C  C18  1  0.11800000  0.52330000  0.95680000  1.0 -0.1375941162
C  C19  1  0.94360000  0.69050000  0.25810000  1.0 -0.3442876915
C  C20  1  0.92070000  0.80110000  0.26920000  1.0 -0.1036624772
C  C21  1  0.94630000  0.68640000  0.31860000  1.0 0.0565528988
C  C22  1  0.92290000  0.79520000  0.33030000  1.0 -0.0794182185
C  C23  1  0.93330000  0.73750000  0.35520000  1.0 -0.1171808106
C  C24  1  0.93650000  0.73360000  0.42070000  1.0 0.5773381579
C  C25  1  0.58150000  0.86900000  0.00690000  1.0 0.6431766066
C  C26  1  0.42740000  0.74390000  0.83170000  1.0 0.5416195902
C  C27  1  0.54230000  0.93730000  0.00240000  1.0 -0.0182352517
C  C28  1  0.43230000  0.74970000  0.76620000  1.0 -0.0079440121
C  C29  1  0.42400000  0.96070000  0.95910000  1.0 -0.1543101606
C  C30  1  0.61800000  0.97670000  0.04320000  1.0 -0.1375941162
C  C31  1  0.44360000  0.80950000  0.74190000  1.0 -0.3442876915
C  C32  1  0.42070000  0.69890000  0.73080000  1.0 -0.1036624772
C  C33  1  0.44630000  0.81360000  0.68140000  1.0 0.0565528988
C  C34  1  0.42290000  0.70480000  0.66970000  1.0 -0.0794182185
C  C35  1  0.43330000  0.76250000  0.64480000  1.0 -0.1171808106
C  C36  1  0.43650000  0.76640000  0.57930000  1.0 0.5773381579
C  C37  1  0.91850000  0.13100000  0.50690000  1.0 0.6431766066
C  C38  1  0.07260000  0.25610000  0.33170000  1.0 0.5416195902
C  C39  1  0.95770000  0.06270000  0.50240000  1.0 -0.0182352517
C  C40  1  0.06770000  0.25030000  0.26620000  1.0 -0.0079440121
C  C41  1  0.07600000  0.03930000  0.45910000  1.0 -0.1543101606
C  C42  1  0.88200000  0.02330000  0.54320000  1.0 -0.1375941162
C  C43  1  0.05640000  0.19050000  0.24190000  1.0 -0.3459267554
C  C44  1  0.07930000  0.30110000  0.23080000  1.0 -0.1036624772
C  C45  1  0.05370000  0.18640000  0.18140000  1.0 0.0565528988
C  C46  1  0.07710000  0.29520000  0.16970000  1.0 -0.0794182185
C  C47  1  0.06670000  0.23750000  0.14480000  1.0 -0.1171808106
C  C48  1  0.06350000  0.23360000  0.07930000  1.0 0.5773381579
C  C49  1  0.58150000  0.63100000  0.50690000  1.0 0.6431766066
C  C50  1  0.42740000  0.75610000  0.33170000  1.0 0.5416195902
C  C51  1  0.54230000  0.56270000  0.50240000  1.0 -0.0182352517
C  C52  1  0.43230000  0.75030000  0.26620000  1.0 -0.0079440121
C  C53  1  0.42400000  0.53930000  0.45910000  1.0 -0.1543101606
C  C54  1  0.61800000  0.52330000  0.54320000  1.0 -0.1375941162
C  C55  1  0.44360000  0.69050000  0.24190000  1.0 -0.3442876915
C  C56  1  0.42070000  0.80110000  0.23080000  1.0 -0.1036624772
C  C57  1  0.44630000  0.68640000  0.18140000  1.0 0.0565528988
C  C58  1  0.42290000  0.79520000  0.16970000  1.0 -0.0794182185
C  C59  1  0.43330000  0.73750000  0.14480000  1.0 -0.1171808106
C  C60  1  0.43650000  0.73360000  0.07930000  1.0 0.5773381579
C  C61  1  0.91850000  0.36900000  0.00690000  1.0 0.6431766066
C  C62  1  0.07260000  0.24390000  0.83170000  1.0 0.5416195902
C  C63  1  0.95770000  0.43730000  0.00240000  1.0 -0.0182352517
C  C64  1  0.06770000  0.24970000  0.76620000  1.0 -0.0079440121
C  C65  1  0.07600000  0.46070000  0.95910000  1.0 -0.1543101606
C  C66  1  0.88200000  0.47670000  0.04320000  1.0 -0.1375941162
C  C67  1  0.05640000  0.30950000  0.74190000  1.0 -0.3442876915
C  C68  1  0.07930000  0.19890000  0.73080000  1.0 -0.1036624772
C  C69  1  0.05370000  0.31360000  0.68140000  1.0 0.0565528988
C  C70  1  0.07710000  0.20480000  0.66970000  1.0 -0.0794182185
C  C71  1  0.06670000  0.26250000  0.64480000  1.0 -0.1171808106
C  C72  1  0.06350000  0.26640000  0.57930000  1.0 0.5773381579
C  C73  1  0.41850000  0.13100000  0.99310000  1.0 0.6431766066
C  C74  1  0.57260000  0.25610000  0.16830000  1.0 0.5416195902
C  C75  1  0.45770000  0.06270000  0.99760000  1.0 -0.0182352517
C  C76  1  0.56770000  0.25030000  0.23380000  1.0 -0.0079440121
C  C77  1  0.57600000  0.03930000  0.04090000  1.0 -0.1543101606
C  C78  1  0.38200000  0.02330000  0.95680000  1.0 -0.1375941162
C  C79  1  0.55640000  0.19050000  0.25810000  1.0 -0.3442876915
C  C80  1  0.57930000  0.30110000  0.26920000  1.0 -0.1036624772
C  C81  1  0.55370000  0.18640000  0.31860000  1.0 0.0565528988
C  C82  1  0.57710000  0.29520000  0.33030000  1.0 -0.0794182185
C  C83  1  0.56670000  0.23750000  0.35520000  1.0 -0.1171808106
C  C84  1  0.56350000  0.23360000  0.42070000  1.0 0.5773381579
C  C85  1  0.08150000  0.86900000  0.49310000  1.0 0.6431766066
C  C86  1  0.92740000  0.74390000  0.66830000  1.0 0.5416195902
C  C87  1  0.04230000  0.93730000  0.49760000  1.0 -0.0182352517
C  C88  1  0.93230000  0.74970000  0.73380000  1.0 -0.0079440121
C  C89  1  0.92400000  0.96070000  0.54090000  1.0 -0.1543101606
C  C90  1  0.11800000  0.97670000  0.45680000  1.0 -0.1375941162
C  C91  1  0.94360000  0.80950000  0.75810000  1.0 -0.3442876915
C  C92  1  0.92070000  0.69890000  0.76920000  1.0 -0.1036624772
C  C93  1  0.94630000  0.81360000  0.81860000  1.0 0.0565528988
C  C94  1  0.92290000  0.70480000  0.83030000  1.0 -0.0794182185
C  C95  1  0.93330000  0.76250000  0.85520000  1.0 -0.1171808106
C  C96  1  0.93650000  0.76640000  0.92070000  1.0 0.5773381579
N  N1  1  0.60300000  0.37530000  0.84300000  1.0 0.3101686719
N  N2  1  0.49800000  0.12450000  0.34380000  1.0 0.3101686719
N  N3  1  0.89700000  0.62470000  0.34300000  1.0 0.3028760516
N  N4  1  0.00200000  0.87550000  0.84380000  1.0 0.3101686719
N  N5  1  0.39700000  0.87530000  0.65700000  1.0 0.3028760516
N  N6  1  0.50200000  0.62450000  0.15620000  1.0 0.3101686719
N  N7  1  0.10300000  0.12470000  0.15700000  1.0 0.3028760516
N  N8  1  0.99800000  0.37550000  0.65620000  1.0 0.3101686719
N  N9  1  0.39700000  0.62470000  0.15700000  1.0 0.3028760516
N  N10  1  0.50200000  0.87550000  0.65620000  1.0 0.3101686719
N  N11  1  0.10300000  0.37530000  0.65700000  1.0 0.3028760516
N  N12  1  0.99800000  0.12450000  0.15620000  1.0 0.3101686719
N  N13  1  0.60300000  0.12470000  0.34300000  1.0 0.3028760516
N  N14  1  0.49800000  0.37550000  0.84380000  1.0 0.3101686719
N  N15  1  0.89700000  0.87530000  0.84300000  1.0 0.3101686719
N  N16  1  0.00200000  0.62450000  0.34380000  1.0 0.3101686719
O  O1  1  0.72240000  0.24100000  0.44821000  1.0 -0.7030412492
O  O2  1  0.40270000  0.22790000  0.44730000  1.0 -0.687004694
O  O3  1  0.54140000  0.33470000  0.51880000  1.0 -0.6696405944
O  O4  1  0.59090000  0.19190000  0.64510000  1.0 -0.6197885957
O  O5  1  0.55560000  0.29100000  0.63680000  1.0 -0.6516721335
O  O6  1  0.77390000  0.14800000  0.53580000  1.0 -0.6599075881
O  O7  1  0.62000000  0.38220000  0.89490000  1.0 0.0291847947
O  O8  1  0.59500000  0.42100000  0.80960000  1.0 -0.0794182185
O  O9  1  0.53600000  0.11520000  0.39470000  1.0 0.022688143
O  O10  1  0.43100000  0.08400000  0.31410000  1.0 -0.056340291
O  O11  1  0.77760000  0.75900000  0.94821000  1.0 -0.7030412492
O  O12  1  0.09730000  0.77210000  0.94730000  1.0 -0.687004694
O  O13  1  0.95860000  0.66530000  0.01880000  1.0 -0.6696405944
O  O14  1  0.90910000  0.80810000  0.14510000  1.0 -0.6197885957
O  O15  1  0.94440000  0.70900000  0.13680000  1.0 -0.6516721335
O  O16  1  0.72610000  0.85200000  0.03580000  1.0 -0.6599075881
O  O17  1  0.88000000  0.61780000  0.39490000  1.0 0.0363565715
O  O18  1  0.90500000  0.57900000  0.30960000  1.0 -0.0794182185
O  O19  1  0.96400000  0.88480000  0.89470000  1.0 0.022688143
O  O20  1  0.06900000  0.91600000  0.81410000  1.0 -0.056340291
O  O21  1  0.27760000  0.74100000  0.05179000  1.0 -0.7030412492
O  O22  1  0.59730000  0.72790000  0.05270000  1.0 -0.687004694
O  O23  1  0.45860000  0.83470000  0.98120000  1.0 -0.6696405944
O  O24  1  0.40910000  0.69190000  0.85490000  1.0 -0.6197885957
O  O25  1  0.44440000  0.79100000  0.86320000  1.0 -0.6516721335
O  O26  1  0.22610000  0.64800000  0.96420000  1.0 -0.6599075881
O  O27  1  0.38000000  0.88220000  0.60510000  1.0 0.0363565715
O  O28  1  0.40500000  0.92100000  0.69040000  1.0 -0.0794182185
O  O29  1  0.46400000  0.61520000  0.10530000  1.0 0.0291847947
O  O30  1  0.56900000  0.58400000  0.18590000  1.0 -0.056340291
O  O31  1  0.22240000  0.25900000  0.55179000  1.0 -0.7030412492
O  O32  1  0.90270000  0.27210000  0.55270000  1.0 -0.687004694
O  O33  1  0.04140000  0.16530000  0.48120000  1.0 -0.6696405944
O  O34  1  0.09090000  0.30810000  0.35490000  1.0 -0.6197885957
O  O35  1  0.05560000  0.20900000  0.36320000  1.0 -0.6516721335
O  O36  1  0.27390000  0.35200000  0.46420000  1.0 -0.6599075881
O  O37  1  0.12000000  0.11780000  0.10510000  1.0 0.0363565715
O  O38  1  0.09500000  0.07900000  0.19040000  1.0 -0.0794182185
O  O39  1  0.03600000  0.38480000  0.60530000  1.0 0.022688143
O  O40  1  0.93100000  0.41600000  0.68590000  1.0 -0.056340291
O  O41  1  0.27760000  0.75900000  0.55179000  1.0 -0.7030412492
O  O42  1  0.59730000  0.77210000  0.55270000  1.0 -0.687004694
O  O43  1  0.45860000  0.66530000  0.48120000  1.0 -0.6696405944
O  O44  1  0.40910000  0.80810000  0.35490000  1.0 -0.6197885957
O  O45  1  0.44440000  0.70900000  0.36320000  1.0 -0.6516721335
O  O46  1  0.22610000  0.85200000  0.46420000  1.0 -0.6599075881
O  O47  1  0.38000000  0.61780000  0.10510000  1.0 0.0363565715
O  O48  1  0.40500000  0.57900000  0.19040000  1.0 -0.0794182185
O  O49  1  0.46400000  0.88480000  0.60530000  1.0 0.022688143
O  O50  1  0.56900000  0.91600000  0.68590000  1.0 -0.056340291
O  O51  1  0.22240000  0.24100000  0.05179000  1.0 -0.7030412492
O  O52  1  0.90270000  0.22790000  0.05270000  1.0 -0.687004694
O  O53  1  0.04140000  0.33470000  0.98120000  1.0 -0.6696405944
O  O54  1  0.09090000  0.19190000  0.85490000  1.0 -0.6197885957
O  O55  1  0.05560000  0.29100000  0.86320000  1.0 -0.6516721335
O  O56  1  0.27390000  0.14800000  0.96420000  1.0 -0.6599075881
O  O57  1  0.12000000  0.38220000  0.60510000  1.0 0.0363565715
O  O58  1  0.09500000  0.42100000  0.69040000  1.0 -0.0794182185
O  O59  1  0.03600000  0.11520000  0.10530000  1.0 0.0291847947
O  O60  1  0.93100000  0.08400000  0.18590000  1.0 -0.056340291
O  O61  1  0.72240000  0.25900000  0.94821000  1.0 -0.7030412492
O  O62  1  0.40270000  0.27210000  0.94730000  1.0 -0.687004694
O  O63  1  0.54140000  0.16530000  0.01880000  1.0 -0.6696405944
O  O64  1  0.59090000  0.30810000  0.14510000  1.0 -0.6197885957
O  O65  1  0.55560000  0.20900000  0.13680000  1.0 -0.6516721335
O  O66  1  0.77390000  0.35200000  0.03580000  1.0 -0.6599075881
O  O67  1  0.62000000  0.11780000  0.39490000  1.0 0.0363565715
O  O68  1  0.59500000  0.07900000  0.30960000  1.0 -0.0794182185
O  O69  1  0.53600000  0.38480000  0.89470000  1.0 0.022688143
O  O70  1  0.43100000  0.41600000  0.81410000  1.0 -0.056340291
O  O71  1  0.77760000  0.74100000  0.44821000  1.0 -0.7030412492
O  O72  1  0.09730000  0.72790000  0.44730000  1.0 -0.687004694
O  O73  1  0.95860000  0.83470000  0.51880000  1.0 -0.6696405944
O  O74  1  0.90910000  0.69190000  0.64510000  1.0 -0.6197885957
O  O75  1  0.94440000  0.79100000  0.63680000  1.0 -0.6516721335
O  O76  1  0.72610000  0.64800000  0.53580000  1.0 -0.6599075881
O  O77  1  0.88000000  0.88220000  0.89490000  1.0 0.0291847947
O  O78  1  0.90500000  0.92100000  0.80960000  1.0 -0.0794182185
O  O79  1  0.96400000  0.61520000  0.39470000  1.0 0.022688143
O  O80  1  0.06900000  0.58400000  0.31410000  1.0 -0.056340291
