# DDEC6 charges by PACMAN v1.1 (https://github.com/mtap-research/PACMAN-charge/)
data_BATRIA_ASR_pacman
_symmetry_space_group_name_H-M   'P 1'
_cell_length_a   6.81250000
_cell_length_b   21.66890000
_cell_length_c   22.88250000
_cell_angle_alpha   90.00000000
_cell_angle_beta   90.00000000
_cell_angle_gamma   90.00000000
_symmetry_Int_Tables_number   1
_chemical_formula_structural   DyH5C12(NO5)2
_chemical_formula_sum   'Dy8 H40 C96 N16 O80'
_cell_volume   3377.90049145
_cell_formula_units_Z   8
loop_
 _symmetry_equiv_pos_site_id
 _symmetry_equiv_pos_as_xyz
  1  'x, y, z'
loop_
 _atom_site_type_symbol
 _atom_site_label
 _atom_site_symmetry_multiplicity
 _atom_site_fract_x
 _atom_site_fract_y
 _atom_site_fract_z
 _atom_site_occupancy
 _atom_site_charge
Dy  Dy1  1  0.56923000  0.73280000  0.45149000  1.0 2.0305569195
Dy  Dy2  1  0.06923000  0.76720000  0.54851000  1.0 2.0305569195
Dy  Dy3  1  0.93077000  0.26720000  0.95149000  1.0 2.0305569195
Dy  Dy4  1  0.43077000  0.23280000  0.04851000  1.0 2.0305569195
Dy  Dy5  1  0.43077000  0.26720000  0.54851000  1.0 2.0305569195
Dy  Dy6  1  0.93077000  0.23280000  0.45149000  1.0 2.0305569195
Dy  Dy7  1  0.06923000  0.73280000  0.04851000  1.0 2.0305569195
Dy  Dy8  1  0.56923000  0.76720000  0.95149000  1.0 2.0305569195
H  H1  1  0.59060000  0.65990000  0.24710000  1.0 0.1318037086
H  H2  1  0.54790000  0.84360000  0.26500000  1.0 0.0807355385
H  H3  1  0.58660000  0.67010000  0.14620000  1.0 0.1406901352
H  H4  1  0.13590000  0.56580000  0.56770000  1.0 0.0970321469
H  H5  1  0.79880000  0.53850000  0.42790000  1.0 0.122904452
H  H6  1  0.09060000  0.84010000  0.75290000  1.0 0.1318037086
H  H7  1  0.04790000  0.65640000  0.73500000  1.0 0.0807355385
H  H8  1  0.08660000  0.82990000  0.85380000  1.0 0.1406901352
H  H9  1  0.63590000  0.93420000  0.43230000  1.0 0.0970321469
H  H10  1  0.29880000  0.96150000  0.57210000  1.0 0.122904452
H  H11  1  0.90940000  0.34010000  0.74710000  1.0 0.1318037086
H  H12  1  0.95210000  0.15640000  0.76500000  1.0 0.0807355385
H  H13  1  0.91340000  0.32990000  0.64620000  1.0 0.1406901352
H  H14  1  0.36410000  0.43420000  0.06770000  1.0 0.0970321469
H  H15  1  0.70120000  0.46150000  0.92790000  1.0 0.122904452
H  H16  1  0.40940000  0.15990000  0.25290000  1.0 0.1318037086
H  H17  1  0.45210000  0.34360000  0.23500000  1.0 0.0807355385
H  H18  1  0.41340000  0.17010000  0.35380000  1.0 0.1406901352
H  H19  1  0.86410000  0.06580000  0.93230000  1.0 0.0970321469
H  H20  1  0.20120000  0.03850000  0.07210000  1.0 0.122904452
H  H21  1  0.40940000  0.34010000  0.75290000  1.0 0.1318037086
H  H22  1  0.45210000  0.15640000  0.73500000  1.0 0.0807355385
H  H23  1  0.41340000  0.32990000  0.85380000  1.0 0.1406901352
H  H24  1  0.86410000  0.43420000  0.43230000  1.0 0.0970321469
H  H25  1  0.20120000  0.46150000  0.57210000  1.0 0.122904452
H  H26  1  0.90940000  0.15990000  0.24710000  1.0 0.1318037086
H  H27  1  0.95210000  0.34360000  0.26500000  1.0 0.0807355385
H  H28  1  0.91340000  0.17010000  0.14620000  1.0 0.1406901352
H  H29  1  0.36410000  0.06580000  0.56770000  1.0 0.0970321469
H  H30  1  0.70120000  0.03850000  0.42790000  1.0 0.122904452
H  H31  1  0.09060000  0.65990000  0.25290000  1.0 0.1318037086
H  H32  1  0.04790000  0.84360000  0.23500000  1.0 0.0807355385
H  H33  1  0.08660000  0.67010000  0.35380000  1.0 0.1406901352
H  H34  1  0.63590000  0.56580000  0.93230000  1.0 0.0970321469
H  H35  1  0.29880000  0.53850000  0.07210000  1.0 0.122904452
H  H36  1  0.59060000  0.84010000  0.74710000  1.0 0.1318037086
H  H37  1  0.54790000  0.65640000  0.76500000  1.0 0.0807355385
H  H38  1  0.58660000  0.82990000  0.64620000  1.0 0.1406901352
H  H39  1  0.13590000  0.93420000  0.06770000  1.0 0.0970321469
H  H40  1  0.79880000  0.96150000  0.92790000  1.0 0.122904452
C  C1  1  0.56940000  0.74970000  0.26580000  1.0 -0.0097703366
C  C2  1  0.57220000  0.74370000  0.33110000  1.0 0.5428509139
C  C3  1  0.58130000  0.69900000  0.23050000  1.0 -0.1035556295
C  C4  1  0.55560000  0.80870000  0.24140000  1.0 -0.3240639545
C  C5  1  0.57970000  0.70510000  0.16970000  1.0 -0.0799906138
C  C6  1  0.55370000  0.81360000  0.18120000  1.0 0.0563968713
C  C7  1  0.56800000  0.76250000  0.14470000  1.0 -0.1177509255
C  C8  1  0.91950000  0.63070000  0.49340000  1.0 0.6411873125
C  C9  1  0.95840000  0.56270000  0.49750000  1.0 -0.0245467104
C  C10  1  0.08030000  0.53930000  0.54040000  1.0 -0.1493039332
C  C11  1  0.87980000  0.52310000  0.45720000  1.0 -0.1331922036
C  C12  1  0.56400000  0.76640000  0.07943000  1.0 0.5699875377
C  C13  1  0.06940000  0.75030000  0.73420000  1.0 -0.0097703366
C  C14  1  0.07220000  0.75630000  0.66890000  1.0 0.5428509139
C  C15  1  0.08130000  0.80100000  0.76950000  1.0 -0.1035556295
C  C16  1  0.05560000  0.69130000  0.75860000  1.0 -0.3240639545
C  C17  1  0.07970000  0.79490000  0.83030000  1.0 -0.0799906138
C  C18  1  0.05370000  0.68640000  0.81880000  1.0 0.0563968713
C  C19  1  0.06800000  0.73750000  0.85530000  1.0 -0.1177509255
C  C20  1  0.41950000  0.86930000  0.50660000  1.0 0.6411873125
C  C21  1  0.45840000  0.93730000  0.50250000  1.0 -0.0245467104
C  C22  1  0.58030000  0.96070000  0.45960000  1.0 -0.1493039332
C  C23  1  0.37980000  0.97690000  0.54280000  1.0 -0.1331922036
C  C24  1  0.06400000  0.73360000  0.92057000  1.0 0.5699875377
C  C25  1  0.93060000  0.25030000  0.76580000  1.0 -0.0097703366
C  C26  1  0.92780000  0.25630000  0.83110000  1.0 0.5428509139
C  C27  1  0.91870000  0.30100000  0.73050000  1.0 -0.1035556295
C  C28  1  0.94440000  0.19130000  0.74140000  1.0 -0.3240639545
C  C29  1  0.92030000  0.29490000  0.66970000  1.0 -0.0799906138
C  C30  1  0.94630000  0.18640000  0.68120000  1.0 0.0563968713
C  C31  1  0.93200000  0.23750000  0.64470000  1.0 -0.1177509255
C  C32  1  0.58050000  0.36930000  0.99340000  1.0 0.6411873125
C  C33  1  0.54160000  0.43730000  0.99750000  1.0 -0.0245467104
C  C34  1  0.41970000  0.46070000  0.04040000  1.0 -0.1493039332
C  C35  1  0.62020000  0.47690000  0.95720000  1.0 -0.1331922036
C  C36  1  0.93600000  0.23360000  0.57943000  1.0 0.5699875377
C  C37  1  0.43060000  0.24970000  0.23420000  1.0 -0.0097703366
C  C38  1  0.42780000  0.24370000  0.16890000  1.0 0.5428509139
C  C39  1  0.41870000  0.19900000  0.26950000  1.0 -0.1035556295
C  C40  1  0.44440000  0.30870000  0.25860000  1.0 -0.3240639545
C  C41  1  0.42030000  0.20510000  0.33030000  1.0 -0.0799906138
C  C42  1  0.44630000  0.31360000  0.31880000  1.0 0.0563968713
C  C43  1  0.43200000  0.26250000  0.35530000  1.0 -0.1177509255
C  C44  1  0.08050000  0.13070000  0.00660000  1.0 0.6411873125
C  C45  1  0.04160000  0.06270000  0.00250000  1.0 -0.0245467104
C  C46  1  0.91970000  0.03930000  0.95960000  1.0 -0.1493039332
C  C47  1  0.12020000  0.02310000  0.04280000  1.0 -0.1331922036
C  C48  1  0.43600000  0.26640000  0.42057000  1.0 0.5699875377
C  C49  1  0.43060000  0.25030000  0.73420000  1.0 -0.0097703366
C  C50  1  0.42780000  0.25630000  0.66890000  1.0 0.5428509139
C  C51  1  0.41870000  0.30100000  0.76950000  1.0 -0.1035556295
C  C52  1  0.44440000  0.19130000  0.75860000  1.0 -0.3240639545
C  C53  1  0.42030000  0.29490000  0.83030000  1.0 -0.0799906138
C  C54  1  0.44630000  0.18640000  0.81880000  1.0 0.0563968713
C  C55  1  0.43200000  0.23750000  0.85530000  1.0 -0.1177509255
C  C56  1  0.08050000  0.36930000  0.50660000  1.0 0.6411873125
C  C57  1  0.04160000  0.43730000  0.50250000  1.0 -0.0245467104
C  C58  1  0.91970000  0.46070000  0.45960000  1.0 -0.1493039332
C  C59  1  0.12020000  0.47690000  0.54280000  1.0 -0.1331922036
C  C60  1  0.43600000  0.23360000  0.92057000  1.0 0.5699875377
C  C61  1  0.93060000  0.24970000  0.26580000  1.0 -0.0097703366
C  C62  1  0.92780000  0.24370000  0.33110000  1.0 0.5428509139
C  C63  1  0.91870000  0.19900000  0.23050000  1.0 -0.1035556295
C  C64  1  0.94440000  0.30870000  0.24140000  1.0 -0.3240639545
C  C65  1  0.92030000  0.20510000  0.16970000  1.0 -0.0799906138
C  C66  1  0.94630000  0.31360000  0.18120000  1.0 0.0563968713
C  C67  1  0.93200000  0.26250000  0.14470000  1.0 -0.1177509255
C  C68  1  0.58050000  0.13070000  0.49340000  1.0 0.6411873125
C  C69  1  0.54160000  0.06270000  0.49750000  1.0 -0.0245467104
C  C70  1  0.41970000  0.03930000  0.54040000  1.0 -0.1493039332
C  C71  1  0.62020000  0.02310000  0.45720000  1.0 -0.1331922036
C  C72  1  0.93600000  0.26640000  0.07943000  1.0 0.5699875377
C  C73  1  0.06940000  0.74970000  0.23420000  1.0 -0.0097703366
C  C74  1  0.07220000  0.74370000  0.16890000  1.0 0.5428509139
C  C75  1  0.08130000  0.69900000  0.26950000  1.0 -0.1035556295
C  C76  1  0.05560000  0.80870000  0.25860000  1.0 -0.3240639545
C  C77  1  0.07970000  0.70510000  0.33030000  1.0 -0.0799906138
C  C78  1  0.05370000  0.81360000  0.31880000  1.0 0.0563968713
C  C79  1  0.06800000  0.76250000  0.35530000  1.0 -0.1177509255
C  C80  1  0.41950000  0.63070000  0.00660000  1.0 0.6411873125
C  C81  1  0.45840000  0.56270000  0.00250000  1.0 -0.0245467104
C  C82  1  0.58030000  0.53930000  0.95960000  1.0 -0.1493039332
C  C83  1  0.37980000  0.52310000  0.04280000  1.0 -0.1331922036
C  C84  1  0.06400000  0.76640000  0.42057000  1.0 0.5699875377
C  C85  1  0.56940000  0.75030000  0.76580000  1.0 -0.0097703366
C  C86  1  0.57220000  0.75630000  0.83110000  1.0 0.5428509139
C  C87  1  0.58130000  0.80100000  0.73050000  1.0 -0.1035556295
C  C88  1  0.55560000  0.69130000  0.74140000  1.0 -0.3240639545
C  C89  1  0.57970000  0.79490000  0.66970000  1.0 -0.0799906138
C  C90  1  0.55370000  0.68640000  0.68120000  1.0 0.0563968713
C  C91  1  0.56800000  0.73750000  0.64470000  1.0 -0.1177509255
C  C92  1  0.91950000  0.86930000  0.99340000  1.0 0.6411873125
C  C93  1  0.95840000  0.93730000  0.99750000  1.0 -0.0245467104
C  C94  1  0.08030000  0.96070000  0.04040000  1.0 -0.1493039332
C  C95  1  0.87980000  0.97690000  0.95720000  1.0 -0.1331922036
C  C96  1  0.56400000  0.73360000  0.57943000  1.0 0.5699875377
N  N1  1  0.60300000  0.87580000  0.15690000  1.0 0.3077995762
N  N2  1  0.50200000  0.87530000  0.15600000  1.0 0.3077995762
N  N3  1  0.10300000  0.62420000  0.84310000  1.0 0.3077995762
N  N4  1  0.00200000  0.62470000  0.84400000  1.0 0.3077995762
N  N5  1  0.89700000  0.12420000  0.65690000  1.0 0.3077995762
N  N6  1  0.99800000  0.12470000  0.65600000  1.0 0.3077995762
N  N7  1  0.39700000  0.37580000  0.34310000  1.0 0.3077995762
N  N8  1  0.49800000  0.37530000  0.34400000  1.0 0.3077995762
N  N9  1  0.39700000  0.12420000  0.84310000  1.0 0.3077995762
N  N10  1  0.49800000  0.12470000  0.84400000  1.0 0.3077995762
N  N11  1  0.89700000  0.37580000  0.15690000  1.0 0.3077995762
N  N12  1  0.99800000  0.37530000  0.15600000  1.0 0.3077995762
N  N13  1  0.10300000  0.87580000  0.34310000  1.0 0.3077995762
N  N14  1  0.00200000  0.87530000  0.34400000  1.0 0.3077995762
N  N15  1  0.60300000  0.62420000  0.65690000  1.0 0.3077995762
N  N16  1  0.50200000  0.62470000  0.65600000  1.0 0.3077995762
O  O1  1  0.59370000  0.69150000  0.35412000  1.0 -0.6243108712
O  O2  1  0.55530000  0.79070000  0.36264000  1.0 -0.6494084202
O  O3  1  0.40420000  0.77218000  0.05273000  1.0 -0.67804837
O  O4  1  0.77560000  0.64806000  0.46400000  1.0 -0.6670285441
O  O5  1  0.04140000  0.66539000  0.51902000  1.0 -0.67804837
O  O6  1  0.72250000  0.75919000  0.05204000  1.0 -0.6958557345
O  O7  1  0.59500000  0.92060000  0.19060000  1.0 -0.0799906138
O  O8  1  0.62270000  0.88230000  0.10500000  1.0 0.0266638318
O  O9  1  0.43100000  0.91560000  0.18520000  1.0 -0.0605538321
O  O10  1  0.54010000  0.88460000  0.10530000  1.0 0.0190105424
O  O11  1  0.09370000  0.80850000  0.64588000  1.0 -0.6243108712
O  O12  1  0.05530000  0.70930000  0.63736000  1.0 -0.6494084202
O  O13  1  0.90420000  0.72782000  0.94727000  1.0 -0.67804837
O  O14  1  0.27560000  0.85194000  0.53600000  1.0 -0.6670285441
O  O15  1  0.54140000  0.83461000  0.48098000  1.0 -0.67804837
O  O16  1  0.22250000  0.74081000  0.94796000  1.0 -0.6958557345
O  O17  1  0.09500000  0.57940000  0.80940000  1.0 -0.0799906138
O  O18  1  0.12270000  0.61770000  0.89500000  1.0 0.0266638318
O  O19  1  0.93100000  0.58440000  0.81480000  1.0 -0.0605538321
O  O20  1  0.04010000  0.61540000  0.89470000  1.0 0.0190105424
O  O21  1  0.90630000  0.30850000  0.85412000  1.0 -0.6243108712
O  O22  1  0.94470000  0.20930000  0.86264000  1.0 -0.6494084202
O  O23  1  0.09580000  0.22782000  0.55273000  1.0 -0.67804837
O  O24  1  0.72440000  0.35194000  0.96400000  1.0 -0.6670285441
O  O25  1  0.45860000  0.33461000  0.01902000  1.0 -0.67804837
O  O26  1  0.77750000  0.24081000  0.55204000  1.0 -0.6958557345
O  O27  1  0.90500000  0.07940000  0.69060000  1.0 -0.0799906138
O  O28  1  0.87730000  0.11770000  0.60500000  1.0 0.0266638318
O  O29  1  0.06900000  0.08440000  0.68520000  1.0 -0.0605538321
O  O30  1  0.95990000  0.11540000  0.60530000  1.0 0.0190105424
O  O31  1  0.40630000  0.19150000  0.14588000  1.0 -0.6243108712
O  O32  1  0.44470000  0.29070000  0.13736000  1.0 -0.6494084202
O  O33  1  0.59580000  0.27218000  0.44727000  1.0 -0.67804837
O  O34  1  0.22440000  0.14806000  0.03600000  1.0 -0.6670285441
O  O35  1  0.95860000  0.16539000  0.98098000  1.0 -0.67804837
O  O36  1  0.27750000  0.25919000  0.44796000  1.0 -0.6958557345
O  O37  1  0.40500000  0.42060000  0.30940000  1.0 -0.0799906138
O  O38  1  0.37730000  0.38230000  0.39500000  1.0 0.0266638318
O  O39  1  0.56900000  0.41560000  0.31480000  1.0 -0.0605538321
O  O40  1  0.45990000  0.38460000  0.39470000  1.0 0.0190105424
O  O41  1  0.40630000  0.30850000  0.64588000  1.0 -0.6243108712
O  O42  1  0.44470000  0.20930000  0.63736000  1.0 -0.6494084202
O  O43  1  0.59580000  0.22782000  0.94727000  1.0 -0.67804837
O  O44  1  0.22440000  0.35194000  0.53600000  1.0 -0.6670285441
O  O45  1  0.95860000  0.33461000  0.48098000  1.0 -0.67804837
O  O46  1  0.27750000  0.24081000  0.94796000  1.0 -0.6958557345
O  O47  1  0.40500000  0.07940000  0.80940000  1.0 -0.0799906138
O  O48  1  0.37730000  0.11770000  0.89500000  1.0 0.0266638318
O  O49  1  0.56900000  0.08440000  0.81480000  1.0 -0.0605538321
O  O50  1  0.45990000  0.11540000  0.89470000  1.0 0.0190105424
O  O51  1  0.90630000  0.19150000  0.35412000  1.0 -0.6243108712
O  O52  1  0.94470000  0.29070000  0.36264000  1.0 -0.6494084202
O  O53  1  0.09580000  0.27218000  0.05273000  1.0 -0.67804837
O  O54  1  0.72440000  0.14806000  0.46400000  1.0 -0.6670285441
O  O55  1  0.45860000  0.16539000  0.51902000  1.0 -0.67804837
O  O56  1  0.77750000  0.25919000  0.05204000  1.0 -0.6958557345
O  O57  1  0.90500000  0.42060000  0.19060000  1.0 -0.0799906138
O  O58  1  0.87730000  0.38230000  0.10500000  1.0 0.0266638318
O  O59  1  0.06900000  0.41560000  0.18520000  1.0 -0.0605538321
O  O60  1  0.95990000  0.38460000  0.10530000  1.0 0.0190105424
O  O61  1  0.09370000  0.69150000  0.14588000  1.0 -0.6243108712
O  O62  1  0.05530000  0.79070000  0.13736000  1.0 -0.6494084202
O  O63  1  0.90420000  0.77218000  0.44727000  1.0 -0.67804837
O  O64  1  0.27560000  0.64806000  0.03600000  1.0 -0.6670285441
O  O65  1  0.54140000  0.66539000  0.98098000  1.0 -0.67804837
O  O66  1  0.22250000  0.75919000  0.44796000  1.0 -0.6958557345
O  O67  1  0.09500000  0.92060000  0.30940000  1.0 -0.0799906138
O  O68  1  0.12270000  0.88230000  0.39500000  1.0 0.0266638318
O  O69  1  0.93100000  0.91560000  0.31480000  1.0 -0.0605538321
O  O70  1  0.04010000  0.88460000  0.39470000  1.0 0.0190105424
O  O71  1  0.59370000  0.80850000  0.85412000  1.0 -0.6243108712
O  O72  1  0.55530000  0.70930000  0.86264000  1.0 -0.6494084202
O  O73  1  0.40420000  0.72782000  0.55273000  1.0 -0.67804837
O  O74  1  0.77560000  0.85194000  0.96400000  1.0 -0.6670285441
O  O75  1  0.04140000  0.83461000  0.01902000  1.0 -0.67804837
O  O76  1  0.72250000  0.74081000  0.55204000  1.0 -0.6958557345
O  O77  1  0.59500000  0.57940000  0.69060000  1.0 -0.0799906138
O  O78  1  0.62270000  0.61770000  0.60500000  1.0 0.0266638318
O  O79  1  0.43100000  0.58440000  0.68520000  1.0 -0.0605538321
O  O80  1  0.54010000  0.61540000  0.60530000  1.0 0.0190105424
