# DDEC6 charges by PACMAN v1.1 (https://github.com/mtap-research/PACMAN-charge/)
data_BATROG_FSR_pacman
_symmetry_space_group_name_H-M   'P 1'
_cell_length_a   6.88490000
_cell_length_b   21.82860000
_cell_length_c   23.03880000
_cell_angle_alpha   90.00000000
_cell_angle_beta   90.00000000
_cell_angle_gamma   90.00000000
_symmetry_Int_Tables_number   1
_chemical_formula_structural   EuH5C12N3O13
_chemical_formula_sum   'Eu8 H40 C96 N24 O104'
_cell_volume   3462.44891107
_cell_formula_units_Z   8
loop_
 _symmetry_equiv_pos_site_id
 _symmetry_equiv_pos_as_xyz
  1  'x, y, z'
loop_
 _atom_site_type_symbol
 _atom_site_label
 _atom_site_symmetry_multiplicity
 _atom_site_fract_x
 _atom_site_fract_y
 _atom_site_fract_z
 _atom_site_occupancy
 _atom_site_charge
Eu  Eu1  1  0.07375000  0.23240000  0.45078000  1.0 2.0697815454
Eu  Eu2  1  0.42625000  0.76760000  0.95078000  1.0 2.0697815454
Eu  Eu3  1  0.92625000  0.73240000  0.04922000  1.0 2.0697815454
Eu  Eu4  1  0.57375000  0.26760000  0.54922000  1.0 2.0697815454
Eu  Eu5  1  0.92625000  0.76760000  0.54922000  1.0 2.0697815454
Eu  Eu6  1  0.57375000  0.23240000  0.04922000  1.0 2.0697815454
Eu  Eu7  1  0.07375000  0.26760000  0.95078000  1.0 2.0697815454
Eu  Eu8  1  0.42625000  0.73240000  0.45078000  1.0 2.0697815454
H  H1  1  0.08560000  0.16010000  0.24580000  1.0 0.1393802034
H  H2  1  0.07830000  0.17010000  0.14580000  1.0 0.1501906923
H  H3  1  0.06470000  0.34220000  0.26430000  1.0 0.1174788437
H  H4  1  0.64600000  0.06500000  0.56400000  1.0 0.2024414948
H  H5  1  0.31860000  0.04020000  0.42510000  1.0 0.1501906923
H  H6  1  0.41440000  0.83990000  0.74580000  1.0 0.1393802034
H  H7  1  0.42170000  0.82990000  0.64580000  1.0 0.1501906923
H  H8  1  0.43530000  0.65780000  0.76430000  1.0 0.1174788437
H  H9  1  0.85400000  0.93500000  0.06400000  1.0 0.2024414948
H  H10  1  0.18140000  0.95980000  0.92510000  1.0 0.1501906923
H  H11  1  0.91440000  0.66010000  0.25420000  1.0 0.1393802034
H  H12  1  0.92170000  0.67010000  0.35420000  1.0 0.1501906923
H  H13  1  0.93530000  0.84220000  0.23570000  1.0 0.1174788437
H  H14  1  0.35400000  0.56500000  0.93600000  1.0 0.2024414948
H  H15  1  0.68140000  0.54020000  0.07490000  1.0 0.1501906923
H  H16  1  0.58560000  0.33990000  0.75420000  1.0 0.1393802034
H  H17  1  0.57830000  0.32990000  0.85420000  1.0 0.1501906923
H  H18  1  0.56470000  0.15780000  0.73570000  1.0 0.1174788437
H  H19  1  0.14600000  0.43500000  0.43600000  1.0 0.2024414948
H  H20  1  0.81860000  0.45980000  0.57490000  1.0 0.1501906923
H  H21  1  0.91440000  0.83990000  0.75420000  1.0 0.1393802034
H  H22  1  0.92170000  0.82990000  0.85420000  1.0 0.1501906923
H  H23  1  0.93530000  0.65780000  0.73570000  1.0 0.1174788437
H  H24  1  0.35400000  0.93500000  0.43600000  1.0 0.2024414948
H  H25  1  0.68140000  0.95980000  0.57490000  1.0 0.1501906923
H  H26  1  0.58560000  0.16010000  0.25420000  1.0 0.1393802034
H  H27  1  0.57830000  0.17010000  0.35420000  1.0 0.1501906923
H  H28  1  0.56470000  0.34220000  0.23570000  1.0 0.1174788437
H  H29  1  0.14600000  0.06500000  0.93600000  1.0 0.2024414948
H  H30  1  0.81860000  0.04020000  0.07490000  1.0 0.1501906923
H  H31  1  0.08560000  0.33990000  0.74580000  1.0 0.1393802034
H  H32  1  0.07830000  0.32990000  0.64580000  1.0 0.1501906923
H  H33  1  0.06470000  0.15780000  0.76430000  1.0 0.1174788437
H  H34  1  0.64600000  0.43500000  0.06400000  1.0 0.2024414948
H  H35  1  0.31860000  0.45980000  0.92510000  1.0 0.1501906923
H  H36  1  0.41440000  0.66010000  0.24580000  1.0 0.1393802034
H  H37  1  0.42170000  0.67010000  0.14580000  1.0 0.1501906923
H  H38  1  0.43530000  0.84220000  0.26430000  1.0 0.1174788437
H  H39  1  0.85400000  0.56500000  0.56400000  1.0 0.2024414948
H  H40  1  0.18140000  0.54020000  0.42510000  1.0 0.1501906923
C  C1  1  0.07330000  0.26270000  0.14430000  1.0 -0.1004464935
C  C2  1  0.07970000  0.19900000  0.22930000  1.0 -0.0920200647
C  C3  1  0.07640000  0.24320000  0.32940000  1.0 0.5598522163
C  C4  1  0.07370000  0.24940000  0.26470000  1.0 0.0008978345
C  C5  1  0.06740000  0.31300000  0.18090000  1.0 0.0676248184
C  C6  1  0.07730000  0.20480000  0.16920000  1.0 -0.0809884259
C  C7  1  0.06800000  0.30760000  0.24070000  1.0 -0.283270348
C  C8  1  0.06920000  0.26650000  0.07930000  1.0 0.5598522163
C  C9  1  0.42570000  0.13020000  0.49320000  1.0 0.6280329859
C  C10  1  0.46140000  0.06250000  0.49770000  1.0 -0.0233059825
C  C11  1  0.56950000  0.03800000  0.54240000  1.0 -0.0378356083
C  C12  1  0.39200000  0.02430000  0.45550000  1.0 -0.1337263175
C  C13  1  0.42670000  0.73730000  0.64430000  1.0 -0.1004464935
C  C14  1  0.42030000  0.80100000  0.72930000  1.0 -0.0920200647
C  C15  1  0.42360000  0.75680000  0.82940000  1.0 0.5598522163
C  C16  1  0.42630000  0.75060000  0.76470000  1.0 0.0008978345
C  C17  1  0.43260000  0.68700000  0.68090000  1.0 0.0676248184
C  C18  1  0.42270000  0.79520000  0.66920000  1.0 -0.0809884259
C  C19  1  0.43200000  0.69240000  0.74070000  1.0 -0.283270348
C  C20  1  0.43080000  0.73350000  0.57930000  1.0 0.5598522163
C  C21  1  0.07430000  0.86980000  0.99320000  1.0 0.6280329859
C  C22  1  0.03860000  0.93750000  0.99770000  1.0 -0.0233059825
C  C23  1  0.93050000  0.96200000  0.04240000  1.0 -0.0378356083
C  C24  1  0.10800000  0.97570000  0.95550000  1.0 -0.1337263175
C  C25  1  0.92670000  0.76270000  0.35570000  1.0 -0.1004464935
C  C26  1  0.92030000  0.69900000  0.27070000  1.0 -0.0920200647
C  C27  1  0.92360000  0.74320000  0.17060000  1.0 0.5598522163
C  C28  1  0.92630000  0.74940000  0.23530000  1.0 0.0008978345
C  C29  1  0.93260000  0.81300000  0.31910000  1.0 0.0676248184
C  C30  1  0.92270000  0.70480000  0.33080000  1.0 -0.0809884259
C  C31  1  0.93200000  0.80760000  0.25930000  1.0 -0.283270348
C  C32  1  0.93080000  0.76650000  0.42070000  1.0 0.5598522163
C  C33  1  0.57430000  0.63020000  0.00680000  1.0 0.6280329859
C  C34  1  0.53860000  0.56250000  0.00230000  1.0 -0.0233059825
C  C35  1  0.43050000  0.53800000  0.95760000  1.0 -0.0378356083
C  C36  1  0.60800000  0.52430000  0.04450000  1.0 -0.1337263175
C  C37  1  0.57330000  0.23730000  0.85570000  1.0 -0.1004464935
C  C38  1  0.57970000  0.30100000  0.77070000  1.0 -0.0920200647
C  C39  1  0.57640000  0.25680000  0.67060000  1.0 0.5598522163
C  C40  1  0.57370000  0.25060000  0.73530000  1.0 0.0008978345
C  C41  1  0.56740000  0.18700000  0.81910000  1.0 0.0676248184
C  C42  1  0.57730000  0.29520000  0.83080000  1.0 -0.0809884259
C  C43  1  0.56800000  0.19240000  0.75930000  1.0 -0.283270348
C  C44  1  0.56920000  0.23350000  0.92070000  1.0 0.5598522163
C  C45  1  0.92570000  0.36980000  0.50680000  1.0 0.6280329859
C  C46  1  0.96140000  0.43750000  0.50230000  1.0 -0.0233059825
C  C47  1  0.06950000  0.46200000  0.45760000  1.0 -0.0378356083
C  C48  1  0.89200000  0.47570000  0.54450000  1.0 -0.1337263175
C  C49  1  0.92670000  0.73730000  0.85570000  1.0 -0.1004464935
C  C50  1  0.92030000  0.80100000  0.77070000  1.0 -0.0920200647
C  C51  1  0.92360000  0.75680000  0.67060000  1.0 0.5598522163
C  C52  1  0.92630000  0.75060000  0.73530000  1.0 0.0008978345
C  C53  1  0.93260000  0.68700000  0.81910000  1.0 0.0676248184
C  C54  1  0.92270000  0.79520000  0.83080000  1.0 -0.0809884259
C  C55  1  0.93200000  0.69240000  0.75930000  1.0 -0.283270348
C  C56  1  0.93080000  0.73350000  0.92070000  1.0 0.5598522163
C  C57  1  0.57430000  0.86980000  0.50680000  1.0 0.6280329859
C  C58  1  0.53860000  0.93750000  0.50230000  1.0 -0.0233059825
C  C59  1  0.43050000  0.96200000  0.45760000  1.0 -0.0378356083
C  C60  1  0.60800000  0.97570000  0.54450000  1.0 -0.1337263175
C  C61  1  0.57330000  0.26270000  0.35570000  1.0 -0.1004464935
C  C62  1  0.57970000  0.19900000  0.27070000  1.0 -0.0920200647
C  C63  1  0.57640000  0.24320000  0.17060000  1.0 0.5598522163
C  C64  1  0.57370000  0.24940000  0.23530000  1.0 0.0008978345
C  C65  1  0.56740000  0.31300000  0.31910000  1.0 0.0676248184
C  C66  1  0.57730000  0.20480000  0.33080000  1.0 -0.0809884259
C  C67  1  0.56800000  0.30760000  0.25930000  1.0 -0.283270348
C  C68  1  0.56920000  0.26650000  0.42070000  1.0 0.5598522163
C  C69  1  0.92570000  0.13020000  0.00680000  1.0 0.6280329859
C  C70  1  0.96140000  0.06250000  0.00230000  1.0 -0.0233059825
C  C71  1  0.06950000  0.03800000  0.95760000  1.0 -0.0378356083
C  C72  1  0.89200000  0.02430000  0.04450000  1.0 -0.1337263175
C  C73  1  0.07330000  0.23730000  0.64430000  1.0 -0.1004464935
C  C74  1  0.07970000  0.30100000  0.72930000  1.0 -0.0920200647
C  C75  1  0.07640000  0.25680000  0.82940000  1.0 0.5598522163
C  C76  1  0.07370000  0.25060000  0.76470000  1.0 0.0008978345
C  C77  1  0.06740000  0.18700000  0.68090000  1.0 0.0676248184
C  C78  1  0.07730000  0.29520000  0.66920000  1.0 -0.0809884259
C  C79  1  0.06800000  0.19240000  0.74070000  1.0 -0.283270348
C  C80  1  0.06920000  0.23350000  0.57930000  1.0 0.5598522163
C  C81  1  0.42570000  0.36980000  0.99320000  1.0 0.6280329859
C  C82  1  0.46140000  0.43750000  0.99770000  1.0 -0.0233059825
C  C83  1  0.56950000  0.46200000  0.04240000  1.0 -0.0378356083
C  C84  1  0.39200000  0.47570000  0.95550000  1.0 -0.1337263175
C  C85  1  0.42670000  0.76270000  0.14430000  1.0 -0.1004464935
C  C86  1  0.42030000  0.69900000  0.22930000  1.0 -0.0920200647
C  C87  1  0.42360000  0.74320000  0.32940000  1.0 0.5598522163
C  C88  1  0.42630000  0.74940000  0.26470000  1.0 0.0008978345
C  C89  1  0.43260000  0.81300000  0.18090000  1.0 0.0676248184
C  C90  1  0.42270000  0.70480000  0.16920000  1.0 -0.0809884259
C  C91  1  0.43200000  0.80760000  0.24070000  1.0 -0.283270348
C  C92  1  0.43080000  0.76650000  0.07930000  1.0 0.5598522163
C  C93  1  0.07430000  0.63020000  0.49320000  1.0 0.6280329859
C  C94  1  0.03860000  0.56250000  0.49770000  1.0 -0.0233059825
C  C95  1  0.93050000  0.53800000  0.54240000  1.0 -0.0378356083
C  C96  1  0.10800000  0.52430000  0.45550000  1.0 -0.1337263175
N  N1  1  0.01580000  0.37490000  0.15550000  1.0 0.3401443926
N  N2  1  0.12290000  0.37480000  0.15730000  1.0 0.3401443926
N  N3  1  0.60100000  0.07040000  0.60140000  1.0 0.3038133345
N  N4  1  0.48420000  0.62510000  0.65550000  1.0 0.3401443926
N  N5  1  0.37710000  0.62520000  0.65730000  1.0 0.3401443926
N  N6  1  0.89900000  0.92960000  0.10140000  1.0 0.3059361837
N  N7  1  0.98420000  0.87490000  0.34450000  1.0 0.3401443926
N  N8  1  0.87710000  0.87480000  0.34270000  1.0 0.3343861835
N  N9  1  0.39900000  0.57040000  0.89860000  1.0 0.3059361837
N  N10  1  0.51580000  0.12510000  0.84450000  1.0 0.3401443926
N  N11  1  0.62290000  0.12520000  0.84270000  1.0 0.3401443926
N  N12  1  0.10100000  0.42960000  0.39860000  1.0 0.3038133345
N  N13  1  0.98420000  0.62510000  0.84450000  1.0 0.3401443926
N  N14  1  0.87710000  0.62520000  0.84270000  1.0 0.3343861835
N  N15  1  0.39900000  0.92960000  0.39860000  1.0 0.3059361837
N  N16  1  0.51580000  0.37490000  0.34450000  1.0 0.3401443926
N  N17  1  0.62290000  0.37480000  0.34270000  1.0 0.3401443926
N  N18  1  0.10100000  0.07040000  0.89860000  1.0 0.3038133345
N  N19  1  0.01580000  0.12510000  0.65550000  1.0 0.3401443926
N  N20  1  0.12290000  0.12520000  0.65730000  1.0 0.3401443926
N  N21  1  0.60100000  0.42960000  0.10140000  1.0 0.3038133345
N  N22  1  0.48420000  0.87490000  0.15550000  1.0 0.3401443926
N  N23  1  0.37710000  0.87480000  0.15730000  1.0 0.3343861835
N  N24  1  0.89900000  0.57040000  0.60140000  1.0 0.3059361837
O  O1  1  0.09130000  0.19064000  0.35242000  1.0 -0.5742368662
O  O2  1  0.06140000  0.28978000  0.36104000  1.0 -0.624087576
O  O3  1  0.91020000  0.27269000  0.05311000  1.0 -0.640232321
O  O4  1  0.22540000  0.25879000  0.05233000  1.0 -0.640232321
O  O5  1  0.54460000  0.16478000  0.51995000  1.0 -0.6119235643
O  O6  1  0.28470000  0.14760000  0.46328000  1.0 -0.5976967403
O  O7  1  0.88210000  0.14030000  0.45650000  1.0 -0.363411264
O  O8  1  0.95500000  0.41500000  0.18720000  1.0 -0.0584769064
O  O9  1  0.04970000  0.38320000  0.10520000  1.0 0.0226324715
O  O10  1  0.12090000  0.41820000  0.19080000  1.0 -0.0711348794
O  O11  1  0.14250000  0.38030000  0.10540000  1.0 0.0226324715
O  O12  1  0.46400000  0.08260000  0.63260000  1.0 -0.401642915
O  O13  1  0.76900000  0.08010000  0.61140000  1.0 -0.3386021742
O  O14  1  0.40870000  0.80936000  0.85242000  1.0 -0.5742368662
O  O15  1  0.43860000  0.71022000  0.86104000  1.0 -0.624087576
O  O16  1  0.58980000  0.72731000  0.55311000  1.0 -0.640232321
O  O17  1  0.27460000  0.74121000  0.55233000  1.0 -0.640232321
O  O18  1  0.95540000  0.83522000  0.01995000  1.0 -0.6119235643
O  O19  1  0.21530000  0.85240000  0.96328000  1.0 -0.5976967403
O  O20  1  0.61790000  0.85970000  0.95650000  1.0 -0.3662989998
O  O21  1  0.54500000  0.58500000  0.68720000  1.0 -0.0584769064
O  O22  1  0.45030000  0.61680000  0.60520000  1.0 0.0226324715
O  O23  1  0.37910000  0.58180000  0.69080000  1.0 -0.0711348794
O  O24  1  0.35750000  0.61970000  0.60540000  1.0 0.0226324715
O  O25  1  0.03600000  0.91740000  0.13260000  1.0 -0.401642915
O  O26  1  0.73100000  0.91990000  0.11140000  1.0 -0.3386021742
O  O27  1  0.90870000  0.69064000  0.14758000  1.0 -0.5742368662
O  O28  1  0.93860000  0.78978000  0.13896000  1.0 -0.624087576
O  O29  1  0.08980000  0.77269000  0.44689000  1.0 -0.640232321
O  O30  1  0.77460000  0.75879000  0.44767000  1.0 -0.640232321
O  O31  1  0.45540000  0.66478000  0.98005000  1.0 -0.6119235643
O  O32  1  0.71530000  0.64760000  0.03672000  1.0 -0.5976967403
O  O33  1  0.11790000  0.64030000  0.04350000  1.0 -0.363411264
O  O34  1  0.04500000  0.91500000  0.31280000  1.0 -0.0584769064
O  O35  1  0.95030000  0.88320000  0.39480000  1.0 0.0226324715
O  O36  1  0.87910000  0.91820000  0.30920000  1.0 -0.0711348794
O  O37  1  0.85750000  0.88030000  0.39460000  1.0 0.0226324715
O  O38  1  0.53600000  0.58260000  0.86740000  1.0 -0.401642915
O  O39  1  0.23100000  0.58010000  0.88860000  1.0 -0.3386021742
O  O40  1  0.59130000  0.30936000  0.64758000  1.0 -0.5742368662
O  O41  1  0.56140000  0.21022000  0.63896000  1.0 -0.624087576
O  O42  1  0.41020000  0.22731000  0.94689000  1.0 -0.640232321
O  O43  1  0.72540000  0.24121000  0.94767000  1.0 -0.640232321
O  O44  1  0.04460000  0.33522000  0.48005000  1.0 -0.6119235643
O  O45  1  0.78470000  0.35240000  0.53672000  1.0 -0.5976967403
O  O46  1  0.38210000  0.35970000  0.54350000  1.0 -0.363411264
O  O47  1  0.45500000  0.08500000  0.81280000  1.0 -0.0584769064
O  O48  1  0.54970000  0.11680000  0.89480000  1.0 0.0226324715
O  O49  1  0.62090000  0.08180000  0.80920000  1.0 -0.0711348794
O  O50  1  0.64250000  0.11970000  0.89460000  1.0 0.0226324715
O  O51  1  0.96400000  0.41740000  0.36740000  1.0 -0.401642915
O  O52  1  0.26900000  0.41990000  0.38860000  1.0 -0.3386021742
O  O53  1  0.90870000  0.80936000  0.64758000  1.0 -0.5742368662
O  O54  1  0.93860000  0.71022000  0.63896000  1.0 -0.624087576
O  O55  1  0.08980000  0.72731000  0.94689000  1.0 -0.640232321
O  O56  1  0.77460000  0.74121000  0.94767000  1.0 -0.640232321
O  O57  1  0.45540000  0.83522000  0.48005000  1.0 -0.6119235643
O  O58  1  0.71530000  0.85240000  0.53672000  1.0 -0.5976967403
O  O59  1  0.11790000  0.85970000  0.54350000  1.0 -0.3662989998
O  O60  1  0.04500000  0.58500000  0.81280000  1.0 -0.0584769064
O  O61  1  0.95030000  0.61680000  0.89480000  1.0 0.0226324715
O  O62  1  0.87910000  0.58180000  0.80920000  1.0 -0.0711348794
O  O63  1  0.85750000  0.61970000  0.89460000  1.0 0.0226324715
O  O64  1  0.53600000  0.91740000  0.36740000  1.0 -0.401642915
O  O65  1  0.23100000  0.91990000  0.38860000  1.0 -0.3386021742
O  O66  1  0.59130000  0.19064000  0.14758000  1.0 -0.5742368662
O  O67  1  0.56140000  0.28978000  0.13896000  1.0 -0.624087576
O  O68  1  0.41020000  0.27269000  0.44689000  1.0 -0.640232321
O  O69  1  0.72540000  0.25879000  0.44767000  1.0 -0.640232321
O  O70  1  0.04460000  0.16478000  0.98005000  1.0 -0.6119235643
O  O71  1  0.78470000  0.14760000  0.03672000  1.0 -0.5976967403
O  O72  1  0.38210000  0.14030000  0.04350000  1.0 -0.363411264
O  O73  1  0.45500000  0.41500000  0.31280000  1.0 -0.0584769064
O  O74  1  0.54970000  0.38320000  0.39480000  1.0 0.0226324715
O  O75  1  0.62090000  0.41820000  0.30920000  1.0 -0.0711348794
O  O76  1  0.64250000  0.38030000  0.39460000  1.0 0.0226324715
O  O77  1  0.96400000  0.08260000  0.86740000  1.0 -0.401642915
O  O78  1  0.26900000  0.08010000  0.88860000  1.0 -0.3386021742
O  O79  1  0.09130000  0.30936000  0.85242000  1.0 -0.5742368662
O  O80  1  0.06140000  0.21022000  0.86104000  1.0 -0.624087576
O  O81  1  0.91020000  0.22731000  0.55311000  1.0 -0.640232321
O  O82  1  0.22540000  0.24121000  0.55233000  1.0 -0.640232321
O  O83  1  0.54460000  0.33522000  0.01995000  1.0 -0.6119235643
O  O84  1  0.28470000  0.35240000  0.96328000  1.0 -0.5976967403
O  O85  1  0.88210000  0.35970000  0.95650000  1.0 -0.363411264
O  O86  1  0.95500000  0.08500000  0.68720000  1.0 -0.0584769064
O  O87  1  0.04970000  0.11680000  0.60520000  1.0 0.0226324715
O  O88  1  0.12090000  0.08180000  0.69080000  1.0 -0.0711348794
O  O89  1  0.14250000  0.11970000  0.60540000  1.0 0.0226324715
O  O90  1  0.46400000  0.41740000  0.13260000  1.0 -0.401642915
O  O91  1  0.76900000  0.41990000  0.11140000  1.0 -0.3386021742
O  O92  1  0.40870000  0.69064000  0.35242000  1.0 -0.5742368662
O  O93  1  0.43860000  0.78978000  0.36104000  1.0 -0.624087576
O  O94  1  0.58980000  0.77269000  0.05311000  1.0 -0.640232321
O  O95  1  0.27460000  0.75879000  0.05233000  1.0 -0.640232321
O  O96  1  0.95540000  0.66478000  0.51995000  1.0 -0.6119235643
O  O97  1  0.21530000  0.64760000  0.46328000  1.0 -0.5976967403
O  O98  1  0.61790000  0.64030000  0.45650000  1.0 -0.363411264
O  O99  1  0.54500000  0.91500000  0.18720000  1.0 -0.0584769064
O  O100  1  0.45030000  0.88320000  0.10520000  1.0 0.0226324715
O  O101  1  0.37910000  0.91820000  0.19080000  1.0 -0.0711348794
O  O102  1  0.35750000  0.88030000  0.10540000  1.0 0.0226324715
O  O103  1  0.03600000  0.58260000  0.63260000  1.0 -0.401642915
O  O104  1  0.73100000  0.58010000  0.61140000  1.0 -0.3386021742
