# DDEC6 charges by PACMAN v1.1 (https://github.com/mtap-research/PACMAN-charge/)
data_BATSOH_FSR_pacman
_symmetry_space_group_name_H-M   'P 1'
_cell_length_a   6.84510000
_cell_length_b   21.73100000
_cell_length_c   22.93600000
_cell_angle_alpha   90.00000000
_cell_angle_beta   90.00000000
_cell_angle_gamma   90.00000000
_symmetry_Int_Tables_number   1
_chemical_formula_structural   TbH5C12N3O13
_chemical_formula_sum   'Tb8 H40 C96 N24 O104'
_cell_volume   3411.74991074
_cell_formula_units_Z   8
loop_
 _symmetry_equiv_pos_site_id
 _symmetry_equiv_pos_as_xyz
  1  'x, y, z'
loop_
 _atom_site_type_symbol
 _atom_site_label
 _atom_site_symmetry_multiplicity
 _atom_site_fract_x
 _atom_site_fract_y
 _atom_site_fract_z
 _atom_site_occupancy
 _atom_site_charge
Tb  Tb1  1  0.42860000  0.76750000  0.54879000  1.0 2.0385157567
Tb  Tb2  1  0.07140000  0.23250000  0.04879000  1.0 2.0385157567
Tb  Tb3  1  0.57140000  0.26750000  0.95121000  1.0 2.0385157567
Tb  Tb4  1  0.92860000  0.73250000  0.45121000  1.0 2.0385157567
Tb  Tb5  1  0.57140000  0.23250000  0.45121000  1.0 2.0385157567
Tb  Tb6  1  0.92860000  0.76750000  0.95121000  1.0 2.0385157567
Tb  Tb7  1  0.42860000  0.73250000  0.04879000  1.0 2.0385157567
Tb  Tb8  1  0.07140000  0.26750000  0.54879000  1.0 2.0385157567
H  H1  1  0.68400000  0.53990000  0.42490000  1.0 0.1485089274
H  H2  1  0.35200000  0.56600000  0.56300000  1.0 0.1956819919
H  H3  1  0.41570000  0.84020000  0.75350000  1.0 0.1379150816
H  H4  1  0.44070000  0.65700000  0.73520000  1.0 0.1164886308
H  H5  1  0.42000000  0.82990000  0.85410000  1.0 0.1485089274
H  H6  1  0.81600000  0.46010000  0.92490000  1.0 0.1485089274
H  H7  1  0.14800000  0.43400000  0.06300000  1.0 0.1956819919
H  H8  1  0.08430000  0.15980000  0.25350000  1.0 0.1379150816
H  H9  1  0.05930000  0.34300000  0.23520000  1.0 0.1164886308
H  H10  1  0.08000000  0.17010000  0.35410000  1.0 0.1485089274
H  H11  1  0.31600000  0.03990000  0.07510000  1.0 0.1485089274
H  H12  1  0.64800000  0.06600000  0.93700000  1.0 0.1956819919
H  H13  1  0.58430000  0.34020000  0.74650000  1.0 0.1379150816
H  H14  1  0.55930000  0.15700000  0.76480000  1.0 0.1164886308
H  H15  1  0.58000000  0.32990000  0.64590000  1.0 0.1485089274
H  H16  1  0.18400000  0.96010000  0.57510000  1.0 0.1485089274
H  H17  1  0.85200000  0.93400000  0.43700000  1.0 0.1956819919
H  H18  1  0.91570000  0.65980000  0.24650000  1.0 0.1379150816
H  H19  1  0.94070000  0.84300000  0.26480000  1.0 0.1164886308
H  H20  1  0.92000000  0.67010000  0.14590000  1.0 0.1485089274
H  H21  1  0.31600000  0.46010000  0.57510000  1.0 0.1485089274
H  H22  1  0.64800000  0.43400000  0.43700000  1.0 0.1956819919
H  H23  1  0.58430000  0.15980000  0.24650000  1.0 0.1379150816
H  H24  1  0.55930000  0.34300000  0.26480000  1.0 0.1164886308
H  H25  1  0.58000000  0.17010000  0.14590000  1.0 0.1485089274
H  H26  1  0.18400000  0.53990000  0.07510000  1.0 0.1485089274
H  H27  1  0.85200000  0.56600000  0.93700000  1.0 0.1956819919
H  H28  1  0.91570000  0.84020000  0.74650000  1.0 0.1379150816
H  H29  1  0.94070000  0.65700000  0.76480000  1.0 0.1164886308
H  H30  1  0.92000000  0.82990000  0.64590000  1.0 0.1379150816
H  H31  1  0.68400000  0.96010000  0.92490000  1.0 0.1485089274
H  H32  1  0.35200000  0.93400000  0.06300000  1.0 0.1956819919
H  H33  1  0.41570000  0.65980000  0.25350000  1.0 0.1379150816
H  H34  1  0.44070000  0.84300000  0.23520000  1.0 0.1164886308
H  H35  1  0.42000000  0.67010000  0.35410000  1.0 0.1485089274
H  H36  1  0.81600000  0.03990000  0.42490000  1.0 0.1485089274
H  H37  1  0.14800000  0.06600000  0.56300000  1.0 0.1956819919
H  H38  1  0.08430000  0.34020000  0.75350000  1.0 0.1379150816
H  H39  1  0.05930000  0.15700000  0.73520000  1.0 0.1164886308
H  H40  1  0.08000000  0.32990000  0.85410000  1.0 0.1485089274
C  C1  1  0.57740000  0.63076000  0.49350000  1.0 0.6216990527
C  C2  1  0.42610000  0.75670000  0.66936000  1.0 0.5544669133
C  C3  1  0.54090000  0.56264000  0.49770000  1.0 -0.0215307701
C  C4  1  0.42800000  0.75030000  0.73449000  1.0 0.0058352846
C  C5  1  0.61020000  0.52410000  0.45540000  1.0 -0.1329879976
C  C6  1  0.42860000  0.53820000  0.54210000  1.0 -0.0425869223
C  C7  1  0.42140000  0.80120000  0.77000000  1.0 -0.0937911692
C  C8  1  0.43590000  0.69190000  0.75870000  1.0 -0.2822713676
C  C9  1  0.42320000  0.79510000  0.83050000  1.0 -0.0826432092
C  C10  1  0.43630000  0.68680000  0.81870000  1.0 0.0656854239
C  C11  1  0.42960000  0.73700000  0.85543000  1.0 -0.0974849892
C  C12  1  0.43300000  0.73342000  0.92082000  1.0 0.558005951
C  C13  1  0.92260000  0.36924000  0.99350000  1.0 0.6216990527
C  C14  1  0.07390000  0.24330000  0.16936000  1.0 0.5544669133
C  C15  1  0.95910000  0.43736000  0.99770000  1.0 -0.0215307701
C  C16  1  0.07200000  0.24970000  0.23449000  1.0 0.0058352846
C  C17  1  0.88980000  0.47590000  0.95540000  1.0 -0.1329879976
C  C18  1  0.07140000  0.46180000  0.04210000  1.0 -0.0425869223
C  C19  1  0.07860000  0.19880000  0.27000000  1.0 -0.0937911692
C  C20  1  0.06410000  0.30810000  0.25870000  1.0 -0.2822713676
C  C21  1  0.07680000  0.20490000  0.33050000  1.0 -0.0826432092
C  C22  1  0.06370000  0.31320000  0.31870000  1.0 0.0656854239
C  C23  1  0.07040000  0.26300000  0.35543000  1.0 -0.0974849892
C  C24  1  0.06700000  0.26658000  0.42082000  1.0 0.558005951
C  C25  1  0.42260000  0.13076000  0.00650000  1.0 0.6216990527
C  C26  1  0.57390000  0.25670000  0.83064000  1.0 0.5544669133
C  C27  1  0.45910000  0.06264000  0.00230000  1.0 -0.0215307701
C  C28  1  0.57200000  0.25030000  0.76551000  1.0 0.0058352846
C  C29  1  0.38980000  0.02410000  0.04460000  1.0 -0.1329879976
C  C30  1  0.57140000  0.03820000  0.95790000  1.0 -0.0425869223
C  C31  1  0.57860000  0.30120000  0.73000000  1.0 -0.0937911692
C  C32  1  0.56410000  0.19190000  0.74130000  1.0 -0.2822713676
C  C33  1  0.57680000  0.29510000  0.66950000  1.0 -0.0826432092
C  C34  1  0.56370000  0.18680000  0.68130000  1.0 0.0656854239
C  C35  1  0.57040000  0.23700000  0.64457000  1.0 -0.0974849892
C  C36  1  0.56700000  0.23342000  0.57918000  1.0 0.558005951
C  C37  1  0.07740000  0.86924000  0.50650000  1.0 0.6216990527
C  C38  1  0.92610000  0.74330000  0.33064000  1.0 0.558005951
C  C39  1  0.04090000  0.93736000  0.50230000  1.0 -0.0215307701
C  C40  1  0.92800000  0.74970000  0.26551000  1.0 0.0058352846
C  C41  1  0.11020000  0.97590000  0.54460000  1.0 -0.1329879976
C  C42  1  0.92860000  0.96180000  0.45790000  1.0 -0.0425869223
C  C43  1  0.92140000  0.69880000  0.23000000  1.0 -0.0937911692
C  C44  1  0.93590000  0.80810000  0.24130000  1.0 -0.2822713676
C  C45  1  0.92320000  0.70490000  0.16950000  1.0 -0.0826432092
C  C46  1  0.93630000  0.81320000  0.18130000  1.0 0.0656854239
C  C47  1  0.92960000  0.76300000  0.14457000  1.0 -0.0974849892
C  C48  1  0.93300000  0.76658000  0.07918000  1.0 0.558005951
C  C49  1  0.42260000  0.36924000  0.50650000  1.0 0.6216990527
C  C50  1  0.57390000  0.24330000  0.33064000  1.0 0.558005951
C  C51  1  0.45910000  0.43736000  0.50230000  1.0 -0.0215307701
C  C52  1  0.57200000  0.24970000  0.26551000  1.0 0.0058352846
C  C53  1  0.38980000  0.47590000  0.54460000  1.0 -0.1329879976
C  C54  1  0.57140000  0.46180000  0.45790000  1.0 -0.0425869223
C  C55  1  0.57860000  0.19880000  0.23000000  1.0 -0.0937911692
C  C56  1  0.56410000  0.30810000  0.24130000  1.0 -0.2822713676
C  C57  1  0.57680000  0.20490000  0.16950000  1.0 -0.0826432092
C  C58  1  0.56370000  0.31320000  0.18130000  1.0 0.0656854239
C  C59  1  0.57040000  0.26300000  0.14457000  1.0 -0.0974849892
C  C60  1  0.56700000  0.26658000  0.07918000  1.0 0.558005951
C  C61  1  0.07740000  0.63076000  0.00650000  1.0 0.6216990527
C  C62  1  0.92610000  0.75670000  0.83064000  1.0 0.5544669133
C  C63  1  0.04090000  0.56264000  0.00230000  1.0 -0.0215307701
C  C64  1  0.92800000  0.75030000  0.76551000  1.0 0.0058352846
C  C65  1  0.11020000  0.52410000  0.04460000  1.0 -0.1329879976
C  C66  1  0.92860000  0.53820000  0.95790000  1.0 -0.0425869223
C  C67  1  0.92140000  0.80120000  0.73000000  1.0 -0.0937911692
C  C68  1  0.93590000  0.69190000  0.74130000  1.0 -0.2822713676
C  C69  1  0.92320000  0.79510000  0.66950000  1.0 -0.0826432092
C  C70  1  0.93630000  0.68680000  0.68130000  1.0 0.0656854239
C  C71  1  0.92960000  0.73700000  0.64457000  1.0 -0.0974849892
C  C72  1  0.93300000  0.73342000  0.57918000  1.0 0.558005951
C  C73  1  0.57740000  0.86924000  0.99350000  1.0 0.6216990527
C  C74  1  0.42610000  0.74330000  0.16936000  1.0 0.5544669133
C  C75  1  0.54090000  0.93736000  0.99770000  1.0 -0.0215307701
C  C76  1  0.42800000  0.74970000  0.23449000  1.0 0.0058352846
C  C77  1  0.61020000  0.97590000  0.95540000  1.0 -0.1329879976
C  C78  1  0.42860000  0.96180000  0.04210000  1.0 -0.0425869223
C  C79  1  0.42140000  0.69880000  0.27000000  1.0 -0.0937911692
C  C80  1  0.43590000  0.80810000  0.25870000  1.0 -0.2822713676
C  C81  1  0.42320000  0.70490000  0.33050000  1.0 -0.0826432092
C  C82  1  0.43630000  0.81320000  0.31870000  1.0 0.0656854239
C  C83  1  0.42960000  0.76300000  0.35543000  1.0 -0.0974849892
C  C84  1  0.43300000  0.76658000  0.42082000  1.0 0.558005951
C  C85  1  0.92260000  0.13076000  0.49350000  1.0 0.6216990527
C  C86  1  0.07390000  0.25670000  0.66936000  1.0 0.5544669133
C  C87  1  0.95910000  0.06264000  0.49770000  1.0 -0.0215307701
C  C88  1  0.07200000  0.25030000  0.73449000  1.0 0.0058352846
C  C89  1  0.88980000  0.02410000  0.45540000  1.0 -0.1329879976
C  C90  1  0.07140000  0.03820000  0.54210000  1.0 -0.0425869223
C  C91  1  0.07860000  0.30120000  0.77000000  1.0 -0.0937911692
C  C92  1  0.06410000  0.19190000  0.75870000  1.0 -0.2822713676
C  C93  1  0.07680000  0.29510000  0.83050000  1.0 -0.0826432092
C  C94  1  0.06370000  0.18680000  0.81870000  1.0 0.0656854239
C  C95  1  0.07040000  0.23700000  0.85543000  1.0 -0.0974849892
C  C96  1  0.06700000  0.23342000  0.92082000  1.0 0.558005951
N  N1  1  0.48620000  0.62490000  0.84370000  1.0 0.3374764219
N  N2  1  0.38010000  0.87490000  0.34260000  1.0 0.3374764219
N  N3  1  0.59800000  0.43020000  0.39800000  1.0 0.2917473169
N  N4  1  0.01380000  0.37510000  0.34370000  1.0 0.3374764219
N  N5  1  0.11990000  0.12510000  0.84260000  1.0 0.3374764219
N  N6  1  0.90200000  0.56980000  0.89800000  1.0 0.2952939373
N  N7  1  0.51380000  0.12490000  0.65630000  1.0 0.3374764219
N  N8  1  0.61990000  0.37490000  0.15740000  1.0 0.3374764219
N  N9  1  0.40200000  0.93020000  0.10200000  1.0 0.2917473169
N  N10  1  0.98620000  0.87510000  0.15630000  1.0 0.3374764219
N  N11  1  0.88010000  0.62510000  0.65740000  1.0 0.3374764219
N  N12  1  0.09800000  0.06980000  0.60200000  1.0 0.2917473169
N  N13  1  0.51380000  0.37510000  0.15630000  1.0 0.3374764219
N  N14  1  0.61990000  0.12510000  0.65740000  1.0 0.3374764219
N  N15  1  0.40200000  0.56980000  0.60200000  1.0 0.2917473169
N  N16  1  0.98620000  0.62490000  0.65630000  1.0 0.3374764219
N  N17  1  0.88010000  0.87490000  0.15740000  1.0 0.3374764219
N  N18  1  0.09800000  0.43020000  0.10200000  1.0 0.2917473169
N  N19  1  0.48620000  0.87510000  0.34370000  1.0 0.3374764219
N  N20  1  0.38010000  0.62510000  0.84260000  1.0 0.3374764219
N  N21  1  0.59800000  0.06980000  0.89800000  1.0 0.2917473169
N  N22  1  0.01380000  0.12490000  0.84370000  1.0 0.3374764219
N  N23  1  0.11990000  0.37490000  0.34260000  1.0 0.3374764219
N  N24  1  0.90200000  0.93020000  0.39800000  1.0 0.2952939373
O  O1  1  0.59270000  0.77245000  0.44715000  1.0 -0.6292536195
O  O2  1  0.27620000  0.75905000  0.44811000  1.0 -0.6292536195
O  O3  1  0.45740000  0.66518000  0.51976000  1.0 -0.5978885788
O  O4  1  0.62010000  0.85865000  0.54360000  1.0 -0.3557239968
O  O5  1  0.21930000  0.85195000  0.53659000  1.0 -0.5884296569
O  O6  1  0.44100000  0.70992000  0.63792000  1.0 -0.6166183699
O  O7  1  0.40870000  0.80942000  0.64648000  1.0 -0.5701641041
O  O8  1  0.45240000  0.61630000  0.89470000  1.0 0.0296339412
O  O9  1  0.54870000  0.58420000  0.81260000  1.0 -0.050224417
O  O10  1  0.38460000  0.91900000  0.30900000  1.0 -0.0689978126
O  O11  1  0.36480000  0.88090000  0.39460000  1.0 0.0296339412
O  O12  1  0.45700000  0.41610000  0.36660000  1.0 -0.4326813343
O  O13  1  0.76900000  0.41870000  0.38790000  1.0 -0.3291790011
O  O14  1  0.90730000  0.22755000  0.94715000  1.0 -0.6292536195
O  O15  1  0.22380000  0.24095000  0.94811000  1.0 -0.6292536195
O  O16  1  0.04260000  0.33482000  0.01976000  1.0 -0.5978885788
O  O17  1  0.87990000  0.14135000  0.04360000  1.0 -0.3536745166
O  O18  1  0.28070000  0.14805000  0.03659000  1.0 -0.5884296569
O  O19  1  0.05900000  0.29008000  0.13792000  1.0 -0.6166183699
O  O20  1  0.09130000  0.19058000  0.14648000  1.0 -0.5701641041
O  O21  1  0.04760000  0.38370000  0.39470000  1.0 0.0296339412
O  O22  1  0.95130000  0.41580000  0.31260000  1.0 -0.050224417
O  O23  1  0.11540000  0.08100000  0.80900000  1.0 -0.0689978126
O  O24  1  0.13520000  0.11910000  0.89460000  1.0 0.0296339412
O  O25  1  0.04300000  0.58390000  0.86660000  1.0 -0.4326813343
O  O26  1  0.73100000  0.58130000  0.88790000  1.0 -0.3291790011
O  O27  1  0.40730000  0.27245000  0.05285000  1.0 -0.6292536195
O  O28  1  0.72380000  0.25905000  0.05189000  1.0 -0.6292536195
O  O29  1  0.54260000  0.16518000  0.98024000  1.0 -0.5978885788
O  O30  1  0.37990000  0.35865000  0.95640000  1.0 -0.3536745166
O  O31  1  0.78070000  0.35195000  0.96341000  1.0 -0.5884296569
O  O32  1  0.55900000  0.20992000  0.86208000  1.0 -0.6166183699
O  O33  1  0.59130000  0.30942000  0.85352000  1.0 -0.5701641041
O  O34  1  0.54760000  0.11630000  0.60530000  1.0 0.0296339412
O  O35  1  0.45130000  0.08420000  0.68740000  1.0 -0.050224417
O  O36  1  0.61540000  0.41900000  0.19100000  1.0 -0.0689978126
O  O37  1  0.63520000  0.38090000  0.10540000  1.0 0.0296339412
O  O38  1  0.54300000  0.91610000  0.13340000  1.0 -0.4326813343
O  O39  1  0.23100000  0.91870000  0.11210000  1.0 -0.3291790011
O  O40  1  0.09270000  0.72755000  0.55285000  1.0 -0.6292536195
O  O41  1  0.77620000  0.74095000  0.55189000  1.0 -0.6292536195
O  O42  1  0.95740000  0.83482000  0.48024000  1.0 -0.5978885788
O  O43  1  0.12010000  0.64135000  0.45640000  1.0 -0.3536745166
O  O44  1  0.71930000  0.64805000  0.46341000  1.0 -0.5884296569
O  O45  1  0.94100000  0.79008000  0.36208000  1.0 -0.6166183699
O  O46  1  0.90870000  0.69058000  0.35352000  1.0 -0.5701641041
O  O47  1  0.95240000  0.88370000  0.10530000  1.0 0.0354752008
O  O48  1  0.04870000  0.91580000  0.18740000  1.0 -0.050224417
O  O49  1  0.88460000  0.58100000  0.69100000  1.0 -0.0689978126
O  O50  1  0.86480000  0.61910000  0.60540000  1.0 0.0296339412
O  O51  1  0.95700000  0.08390000  0.63340000  1.0 -0.4326813343
O  O52  1  0.26900000  0.08130000  0.61210000  1.0 -0.3291790011
O  O53  1  0.40730000  0.22755000  0.55285000  1.0 -0.6292536195
O  O54  1  0.72380000  0.24095000  0.55189000  1.0 -0.6292536195
O  O55  1  0.54260000  0.33482000  0.48024000  1.0 -0.5978885788
O  O56  1  0.37990000  0.14135000  0.45640000  1.0 -0.3536745166
O  O57  1  0.78070000  0.14805000  0.46341000  1.0 -0.5884296569
O  O58  1  0.55900000  0.29008000  0.36208000  1.0 -0.6166183699
O  O59  1  0.59130000  0.19058000  0.35352000  1.0 -0.5701641041
O  O60  1  0.54760000  0.38370000  0.10530000  1.0 0.0354752008
O  O61  1  0.45130000  0.41580000  0.18740000  1.0 -0.050224417
O  O62  1  0.61540000  0.08100000  0.69100000  1.0 -0.0689978126
O  O63  1  0.63520000  0.11910000  0.60540000  1.0 0.0296339412
O  O64  1  0.54300000  0.58390000  0.63340000  1.0 -0.4326813343
O  O65  1  0.23100000  0.58130000  0.61210000  1.0 -0.3291790011
O  O66  1  0.09270000  0.77245000  0.05285000  1.0 -0.6292536195
O  O67  1  0.77620000  0.75905000  0.05189000  1.0 -0.6292536195
O  O68  1  0.95740000  0.66518000  0.98024000  1.0 -0.5978885788
O  O69  1  0.12010000  0.85865000  0.95640000  1.0 -0.3536745166
O  O70  1  0.71930000  0.85195000  0.96341000  1.0 -0.5884296569
O  O71  1  0.94100000  0.70992000  0.86208000  1.0 -0.6166183699
O  O72  1  0.90870000  0.80942000  0.85352000  1.0 -0.5701641041
O  O73  1  0.95240000  0.61630000  0.60530000  1.0 0.0296339412
O  O74  1  0.04870000  0.58420000  0.68740000  1.0 -0.050224417
O  O75  1  0.88460000  0.91900000  0.19100000  1.0 -0.0689978126
O  O76  1  0.86480000  0.88090000  0.10540000  1.0 0.0296339412
O  O77  1  0.95700000  0.41610000  0.13340000  1.0 -0.4326813343
O  O78  1  0.26900000  0.41870000  0.11210000  1.0 -0.3291790011
O  O79  1  0.59270000  0.72755000  0.94715000  1.0 -0.6292536195
O  O80  1  0.27620000  0.74095000  0.94811000  1.0 -0.6292536195
O  O81  1  0.45740000  0.83482000  0.01976000  1.0 -0.5978885788
O  O82  1  0.62010000  0.64135000  0.04360000  1.0 -0.3536745166
O  O83  1  0.21930000  0.64805000  0.03659000  1.0 -0.5884296569
O  O84  1  0.44100000  0.79008000  0.13792000  1.0 -0.6166183699
O  O85  1  0.40870000  0.69058000  0.14648000  1.0 -0.5701641041
O  O86  1  0.45240000  0.88370000  0.39470000  1.0 0.0354752008
O  O87  1  0.54870000  0.91580000  0.31260000  1.0 -0.050224417
O  O88  1  0.38460000  0.58100000  0.80900000  1.0 -0.0689978126
O  O89  1  0.36480000  0.61910000  0.89460000  1.0 0.0296339412
O  O90  1  0.45700000  0.08390000  0.86660000  1.0 -0.4326813343
O  O91  1  0.76900000  0.08130000  0.88790000  1.0 -0.3291790011
O  O92  1  0.90730000  0.27245000  0.44715000  1.0 -0.6292536195
O  O93  1  0.22380000  0.25905000  0.44811000  1.0 -0.6292536195
O  O94  1  0.04260000  0.16518000  0.51976000  1.0 -0.5978885788
O  O95  1  0.87990000  0.35865000  0.54360000  1.0 -0.3536745166
O  O96  1  0.28070000  0.35195000  0.53659000  1.0 -0.5884296569
O  O97  1  0.05900000  0.20992000  0.63792000  1.0 -0.6166183699
O  O98  1  0.09130000  0.30942000  0.64648000  1.0 -0.5701641041
O  O99  1  0.04760000  0.11630000  0.89470000  1.0 0.0296339412
O  O100  1  0.95130000  0.08420000  0.81260000  1.0 -0.050224417
O  O101  1  0.11540000  0.41900000  0.30900000  1.0 -0.0689978126
O  O102  1  0.13520000  0.38090000  0.39460000  1.0 0.0296339412
O  O103  1  0.04300000  0.91610000  0.36660000  1.0 -0.4326813343
O  O104  1  0.73100000  0.91870000  0.38790000  1.0 -0.3291790011
