# DDEC6 charges by PACMAN v1.1 (https://github.com/mtap-research/PACMAN-charge/)
data_BAXFIR02_ion_pacman
_symmetry_space_group_name_H-M   'P 1'
_cell_length_a   8.03060000
_cell_length_b   19.40800000
_cell_length_c   11.68090000
_cell_angle_alpha   90.00000000
_cell_angle_beta   130.55100000
_cell_angle_gamma   90.00000000
_symmetry_Int_Tables_number   1
_chemical_formula_structural   FeH12C12N24(ClO4)2
_chemical_formula_sum   'Fe2 H24 C24 N48 Cl4 O16'
_cell_volume   1383.31197592
_cell_formula_units_Z   2
loop_
 _symmetry_equiv_pos_site_id
 _symmetry_equiv_pos_as_xyz
  1  'x, y, z'
loop_
 _atom_site_type_symbol
 _atom_site_label
 _atom_site_symmetry_multiplicity
 _atom_site_fract_x
 _atom_site_fract_y
 _atom_site_fract_z
 _atom_site_occupancy
 _atom_site_charge
Fe  Fe1  1  0.00000000  0.00000000  0.00000000  1.0 0.4100046026
Fe  Fe2  1  0.00000000  0.50000000  0.50000000  1.0 0.4100046026
H  H1  1  0.86930000  0.14330000  0.83540000  1.0 0.1293734181
H  H2  1  0.13070000  0.64330000  0.66460000  1.0 0.1293734181
H  H3  1  0.13070000  0.85670000  0.16460000  1.0 0.1293734181
H  H4  1  0.86930000  0.35670000  0.33540000  1.0 0.1293734181
H  H5  1  0.42610000  0.16230000  0.87700000  1.0 0.1179414223
H  H6  1  0.57390000  0.66230000  0.62300000  1.0 0.1179414223
H  H7  1  0.57390000  0.83770000  0.12300000  1.0 0.1179414223
H  H8  1  0.42610000  0.33770000  0.37700000  1.0 0.1179414223
H  H9  1  0.18310000  0.36720000  0.70210000  1.0 0.1293734181
H  H10  1  0.81690000  0.86720000  0.79790000  1.0 0.1293734181
H  H11  1  0.81690000  0.63280000  0.29790000  1.0 0.1293734181
H  H12  1  0.18310000  0.13280000  0.20210000  1.0 0.1293734181
H  H13  1  0.63180000  0.35370000  0.66690000  1.0 0.1179414223
H  H14  1  0.36820000  0.85370000  0.83310000  1.0 0.1179414223
H  H15  1  0.36820000  0.64630000  0.33310000  1.0 0.1179414223
H  H16  1  0.63180000  0.14630000  0.16690000  1.0 0.1179414223
H  H17  1  0.24660000  0.00220000  0.85290000  1.0 0.1293734181
H  H18  1  0.75340000  0.50220000  0.64710000  1.0 0.1293734181
H  H19  1  0.75340000  0.99780000  0.14710000  1.0 0.1293734181
H  H20  1  0.24660000  0.49780000  0.35290000  1.0 0.1293734181
H  H21  1  0.64300000  0.00360000  0.46310000  1.0 0.1179414223
H  H22  1  0.35700000  0.50360000  0.03690000  1.0 0.1179414223
H  H23  1  0.35700000  0.99640000  0.53690000  1.0 0.1179414223
H  H24  1  0.64300000  0.49640000  0.96310000  1.0 0.1179414223
C  C1  1  0.78050000  0.13460000  0.85880000  1.0 0.0805904312
C  C2  1  0.21950000  0.63460000  0.64120000  1.0 0.0805904312
C  C3  1  0.21950000  0.86540000  0.14120000  1.0 0.0805904312
C  C4  1  0.78050000  0.36540000  0.35880000  1.0 0.0805904312
C  C5  1  0.53810000  0.14500000  0.88130000  1.0 0.0739354931
C  C6  1  0.46190000  0.64500000  0.61870000  1.0 0.0739354931
C  C7  1  0.46190000  0.85500000  0.11870000  1.0 0.0739354931
C  C8  1  0.53810000  0.35500000  0.38130000  1.0 0.0739354931
C  C9  1  0.27130000  0.37680000  0.67860000  1.0 0.0805904312
C  C10  1  0.72870000  0.87680000  0.82140000  1.0 0.0805904312
C  C11  1  0.72870000  0.62320000  0.32140000  1.0 0.0805904312
C  C12  1  0.27130000  0.12320000  0.17860000  1.0 0.0805904312
C  C13  1  0.51680000  0.36980000  0.66030000  1.0 0.0739354931
C  C14  1  0.48320000  0.86980000  0.83970000  1.0 0.0739354931
C  C15  1  0.48320000  0.63020000  0.33970000  1.0 0.0739354931
C  C16  1  0.51680000  0.13020000  0.16030000  1.0 0.0739354931
C  C17  1  0.09440000  0.00270000  0.78060000  1.0 0.0805904312
C  C18  1  0.90560000  0.50270000  0.71940000  1.0 0.0805904312
C  C19  1  0.90560000  0.99730000  0.21940000  1.0 0.0805904312
C  C20  1  0.09440000  0.49730000  0.28060000  1.0 0.0805904312
C  C21  1  0.76110000  0.00370000  0.56630000  1.0 0.0739354931
C  C22  1  0.23890000  0.50370000  0.93370000  1.0 0.0739354931
C  C23  1  0.23890000  0.99630000  0.43370000  1.0 0.0739354931
C  C24  1  0.76110000  0.49630000  0.06630000  1.0 0.0739354931
N  N1  1  0.77980000  0.08010000  0.91600000  1.0 -0.112767948
N  N2  1  0.22020000  0.58010000  0.58400000  1.0 -0.112767948
N  N3  1  0.22020000  0.91990000  0.08400000  1.0 -0.112767948
N  N4  1  0.77980000  0.41990000  0.41600000  1.0 -0.112767948
N  N5  1  0.62460000  0.08630000  0.93020000  1.0 -0.1894360912
N  N6  1  0.37540000  0.58630000  0.56980000  1.0 -0.1894360912
N  N7  1  0.37540000  0.91370000  0.06980000  1.0 -0.1894360912
N  N8  1  0.62460000  0.41370000  0.43020000  1.0 -0.1894360912
N  N9  1  0.63290000  0.17830000  0.83670000  1.0 0.1179414223
N  N10  1  0.36710000  0.67830000  0.66330000  1.0 0.1179414223
N  N11  1  0.36710000  0.82170000  0.16330000  1.0 0.1179414223
N  N12  1  0.63290000  0.32170000  0.33670000  1.0 0.1179414223
N  N13  1  0.60150000  0.24340000  0.77610000  1.0 -0.0284958262
N  N14  1  0.39850000  0.74340000  0.72390000  1.0 -0.0284958262
N  N15  1  0.39850000  0.75660000  0.22390000  1.0 -0.0284958262
N  N16  1  0.60150000  0.25660000  0.27610000  1.0 -0.0284958262
N  N17  1  0.47090000  0.27450000  0.77760000  1.0 -0.0284958262
N  N18  1  0.52910000  0.77450000  0.72240000  1.0 -0.0284958262
N  N19  1  0.52910000  0.72550000  0.22240000  1.0 -0.0284958262
N  N20  1  0.47090000  0.22550000  0.27760000  1.0 -0.0284958262
N  N21  1  0.43820000  0.33810000  0.71770000  1.0 0.1293734181
N  N22  1  0.56180000  0.83810000  0.78230000  1.0 0.1293734181
N  N23  1  0.56180000  0.66190000  0.28230000  1.0 0.1293734181
N  N24  1  0.43820000  0.16190000  0.21770000  1.0 0.1293734181
N  N25  1  0.25040000  0.42910000  0.60440000  1.0 -0.1293821113
N  N26  1  0.74960000  0.92910000  0.89560000  1.0 -0.1293821113
N  N27  1  0.74960000  0.57090000  0.39560000  1.0 -0.1293821113
N  N28  1  0.25040000  0.07090000  0.10440000  1.0 -0.1293821113
N  N29  1  0.41200000  0.42520000  0.59550000  1.0 -0.2063768526
N  N30  1  0.58800000  0.92520000  0.90450000  1.0 -0.2063768526
N  N31  1  0.58800000  0.57480000  0.40450000  1.0 -0.2063768526
N  N32  1  0.41200000  0.07480000  0.09550000  1.0 -0.2063768526
N  N33  1  0.96170000  0.00360000  0.80720000  1.0 -0.1293821113
N  N34  1  0.03830000  0.50360000  0.69280000  1.0 -0.1293821113
N  N35  1  0.03830000  0.99640000  0.19280000  1.0 -0.1293821113
N  N36  1  0.96170000  0.49640000  0.30720000  1.0 -0.1293821113
N  N37  1  0.74750000  0.00490000  0.66830000  1.0 -0.1994125676
N  N38  1  0.25250000  0.50490000  0.83170000  1.0 -0.1994125676
N  N39  1  0.25250000  0.99510000  0.33170000  1.0 -0.1994125676
N  N40  1  0.74750000  0.49510000  0.16830000  1.0 -0.1994125676
N  N41  1  0.97620000  0.00250000  0.63180000  1.0 0.1179414223
N  N42  1  0.02380000  0.50250000  0.86820000  1.0 0.1179414223
N  N43  1  0.02380000  0.99750000  0.36820000  1.0 0.1179414223
N  N44  1  0.97620000  0.49750000  0.13180000  1.0 0.1179414223
N  N45  1  0.07120000  0.99990000  0.56940000  1.0 -0.0391629689
N  N46  1  0.92880000  0.49990000  0.93060000  1.0 -0.0391629689
N  N47  1  0.92880000  0.00010000  0.43060000  1.0 -0.0391629689
N  N48  1  0.07120000  0.50010000  0.06940000  1.0 -0.0391629689
Cl  Cl1  1  0.13260000  0.19159000  0.41270000  1.0 1.229555698
Cl  Cl2  1  0.86740000  0.69159000  0.08730000  1.0 1.229555698
Cl  Cl3  1  0.86740000  0.80841000  0.58730000  1.0 1.229555698
Cl  Cl4  1  0.13260000  0.30841000  0.91270000  1.0 1.229555698
O  O1  1  0.98280000  0.17530000  0.25860000  1.0 -0.5046363455
O  O2  1  0.33770000  0.16400000  0.47940000  1.0 -0.4896872324
O  O3  1  0.05220000  0.16550000  0.47820000  1.0 -0.4896872324
O  O4  1  0.15070000  0.26010000  0.43400000  1.0 -0.4584134427
O  O5  1  0.01720000  0.67530000  0.24140000  1.0 -0.5046363455
O  O6  1  0.66230000  0.66400000  0.02060000  1.0 -0.4896872324
O  O7  1  0.94780000  0.66550000  0.02180000  1.0 -0.4896872324
O  O8  1  0.84930000  0.76010000  0.06600000  1.0 -0.4584134427
O  O9  1  0.01720000  0.82470000  0.74140000  1.0 -0.5046363455
O  O10  1  0.66230000  0.83600000  0.52060000  1.0 -0.4896872324
O  O11  1  0.94780000  0.83450000  0.52180000  1.0 -0.4896872324
O  O12  1  0.84930000  0.73990000  0.56600000  1.0 -0.4584134427
O  O13  1  0.98280000  0.32470000  0.75860000  1.0 -0.5046363455
O  O14  1  0.33770000  0.33600000  0.97940000  1.0 -0.4896872324
O  O15  1  0.05220000  0.33450000  0.97820000  1.0 -0.4896872324
O  O16  1  0.15070000  0.23990000  0.93400000  1.0 -0.4584134427
