# DDEC6 charges by PACMAN v1.1 (https://github.com/mtap-research/PACMAN-charge/)
data_BAXFIR01_ion_pacman
_symmetry_space_group_name_H-M   'P 1'
_cell_length_a   8.02670000
_cell_length_b   19.43070000
_cell_length_c   11.68250000
_cell_angle_alpha   90.00000000
_cell_angle_beta   130.02400000
_cell_angle_gamma   90.00000000
_symmetry_Int_Tables_number   1
_chemical_formula_structural   FeH12C12N24(ClO4)2
_chemical_formula_sum   'Fe2 H24 C24 N48 Cl4 O16'
_cell_volume   1395.28370694
_cell_formula_units_Z   2
loop_
 _symmetry_equiv_pos_site_id
 _symmetry_equiv_pos_as_xyz
  1  'x, y, z'
loop_
 _atom_site_type_symbol
 _atom_site_label
 _atom_site_symmetry_multiplicity
 _atom_site_fract_x
 _atom_site_fract_y
 _atom_site_fract_z
 _atom_site_occupancy
 _atom_site_charge
Fe  Fe1  1  0.00000000  0.00000000  0.00000000  1.0 0.387166087
Fe  Fe2  1  0.00000000  0.50000000  0.50000000  1.0 0.387166087
H  H1  1  0.87590000  0.14210000  0.83440000  1.0 0.1401167329
H  H2  1  0.12410000  0.64210000  0.66560000  1.0 0.1401167329
H  H3  1  0.12410000  0.85790000  0.16560000  1.0 0.1401167329
H  H4  1  0.87590000  0.35790000  0.33440000  1.0 0.1401167329
H  H5  1  0.41190000  0.15700000  0.86690000  1.0 0.1223863591
H  H6  1  0.58810000  0.65700000  0.63310000  1.0 0.1223863591
H  H7  1  0.58810000  0.84300000  0.13310000  1.0 0.1223863591
H  H8  1  0.41190000  0.34300000  0.36690000  1.0 0.1223863591
H  H9  1  0.17060000  0.36730000  0.70260000  1.0 0.1401167329
H  H10  1  0.82940000  0.86730000  0.79740000  1.0 0.1401167329
H  H11  1  0.82940000  0.63270000  0.29740000  1.0 0.1401167329
H  H12  1  0.17060000  0.13270000  0.20260000  1.0 0.1401167329
H  H13  1  0.61040000  0.35110000  0.64830000  1.0 0.1223863591
H  H14  1  0.38960000  0.85110000  0.85170000  1.0 0.1223863591
H  H15  1  0.38960000  0.64890000  0.35170000  1.0 0.1223863591
H  H16  1  0.61040000  0.14890000  0.14830000  1.0 0.1223863591
H  H17  1  0.24970000  0.99920000  0.85980000  1.0 0.133339737
H  H18  1  0.75030000  0.49920000  0.64020000  1.0 0.133339737
H  H19  1  0.75030000  0.00080000  0.14020000  1.0 0.133339737
H  H20  1  0.24970000  0.50080000  0.35980000  1.0 0.133339737
H  H21  1  0.64120000  0.00870000  0.46640000  1.0 0.1223863591
H  H22  1  0.35880000  0.50870000  0.03360000  1.0 0.1223863591
H  H23  1  0.35880000  0.99130000  0.53360000  1.0 0.1223863591
H  H24  1  0.64120000  0.49130000  0.96640000  1.0 0.1223863591
C  C1  1  0.78360000  0.13250000  0.85690000  1.0 0.0797998209
C  C2  1  0.21640000  0.63250000  0.64310000  1.0 0.0797998209
C  C3  1  0.21640000  0.86750000  0.14310000  1.0 0.0797998209
C  C4  1  0.78360000  0.36750000  0.35690000  1.0 0.0797998209
C  C5  1  0.52970000  0.14010000  0.87440000  1.0 0.0677345436
C  C6  1  0.47030000  0.64010000  0.62560000  1.0 0.0677345436
C  C7  1  0.47030000  0.85990000  0.12560000  1.0 0.0677345436
C  C8  1  0.52970000  0.35990000  0.37440000  1.0 0.0677345436
C  C9  1  0.25640000  0.37640000  0.67460000  1.0 0.0797998209
C  C10  1  0.74360000  0.87640000  0.82540000  1.0 0.0797998209
C  C11  1  0.74360000  0.62360000  0.32540000  1.0 0.0797998209
C  C12  1  0.25640000  0.12360000  0.17460000  1.0 0.0797998209
C  C13  1  0.49630000  0.36810000  0.64480000  1.0 0.0797998209
C  C14  1  0.50370000  0.86810000  0.85520000  1.0 0.0797998209
C  C15  1  0.50370000  0.63190000  0.35520000  1.0 0.0797998209
C  C16  1  0.49630000  0.13190000  0.14480000  1.0 0.0797998209
C  C17  1  0.09570000  0.00160000  0.78640000  1.0 0.0797998209
C  C18  1  0.90430000  0.50160000  0.71360000  1.0 0.0797998209
C  C19  1  0.90430000  0.99840000  0.21360000  1.0 0.0797998209
C  C20  1  0.09570000  0.49840000  0.28640000  1.0 0.0797998209
C  C21  1  0.76090000  0.00680000  0.57070000  1.0 0.0797998209
C  C22  1  0.23910000  0.50680000  0.92930000  1.0 0.0797998209
C  C23  1  0.23910000  0.99320000  0.42930000  1.0 0.0797998209
C  C24  1  0.76090000  0.49320000  0.07070000  1.0 0.0797998209
N  N1  1  0.78660000  0.07640000  0.91940000  1.0 -0.0922409199
N  N2  1  0.21340000  0.57640000  0.58060000  1.0 -0.0922409199
N  N3  1  0.21340000  0.92360000  0.08060000  1.0 -0.0922409199
N  N4  1  0.78660000  0.42360000  0.41940000  1.0 -0.0922409199
N  N5  1  0.62250000  0.08080000  0.92910000  1.0 -0.1998784736
N  N6  1  0.37750000  0.58080000  0.57090000  1.0 -0.1998784736
N  N7  1  0.37750000  0.91920000  0.07090000  1.0 -0.1998784736
N  N8  1  0.62250000  0.41920000  0.42910000  1.0 -0.1998784736
N  N9  1  0.62740000  0.17480000  0.82920000  1.0 0.1146850552
N  N10  1  0.37260000  0.67480000  0.67080000  1.0 0.1146850552
N  N11  1  0.37260000  0.82520000  0.17080000  1.0 0.1146850552
N  N12  1  0.62740000  0.32520000  0.32920000  1.0 0.1146850552
N  N13  1  0.58990000  0.24020000  0.76750000  1.0 -0.0131180194
N  N14  1  0.41010000  0.74020000  0.73250000  1.0 -0.0131180194
N  N15  1  0.41010000  0.75980000  0.23250000  1.0 -0.0131180194
N  N16  1  0.58990000  0.25980000  0.26750000  1.0 -0.0131180194
N  N17  1  0.46270000  0.27230000  0.77420000  1.0 -0.0279204511
N  N18  1  0.53730000  0.77230000  0.72580000  1.0 -0.0279204511
N  N19  1  0.53730000  0.72770000  0.22580000  1.0 -0.0279204511
N  N20  1  0.46270000  0.22770000  0.27420000  1.0 -0.0279204511
N  N21  1  0.42330000  0.33700000  0.71040000  1.0 0.1223863591
N  N22  1  0.57670000  0.83700000  0.78960000  1.0 0.1223863591
N  N23  1  0.57670000  0.66300000  0.28960000  1.0 0.1223863591
N  N24  1  0.42330000  0.16300000  0.21040000  1.0 0.1223863591
N  N25  1  0.23200000  0.42890000  0.59550000  1.0 -0.1015826125
N  N26  1  0.76800000  0.92890000  0.90450000  1.0 -0.1015826125
N  N27  1  0.76800000  0.57110000  0.40450000  1.0 -0.1015826125
N  N28  1  0.23200000  0.07110000  0.09550000  1.0 -0.1015826125
N  N29  1  0.38810000  0.42400000  0.57740000  1.0 -0.2162203971
N  N30  1  0.61190000  0.92400000  0.92260000  1.0 -0.2162203971
N  N31  1  0.61190000  0.57600000  0.42260000  1.0 -0.2162203971
N  N32  1  0.38810000  0.07600000  0.07740000  1.0 -0.2162203971
N  N33  1  0.95960000  0.00330000  0.81240000  1.0 -0.0922409199
N  N34  1  0.04040000  0.50330000  0.68760000  1.0 -0.0922409199
N  N35  1  0.04040000  0.99670000  0.18760000  1.0 -0.0922409199
N  N36  1  0.95960000  0.49670000  0.31240000  1.0 -0.0922409199
N  N37  1  0.74610000  0.00680000  0.67500000  1.0 -0.1998784736
N  N38  1  0.25390000  0.50680000  0.82500000  1.0 -0.1998784736
N  N39  1  0.25390000  0.99320000  0.32500000  1.0 -0.2050969709
N  N40  1  0.74610000  0.49320000  0.17500000  1.0 -0.1998784736
N  N41  1  0.97640000  0.00370000  0.63420000  1.0 0.1020863134
N  N42  1  0.02360000  0.50370000  0.86580000  1.0 0.1020863134
N  N43  1  0.02360000  0.99630000  0.36580000  1.0 0.1020863134
N  N44  1  0.97640000  0.49630000  0.13420000  1.0 0.1020863134
N  N45  1  0.07200000  0.00080000  0.56910000  1.0 -0.0131180194
N  N46  1  0.92800000  0.50080000  0.93090000  1.0 -0.0131180194
N  N47  1  0.92800000  0.99920000  0.43090000  1.0 -0.0131180194
N  N48  1  0.07200000  0.49920000  0.06910000  1.0 -0.0131180194
Cl  Cl1  1  0.08587000  0.31717000  0.91117000  1.0 1.2707409155
Cl  Cl2  1  0.91413000  0.81717000  0.58883000  1.0 1.2707409155
Cl  Cl3  1  0.91413000  0.68283000  0.08883000  1.0 1.2707409155
Cl  Cl4  1  0.08587000  0.18283000  0.41117000  1.0 1.2707409155
O  O1  1  0.96710000  0.32070000  0.75290000  1.0 -0.5175836552
O  O2  1  0.28760000  0.35120000  0.98550000  1.0 -0.5147563327
O  O3  1  0.95040000  0.35190000  0.93900000  1.0 -0.5645485032
O  O4  1  0.11230000  0.24870000  0.95570000  1.0 -0.4958493818
O  O5  1  0.03290000  0.82070000  0.74710000  1.0 -0.5175836552
O  O6  1  0.71240000  0.85120000  0.51450000  1.0 -0.5175836552
O  O7  1  0.04960000  0.85190000  0.56100000  1.0 -0.5645485032
O  O8  1  0.88770000  0.74870000  0.54430000  1.0 -0.4958493818
O  O9  1  0.03290000  0.67930000  0.24710000  1.0 -0.5175836552
O  O10  1  0.71240000  0.64880000  0.01450000  1.0 -0.5147563327
O  O11  1  0.04960000  0.64810000  0.06100000  1.0 -0.5645485032
O  O12  1  0.88770000  0.75130000  0.04430000  1.0 -0.4958493818
O  O13  1  0.96710000  0.17930000  0.25290000  1.0 -0.5175836552
O  O14  1  0.28760000  0.14880000  0.48550000  1.0 -0.5147563327
O  O15  1  0.95040000  0.14810000  0.43900000  1.0 -0.5645485032
O  O16  1  0.11230000  0.25130000  0.45570000  1.0 -0.4958493818
