# DDEC6 charges by PACMAN v1.1 (https://github.com/mtap-research/PACMAN-charge/)
data_BAXFIR_ion_pacman
_symmetry_space_group_name_H-M   'P 1'
_cell_length_a   8.19010000
_cell_length_b   20.18690000
_cell_length_c   12.05170000
_cell_angle_alpha   90.00000000
_cell_angle_beta   131.95900000
_cell_angle_gamma   90.00000000
_symmetry_Int_Tables_number   1
_chemical_formula_structural   FeH12C12N24(ClO4)2
_chemical_formula_sum   'Fe2 H24 C24 N48 Cl4 O16'
_cell_volume   1481.69981988
_cell_formula_units_Z   2
loop_
 _symmetry_equiv_pos_site_id
 _symmetry_equiv_pos_as_xyz
  1  'x, y, z'
loop_
 _atom_site_type_symbol
 _atom_site_label
 _atom_site_symmetry_multiplicity
 _atom_site_fract_x
 _atom_site_fract_y
 _atom_site_fract_z
 _atom_site_occupancy
 _atom_site_charge
Fe  Fe1  1  0.00000000  0.00000000  0.00000000  1.0 0.4630137704
Fe  Fe2  1  0.00000000  0.50000000  0.50000000  1.0 0.4630137704
H  H1  1  0.85440000  0.14370000  0.82610000  1.0 0.1371400788
H  H2  1  0.14560000  0.64370000  0.67390000  1.0 0.1371400788
H  H3  1  0.14560000  0.85630000  0.17390000  1.0 0.1371400788
H  H4  1  0.85440000  0.35630000  0.32610000  1.0 0.1371400788
H  H5  1  0.43060000  0.16590000  0.87470000  1.0 0.1294273337
H  H6  1  0.56940000  0.66590000  0.62530000  1.0 0.1294273337
H  H7  1  0.56940000  0.83410000  0.12530000  1.0 0.1294273337
H  H8  1  0.43060000  0.33410000  0.37470000  1.0 0.1294273337
H  H9  1  0.18840000  0.36550000  0.69900000  1.0 0.1294273337
H  H10  1  0.81160000  0.86550000  0.80100000  1.0 0.1294273337
H  H11  1  0.81160000  0.63450000  0.30100000  1.0 0.1294273337
H  H12  1  0.18840000  0.13450000  0.19900000  1.0 0.1294273337
H  H13  1  0.63710000  0.35280000  0.67000000  1.0 0.1234669409
H  H14  1  0.36290000  0.85280000  0.83000000  1.0 0.1234669409
H  H15  1  0.36290000  0.64720000  0.33000000  1.0 0.1234669409
H  H16  1  0.63710000  0.14720000  0.17000000  1.0 0.1234669409
H  H17  1  0.24880000  0.00190000  0.85290000  1.0 0.1294273337
H  H18  1  0.75120000  0.50190000  0.64710000  1.0 0.1294273337
H  H19  1  0.75120000  0.99810000  0.14710000  1.0 0.1294273337
H  H20  1  0.24880000  0.49810000  0.35290000  1.0 0.1294273337
H  H21  1  0.64200000  0.00100000  0.46040000  1.0 0.1294273337
H  H22  1  0.35800000  0.50100000  0.03960000  1.0 0.1294273337
H  H23  1  0.35800000  0.99900000  0.53960000  1.0 0.1294273337
H  H24  1  0.64200000  0.49900000  0.96040000  1.0 0.1294273337
C  C1  1  0.77010000  0.13640000  0.85090000  1.0 0.0876783341
C  C2  1  0.22990000  0.63640000  0.64910000  1.0 0.0876783341
C  C3  1  0.22990000  0.86360000  0.14910000  1.0 0.0876783341
C  C4  1  0.77010000  0.36360000  0.35090000  1.0 0.0876783341
C  C5  1  0.53760000  0.14790000  0.87730000  1.0 0.0679478956
C  C6  1  0.46240000  0.64790000  0.62270000  1.0 0.0679478956
C  C7  1  0.46240000  0.85210000  0.12270000  1.0 0.0679478956
C  C8  1  0.53760000  0.35210000  0.37730000  1.0 0.0679478956
C  C9  1  0.27800000  0.37520000  0.67940000  1.0 0.0876783341
C  C10  1  0.72200000  0.87520000  0.82060000  1.0 0.0876783341
C  C11  1  0.72200000  0.62480000  0.32060000  1.0 0.0876783341
C  C12  1  0.27800000  0.12480000  0.17940000  1.0 0.0876783341
C  C13  1  0.52340000  0.36850000  0.66270000  1.0 0.0679478956
C  C14  1  0.47660000  0.86850000  0.83730000  1.0 0.0679478956
C  C15  1  0.47660000  0.63150000  0.33730000  1.0 0.0679478956
C  C16  1  0.52340000  0.13150000  0.16270000  1.0 0.0679478956
C  C17  1  0.09630000  0.00220000  0.77930000  1.0 0.0876783341
C  C18  1  0.90370000  0.50220000  0.72070000  1.0 0.0876783341
C  C19  1  0.90370000  0.99780000  0.22070000  1.0 0.0876783341
C  C20  1  0.09630000  0.49780000  0.27930000  1.0 0.0876783341
C  C21  1  0.76150000  0.00160000  0.56270000  1.0 0.0534014948
C  C22  1  0.23850000  0.50160000  0.93730000  1.0 0.0534014948
C  C23  1  0.23850000  0.99840000  0.43730000  1.0 0.0534014948
C  C24  1  0.76150000  0.49840000  0.06270000  1.0 0.0534014948
N  N1  1  0.76790000  0.08230000  0.90810000  1.0 -0.149233028
N  N2  1  0.23210000  0.58230000  0.59190000  1.0 -0.149233028
N  N3  1  0.23210000  0.91770000  0.09190000  1.0 -0.149233028
N  N4  1  0.76790000  0.41770000  0.40810000  1.0 -0.149233028
N  N5  1  0.61720000  0.08880000  0.92350000  1.0 -0.1862197608
N  N6  1  0.38280000  0.58880000  0.57650000  1.0 -0.1862197608
N  N7  1  0.38280000  0.91120000  0.07650000  1.0 -0.1862197608
N  N8  1  0.61720000  0.41120000  0.42350000  1.0 -0.1862197608
N  N9  1  0.63070000  0.17990000  0.83340000  1.0 0.1104340193
N  N10  1  0.36930000  0.67990000  0.66666667  1.0 0.1104340193
N  N11  1  0.36930000  0.82010000  0.16660000  1.0 0.1104340193
N  N12  1  0.63070000  0.32010000  0.33340000  1.0 0.1104340193
N  N13  1  0.60130000  0.24390000  0.77520000  1.0 -0.0223927401
N  N14  1  0.39870000  0.74390000  0.72480000  1.0 -0.0223927401
N  N15  1  0.39870000  0.75610000  0.22480000  1.0 -0.0223927401
N  N16  1  0.60130000  0.25610000  0.27520000  1.0 -0.0223927401
N  N17  1  0.47370000  0.27300000  0.77570000  1.0 -0.026691564
N  N18  1  0.52630000  0.77300000  0.72430000  1.0 -0.026691564
N  N19  1  0.52630000  0.72700000  0.22430000  1.0 -0.026691564
N  N20  1  0.47370000  0.22700000  0.27570000  1.0 -0.026691564
N  N21  1  0.44330000  0.33670000  0.71660000  1.0 0.1104340193
N  N22  1  0.55670000  0.83670000  0.78340000  1.0 0.1104340193
N  N23  1  0.55670000  0.66330000  0.28340000  1.0 0.1104340193
N  N24  1  0.44330000  0.16330000  0.21660000  1.0 0.1104340193
N  N25  1  0.26430000  0.42780000  0.61210000  1.0 -0.1559420355
N  N26  1  0.73570000  0.92780000  0.88790000  1.0 -0.1559420355
N  N27  1  0.73570000  0.57220000  0.38790000  1.0 -0.1559420355
N  N28  1  0.26430000  0.07220000  0.11210000  1.0 -0.1559420355
N  N29  1  0.42080000  0.42370000  0.60000000  1.0 -0.2006070219
N  N30  1  0.57920000  0.92370000  0.90000000  1.0 -0.2006070219
N  N31  1  0.57920000  0.57630000  0.40000000  1.0 -0.2006070219
N  N32  1  0.42080000  0.07630000  0.10000000  1.0 -0.2006070219
N  N33  1  0.96240000  0.00340000  0.80280000  1.0 -0.149233028
N  N34  1  0.03760000  0.50340000  0.69720000  1.0 -0.149233028
N  N35  1  0.03760000  0.99660000  0.19720000  1.0 -0.149233028
N  N36  1  0.96240000  0.49660000  0.30280000  1.0 -0.149233028
N  N37  1  0.75120000  0.00290000  0.66680000  1.0 -0.1824956589
N  N38  1  0.24880000  0.50290000  0.83320000  1.0 -0.1824956589
N  N39  1  0.24880000  0.99710000  0.33320000  1.0 -0.1824956589
N  N40  1  0.75120000  0.49710000  0.16680000  1.0 -0.1824956589
N  N41  1  0.97690000  0.00120000  0.63010000  1.0 0.0984592236
N  N42  1  0.02310000  0.50120000  0.86990000  1.0 0.0984592236
N  N43  1  0.02310000  0.99880000  0.36990000  1.0 0.0984592236
N  N44  1  0.97690000  0.49880000  0.13010000  1.0 0.0984592236
N  N45  1  0.07250000  0.00000000  0.56930000  1.0 -0.026691564
N  N46  1  0.92750000  0.50000000  0.93070000  1.0 -0.026691564
N  N47  1  0.92750000  0.00000000  0.43070000  1.0 -0.026691564
N  N48  1  0.07250000  0.50000000  0.06930000  1.0 -0.026691564
Cl  Cl1  1  0.13730000  0.19342000  0.40790000  1.0 1.2355522387
Cl  Cl2  1  0.86270000  0.69342000  0.09210000  1.0 1.2355522387
Cl  Cl3  1  0.86270000  0.80658000  0.59210000  1.0 1.2355522387
Cl  Cl4  1  0.13730000  0.30658000  0.90790000  1.0 1.2355522387
O  O1  1  0.98410000  0.17850000  0.25320000  1.0 -0.4919267089
O  O2  1  0.34080000  0.17040000  0.47140000  1.0 -0.4620695688
O  O3  1  0.06110000  0.16500000  0.47100000  1.0 -0.4919267089
O  O4  1  0.15010000  0.26120000  0.42910000  1.0 -0.4716056414
O  O5  1  0.01590000  0.67850000  0.24680000  1.0 -0.4919267089
O  O6  1  0.65920000  0.67040000  0.02860000  1.0 -0.4620695688
O  O7  1  0.93890000  0.66500000  0.02900000  1.0 -0.4919267089
O  O8  1  0.84990000  0.76120000  0.07090000  1.0 -0.4716056414
O  O9  1  0.01590000  0.82150000  0.74680000  1.0 -0.4919267089
O  O10  1  0.65920000  0.82960000  0.52860000  1.0 -0.4620695688
O  O11  1  0.93890000  0.83500000  0.52900000  1.0 -0.4919267089
O  O12  1  0.84990000  0.73880000  0.57090000  1.0 -0.4716056414
O  O13  1  0.98410000  0.32150000  0.75320000  1.0 -0.4919267089
O  O14  1  0.34080000  0.32960000  0.97140000  1.0 -0.4620695688
O  O15  1  0.06110000  0.33500000  0.97100000  1.0 -0.4919267089
O  O16  1  0.15010000  0.23880000  0.92910000  1.0 -0.4716056414
