# DDEC6 charges by PACMAN v1.1 (https://github.com/mtap-research/PACMAN-charge/)
data_BAXGAK_ion_pacman
_symmetry_space_group_name_H-M   'P 1'
_cell_length_a   8.01120000
_cell_length_b   19.43920000
_cell_length_c   11.66500000
_cell_angle_alpha   90.00000000
_cell_angle_beta   129.89900000
_cell_angle_gamma   90.00000000
_symmetry_Int_Tables_number   1
_chemical_formula_structural   FeB2H12C12(N3F)8
_chemical_formula_sum   'Fe2 B4 H24 C24 N48 F16'
_cell_volume   1393.65702986
_cell_formula_units_Z   2
loop_
 _symmetry_equiv_pos_site_id
 _symmetry_equiv_pos_as_xyz
  1  'x, y, z'
loop_
 _atom_site_type_symbol
 _atom_site_label
 _atom_site_symmetry_multiplicity
 _atom_site_fract_x
 _atom_site_fract_y
 _atom_site_fract_z
 _atom_site_occupancy
 _atom_site_charge
Fe  Fe1  1  0.00000000  0.00000000  0.00000000  1.0 0.3676610438
Fe  Fe2  1  0.00000000  0.50000000  0.50000000  1.0 0.3676610438
B  B1  1  0.06170000  0.31873000  0.90540000  1.0 1.0488182602
B  B2  1  0.93830000  0.81873000  0.59460000  1.0 1.0488182602
B  B3  1  0.93830000  0.68127000  0.09460000  1.0 1.0488182602
B  B4  1  0.06170000  0.18127000  0.40540000  1.0 1.0488182602
H  H1  1  0.75600000  0.00100000  0.14400000  1.0 0.1302199361
H  H2  1  0.24400000  0.50100000  0.35600000  1.0 0.1302199361
H  H3  1  0.24400000  0.99900000  0.85600000  1.0 0.1302199361
H  H4  1  0.75600000  0.49900000  0.64400000  1.0 0.1302199361
H  H5  1  0.35800000  0.99420000  0.52800000  1.0 0.1302199361
H  H6  1  0.64200000  0.49420000  0.97200000  1.0 0.1302199361
H  H7  1  0.64200000  0.00580000  0.47200000  1.0 0.1302199361
H  H8  1  0.35800000  0.50580000  0.02800000  1.0 0.1302199361
H  H9  1  0.86600000  0.35800000  0.33200000  1.0 0.1404136045
H  H10  1  0.13400000  0.85800000  0.16800000  1.0 0.1404136045
H  H11  1  0.13400000  0.64200000  0.66800000  1.0 0.1404136045
H  H12  1  0.86600000  0.14200000  0.83200000  1.0 0.1404136045
H  H13  1  0.39300000  0.34680000  0.35000000  1.0 0.1302199361
H  H14  1  0.60700000  0.84680000  0.15000000  1.0 0.1302199361
H  H15  1  0.60700000  0.65320000  0.65000000  1.0 0.1302199361
H  H16  1  0.39300000  0.15320000  0.85000000  1.0 0.1302199361
H  H17  1  0.17100000  0.13640000  0.19800000  1.0 0.1404136045
H  H18  1  0.82900000  0.63640000  0.30200000  1.0 0.1404136045
H  H19  1  0.82900000  0.86360000  0.80200000  1.0 0.1404136045
H  H20  1  0.17100000  0.36360000  0.69800000  1.0 0.1404136045
H  H21  1  0.60000000  0.15420000  0.14000000  1.0 0.1230510024
H  H22  1  0.40000000  0.65420000  0.36000000  1.0 0.1230510024
H  H23  1  0.40000000  0.84580000  0.86000000  1.0 0.1230510024
H  H24  1  0.60000000  0.34580000  0.64000000  1.0 0.1230510024
C  C1  1  0.90530000  0.99914000  0.21450000  1.0 0.090096425
C  C2  1  0.09470000  0.49914000  0.28550000  1.0 0.090096425
C  C3  1  0.09470000  0.00086000  0.78550000  1.0 0.090096425
C  C4  1  0.90530000  0.50086000  0.71450000  1.0 0.090096425
C  C5  1  0.23790000  0.99551000  0.42860000  1.0 0.090096425
C  C6  1  0.76210000  0.49551000  0.07140000  1.0 0.090096425
C  C7  1  0.76210000  0.00449000  0.57140000  1.0 0.090096425
C  C8  1  0.23790000  0.50449000  0.92860000  1.0 0.090096425
C  C9  1  0.77500000  0.36960000  0.35130000  1.0 0.0764092391
C  C10  1  0.22500000  0.86960000  0.14870000  1.0 0.0764092391
C  C11  1  0.22500000  0.63040000  0.64870000  1.0 0.0764092391
C  C12  1  0.77500000  0.13040000  0.85130000  1.0 0.0764092391
C  C13  1  0.51340000  0.36417000  0.36200000  1.0 0.0699227655
C  C14  1  0.48660000  0.86417000  0.13800000  1.0 0.0699227655
C  C15  1  0.48660000  0.63583000  0.63800000  1.0 0.0699227655
C  C16  1  0.51340000  0.13583000  0.86200000  1.0 0.0699227655
C  C17  1  0.24680000  0.12564000  0.16920000  1.0 0.0764092391
C  C18  1  0.75320000  0.62564000  0.33080000  1.0 0.0764092391
C  C19  1  0.75320000  0.87436000  0.83080000  1.0 0.0764092391
C  C20  1  0.24680000  0.37436000  0.66920000  1.0 0.0764092391
C  C21  1  0.48210000  0.13674000  0.13460000  1.0 0.0699227655
C  C22  1  0.51790000  0.63674000  0.36540000  1.0 0.0699227655
C  C23  1  0.51790000  0.86326000  0.86540000  1.0 0.0699227655
C  C24  1  0.48210000  0.36326000  0.63460000  1.0 0.0699227655
N  N1  1  0.03990000  0.99803000  0.18720000  1.0 -0.09984573
N  N2  1  0.96010000  0.49803000  0.31280000  1.0 -0.09984573
N  N3  1  0.96010000  0.00197000  0.81280000  1.0 -0.09984573
N  N4  1  0.03990000  0.50197000  0.68720000  1.0 -0.09984573
N  N5  1  0.25280000  0.99556000  0.32440000  1.0 -0.2085215061
N  N6  1  0.74720000  0.49556000  0.17560000  1.0 -0.2085215061
N  N7  1  0.74720000  0.00444000  0.67560000  1.0 -0.2085215061
N  N8  1  0.25280000  0.50444000  0.82440000  1.0 -0.2085215061
N  N9  1  0.02310000  0.99774000  0.36550000  1.0 0.1015717459
N  N10  1  0.97690000  0.49774000  0.13450000  1.0 0.1015717459
N  N11  1  0.97690000  0.00226000  0.63450000  1.0 0.1015717459
N  N12  1  0.02310000  0.50226000  0.86550000  1.0 0.1015717459
N  N13  1  0.92860000  0.99951000  0.43100000  1.0 -0.0109551731
N  N14  1  0.07140000  0.49951000  0.06900000  1.0 -0.0109551731
N  N15  1  0.07140000  0.00049000  0.56900000  1.0 -0.0109551731
N  N16  1  0.92860000  0.50049000  0.93100000  1.0 -0.0109551731
N  N17  1  0.22460000  0.07309000  0.09120000  1.0 -0.1089160686
N  N18  1  0.77540000  0.57309000  0.40880000  1.0 -0.1089160686
N  N19  1  0.77540000  0.92691000  0.90880000  1.0 -0.1089160686
N  N20  1  0.22460000  0.42691000  0.59120000  1.0 -0.1089160686
N  N21  1  0.37760000  0.07955000  0.07060000  1.0 -0.2085215061
N  N22  1  0.62240000  0.57955000  0.42940000  1.0 -0.2085215061
N  N23  1  0.62240000  0.92045000  0.92940000  1.0 -0.2085215061
N  N24  1  0.37760000  0.42045000  0.57060000  1.0 -0.2085215061
N  N25  1  0.40740000  0.16702000  0.19960000  1.0 0.1121150197
N  N26  1  0.59260000  0.66702000  0.30040000  1.0 0.1121150197
N  N27  1  0.59260000  0.83298000  0.80040000  1.0 0.1121150197
N  N28  1  0.40740000  0.33298000  0.69960000  1.0 0.1121150197
N  N29  1  0.44760000  0.23147000  0.26420000  1.0 -0.0183734523
N  N30  1  0.55240000  0.73147000  0.23580000  1.0 -0.0183734523
N  N31  1  0.55240000  0.76853000  0.73580000  1.0 -0.0183734523
N  N32  1  0.44760000  0.26853000  0.76420000  1.0 -0.0183734523
N  N33  1  0.78010000  0.42559000  0.41470000  1.0 -0.09984573
N  N34  1  0.21990000  0.92559000  0.08530000  1.0 -0.09984573
N  N35  1  0.21990000  0.57441000  0.58530000  1.0 -0.09984573
N  N36  1  0.78010000  0.07441000  0.91470000  1.0 -0.09984573
N  N37  1  0.61100000  0.42259000  0.42040000  1.0 -0.1996010917
N  N38  1  0.38900000  0.92259000  0.07960000  1.0 -0.1996010917
N  N39  1  0.38900000  0.57741000  0.57960000  1.0 -0.1996010917
N  N40  1  0.61100000  0.07741000  0.92040000  1.0 -0.1996010917
N  N41  1  0.61250000  0.32858000  0.31860000  1.0 0.1015717459
N  N42  1  0.38750000  0.82858000  0.18140000  1.0 0.1015717459
N  N43  1  0.38750000  0.67142000  0.68140000  1.0 0.1015717459
N  N44  1  0.61250000  0.17142000  0.81860000  1.0 0.1015717459
N  N45  1  0.57260000  0.26386000  0.25580000  1.0 0.0014901704
N  N46  1  0.42740000  0.76386000  0.24420000  1.0 0.0014901704
N  N47  1  0.42740000  0.73614000  0.74420000  1.0 0.0014901704
N  N48  1  0.57260000  0.23614000  0.75580000  1.0 0.0014901704
F  F1  1  0.25560000  0.35357000  0.98600000  1.0 -0.4694721924
F  F2  1  0.09480000  0.25088000  0.94810000  1.0 -0.4537955077
F  F3  1  0.95726000  0.32239000  0.75316000  1.0 -0.4694721924
F  F4  1  0.92650000  0.34896000  0.92810000  1.0 -0.4694721924
F  F5  1  0.74440000  0.85357000  0.51400000  1.0 -0.4694721924
F  F6  1  0.90520000  0.75088000  0.55190000  1.0 -0.4537955077
F  F7  1  0.04274000  0.82239000  0.74684000  1.0 -0.4694721924
F  F8  1  0.07350000  0.84896000  0.57190000  1.0 -0.4694721924
F  F9  1  0.74440000  0.64643000  0.01400000  1.0 -0.4694721924
F  F10  1  0.90520000  0.74912000  0.05190000  1.0 -0.4537955077
F  F11  1  0.04274000  0.67761000  0.24684000  1.0 -0.4694721924
F  F12  1  0.07350000  0.65104000  0.07190000  1.0 -0.4694721924
F  F13  1  0.25560000  0.14643000  0.48600000  1.0 -0.4694721924
F  F14  1  0.09480000  0.24912000  0.44810000  1.0 -0.4537955077
F  F15  1  0.95726000  0.17761000  0.25316000  1.0 -0.4694721924
F  F16  1  0.92650000  0.15104000  0.42810000  1.0 -0.4694721924
