# DDEC6 charges by PACMAN v1.1 (https://github.com/mtap-research/PACMAN-charge/)
data_BAYCOU_ion_pacman
_symmetry_space_group_name_H-M   'P 1'
_cell_length_a   6.49300000
_cell_length_b   20.48300000
_cell_length_c   21.89000000
_cell_angle_alpha   90.00000000
_cell_angle_beta   90.00000000
_cell_angle_gamma   90.00000000
_symmetry_Int_Tables_number   1
_chemical_formula_structural   Ag3H34C26S2N9O16
_chemical_formula_sum   'Ag12 H136 C104 S8 N36 O64'
_cell_volume   2911.28504491
_cell_formula_units_Z   4
loop_
 _symmetry_equiv_pos_site_id
 _symmetry_equiv_pos_as_xyz
  1  'x, y, z'
loop_
 _atom_site_type_symbol
 _atom_site_label
 _atom_site_symmetry_multiplicity
 _atom_site_fract_x
 _atom_site_fract_y
 _atom_site_fract_z
 _atom_site_occupancy
 _atom_site_charge
Ag  Ag1  1  0.51590000  0.73306000  0.31585000  1.0 0.2391277155
Ag  Ag2  1  0.01590000  0.26694000  0.68415000  1.0 0.2391277155
Ag  Ag3  1  0.01590000  0.76694000  0.81585000  1.0 0.2391277155
Ag  Ag4  1  0.51590000  0.23306000  0.18415000  1.0 0.2391277155
Ag  Ag5  1  0.51910000  0.50226000  0.78320000  1.0 0.2704892954
Ag  Ag6  1  0.01910000  0.49774000  0.21680000  1.0 0.2704892954
Ag  Ag7  1  0.01910000  0.99774000  0.28320000  1.0 0.2704892954
Ag  Ag8  1  0.51910000  0.00226000  0.71680000  1.0 0.2704892954
Ag  Ag9  1  0.01920000  0.83975000  0.52923000  1.0 0.3722849092
Ag  Ag10  1  0.51920000  0.16025000  0.47077000  1.0 0.3722849092
Ag  Ag11  1  0.51920000  0.66025000  0.02923000  1.0 0.3722849092
Ag  Ag12  1  0.01920000  0.33975000  0.97077000  1.0 0.3722849092
H  H1  1  0.61000000  0.62600000  0.35100000  1.0 0.2319198208
H  H2  1  0.11000000  0.37400000  0.64900000  1.0 0.2319198208
H  H3  1  0.11000000  0.87400000  0.85100000  1.0 0.2319198208
H  H4  1  0.61000000  0.12600000  0.14900000  1.0 0.2319198208
H  H5  1  0.53110000  0.42830000  0.48370000  1.0 0.090531592
H  H6  1  0.03110000  0.57170000  0.51630000  1.0 0.090531592
H  H7  1  0.03110000  0.07170000  0.98370000  1.0 0.090531592
H  H8  1  0.53110000  0.92830000  0.01630000  1.0 0.090531592
H  H9  1  0.50570000  0.44550000  0.58480000  1.0 0.1736588082
H  H10  1  0.00570000  0.55450000  0.41520000  1.0 0.1736588082
H  H11  1  0.00570000  0.05450000  0.08480000  1.0 0.1736588082
H  H12  1  0.50570000  0.94550000  0.91520000  1.0 0.1736588082
H  H13  1  0.50650000  0.64230000  0.55440000  1.0 0.0760030276
H  H14  1  0.00650000  0.35770000  0.44560000  1.0 0.0760030276
H  H15  1  0.00650000  0.85770000  0.05440000  1.0 0.0760030276
H  H16  1  0.50650000  0.14230000  0.94560000  1.0 0.0760030276
H  H17  1  0.71220000  0.87650000  0.31140000  1.0 0.0992282277
H  H18  1  0.21220000  0.12350000  0.68860000  1.0 0.0992282277
H  H19  1  0.21220000  0.62350000  0.81140000  1.0 0.0992282277
H  H20  1  0.71220000  0.37650000  0.18860000  1.0 0.0992282277
H  H21  1  0.85730000  0.84450000  0.26210000  1.0 0.090531592
H  H22  1  0.35730000  0.15550000  0.73790000  1.0 0.090531592
H  H23  1  0.35730000  0.65550000  0.76210000  1.0 0.090531592
H  H24  1  0.85730000  0.34450000  0.23790000  1.0 0.090531592
H  H25  1  0.85680000  0.75280000  0.41830000  1.0 0.0992282277
H  H26  1  0.35680000  0.24720000  0.58170000  1.0 0.0992282277
H  H27  1  0.35680000  0.74720000  0.91830000  1.0 0.0992282277
H  H28  1  0.85680000  0.25280000  0.08170000  1.0 0.0992282277
H  H29  1  0.71430000  0.81450000  0.41760000  1.0 0.0992282277
H  H30  1  0.21430000  0.18550000  0.58240000  1.0 0.0992282277
H  H31  1  0.21430000  0.68550000  0.91760000  1.0 0.0992282277
H  H32  1  0.71430000  0.31450000  0.08240000  1.0 0.0992282277
H  H33  1  0.02390000  0.71110000  0.34180000  1.0 0.0992282277
H  H34  1  0.52390000  0.28890000  0.65820000  1.0 0.0992282277
H  H35  1  0.52390000  0.78890000  0.84180000  1.0 0.0992282277
H  H36  1  0.02390000  0.21110000  0.15820000  1.0 0.0992282277
H  H37  1  0.03490000  0.74580000  0.27790000  1.0 0.090531592
H  H38  1  0.53490000  0.25420000  0.72210000  1.0 0.090531592
H  H39  1  0.53490000  0.75420000  0.77790000  1.0 0.090531592
H  H40  1  0.03490000  0.24580000  0.22210000  1.0 0.090531592
H  H41  1  0.90460000  0.92780000  0.40800000  1.0 0.0992282277
H  H42  1  0.40460000  0.07220000  0.59200000  1.0 0.0992282277
H  H43  1  0.40460000  0.57220000  0.90800000  1.0 0.0992282277
H  H44  1  0.90460000  0.42780000  0.09200000  1.0 0.0992282277
H  H45  1  0.14510000  0.92090000  0.40550000  1.0 0.0992282277
H  H46  1  0.64510000  0.07910000  0.59450000  1.0 0.0992282277
H  H47  1  0.64510000  0.57910000  0.90550000  1.0 0.0992282277
H  H48  1  0.14510000  0.42090000  0.09450000  1.0 0.0992282277
H  H49  1  0.32250000  0.88060000  0.33333333  1.0 0.090531592
H  H50  1  0.82250000  0.11940000  0.66666667  1.0 0.090531592
H  H51  1  0.82250000  0.61940000  0.83333000  1.0 0.090531592
H  H52  1  0.32250000  0.38060000  0.16667000  1.0 0.090531592
H  H53  1  0.23240000  0.85520000  0.27140000  1.0 0.090531592
H  H54  1  0.73240000  0.14480000  0.72860000  1.0 0.090531592
H  H55  1  0.73240000  0.64480000  0.77140000  1.0 0.090531592
H  H56  1  0.23240000  0.35520000  0.22860000  1.0 0.090531592
H  H57  1  0.21880000  0.75800000  0.43290000  1.0 0.090531592
H  H58  1  0.71880000  0.24200000  0.56710000  1.0 0.090531592
H  H59  1  0.71880000  0.74200000  0.93290000  1.0 0.090531592
H  H60  1  0.21880000  0.25800000  0.06710000  1.0 0.090531592
H  H61  1  0.32840000  0.82550000  0.42250000  1.0 0.090531592
H  H62  1  0.82840000  0.17450000  0.57750000  1.0 0.090531592
H  H63  1  0.82840000  0.67450000  0.92250000  1.0 0.090531592
H  H64  1  0.32840000  0.32550000  0.07750000  1.0 0.090531592
H  H65  1  0.50340000  0.50410000  0.25330000  1.0 0.1102448156
H  H66  1  0.00340000  0.49590000  0.74670000  1.0 0.1102448156
H  H67  1  0.00340000  0.99590000  0.75330000  1.0 0.1102448156
H  H68  1  0.50340000  0.00410000  0.24670000  1.0 0.1102448156
H  H69  1  0.51190000  0.48130000  0.18480000  1.0 0.090531592
H  H70  1  0.01190000  0.51870000  0.81520000  1.0 0.090531592
H  H71  1  0.01190000  0.01870000  0.68480000  1.0 0.090531592
H  H72  1  0.51190000  0.98130000  0.31520000  1.0 0.090531592
H  H73  1  0.82180000  0.63990000  0.23180000  1.0 0.090531592
H  H74  1  0.32180000  0.36010000  0.76820000  1.0 0.090531592
H  H75  1  0.32180000  0.86010000  0.73180000  1.0 0.090531592
H  H76  1  0.82180000  0.13990000  0.26820000  1.0 0.090531592
H  H77  1  0.71260000  0.60020000  0.28330000  1.0 0.0554232214
H  H78  1  0.21260000  0.39980000  0.71670000  1.0 0.0554232214
H  H79  1  0.21260000  0.89980000  0.78330000  1.0 0.0554232214
H  H80  1  0.71260000  0.10020000  0.21670000  1.0 0.0554232214
H  H81  1  0.69770000  0.55130000  0.10430000  1.0 0.0992282277
H  H82  1  0.19770000  0.44870000  0.89570000  1.0 0.0992282277
H  H83  1  0.19770000  0.94870000  0.60430000  1.0 0.0992282277
H  H84  1  0.69770000  0.05130000  0.39570000  1.0 0.0992282277
H  H85  1  0.81850000  0.61330000  0.12680000  1.0 0.0992282277
H  H86  1  0.31850000  0.38670000  0.87320000  1.0 0.0992282277
H  H87  1  0.31850000  0.88670000  0.62680000  1.0 0.0992282277
H  H88  1  0.81850000  0.11330000  0.37320000  1.0 0.0992282277
H  H89  1  0.34800000  0.59500000  0.28800000  1.0 0.090531592
H  H90  1  0.84800000  0.40500000  0.71200000  1.0 0.090531592
H  H91  1  0.84800000  0.90500000  0.78800000  1.0 0.090531592
H  H92  1  0.34800000  0.09500000  0.21200000  1.0 0.090531592
H  H93  1  0.21570000  0.64180000  0.24630000  1.0 0.090531592
H  H94  1  0.71570000  0.35820000  0.75370000  1.0 0.090531592
H  H95  1  0.71570000  0.85820000  0.74630000  1.0 0.090531592
H  H96  1  0.21570000  0.14180000  0.25370000  1.0 0.090531592
H  H97  1  0.33630000  0.54570000  0.11440000  1.0 0.0992282277
H  H98  1  0.83630000  0.45430000  0.88560000  1.0 0.0992282277
H  H99  1  0.83630000  0.95430000  0.61440000  1.0 0.0992282277
H  H100  1  0.33630000  0.04570000  0.38560000  1.0 0.0992282277
H  H101  1  0.20570000  0.60640000  0.13470000  1.0 0.0992282277
H  H102  1  0.70570000  0.39360000  0.86530000  1.0 0.0992282277
H  H103  1  0.70570000  0.89360000  0.63470000  1.0 0.0992282277
H  H104  1  0.20570000  0.10640000  0.36530000  1.0 0.0992282277
H  H105  1  0.64840000  0.70440000  0.16510000  1.0 0.0992282277
H  H106  1  0.14840000  0.29560000  0.83490000  1.0 0.0992282277
H  H107  1  0.14840000  0.79560000  0.66510000  1.0 0.0992282277
H  H108  1  0.64840000  0.20440000  0.33490000  1.0 0.0992282277
H  H109  1  0.40720000  0.70740000  0.16760000  1.0 0.0992282277
H  H110  1  0.90720000  0.29260000  0.83240000  1.0 0.0992282277
H  H111  1  0.90720000  0.79260000  0.66760000  1.0 0.0992282277
H  H112  1  0.40720000  0.20740000  0.33240000  1.0 0.0992282277
H  H113  1  0.07000000  0.69900000  0.56600000  1.0 0.3094947538
H  H114  1  0.57000000  0.30100000  0.43400000  1.0 0.3094947538
H  H115  1  0.57000000  0.80100000  0.06600000  1.0 0.3094947538
H  H116  1  0.07000000  0.19900000  0.93400000  1.0 0.3094947538
H  H117  1  0.36000000  0.43400000  0.66300000  1.0 0.2154773822
H  H118  1  0.86000000  0.56600000  0.33700000  1.0 0.2139916918
H  H119  1  0.86000000  0.06600000  0.16300000  1.0 0.2139916918
H  H120  1  0.36000000  0.93400000  0.83700000  1.0 0.2139916918
H  H121  1  0.49280000  0.42020000  0.45490000  1.0 0.0701637692
H  H122  1  0.99280000  0.57980000  0.54510000  1.0 0.0701637692
H  H123  1  0.99280000  0.07980000  0.95490000  1.0 0.0701637692
H  H124  1  0.49280000  0.92020000  0.04510000  1.0 0.0701637692
H  H125  1  0.51860000  0.51020000  0.40500000  1.0 0.0516689865
H  H126  1  0.01860000  0.48980000  0.59500000  1.0 0.0516689865
H  H127  1  0.01860000  0.98980000  0.90500000  1.0 0.0516689865
H  H128  1  0.51860000  0.01020000  0.09500000  1.0 0.0516689865
H  H129  1  0.54740000  0.61130000  0.56580000  1.0 0.0992282277
H  H130  1  0.04740000  0.38870000  0.43420000  1.0 0.0992282277
H  H131  1  0.04740000  0.88870000  0.06580000  1.0 0.0992282277
H  H132  1  0.54740000  0.11130000  0.93420000  1.0 0.0992282277
H  H133  1  0.05000000  0.31000000  0.34200000  1.0 0.2319198208
H  H134  1  0.55000000  0.69000000  0.65800000  1.0 0.2319198208
H  H135  1  0.55000000  0.19000000  0.84200000  1.0 0.2319198208
H  H136  1  0.05000000  0.81000000  0.15800000  1.0 0.2319198208
C  C1  1  0.51300000  0.64780000  0.43430000  1.0 0.445892585
C  C2  1  0.01300000  0.35220000  0.56570000  1.0 0.445892585
C  C3  1  0.01300000  0.85220000  0.93430000  1.0 0.445892585
C  C4  1  0.51300000  0.14780000  0.06570000  1.0 0.445892585
C  C5  1  0.54900000  0.58900000  0.47650000  1.0 -0.1487609708
C  C6  1  0.04900000  0.41100000  0.52350000  1.0 -0.1487609708
C  C7  1  0.04900000  0.91100000  0.97650000  1.0 -0.1487609708
C  C8  1  0.54900000  0.08900000  0.02350000  1.0 -0.1487609708
C  C9  1  0.52900000  0.52640000  0.45170000  1.0 0.0701637692
C  C10  1  0.02900000  0.47360000  0.54830000  1.0 0.0701637692
C  C11  1  0.02900000  0.97360000  0.95170000  1.0 0.0701637692
C  C12  1  0.52900000  0.02640000  0.04830000  1.0 0.0701637692
C  C13  1  0.53000000  0.47070000  0.49880000  1.0 -0.0393192561
C  C14  1  0.03000000  0.52930000  0.50120000  1.0 -0.0393192561
C  C15  1  0.03000000  0.02930000  0.99880000  1.0 -0.0393192561
C  C16  1  0.53000000  0.97070000  0.00120000  1.0 -0.0393192561
C  C17  1  0.51300000  0.48070000  0.55810000  1.0 0.0118462606
C  C18  1  0.01300000  0.51930000  0.44190000  1.0 0.0118462606
C  C19  1  0.01300000  0.01930000  0.05810000  1.0 0.0118462606
C  C20  1  0.51300000  0.98070000  0.94190000  1.0 0.0118462606
C  C21  1  0.51500000  0.54480000  0.57870000  1.0 -0.0520806597
C  C22  1  0.01500000  0.45520000  0.42130000  1.0 -0.0520806597
C  C23  1  0.01500000  0.95520000  0.07870000  1.0 -0.0520806597
C  C24  1  0.51500000  0.04480000  0.92130000  1.0 -0.0520806597
C  C25  1  0.50800000  0.59990000  0.53930000  1.0 -0.1026363695
C  C26  1  0.00800000  0.40010000  0.46070000  1.0 -0.1026363695
C  C27  1  0.00800000  0.90010000  0.03930000  1.0 -0.1026363695
C  C28  1  0.50800000  0.09990000  0.96070000  1.0 -0.1026363695
C  C29  1  0.84100000  0.85330000  0.30540000  1.0 -0.0320351651
C  C30  1  0.34100000  0.14670000  0.69460000  1.0 -0.0320351651
C  C31  1  0.34100000  0.64670000  0.80540000  1.0 -0.0320351651
C  C32  1  0.84100000  0.35330000  0.19460000  1.0 -0.0320351651
C  C33  1  0.84400000  0.79690000  0.40290000  1.0 -0.0598867094
C  C34  1  0.34400000  0.20310000  0.59710000  1.0 -0.0598867094
C  C35  1  0.34400000  0.70310000  0.90290000  1.0 -0.0598867094
C  C36  1  0.84400000  0.29690000  0.09710000  1.0 -0.0598867094
C  C37  1  0.03200000  0.75320000  0.32170000  1.0 -0.0873182882
C  C38  1  0.53200000  0.24680000  0.67830000  1.0 -0.0823045597
C  C39  1  0.53200000  0.74680000  0.82170000  1.0 -0.0873182882
C  C40  1  0.03200000  0.25320000  0.17830000  1.0 -0.0873182882
C  C41  1  0.01600000  0.89980000  0.39460000  1.0 -0.0520806597
C  C42  1  0.51600000  0.10020000  0.60540000  1.0 -0.0520806597
C  C43  1  0.51600000  0.60020000  0.89460000  1.0 -0.0520806597
C  C44  1  0.01600000  0.39980000  0.10540000  1.0 -0.0520806597
C  C45  1  0.21000000  0.85630000  0.31520000  1.0 -0.0598867094
C  C46  1  0.71000000  0.14370000  0.68480000  1.0 -0.0598867094
C  C47  1  0.71000000  0.64370000  0.81520000  1.0 -0.0598867094
C  C48  1  0.21000000  0.35630000  0.18480000  1.0 -0.0598867094
C  C49  1  0.21100000  0.79900000  0.41090000  1.0 -0.1212272146
C  C50  1  0.71100000  0.20100000  0.58910000  1.0 -0.1212272146
C  C51  1  0.71100000  0.70100000  0.91090000  1.0 -0.1212272146
C  C52  1  0.21100000  0.29900000  0.08910000  1.0 -0.1212272146
C  C53  1  0.51500000  0.51920000  0.21140000  1.0 -0.1212272146
C  C54  1  0.01500000  0.48080000  0.78860000  1.0 -0.1282111606
C  C55  1  0.01500000  0.98080000  0.71140000  1.0 -0.1282111606
C  C56  1  0.51500000  0.01920000  0.28860000  1.0 -0.1282111606
C  C57  1  0.70100000  0.61360000  0.24090000  1.0 -0.0873182882
C  C58  1  0.20100000  0.38640000  0.75910000  1.0 -0.0873182882
C  C59  1  0.20100000  0.88640000  0.74090000  1.0 -0.0873182882
C  C60  1  0.70100000  0.11360000  0.25910000  1.0 -0.0873182882
C  C61  1  0.69800000  0.58620000  0.13430000  1.0 -0.0823045597
C  C62  1  0.19800000  0.41380000  0.86570000  1.0 -0.0823045597
C  C63  1  0.19800000  0.91380000  0.63430000  1.0 -0.0823045597
C  C64  1  0.69800000  0.08620000  0.36570000  1.0 -0.0823045597
C  C65  1  0.33900000  0.61510000  0.24800000  1.0 -0.1619326719
C  C66  1  0.83900000  0.38490000  0.75200000  1.0 -0.1619326719
C  C67  1  0.83900000  0.88490000  0.74800000  1.0 -0.1619326719
C  C68  1  0.33900000  0.11510000  0.25200000  1.0 -0.1619326719
C  C69  1  0.33300000  0.58280000  0.14190000  1.0 0.0118462606
C  C70  1  0.83300000  0.41720000  0.85810000  1.0 0.0118462606
C  C71  1  0.83300000  0.91720000  0.64190000  1.0 0.0118462606
C  C72  1  0.33300000  0.08280000  0.35810000  1.0 0.0118462606
C  C73  1  0.52500000  0.67890000  0.17270000  1.0 -0.0393192561
C  C74  1  0.02500000  0.32110000  0.82730000  1.0 -0.0393192561
C  C75  1  0.02500000  0.82110000  0.67270000  1.0 -0.0393192561
C  C76  1  0.52500000  0.17890000  0.32730000  1.0 -0.0393192561
C  C77  1  0.52500000  0.51470000  0.64350000  1.0 0.2543562254
C  C78  1  0.02500000  0.48530000  0.35650000  1.0 0.2543562254
C  C79  1  0.02500000  0.98530000  0.14350000  1.0 0.2543562254
C  C80  1  0.52500000  0.01470000  0.85650000  1.0 0.2543562254
C  C81  1  0.54200000  0.51240000  0.57350000  1.0 -0.0520806597
C  C82  1  0.04200000  0.48760000  0.42650000  1.0 -0.0520806597
C  C83  1  0.04200000  0.98760000  0.07350000  1.0 -0.0520806597
C  C84  1  0.54200000  0.01240000  0.92650000  1.0 -0.0520806597
C  C85  1  0.50400000  0.45560000  0.54330000  1.0 0.0516689865
C  C86  1  0.00400000  0.54440000  0.45670000  1.0 0.0516689865
C  C87  1  0.00400000  0.04440000  0.04330000  1.0 0.0516689865
C  C88  1  0.50400000  0.95560000  0.95670000  1.0 0.0516689865
C  C89  1  0.50300000  0.45920000  0.47650000  1.0 -0.0873182882
C  C90  1  0.00300000  0.54080000  0.52350000  1.0 -0.0873182882
C  C91  1  0.00300000  0.04080000  0.97650000  1.0 -0.0873182882
C  C92  1  0.50300000  0.95920000  0.02350000  1.0 -0.0873182882
C  C93  1  0.52200000  0.50980000  0.44750000  1.0 0.0554232214
C  C94  1  0.02200000  0.49020000  0.55250000  1.0 0.0516689865
C  C95  1  0.02200000  0.99020000  0.94750000  1.0 0.0516689865
C  C96  1  0.52200000  0.00980000  0.05250000  1.0 0.0554232214
C  C97  1  0.51800000  0.57190000  0.48050000  1.0 -0.1282111606
C  C98  1  0.01800000  0.42810000  0.51950000  1.0 -0.1282111606
C  C99  1  0.01800000  0.92810000  0.98050000  1.0 -0.1282111606
C  C100  1  0.51800000  0.07190000  0.01950000  1.0 -0.1282111606
C  C101  1  0.53700000  0.57230000  0.54430000  1.0 -0.0393192561
C  C102  1  0.03700000  0.42770000  0.45570000  1.0 -0.0393192561
C  C103  1  0.03700000  0.92770000  0.04430000  1.0 -0.0393192561
C  C104  1  0.53700000  0.07230000  0.95570000  1.0 -0.0393192561
S  S1  1  0.52400000  0.55940000  0.65930000  1.0 0.485882183
S  S2  1  0.02400000  0.44060000  0.34070000  1.0 0.485882183
S  S3  1  0.02400000  0.94060000  0.15930000  1.0 0.485882183
S  S4  1  0.52400000  0.05940000  0.84070000  1.0 0.485882183
S  S5  1  0.49100000  0.64500000  0.43650000  1.0 0.6764285615
S  S6  1  0.99100000  0.35500000  0.56350000  1.0 0.6764285615
S  S7  1  0.99100000  0.85500000  0.93650000  1.0 0.6764285615
S  S8  1  0.49100000  0.14500000  0.06350000  1.0 0.6764285615
N  N1  1  0.83900000  0.79470000  0.33760000  1.0 -0.1487609708
N  N2  1  0.33900000  0.20530000  0.66240000  1.0 -0.1487609708
N  N3  1  0.33900000  0.70530000  0.83760000  1.0 -0.1487609708
N  N4  1  0.83900000  0.29470000  0.16240000  1.0 -0.1487609708
N  N5  1  0.01200000  0.89200000  0.32780000  1.0 -0.1487609708
N  N6  1  0.51200000  0.10800000  0.67220000  1.0 -0.1441422799
N  N7  1  0.51200000  0.60800000  0.82780000  1.0 -0.1441422799
N  N8  1  0.01200000  0.39200000  0.17220000  1.0 -0.1487609708
N  N9  1  0.01100000  0.83520000  0.42700000  1.0 -0.0823045597
N  N10  1  0.51100000  0.16480000  0.57300000  1.0 -0.0823045597
N  N11  1  0.51100000  0.66480000  0.92700000  1.0 -0.0823045597
N  N12  1  0.01100000  0.33520000  0.07300000  1.0 -0.0823045597
N  N13  1  0.21500000  0.78570000  0.34040000  1.0 -0.1282111606
N  N14  1  0.71500000  0.21430000  0.65960000  1.0 -0.1212272146
N  N15  1  0.71500000  0.71430000  0.84040000  1.0 -0.1282111606
N  N16  1  0.21500000  0.28570000  0.15960000  1.0 -0.1282111606
N  N17  1  0.71500000  0.55630000  0.20270000  1.0 -0.1282111606
N  N18  1  0.21500000  0.44370000  0.79730000  1.0 -0.1282111606
N  N19  1  0.21500000  0.94370000  0.70270000  1.0 -0.1282111606
N  N20  1  0.71500000  0.05630000  0.29730000  1.0 -0.1282111606
N  N21  1  0.33900000  0.56110000  0.19810000  1.0 -0.1072100294
N  N22  1  0.83900000  0.43890000  0.80190000  1.0 -0.1072100294
N  N23  1  0.83900000  0.93890000  0.69810000  1.0 -0.1072100294
N  N24  1  0.33900000  0.06110000  0.30190000  1.0 -0.1072100294
N  N25  1  0.53000000  0.65470000  0.23560000  1.0 -0.1441422799
N  N26  1  0.03000000  0.34530000  0.76440000  1.0 -0.1441422799
N  N27  1  0.03000000  0.84530000  0.73560000  1.0 -0.1441422799
N  N28  1  0.53000000  0.15470000  0.26440000  1.0 -0.1441422799
N  N29  1  0.51000000  0.62620000  0.12800000  1.0 -0.1212272146
N  N30  1  0.01000000  0.37380000  0.87200000  1.0 -0.1212272146
N  N31  1  0.01000000  0.87380000  0.62800000  1.0 -0.1212272146
N  N32  1  0.51000000  0.12620000  0.37200000  1.0 -0.1212272146
N  N33  1  0.01600000  0.54990000  0.98090000  1.0 0.6506393007
N  N34  1  0.51600000  0.45010000  0.01910000  1.0 0.6506393007
N  N35  1  0.51600000  0.95010000  0.48090000  1.0 0.6506393007
N  N36  1  0.01600000  0.04990000  0.51910000  1.0 0.6506393007
O  O1  1  0.51500000  0.63810000  0.37920000  1.0 -0.0873182882
O  O2  1  0.01500000  0.36190000  0.62080000  1.0 -0.0873182882
O  O3  1  0.01500000  0.86190000  0.87920000  1.0 -0.0873182882
O  O4  1  0.51500000  0.13810000  0.12080000  1.0 -0.0873182882
O  O5  1  0.53200000  0.70240000  0.45590000  1.0 -0.0823045597
O  O6  1  0.03200000  0.29760000  0.54410000  1.0 -0.0823045597
O  O7  1  0.03200000  0.79760000  0.95590000  1.0 -0.0823045597
O  O8  1  0.53200000  0.20240000  0.04410000  1.0 -0.0823045597
O  O9  1  0.66600000  0.51010000  0.68370000  1.0 -0.2223506184
O  O10  1  0.16600000  0.48990000  0.31630000  1.0 -0.2223506184
O  O11  1  0.16600000  0.98990000  0.18370000  1.0 -0.2223506184
O  O12  1  0.66600000  0.01010000  0.81630000  1.0 -0.2223506184
O  O13  1  0.31100000  0.55060000  0.68060000  1.0 -0.2993940139
O  O14  1  0.81100000  0.44940000  0.31940000  1.0 -0.2993940139
O  O15  1  0.81100000  0.94940000  0.18060000  1.0 -0.2993940139
O  O16  1  0.31100000  0.05060000  0.81940000  1.0 -0.2993940139
O  O17  1  0.59900000  0.62650000  0.66600000  1.0 -0.4095186093
O  O18  1  0.09900000  0.37350000  0.33400000  1.0 -0.4095186093
O  O19  1  0.09900000  0.87350000  0.16600000  1.0 -0.4095186093
O  O20  1  0.59900000  0.12650000  0.83400000  1.0 -0.4095186093
O  O21  1  0.50600000  0.51370000  0.39290000  1.0 -0.3415824869
O  O22  1  0.00600000  0.48630000  0.60710000  1.0 -0.3415824869
O  O23  1  0.00600000  0.98630000  0.89290000  1.0 -0.3415824869
O  O24  1  0.50600000  0.01370000  0.10710000  1.0 -0.3415824869
O  O25  1  0.92100000  0.72320000  0.54670000  1.0 -0.8035876253
O  O26  1  0.42100000  0.27680000  0.45330000  1.0 -0.8035876253
O  O27  1  0.42100000  0.77680000  0.04670000  1.0 -0.8035876253
O  O28  1  0.92100000  0.22320000  0.95330000  1.0 -0.8035876253
O  O29  1  0.51900000  0.46310000  0.67110000  1.0 -0.2125986652
O  O30  1  0.01900000  0.53690000  0.32890000  1.0 -0.2125986652
O  O31  1  0.01900000  0.03690000  0.17110000  1.0 -0.2125986652
O  O32  1  0.51900000  0.96310000  0.82890000  1.0 -0.2125986652
O  O33  1  0.47600000  0.56630000  0.66700000  1.0 0.0992282277
O  O34  1  0.97600000  0.43370000  0.33300000  1.0 0.0992282277
O  O35  1  0.97600000  0.93370000  0.16700000  1.0 0.0992282277
O  O36  1  0.47600000  0.06630000  0.83300000  1.0 0.0992282277
O  O37  1  0.66400000  0.64420000  0.39300000  1.0 -0.2273587385
O  O38  1  0.16400000  0.35580000  0.60700000  1.0 -0.2273587385
O  O39  1  0.16400000  0.85580000  0.89300000  1.0 -0.2273587385
O  O40  1  0.66400000  0.14420000  0.10700000  1.0 -0.2273587385
O  O41  1  0.29000000  0.63930000  0.40570000  1.0 -0.3824104169
O  O42  1  0.79000000  0.36070000  0.59430000  1.0 -0.3824104169
O  O43  1  0.79000000  0.86070000  0.90570000  1.0 -0.3824104169
O  O44  1  0.29000000  0.13930000  0.09430000  1.0 -0.3824104169
O  O45  1  0.49800000  0.69890000  0.48030000  1.0 -0.1769610444
O  O46  1  0.99800000  0.30110000  0.51970000  1.0 -0.1769610444
O  O47  1  0.99800000  0.80110000  0.98030000  1.0 -0.1769610444
O  O48  1  0.49800000  0.19890000  0.01970000  1.0 -0.1769610444
O  O49  1  0.54100000  0.40190000  0.57550000  1.0 -0.3886892596
O  O50  1  0.04100000  0.59810000  0.42450000  1.0 -0.3886892596
O  O51  1  0.04100000  0.09810000  0.07550000  1.0 -0.3886892596
O  O52  1  0.54100000  0.90190000  0.92450000  1.0 -0.3886892596
O  O53  1  0.02100000  0.49210000  0.99570000  1.0 -0.4343728484
O  O54  1  0.01100000  0.56440000  0.92720000  1.0 -0.4382340708
O  O55  1  0.96400000  0.58990000  0.01970000  1.0 -0.4343728484
O  O56  1  0.52100000  0.50790000  0.00430000  1.0 -0.4343728484
O  O57  1  0.51100000  0.43560000  0.07280000  1.0 -0.4382340708
O  O58  1  0.46400000  0.41010000  0.98030000  1.0 -0.4343728484
O  O59  1  0.52100000  0.00790000  0.49570000  1.0 -0.4343728484
O  O60  1  0.51100000  0.93560000  0.42720000  1.0 -0.4382340708
O  O61  1  0.46400000  0.91010000  0.51970000  1.0 -0.4343728484
O  O62  1  0.02100000  0.99210000  0.50430000  1.0 -0.4343728484
O  O63  1  0.01100000  0.06440000  0.57280000  1.0 -0.4382340708
O  O64  1  0.96400000  0.08990000  0.48030000  1.0 -0.4343728484
