# DDEC6 charges by PACMAN v1.1 (https://github.com/mtap-research/PACMAN-charge/)
data_BAZFUF_ASR_pacman
_symmetry_space_group_name_H-M   'P 1'
_cell_length_a   27.47190000
_cell_length_b   27.47190000
_cell_length_c   27.47190000
_cell_angle_alpha   90.00000000
_cell_angle_beta   90.00000000
_cell_angle_gamma   90.00000000
_symmetry_Int_Tables_number   1
_chemical_formula_structural   CuH10(C9O2)2
_chemical_formula_sum   'Cu12 H120 C216 O48'
_cell_volume   20733.18824564
_cell_formula_units_Z   12
loop_
 _symmetry_equiv_pos_site_id
 _symmetry_equiv_pos_as_xyz
  1  'x, y, z'
loop_
 _atom_site_type_symbol
 _atom_site_label
 _atom_site_symmetry_multiplicity
 _atom_site_fract_x
 _atom_site_fract_y
 _atom_site_fract_z
 _atom_site_occupancy
 _atom_site_charge
Cu  Cu1  1  0.50000000  0.79797000  0.00000000  1.0 0.8496242202
Cu  Cu2  1  0.50000000  0.20203000  0.00000000  1.0 0.8496242202
Cu  Cu3  1  0.00000000  0.50000000  0.79797000  1.0 0.8496242202
Cu  Cu4  1  0.00000000  0.50000000  0.20203000  1.0 0.8496242202
Cu  Cu5  1  0.79797000  0.00000000  0.50000000  1.0 0.8496242202
Cu  Cu6  1  0.20203000  0.00000000  0.50000000  1.0 0.8496242202
Cu  Cu7  1  0.29797000  0.00000000  0.50000000  1.0 0.8496242202
Cu  Cu8  1  0.70203000  0.00000000  0.50000000  1.0 0.8496242202
Cu  Cu9  1  0.00000000  0.50000000  0.70203000  1.0 0.8496242202
Cu  Cu10  1  0.00000000  0.50000000  0.29797000  1.0 0.8496242202
Cu  Cu11  1  0.50000000  0.29797000  0.00000000  1.0 0.8496242202
Cu  Cu12  1  0.50000000  0.70203000  0.00000000  1.0 0.8496242202
H  H1  1  0.60890000  0.82210000  0.11030000  1.0 0.1332213219
H  H2  1  0.39110000  0.17790000  0.11030000  1.0 0.1332213219
H  H3  1  0.39110000  0.82210000  0.88970000  1.0 0.1332213219
H  H4  1  0.60890000  0.17790000  0.88970000  1.0 0.1332213219
H  H5  1  0.11030000  0.60890000  0.82210000  1.0 0.1332213219
H  H6  1  0.11030000  0.39110000  0.17790000  1.0 0.1332213219
H  H7  1  0.88970000  0.39110000  0.82210000  1.0 0.1332213219
H  H8  1  0.88970000  0.60890000  0.17790000  1.0 0.1332213219
H  H9  1  0.82210000  0.11030000  0.60890000  1.0 0.1332213219
H  H10  1  0.17790000  0.11030000  0.39110000  1.0 0.1332213219
H  H11  1  0.82210000  0.88970000  0.39110000  1.0 0.1332213219
H  H12  1  0.17790000  0.88970000  0.60890000  1.0 0.1332213219
H  H13  1  0.32210000  0.10890000  0.38970000  1.0 0.1332213219
H  H14  1  0.67790000  0.89110000  0.38970000  1.0 0.1332213219
H  H15  1  0.32210000  0.89110000  0.61030000  1.0 0.1332213219
H  H16  1  0.67790000  0.10890000  0.61030000  1.0 0.1332213219
H  H17  1  0.10890000  0.61030000  0.67790000  1.0 0.1332213219
H  H18  1  0.89110000  0.61030000  0.32210000  1.0 0.1332213219
H  H19  1  0.89110000  0.38970000  0.67790000  1.0 0.1332213219
H  H20  1  0.10890000  0.38970000  0.32210000  1.0 0.1332213219
H  H21  1  0.61030000  0.32210000  0.89110000  1.0 0.1332213219
H  H22  1  0.61030000  0.67790000  0.10890000  1.0 0.1332213219
H  H23  1  0.38970000  0.32210000  0.10890000  1.0 0.1332213219
H  H24  1  0.38970000  0.67790000  0.89110000  1.0 0.1332213219
H  H25  1  0.39110000  0.17790000  0.88970000  1.0 0.1332213219
H  H26  1  0.60890000  0.82210000  0.88970000  1.0 0.1332213219
H  H27  1  0.60890000  0.17790000  0.11030000  1.0 0.1332213219
H  H28  1  0.39110000  0.82210000  0.11030000  1.0 0.1332213219
H  H29  1  0.88970000  0.39110000  0.17790000  1.0 0.1332213219
H  H30  1  0.88970000  0.60890000  0.82210000  1.0 0.1332213219
H  H31  1  0.11030000  0.60890000  0.17790000  1.0 0.1332213219
H  H32  1  0.11030000  0.39110000  0.82210000  1.0 0.1332213219
H  H33  1  0.17790000  0.88970000  0.39110000  1.0 0.1332213219
H  H34  1  0.82210000  0.88970000  0.60890000  1.0 0.1332213219
H  H35  1  0.17790000  0.11030000  0.60890000  1.0 0.1332213219
H  H36  1  0.82210000  0.11030000  0.39110000  1.0 0.1332213219
H  H37  1  0.67790000  0.89110000  0.61030000  1.0 0.1332213219
H  H38  1  0.32210000  0.10890000  0.61030000  1.0 0.1332213219
H  H39  1  0.67790000  0.10890000  0.38970000  1.0 0.1332213219
H  H40  1  0.32210000  0.89110000  0.38970000  1.0 0.1332213219
H  H41  1  0.89110000  0.38970000  0.32210000  1.0 0.1332213219
H  H42  1  0.10890000  0.38970000  0.67790000  1.0 0.1332213219
H  H43  1  0.10890000  0.61030000  0.32210000  1.0 0.1332213219
H  H44  1  0.89110000  0.61030000  0.67790000  1.0 0.1332213219
H  H45  1  0.38970000  0.67790000  0.10890000  1.0 0.1332213219
H  H46  1  0.38970000  0.32210000  0.89110000  1.0 0.1332213219
H  H47  1  0.61030000  0.67790000  0.89110000  1.0 0.1332213219
H  H48  1  0.61030000  0.32210000  0.10890000  1.0 0.1332213219
H  H49  1  0.66880000  0.82270000  0.16980000  1.0 0.1161631183
H  H50  1  0.33120000  0.17730000  0.16980000  1.0 0.1161631183
H  H51  1  0.33120000  0.82270000  0.83020000  1.0 0.1161631183
H  H52  1  0.66880000  0.17730000  0.83020000  1.0 0.1161631183
H  H53  1  0.16980000  0.66880000  0.82270000  1.0 0.1161631183
H  H54  1  0.16980000  0.33120000  0.17730000  1.0 0.1161631183
H  H55  1  0.83020000  0.33120000  0.82270000  1.0 0.1161631183
H  H56  1  0.83020000  0.66880000  0.17730000  1.0 0.1161631183
H  H57  1  0.82270000  0.16980000  0.66880000  1.0 0.1161631183
H  H58  1  0.17730000  0.16980000  0.33120000  1.0 0.1161631183
H  H59  1  0.82270000  0.83020000  0.33120000  1.0 0.1161631183
H  H60  1  0.17730000  0.83020000  0.66880000  1.0 0.1161631183
H  H61  1  0.32270000  0.16880000  0.33020000  1.0 0.1161631183
H  H62  1  0.67730000  0.83120000  0.33020000  1.0 0.1161631183
H  H63  1  0.32270000  0.83120000  0.66980000  1.0 0.1161631183
H  H64  1  0.67730000  0.16880000  0.66980000  1.0 0.1161631183
H  H65  1  0.16880000  0.66980000  0.67730000  1.0 0.1161631183
H  H66  1  0.83120000  0.66980000  0.32270000  1.0 0.1161631183
H  H67  1  0.83120000  0.33020000  0.67730000  1.0 0.1161631183
H  H68  1  0.16880000  0.33020000  0.32270000  1.0 0.1161631183
H  H69  1  0.66980000  0.32270000  0.83120000  1.0 0.1161631183
H  H70  1  0.66980000  0.67730000  0.16880000  1.0 0.1161631183
H  H71  1  0.33020000  0.32270000  0.16880000  1.0 0.1161631183
H  H72  1  0.33020000  0.67730000  0.83120000  1.0 0.1161631183
H  H73  1  0.33120000  0.17730000  0.83020000  1.0 0.1161631183
H  H74  1  0.66880000  0.82270000  0.83020000  1.0 0.1161631183
H  H75  1  0.66880000  0.17730000  0.16980000  1.0 0.1161631183
H  H76  1  0.33120000  0.82270000  0.16980000  1.0 0.1161631183
H  H77  1  0.83020000  0.33120000  0.17730000  1.0 0.1161631183
H  H78  1  0.83020000  0.66880000  0.82270000  1.0 0.1161631183
H  H79  1  0.16980000  0.66880000  0.17730000  1.0 0.1161631183
H  H80  1  0.16980000  0.33120000  0.82270000  1.0 0.1161631183
H  H81  1  0.17730000  0.83020000  0.33120000  1.0 0.1161631183
H  H82  1  0.82270000  0.83020000  0.66880000  1.0 0.1161631183
H  H83  1  0.17730000  0.16980000  0.66880000  1.0 0.1161631183
H  H84  1  0.82270000  0.16980000  0.33120000  1.0 0.1161631183
H  H85  1  0.67730000  0.83120000  0.66980000  1.0 0.1161631183
H  H86  1  0.32270000  0.16880000  0.66980000  1.0 0.1161631183
H  H87  1  0.67730000  0.16880000  0.33020000  1.0 0.1161631183
H  H88  1  0.32270000  0.83120000  0.33020000  1.0 0.1161631183
H  H89  1  0.83120000  0.33020000  0.32270000  1.0 0.1161631183
H  H90  1  0.16880000  0.33020000  0.67730000  1.0 0.1161631183
H  H91  1  0.16880000  0.66980000  0.32270000  1.0 0.1161631183
H  H92  1  0.83120000  0.66980000  0.67730000  1.0 0.1161631183
H  H93  1  0.33020000  0.67730000  0.16880000  1.0 0.1161631183
H  H94  1  0.33020000  0.32270000  0.83120000  1.0 0.1161631183
H  H95  1  0.66980000  0.67730000  0.83120000  1.0 0.1161631183
H  H96  1  0.66980000  0.32270000  0.16880000  1.0 0.1161631183
H  H97  1  0.69030000  0.80970000  0.25000000  1.0 0.1135480042
H  H98  1  0.30970000  0.19030000  0.25000000  1.0 0.1135480042
H  H99  1  0.30970000  0.80970000  0.75000000  1.0 0.1135480042
H  H100  1  0.69030000  0.19030000  0.75000000  1.0 0.1135480042
H  H101  1  0.25000000  0.69030000  0.80970000  1.0 0.1135480042
H  H102  1  0.25000000  0.30970000  0.19030000  1.0 0.1135480042
H  H103  1  0.75000000  0.30970000  0.80970000  1.0 0.1135480042
H  H104  1  0.75000000  0.69030000  0.19030000  1.0 0.1135480042
H  H105  1  0.80970000  0.25000000  0.69030000  1.0 0.1135480042
H  H106  1  0.19030000  0.25000000  0.30970000  1.0 0.1135480042
H  H107  1  0.80970000  0.75000000  0.30970000  1.0 0.1135480042
H  H108  1  0.19030000  0.75000000  0.69030000  1.0 0.1135480042
H  H109  1  0.30970000  0.19030000  0.75000000  1.0 0.1135480042
H  H110  1  0.69030000  0.80970000  0.75000000  1.0 0.1135480042
H  H111  1  0.69030000  0.19030000  0.25000000  1.0 0.1135480042
H  H112  1  0.30970000  0.80970000  0.25000000  1.0 0.1135480042
H  H113  1  0.75000000  0.30970000  0.19030000  1.0 0.1135480042
H  H114  1  0.75000000  0.69030000  0.80970000  1.0 0.1135480042
H  H115  1  0.25000000  0.69030000  0.19030000  1.0 0.1135480042
H  H116  1  0.25000000  0.30970000  0.80970000  1.0 0.1135480042
H  H117  1  0.19030000  0.75000000  0.30970000  1.0 0.1135480042
H  H118  1  0.80970000  0.75000000  0.69030000  1.0 0.1135480042
H  H119  1  0.19030000  0.25000000  0.69030000  1.0 0.1135480042
H  H120  1  0.80970000  0.25000000  0.30970000  1.0 0.1135480042
C  C1  1  0.56441000  0.75000000  0.06441000  1.0 0.5703230189
C  C2  1  0.43559000  0.25000000  0.06441000  1.0 0.5703230189
C  C3  1  0.43559000  0.75000000  0.93559000  1.0 0.5703230189
C  C4  1  0.56441000  0.25000000  0.93559000  1.0 0.5703230189
C  C5  1  0.06441000  0.56441000  0.75000000  1.0 0.5703230189
C  C6  1  0.06441000  0.43559000  0.25000000  1.0 0.5703230189
C  C7  1  0.93559000  0.43559000  0.75000000  1.0 0.5703230189
C  C8  1  0.93559000  0.56441000  0.25000000  1.0 0.5703230189
C  C9  1  0.75000000  0.06441000  0.56441000  1.0 0.5703230189
C  C10  1  0.25000000  0.06441000  0.43559000  1.0 0.5703230189
C  C11  1  0.75000000  0.93559000  0.43559000  1.0 0.5703230189
C  C12  1  0.25000000  0.93559000  0.56441000  1.0 0.5703230189
C  C13  1  0.43559000  0.25000000  0.93559000  1.0 0.5703230189
C  C14  1  0.56441000  0.75000000  0.93559000  1.0 0.5703230189
C  C15  1  0.56441000  0.25000000  0.06441000  1.0 0.5703230189
C  C16  1  0.43559000  0.75000000  0.06441000  1.0 0.5703230189
C  C17  1  0.93559000  0.43559000  0.25000000  1.0 0.5703230189
C  C18  1  0.93559000  0.56441000  0.75000000  1.0 0.5703230189
C  C19  1  0.06441000  0.56441000  0.25000000  1.0 0.5703230189
C  C20  1  0.06441000  0.43559000  0.75000000  1.0 0.5703230189
C  C21  1  0.25000000  0.93559000  0.43559000  1.0 0.5703230189
C  C22  1  0.75000000  0.93559000  0.56441000  1.0 0.5703230189
C  C23  1  0.25000000  0.06441000  0.56441000  1.0 0.5703230189
C  C24  1  0.75000000  0.06441000  0.43559000  1.0 0.5703230189
C  C25  1  0.60355000  0.75000000  0.10355000  1.0 -0.0263600853
C  C26  1  0.39645000  0.25000000  0.10355000  1.0 -0.0263600853
C  C27  1  0.39645000  0.75000000  0.89645000  1.0 -0.0263600853
C  C28  1  0.60355000  0.25000000  0.89645000  1.0 -0.0263600853
C  C29  1  0.10355000  0.60355000  0.75000000  1.0 -0.0263600853
C  C30  1  0.10355000  0.39645000  0.25000000  1.0 -0.0263600853
C  C31  1  0.89645000  0.39645000  0.75000000  1.0 -0.0263600853
C  C32  1  0.89645000  0.60355000  0.25000000  1.0 -0.0263600853
C  C33  1  0.75000000  0.10355000  0.60355000  1.0 -0.0263600853
C  C34  1  0.25000000  0.10355000  0.39645000  1.0 -0.0263600853
C  C35  1  0.75000000  0.89645000  0.39645000  1.0 -0.0263600853
C  C36  1  0.25000000  0.89645000  0.60355000  1.0 -0.0263600853
C  C37  1  0.39645000  0.25000000  0.89645000  1.0 -0.0263600853
C  C38  1  0.60355000  0.75000000  0.89645000  1.0 -0.0263600853
C  C39  1  0.60355000  0.25000000  0.10355000  1.0 -0.0263600853
C  C40  1  0.39645000  0.75000000  0.10355000  1.0 -0.0263600853
C  C41  1  0.89645000  0.39645000  0.25000000  1.0 -0.0263600853
C  C42  1  0.89645000  0.60355000  0.75000000  1.0 -0.0263600853
C  C43  1  0.10355000  0.60355000  0.25000000  1.0 -0.0263600853
C  C44  1  0.10355000  0.39645000  0.75000000  1.0 -0.0263600853
C  C45  1  0.25000000  0.89645000  0.39645000  1.0 -0.0263600853
C  C46  1  0.75000000  0.89645000  0.60355000  1.0 -0.0263600853
C  C47  1  0.25000000  0.10355000  0.60355000  1.0 -0.0263600853
C  C48  1  0.75000000  0.10355000  0.39645000  1.0 -0.0263600853
C  C49  1  0.62110000  0.79280000  0.12188000  1.0 -0.0864357257
C  C50  1  0.37890000  0.20720000  0.12188000  1.0 -0.0864357257
C  C51  1  0.37890000  0.79280000  0.87812000  1.0 -0.0864357257
C  C52  1  0.62110000  0.20720000  0.87812000  1.0 -0.0864357257
C  C53  1  0.12188000  0.62110000  0.79280000  1.0 -0.0864357257
C  C54  1  0.12188000  0.37890000  0.20720000  1.0 -0.0864357257
C  C55  1  0.87812000  0.37890000  0.79280000  1.0 -0.0864357257
C  C56  1  0.87812000  0.62110000  0.20720000  1.0 -0.0864357257
C  C57  1  0.79280000  0.12188000  0.62110000  1.0 -0.0864357257
C  C58  1  0.20720000  0.12188000  0.37890000  1.0 -0.0864357257
C  C59  1  0.79280000  0.87812000  0.37890000  1.0 -0.0864357257
C  C60  1  0.20720000  0.87812000  0.62110000  1.0 -0.0864357257
C  C61  1  0.29280000  0.12110000  0.37812000  1.0 -0.0864357257
C  C62  1  0.70720000  0.87890000  0.37812000  1.0 -0.0864357257
C  C63  1  0.29280000  0.87890000  0.62188000  1.0 -0.0864357257
C  C64  1  0.70720000  0.12110000  0.62188000  1.0 -0.0864357257
C  C65  1  0.12110000  0.62188000  0.70720000  1.0 -0.0864357257
C  C66  1  0.87890000  0.62188000  0.29280000  1.0 -0.0864357257
C  C67  1  0.87890000  0.37812000  0.70720000  1.0 -0.0864357257
C  C68  1  0.12110000  0.37812000  0.29280000  1.0 -0.0864357257
C  C69  1  0.62188000  0.29280000  0.87890000  1.0 -0.0864357257
C  C70  1  0.62188000  0.70720000  0.12110000  1.0 -0.0864357257
C  C71  1  0.37812000  0.29280000  0.12110000  1.0 -0.0864357257
C  C72  1  0.37812000  0.70720000  0.87890000  1.0 -0.0864357257
C  C73  1  0.37890000  0.20720000  0.87812000  1.0 -0.0864357257
C  C74  1  0.62110000  0.79280000  0.87812000  1.0 -0.0864357257
C  C75  1  0.62110000  0.20720000  0.12188000  1.0 -0.0864357257
C  C76  1  0.37890000  0.79280000  0.12188000  1.0 -0.0864357257
C  C77  1  0.87812000  0.37890000  0.20720000  1.0 -0.0864357257
C  C78  1  0.87812000  0.62110000  0.79280000  1.0 -0.0864357257
C  C79  1  0.12188000  0.62110000  0.20720000  1.0 -0.0864357257
C  C80  1  0.12188000  0.37890000  0.79280000  1.0 -0.0864357257
C  C81  1  0.20720000  0.87812000  0.37890000  1.0 -0.0864357257
C  C82  1  0.79280000  0.87812000  0.62110000  1.0 -0.0864357257
C  C83  1  0.20720000  0.12188000  0.62110000  1.0 -0.0864357257
C  C84  1  0.79280000  0.12188000  0.37890000  1.0 -0.0864357257
C  C85  1  0.70720000  0.87890000  0.62188000  1.0 -0.0864357257
C  C86  1  0.29280000  0.12110000  0.62188000  1.0 -0.0864357257
C  C87  1  0.70720000  0.12110000  0.37812000  1.0 -0.0864357257
C  C88  1  0.29280000  0.87890000  0.37812000  1.0 -0.0864357257
C  C89  1  0.87890000  0.37812000  0.29280000  1.0 -0.0864357257
C  C90  1  0.12110000  0.37812000  0.70720000  1.0 -0.0864357257
C  C91  1  0.12110000  0.62188000  0.29280000  1.0 -0.0864357257
C  C92  1  0.87890000  0.62188000  0.70720000  1.0 -0.0864357257
C  C93  1  0.37812000  0.70720000  0.12110000  1.0 -0.0864357257
C  C94  1  0.37812000  0.29280000  0.87890000  1.0 -0.0864357257
C  C95  1  0.62188000  0.70720000  0.87890000  1.0 -0.0864357257
C  C96  1  0.62188000  0.29280000  0.12110000  1.0 -0.0864357257
C  C97  1  0.65718000  0.79321000  0.15786000  1.0 -0.1573878065
C  C98  1  0.34282000  0.20679000  0.15786000  1.0 -0.1573878065
C  C99  1  0.34282000  0.79321000  0.84214000  1.0 -0.1573878065
C  C100  1  0.65718000  0.20679000  0.84214000  1.0 -0.1573878065
C  C101  1  0.15786000  0.65718000  0.79321000  1.0 -0.1573878065
C  C102  1  0.15786000  0.34282000  0.20679000  1.0 -0.1573878065
C  C103  1  0.84214000  0.34282000  0.79321000  1.0 -0.1573878065
C  C104  1  0.84214000  0.65718000  0.20679000  1.0 -0.1573878065
C  C105  1  0.79321000  0.15786000  0.65718000  1.0 -0.1573878065
C  C106  1  0.20679000  0.15786000  0.34282000  1.0 -0.1573878065
C  C107  1  0.79321000  0.84214000  0.34282000  1.0 -0.1573878065
C  C108  1  0.20679000  0.84214000  0.65718000  1.0 -0.1573878065
C  C109  1  0.29321000  0.15718000  0.34214000  1.0 -0.1573878065
C  C110  1  0.70679000  0.84282000  0.34214000  1.0 -0.1573878065
C  C111  1  0.29321000  0.84282000  0.65786000  1.0 -0.1573878065
C  C112  1  0.70679000  0.15718000  0.65786000  1.0 -0.1573878065
C  C113  1  0.15718000  0.65786000  0.70679000  1.0 -0.1573878065
C  C114  1  0.84282000  0.65786000  0.29321000  1.0 -0.1573878065
C  C115  1  0.84282000  0.34214000  0.70679000  1.0 -0.1573878065
C  C116  1  0.15718000  0.34214000  0.29321000  1.0 -0.1573878065
C  C117  1  0.65786000  0.29321000  0.84282000  1.0 -0.1573878065
C  C118  1  0.65786000  0.70679000  0.15718000  1.0 -0.1573878065
C  C119  1  0.34214000  0.29321000  0.15718000  1.0 -0.1573878065
C  C120  1  0.34214000  0.70679000  0.84282000  1.0 -0.1573878065
C  C121  1  0.34282000  0.20679000  0.84214000  1.0 -0.1573878065
C  C122  1  0.65718000  0.79321000  0.84214000  1.0 -0.1573878065
C  C123  1  0.65718000  0.20679000  0.15786000  1.0 -0.1573878065
C  C124  1  0.34282000  0.79321000  0.15786000  1.0 -0.1573878065
C  C125  1  0.84214000  0.34282000  0.20679000  1.0 -0.1573878065
C  C126  1  0.84214000  0.65718000  0.79321000  1.0 -0.1573878065
C  C127  1  0.15786000  0.65718000  0.20679000  1.0 -0.1573878065
C  C128  1  0.15786000  0.34282000  0.79321000  1.0 -0.1573878065
C  C129  1  0.20679000  0.84214000  0.34282000  1.0 -0.1573878065
C  C130  1  0.79321000  0.84214000  0.65718000  1.0 -0.1573878065
C  C131  1  0.20679000  0.15786000  0.65718000  1.0 -0.1573878065
C  C132  1  0.79321000  0.15786000  0.34282000  1.0 -0.1573878065
C  C133  1  0.70679000  0.84282000  0.65786000  1.0 -0.1573878065
C  C134  1  0.29321000  0.15718000  0.65786000  1.0 -0.1573878065
C  C135  1  0.70679000  0.15718000  0.34214000  1.0 -0.1573878065
C  C136  1  0.29321000  0.84282000  0.34214000  1.0 -0.1573878065
C  C137  1  0.84282000  0.34214000  0.29321000  1.0 -0.1573878065
C  C138  1  0.15718000  0.34214000  0.70679000  1.0 -0.1573878065
C  C139  1  0.15718000  0.65786000  0.29321000  1.0 -0.1573878065
C  C140  1  0.84282000  0.65786000  0.70679000  1.0 -0.1573878065
C  C141  1  0.34214000  0.70679000  0.15718000  1.0 -0.1573878065
C  C142  1  0.34214000  0.29321000  0.84282000  1.0 -0.1573878065
C  C143  1  0.65786000  0.70679000  0.84282000  1.0 -0.1573878065
C  C144  1  0.65786000  0.29321000  0.15718000  1.0 -0.1573878065
C  C145  1  0.67564000  0.75000000  0.17564000  1.0 0.0688634129
C  C146  1  0.32436000  0.25000000  0.17564000  1.0 0.0688634129
C  C147  1  0.32436000  0.75000000  0.82436000  1.0 0.0688634129
C  C148  1  0.67564000  0.25000000  0.82436000  1.0 0.0688634129
C  C149  1  0.17564000  0.67564000  0.75000000  1.0 0.0688634129
C  C150  1  0.17564000  0.32436000  0.25000000  1.0 0.0688634129
C  C151  1  0.82436000  0.32436000  0.75000000  1.0 0.0688634129
C  C152  1  0.82436000  0.67564000  0.25000000  1.0 0.0688634129
C  C153  1  0.75000000  0.17564000  0.67564000  1.0 0.0688634129
C  C154  1  0.25000000  0.17564000  0.32436000  1.0 0.0688634129
C  C155  1  0.75000000  0.82436000  0.32436000  1.0 0.0688634129
C  C156  1  0.25000000  0.82436000  0.67564000  1.0 0.0688634129
C  C157  1  0.32436000  0.25000000  0.82436000  1.0 0.0688634129
C  C158  1  0.67564000  0.75000000  0.82436000  1.0 0.0688634129
C  C159  1  0.67564000  0.25000000  0.17564000  1.0 0.0688634129
C  C160  1  0.32436000  0.75000000  0.17564000  1.0 0.0688634129
C  C161  1  0.82436000  0.32436000  0.25000000  1.0 0.0688634129
C  C162  1  0.82436000  0.67564000  0.75000000  1.0 0.0688634129
C  C163  1  0.17564000  0.67564000  0.25000000  1.0 0.0688634129
C  C164  1  0.17564000  0.32436000  0.75000000  1.0 0.0688634129
C  C165  1  0.25000000  0.82436000  0.32436000  1.0 0.0688634129
C  C166  1  0.75000000  0.82436000  0.67564000  1.0 0.0688634129
C  C167  1  0.25000000  0.17564000  0.67564000  1.0 0.0688634129
C  C168  1  0.75000000  0.17564000  0.32436000  1.0 0.0688634129
C  C169  1  0.71407000  0.75000000  0.21407000  1.0 0.0822864689
C  C170  1  0.28593000  0.25000000  0.21407000  1.0 0.0822864689
C  C171  1  0.28593000  0.75000000  0.78593000  1.0 0.0822864689
C  C172  1  0.71407000  0.25000000  0.78593000  1.0 0.0822864689
C  C173  1  0.21407000  0.71407000  0.75000000  1.0 0.0822864689
C  C174  1  0.21407000  0.28593000  0.25000000  1.0 0.0822864689
C  C175  1  0.78593000  0.28593000  0.75000000  1.0 0.0822864689
C  C176  1  0.78593000  0.71407000  0.25000000  1.0 0.0822864689
C  C177  1  0.75000000  0.21407000  0.71407000  1.0 0.0822864689
C  C178  1  0.25000000  0.21407000  0.28593000  1.0 0.0822864689
C  C179  1  0.75000000  0.78593000  0.28593000  1.0 0.0822864689
C  C180  1  0.25000000  0.78593000  0.71407000  1.0 0.0822864689
C  C181  1  0.28593000  0.25000000  0.78593000  1.0 0.0822864689
C  C182  1  0.71407000  0.75000000  0.78593000  1.0 0.0822864689
C  C183  1  0.71407000  0.25000000  0.21407000  1.0 0.0822864689
C  C184  1  0.28593000  0.75000000  0.21407000  1.0 0.0822864689
C  C185  1  0.78593000  0.28593000  0.25000000  1.0 0.0822864689
C  C186  1  0.78593000  0.71407000  0.75000000  1.0 0.0822864689
C  C187  1  0.21407000  0.71407000  0.25000000  1.0 0.0822864689
C  C188  1  0.21407000  0.28593000  0.75000000  1.0 0.0822864689
C  C189  1  0.25000000  0.78593000  0.28593000  1.0 0.0822864689
C  C190  1  0.75000000  0.78593000  0.71407000  1.0 0.0822864689
C  C191  1  0.25000000  0.21407000  0.71407000  1.0 0.0822864689
C  C192  1  0.75000000  0.21407000  0.28593000  1.0 0.0822864689
C  C193  1  0.71420000  0.78580000  0.25000000  1.0 -0.2087885838
C  C194  1  0.28580000  0.21420000  0.25000000  1.0 -0.2087885838
C  C195  1  0.28580000  0.78580000  0.75000000  1.0 -0.2087885838
C  C196  1  0.71420000  0.21420000  0.75000000  1.0 -0.2087885838
C  C197  1  0.25000000  0.71420000  0.78580000  1.0 -0.2087885838
C  C198  1  0.25000000  0.28580000  0.21420000  1.0 -0.2087885838
C  C199  1  0.75000000  0.28580000  0.78580000  1.0 -0.2087885838
C  C200  1  0.75000000  0.71420000  0.21420000  1.0 -0.2087885838
C  C201  1  0.78580000  0.25000000  0.71420000  1.0 -0.2087885838
C  C202  1  0.21420000  0.25000000  0.28580000  1.0 -0.2087885838
C  C203  1  0.78580000  0.75000000  0.28580000  1.0 -0.2087885838
C  C204  1  0.21420000  0.75000000  0.71420000  1.0 -0.2087885838
C  C205  1  0.28580000  0.21420000  0.75000000  1.0 -0.2087885838
C  C206  1  0.71420000  0.78580000  0.75000000  1.0 -0.2087885838
C  C207  1  0.71420000  0.21420000  0.25000000  1.0 -0.2087885838
C  C208  1  0.28580000  0.78580000  0.25000000  1.0 -0.2087885838
C  C209  1  0.75000000  0.28580000  0.21420000  1.0 -0.2087885838
C  C210  1  0.75000000  0.71420000  0.78580000  1.0 -0.2087885838
C  C211  1  0.25000000  0.71420000  0.21420000  1.0 -0.2087885838
C  C212  1  0.25000000  0.28580000  0.78580000  1.0 -0.2087885838
C  C213  1  0.21420000  0.75000000  0.28580000  1.0 -0.2087885838
C  C214  1  0.78580000  0.75000000  0.71420000  1.0 -0.2087885838
C  C215  1  0.21420000  0.25000000  0.71420000  1.0 -0.2087885838
C  C216  1  0.78580000  0.25000000  0.28580000  1.0 -0.2087885838
O  O1  1  0.55006000  0.79086000  0.05017000  1.0 -0.5179030809
O  O2  1  0.44994000  0.20914000  0.05017000  1.0 -0.5179030809
O  O3  1  0.44994000  0.79086000  0.94983000  1.0 -0.5179030809
O  O4  1  0.55006000  0.20914000  0.94983000  1.0 -0.5179030809
O  O5  1  0.05017000  0.55006000  0.79086000  1.0 -0.5179030809
O  O6  1  0.05017000  0.44994000  0.20914000  1.0 -0.5179030809
O  O7  1  0.94983000  0.44994000  0.79086000  1.0 -0.5179030809
O  O8  1  0.94983000  0.55006000  0.20914000  1.0 -0.5179030809
O  O9  1  0.79086000  0.05017000  0.55006000  1.0 -0.5179030809
O  O10  1  0.20914000  0.05017000  0.44994000  1.0 -0.5179030809
O  O11  1  0.79086000  0.94983000  0.44994000  1.0 -0.5179030809
O  O12  1  0.20914000  0.94983000  0.55006000  1.0 -0.5179030809
O  O13  1  0.29086000  0.05006000  0.44983000  1.0 -0.5179030809
O  O14  1  0.70914000  0.94994000  0.44983000  1.0 -0.5179030809
O  O15  1  0.29086000  0.94994000  0.55017000  1.0 -0.5179030809
O  O16  1  0.70914000  0.05006000  0.55017000  1.0 -0.5179030809
O  O17  1  0.05006000  0.55017000  0.70914000  1.0 -0.5179030809
O  O18  1  0.94994000  0.55017000  0.29086000  1.0 -0.5179030809
O  O19  1  0.94994000  0.44983000  0.70914000  1.0 -0.5179030809
O  O20  1  0.05006000  0.44983000  0.29086000  1.0 -0.5179030809
O  O21  1  0.55017000  0.29086000  0.94994000  1.0 -0.5179030809
O  O22  1  0.55017000  0.70914000  0.05006000  1.0 -0.5179030809
O  O23  1  0.44983000  0.29086000  0.05006000  1.0 -0.5179030809
O  O24  1  0.44983000  0.70914000  0.94994000  1.0 -0.5179030809
O  O25  1  0.44994000  0.20914000  0.94983000  1.0 -0.5179030809
O  O26  1  0.55006000  0.79086000  0.94983000  1.0 -0.5179030809
O  O27  1  0.55006000  0.20914000  0.05017000  1.0 -0.5179030809
O  O28  1  0.44994000  0.79086000  0.05017000  1.0 -0.5179030809
O  O29  1  0.94983000  0.44994000  0.20914000  1.0 -0.5179030809
O  O30  1  0.94983000  0.55006000  0.79086000  1.0 -0.5179030809
O  O31  1  0.05017000  0.55006000  0.20914000  1.0 -0.5179030809
O  O32  1  0.05017000  0.44994000  0.79086000  1.0 -0.5179030809
O  O33  1  0.20914000  0.94983000  0.44994000  1.0 -0.5179030809
O  O34  1  0.79086000  0.94983000  0.55006000  1.0 -0.5179030809
O  O35  1  0.20914000  0.05017000  0.55006000  1.0 -0.5179030809
O  O36  1  0.79086000  0.05017000  0.44994000  1.0 -0.5179030809
O  O37  1  0.70914000  0.94994000  0.55017000  1.0 -0.5179030809
O  O38  1  0.29086000  0.05006000  0.55017000  1.0 -0.5179030809
O  O39  1  0.70914000  0.05006000  0.44983000  1.0 -0.5179030809
O  O40  1  0.29086000  0.94994000  0.44983000  1.0 -0.5179030809
O  O41  1  0.94994000  0.44983000  0.29086000  1.0 -0.5179030809
O  O42  1  0.05006000  0.44983000  0.70914000  1.0 -0.5179030809
O  O43  1  0.05006000  0.55017000  0.29086000  1.0 -0.5179030809
O  O44  1  0.94994000  0.55017000  0.70914000  1.0 -0.5179030809
O  O45  1  0.44983000  0.70914000  0.05006000  1.0 -0.5179030809
O  O46  1  0.44983000  0.29086000  0.94994000  1.0 -0.5179030809
O  O47  1  0.55017000  0.70914000  0.94994000  1.0 -0.5179030809
O  O48  1  0.55017000  0.29086000  0.05006000  1.0 -0.5179030809
