# DDEC6 charges by PACMAN v1.1 (https://github.com/mtap-research/PACMAN-charge/)
data_BAZJIX_ASR_pacman
_symmetry_space_group_name_H-M   'P 1'
_cell_length_a   20.04250000
_cell_length_b   20.04250000
_cell_length_c   26.76100000
_cell_angle_alpha   52.33890000
_cell_angle_beta   127.66100000
_cell_angle_gamma   133.24900000
_symmetry_Int_Tables_number   1
_chemical_formula_structural   Mn5H52C60(N9O)4
_chemical_formula_sum   'Mn10 H104 C120 N72 O8'
_cell_volume   5843.51112544
_cell_formula_units_Z   2
loop_
 _symmetry_equiv_pos_site_id
 _symmetry_equiv_pos_as_xyz
  1  'x, y, z'
loop_
 _atom_site_type_symbol
 _atom_site_label
 _atom_site_symmetry_multiplicity
 _atom_site_fract_x
 _atom_site_fract_y
 _atom_site_fract_z
 _atom_site_occupancy
 _atom_site_charge
Mn  Mn1  1  0.99930000  0.99930000  0.75000000  1.0 0.7625434235
Mn  Mn2  1  0.00070000  0.00070000  0.25000000  1.0 0.7625434235
Mn  Mn3  1  0.14962000  0.12382000  0.87215000  1.0 0.7871563866
Mn  Mn4  1  0.12382000  0.14962000  0.62785000  1.0 0.7871563866
Mn  Mn5  1  0.85038000  0.87618000  0.12785000  1.0 0.7871563866
Mn  Mn6  1  0.87618000  0.85038000  0.37215000  1.0 0.7871563866
Mn  Mn7  1  0.11177000  0.88895000  0.91290000  1.0 0.7203635856
Mn  Mn8  1  0.88895000  0.11177000  0.58710000  1.0 0.7203635856
Mn  Mn9  1  0.88823000  0.11105000  0.08710000  1.0 0.7203635856
Mn  Mn10  1  0.11105000  0.88823000  0.41290000  1.0 0.7203635856
H  H1  1  0.98410000  0.64710000  0.96320000  1.0 0.1221850499
H  H2  1  0.64710000  0.98410000  0.53680000  1.0 0.1221850499
H  H3  1  0.01590000  0.35290000  0.03680000  1.0 0.1221850499
H  H4  1  0.35290000  0.01590000  0.46320000  1.0 0.1221850499
H  H5  1  0.96580000  0.59000000  0.83260000  1.0 0.1284238277
H  H6  1  0.59000000  0.96580000  0.66740000  1.0 0.1284238277
H  H7  1  0.03420000  0.41000000  0.16740000  1.0 0.1284238277
H  H8  1  0.41000000  0.03420000  0.33260000  1.0 0.1284238277
H  H9  1  0.01400000  0.54260000  0.08380000  1.0 0.1221850499
H  H10  1  0.54260000  0.01400000  0.41620000  1.0 0.1221850499
H  H11  1  0.98600000  0.45740000  0.91620000  1.0 0.1221850499
H  H12  1  0.45740000  0.98600000  0.58380000  1.0 0.1221850499
H  H13  1  0.97470000  0.32970000  0.53560000  1.0 0.1221850499
H  H14  1  0.32970000  0.97470000  0.96440000  1.0 0.1221850499
H  H15  1  0.02530000  0.67030000  0.46440000  1.0 0.1221850499
H  H16  1  0.67030000  0.02530000  0.03560000  1.0 0.1221850499
H  H17  1  0.08760000  0.44260000  0.67150000  1.0 0.1284238277
H  H18  1  0.44260000  0.08760000  0.82850000  1.0 0.1284238277
H  H19  1  0.91240000  0.55740000  0.32850000  1.0 0.1284238277
H  H20  1  0.55740000  0.91240000  0.17150000  1.0 0.1284238277
H  H21  1  0.07510000  0.57870000  0.58650000  1.0 0.1221850499
H  H22  1  0.57870000  0.07510000  0.91350000  1.0 0.1221850499
H  H23  1  0.92490000  0.42130000  0.41350000  1.0 0.1221850499
H  H24  1  0.42130000  0.92490000  0.08650000  1.0 0.1221850499
H  H25  1  0.42250000  0.15030000  0.12670000  1.0 0.1284238277
H  H26  1  0.15030000  0.42250000  0.37330000  1.0 0.1284238277
H  H27  1  0.57750000  0.84970000  0.87330000  1.0 0.1284238277
H  H28  1  0.84970000  0.57750000  0.62670000  1.0 0.1284238277
H  H29  1  0.38900000  0.89780000  0.17100000  1.0 0.1221850499
H  H30  1  0.89780000  0.38900000  0.32900000  1.0 0.1221850499
H  H31  1  0.61100000  0.10220000  0.82900000  1.0 0.1221850499
H  H32  1  0.10220000  0.61100000  0.67100000  1.0 0.1221850499
H  H33  1  0.49190000  0.83130000  0.28180000  1.0 0.1284238277
H  H34  1  0.83130000  0.49190000  0.21820000  1.0 0.1284238277
H  H35  1  0.50810000  0.16870000  0.71820000  1.0 0.1284238277
H  H36  1  0.16870000  0.50810000  0.78180000  1.0 0.1284238277
H  H37  1  0.60880000  0.84240000  0.38560000  1.0 0.1284238277
H  H38  1  0.84240000  0.60880000  0.11440000  1.0 0.1284238277
H  H39  1  0.39120000  0.15760000  0.61440000  1.0 0.1284238277
H  H40  1  0.15760000  0.39120000  0.88560000  1.0 0.1284238277
H  H41  1  0.63630000  0.09150000  0.34260000  1.0 0.1284238277
H  H42  1  0.09150000  0.63630000  0.15740000  1.0 0.1284238277
H  H43  1  0.36370000  0.90850000  0.65740000  1.0 0.1284238277
H  H44  1  0.90850000  0.36370000  0.84260000  1.0 0.1284238277
H  H45  1  0.53580000  0.15920000  0.23130000  1.0 0.1284238277
H  H46  1  0.15920000  0.53580000  0.26870000  1.0 0.1284238277
H  H47  1  0.46420000  0.84080000  0.76870000  1.0 0.1284238277
H  H48  1  0.84080000  0.46420000  0.73130000  1.0 0.1284238277
H  H49  1  0.35710000  0.18230000  0.94110000  1.0 0.1086281573
H  H50  1  0.18230000  0.35710000  0.55890000  1.0 0.1086281573
H  H51  1  0.64290000  0.81770000  0.05890000  1.0 0.1086281573
H  H52  1  0.81770000  0.64290000  0.44110000  1.0 0.1086281573
H  H53  1  0.38060000  0.28500000  0.78670000  1.0 0.1086281573
H  H54  1  0.28500000  0.38060000  0.71330000  1.0 0.1086281573
H  H55  1  0.61940000  0.71500000  0.21330000  1.0 0.1086281573
H  H56  1  0.71500000  0.61940000  0.28670000  1.0 0.1086281573
H  H57  1  0.49670000  0.34690000  0.81400000  1.0 0.0913488135
H  H58  1  0.34690000  0.49670000  0.68600000  1.0 0.0913488135
H  H59  1  0.50330000  0.65310000  0.18600000  1.0 0.0827037879
H  H60  1  0.65310000  0.50330000  0.31400000  1.0 0.0827037879
H  H61  1  0.44410000  0.23690000  0.82100000  1.0 0.0913488135
H  H62  1  0.23690000  0.44410000  0.67900000  1.0 0.0913488135
H  H63  1  0.55590000  0.76310000  0.17900000  1.0 0.0913488135
H  H64  1  0.76310000  0.55590000  0.32100000  1.0 0.0913488135
H  H65  1  0.51240000  0.23880000  0.98740000  1.0 0.1086281573
H  H66  1  0.23880000  0.51240000  0.51260000  1.0 0.1086281573
H  H67  1  0.48760000  0.76120000  0.01260000  1.0 0.1086281573
H  H68  1  0.76120000  0.48760000  0.48740000  1.0 0.1086281573
H  H69  1  0.54350000  0.21170000  0.96230000  1.0 0.1008927447
H  H70  1  0.21170000  0.54350000  0.53770000  1.0 0.1008927447
H  H71  1  0.45650000  0.78830000  0.03770000  1.0 0.1008927447
H  H72  1  0.78830000  0.45650000  0.46230000  1.0 0.1008927447
H  H73  1  0.57960000  0.32280000  0.94130000  1.0 0.0708779644
H  H74  1  0.32280000  0.57960000  0.55870000  1.0 0.0708779644
H  H75  1  0.42040000  0.67720000  0.05870000  1.0 0.0708779644
H  H76  1  0.67720000  0.42040000  0.44130000  1.0 0.0708779644
H  H77  1  0.27020000  0.23680000  0.76310000  1.0 0.0827037879
H  H78  1  0.23680000  0.27020000  0.73690000  1.0 0.0827037879
H  H79  1  0.72980000  0.76320000  0.23690000  1.0 0.0827037879
H  H80  1  0.76320000  0.72980000  0.26310000  1.0 0.0827037879
H  H81  1  0.50200000  0.23420000  0.88580000  1.0 0.1008927447
H  H82  1  0.23420000  0.50200000  0.61420000  1.0 0.1008927447
H  H83  1  0.49800000  0.76580000  0.11420000  1.0 0.1008927447
H  H84  1  0.76580000  0.49800000  0.38580000  1.0 0.1008927447
H  H85  1  0.53500000  0.33600000  0.88110000  1.0 0.0708779644
H  H86  1  0.33600000  0.53500000  0.61890000  1.0 0.0708779644
H  H87  1  0.46500000  0.66400000  0.11890000  1.0 0.0708779644
H  H88  1  0.66400000  0.46500000  0.38110000  1.0 0.0708779644
H  H89  1  0.45190000  0.23750000  0.91270000  1.0 0.1221850499
H  H90  1  0.23750000  0.45190000  0.58730000  1.0 0.1221850499
H  H91  1  0.54810000  0.76250000  0.08730000  1.0 0.1221850499
H  H92  1  0.76250000  0.54810000  0.41270000  1.0 0.1221850499
H  H93  1  0.36990000  0.27870000  0.72640000  1.0 0.1008927447
H  H94  1  0.27870000  0.36990000  0.77360000  1.0 0.1008927447
H  H95  1  0.63010000  0.72130000  0.27360000  1.0 0.1008927447
H  H96  1  0.72130000  0.63010000  0.22640000  1.0 0.1008927447
H  H97  1  0.45380000  0.38300000  0.73540000  1.0 0.0827037879
H  H98  1  0.38300000  0.45380000  0.76460000  1.0 0.0827037879
H  H99  1  0.54620000  0.61700000  0.26460000  1.0 0.0827037879
H  H100  1  0.61700000  0.54620000  0.23540000  1.0 0.0827037879
H  H101  1  0.47860000  0.29860000  0.77380000  1.0 0.0708779644
H  H102  1  0.29860000  0.47860000  0.72620000  1.0 0.0708779644
H  H103  1  0.52140000  0.70140000  0.22620000  1.0 0.0708779644
H  H104  1  0.70140000  0.52140000  0.27380000  1.0 0.0708779644
C  C1  1  0.96172000  0.71648000  0.83544000  1.0 0.2322885603
C  C2  1  0.71648000  0.96172000  0.66456000  1.0 0.2322885603
C  C3  1  0.03828000  0.28352000  0.16456000  1.0 0.2322885603
C  C4  1  0.28352000  0.03828000  0.33544000  1.0 0.2322885603
C  C5  1  0.99874000  0.52846000  0.00651000  1.0 0.0913488135
C  C6  1  0.52846000  0.99874000  0.49349000  1.0 0.0913488135
C  C7  1  0.00126000  0.47154000  0.99349000  1.0 0.0913488135
C  C8  1  0.47154000  0.00126000  0.50651000  1.0 0.0913488135
C  C9  1  0.98575000  0.60905000  0.95426000  1.0 -0.1792804558
C  C10  1  0.60905000  0.98575000  0.54574000  1.0 -0.1792804558
C  C11  1  0.01425000  0.39095000  0.04574000  1.0 -0.1792804558
C  C12  1  0.39095000  0.01425000  0.45426000  1.0 -0.1792804558
C  C13  1  0.97549000  0.63251000  0.89043000  1.0 0.0599335496
C  C14  1  0.63251000  0.97549000  0.60957000  1.0 0.0599335496
C  C15  1  0.02451000  0.36749000  0.10957000  1.0 0.0599335496
C  C16  1  0.36749000  0.02451000  0.39043000  1.0 0.0599335496
C  C17  1  0.97491000  0.57449000  0.87695000  1.0 -0.1184732258
C  C18  1  0.57449000  0.97491000  0.62305000  1.0 -0.1184732258
C  C19  1  0.02509000  0.42551000  0.12305000  1.0 -0.1184732258
C  C20  1  0.42551000  0.02509000  0.37695000  1.0 -0.1184732258
C  C21  1  0.01289000  0.50411000  0.07344000  1.0 -0.1441562638
C  C22  1  0.50411000  0.01289000  0.42656000  1.0 -0.1441562638
C  C23  1  0.98711000  0.49589000  0.92656000  1.0 -0.1441562638
C  C24  1  0.49589000  0.98711000  0.57344000  1.0 -0.1441562638
C  C25  1  0.03941000  0.28607000  0.66578000  1.0 0.2322885603
C  C26  1  0.28607000  0.03941000  0.83422000  1.0 0.2322885603
C  C27  1  0.96059000  0.71393000  0.33422000  1.0 0.2322885603
C  C28  1  0.71393000  0.96059000  0.16578000  1.0 0.2322885603
C  C29  1  0.99382000  0.37984000  0.54544000  1.0 -0.23472123
C  C30  1  0.37984000  0.99382000  0.95456000  1.0 -0.2354102597
C  C31  1  0.00618000  0.62016000  0.45456000  1.0 -0.2354102597
C  C32  1  0.62016000  0.00618000  0.04544000  1.0 -0.2354102597
C  C33  1  0.02976000  0.37192000  0.61081000  1.0 0.0367038458
C  C34  1  0.37192000  0.02976000  0.88919000  1.0 0.0367038458
C  C35  1  0.97024000  0.62808000  0.38919000  1.0 0.0367038458
C  C36  1  0.62808000  0.97024000  0.11081000  1.0 0.0367038458
C  C37  1  0.06127000  0.44773000  0.62614000  1.0 -0.1792804558
C  C38  1  0.44773000  0.06127000  0.87386000  1.0 -0.1792804558
C  C39  1  0.93873000  0.55227000  0.37386000  1.0 -0.1792804558
C  C40  1  0.55227000  0.93873000  0.12614000  1.0 -0.1792804558
C  C41  1  0.05393000  0.52827000  0.57577000  1.0 -0.1728337572
C  C42  1  0.52827000  0.05393000  0.92423000  1.0 -0.1728337572
C  C43  1  0.94607000  0.47173000  0.42423000  1.0 -0.1728337572
C  C44  1  0.47173000  0.94607000  0.07577000  1.0 -0.1728337572
C  C45  1  0.98499000  0.46237000  0.49257000  1.0 0.0827037879
C  C46  1  0.46237000  0.98499000  0.00743000  1.0 0.0827037879
C  C47  1  0.01501000  0.53763000  0.50743000  1.0 0.0827037879
C  C48  1  0.53763000  0.01501000  0.99257000  1.0 0.0827037879
C  C49  1  0.31960000  0.01600000  0.07269000  1.0 0.2322885603
C  C50  1  0.01600000  0.31960000  0.42731000  1.0 0.2322885603
C  C51  1  0.68040000  0.98400000  0.92731000  1.0 0.2322885603
C  C52  1  0.98400000  0.68040000  0.57269000  1.0 0.2322885603
C  C53  1  0.43901000  0.10039000  0.15789000  1.0 -0.1293665037
C  C54  1  0.10039000  0.43901000  0.34211000  1.0 -0.1293665037
C  C55  1  0.56099000  0.89961000  0.84211000  1.0 -0.1293665037
C  C56  1  0.89961000  0.56099000  0.65789000  1.0 -0.1293665037
C  C57  1  0.39252000  0.02028000  0.13939000  1.0 0.0599335496
C  C58  1  0.02028000  0.39252000  0.36061000  1.0 0.0599335496
C  C59  1  0.60748000  0.97972000  0.86061000  1.0 0.0599335496
C  C60  1  0.97972000  0.60748000  0.63939000  1.0 0.0599335496
C  C61  1  0.41896000  0.95044000  0.18347000  1.0 -0.1871915121
C  C62  1  0.95044000  0.41896000  0.31653000  1.0 -0.1871915121
C  C63  1  0.58104000  0.04956000  0.81653000  1.0 -0.1871915121
C  C64  1  0.04956000  0.58104000  0.68347000  1.0 -0.1871915121
C  C65  1  0.49048000  0.95512000  0.24763000  1.0 0.0708779644
C  C66  1  0.95512000  0.49048000  0.25237000  1.0 0.0708779644
C  C67  1  0.50952000  0.04488000  0.75237000  1.0 0.0708779644
C  C68  1  0.04488000  0.50952000  0.74763000  1.0 0.0708779644
C  C69  1  0.52027000  0.88373000  0.29387000  1.0 -0.1558609173
C  C70  1  0.88373000  0.52027000  0.20613000  1.0 -0.1545989379
C  C71  1  0.47973000  0.11627000  0.70613000  1.0 -0.1545989379
C  C72  1  0.11627000  0.47973000  0.79387000  1.0 -0.1558609173
C  C73  1  0.58942000  0.89018000  0.35540000  1.0 -0.1184732258
C  C74  1  0.89018000  0.58942000  0.14460000  1.0 -0.1184732258
C  C75  1  0.41058000  0.10982000  0.64460000  1.0 -0.1184732258
C  C76  1  0.10982000  0.41058000  0.85540000  1.0 -0.1184732258
C  C77  1  0.63236000  0.96764000  0.37455000  1.0 0.0599335496
C  C78  1  0.96764000  0.63236000  0.12545000  1.0 0.0599335496
C  C79  1  0.36764000  0.03236000  0.62545000  1.0 0.0599335496
C  C80  1  0.03236000  0.36764000  0.87455000  1.0 0.0599335496
C  C81  1  0.60600000  0.03860000  0.33031000  1.0 -0.1871915121
C  C82  1  0.03860000  0.60600000  0.16969000  1.0 -0.1871915121
C  C83  1  0.39400000  0.96140000  0.66969000  1.0 -0.1871915121
C  C84  1  0.96140000  0.39400000  0.83031000  1.0 -0.1871915121
C  C85  1  0.53362000  0.03238000  0.26662000  1.0 0.0708779644
C  C86  1  0.03238000  0.53362000  0.23338000  1.0 0.0708779644
C  C87  1  0.46638000  0.96762000  0.73338000  1.0 0.0708779644
C  C88  1  0.96762000  0.46638000  0.76662000  1.0 0.0708779644
C  C89  1  0.50650000  0.10610000  0.21953000  1.0 -0.1558609173
C  C90  1  0.10610000  0.50650000  0.28047000  1.0 -0.1558609173
C  C91  1  0.49350000  0.89390000  0.78047000  1.0 -0.1558609173
C  C92  1  0.89390000  0.49350000  0.71953000  1.0 -0.1558609173
C  C93  1  0.70588000  0.97452000  0.44117000  1.0 0.2213809959
C  C94  1  0.97452000  0.70588000  0.05883000  1.0 0.2213809959
C  C95  1  0.29412000  0.02548000  0.55883000  1.0 0.2213809959
C  C96  1  0.02548000  0.29412000  0.94117000  1.0 0.2213809959
C  C97  1  0.35540000  0.20420000  0.89750000  1.0 -0.0100828606
C  C98  1  0.20420000  0.35540000  0.60250000  1.0 -0.0100828606
C  C99  1  0.64460000  0.79580000  0.10250000  1.0 -0.0100828606
C  C100  1  0.79580000  0.64460000  0.39750000  1.0 -0.0100828606
C  C101  1  0.43990000  0.28210000  0.82180000  1.0 -0.0100828606
C  C102  1  0.28210000  0.43990000  0.67820000  1.0 -0.0100828606
C  C103  1  0.56010000  0.71790000  0.17820000  1.0 -0.0100828606
C  C104  1  0.71790000  0.56010000  0.32180000  1.0 -0.0100828606
C  C105  1  0.52580000  0.25600000  0.95030000  1.0 -0.2918269202
C  C106  1  0.25600000  0.52580000  0.54970000  1.0 -0.2918269202
C  C107  1  0.47420000  0.74400000  0.04970000  1.0 -0.2918269202
C  C108  1  0.74400000  0.47420000  0.45030000  1.0 -0.2918269202
C  C109  1  0.31530000  0.23590000  0.80720000  1.0 -0.0305604635
C  C110  1  0.23590000  0.31530000  0.69280000  1.0 -0.0305604635
C  C111  1  0.68470000  0.76410000  0.19280000  1.0 -0.0305604635
C  C112  1  0.76410000  0.68470000  0.30720000  1.0 -0.0305604635
C  C113  1  0.47980000  0.27140000  0.87840000  1.0 -0.0305604635
C  C114  1  0.27140000  0.47980000  0.62160000  1.0 -0.0305604635
C  C115  1  0.52020000  0.72860000  0.12160000  1.0 -0.0305604635
C  C116  1  0.72860000  0.52020000  0.37840000  1.0 -0.0305604635
C  C117  1  0.42930000  0.31290000  0.75790000  1.0 -0.2918269202
C  C118  1  0.31290000  0.42930000  0.74210000  1.0 -0.2918269202
C  C119  1  0.57070000  0.68710000  0.24210000  1.0 -0.2918269202
C  C120  1  0.68710000  0.57070000  0.25790000  1.0 -0.2918269202
N  N1  1  0.99495000  0.79649000  0.84205000  1.0 -0.2462584951
N  N2  1  0.79649000  0.99495000  0.65795000  1.0 -0.2462584951
N  N3  1  0.00505000  0.20351000  0.15795000  1.0 -0.2462584951
N  N4  1  0.20351000  0.00505000  0.34205000  1.0 -0.2462584951
N  N5  1  0.96119000  0.84955000  0.77870000  1.0 -0.0366768554
N  N6  1  0.84955000  0.96119000  0.72130000  1.0 -0.0366768554
N  N7  1  0.03881000  0.15045000  0.22130000  1.0 -0.0305604635
N  N8  1  0.15045000  0.03881000  0.27870000  1.0 -0.0366768554
N  N9  1  0.91048000  0.80228000  0.73714000  1.0 -0.0787620609
N  N10  1  0.80228000  0.91048000  0.76286000  1.0 -0.0787620609
N  N11  1  0.08952000  0.19772000  0.26286000  1.0 -0.0787620609
N  N12  1  0.19772000  0.08952000  0.23714000  1.0 -0.0787620609
N  N13  1  0.90935000  0.71785000  0.77160000  1.0 -0.2624927004
N  N14  1  0.71785000  0.90935000  0.72840000  1.0 -0.2624927004
N  N15  1  0.09065000  0.28215000  0.22840000  1.0 -0.2624927004
N  N16  1  0.28215000  0.09065000  0.27160000  1.0 -0.2624927004
N  N17  1  0.00179000  0.20431000  0.65861000  1.0 -0.2170315102
N  N18  1  0.20431000  0.00179000  0.84139000  1.0 -0.2170315102
N  N19  1  0.99821000  0.79569000  0.34139000  1.0 -0.2170315102
N  N20  1  0.79569000  0.99821000  0.15861000  1.0 -0.2170315102
N  N21  1  0.03332000  0.14958000  0.72076000  1.0 -0.0177711203
N  N22  1  0.14958000  0.03332000  0.77924000  1.0 -0.0177711203
N  N23  1  0.96668000  0.85042000  0.27924000  1.0 -0.0177711203
N  N24  1  0.85042000  0.96668000  0.22076000  1.0 -0.0177711203
N  N25  1  0.08661000  0.19647000  0.76281000  1.0 -0.0693107585
N  N26  1  0.19647000  0.08661000  0.73719000  1.0 -0.0693107585
N  N27  1  0.91339000  0.80353000  0.23719000  1.0 -0.0693107585
N  N28  1  0.80353000  0.91339000  0.26281000  1.0 -0.0693107585
N  N29  1  0.09154000  0.28308000  0.72941000  1.0 -0.2676805571
N  N30  1  0.28308000  0.09154000  0.77059000  1.0 -0.2676805571
N  N31  1  0.90846000  0.71692000  0.27059000  1.0 -0.2676805571
N  N32  1  0.71692000  0.90846000  0.22941000  1.0 -0.2676805571
N  N33  1  0.28632000  0.07908000  0.02817000  1.0 -0.2777127936
N  N34  1  0.07908000  0.28632000  0.47183000  1.0 -0.2777127936
N  N35  1  0.71368000  0.92092000  0.97183000  1.0 -0.2777127936
N  N36  1  0.92092000  0.71368000  0.52817000  1.0 -0.2777127936
N  N37  1  0.22264000  0.04842000  0.97525000  1.0 -0.0498361165
N  N38  1  0.04842000  0.22264000  0.52475000  1.0 -0.0498361165
N  N39  1  0.77736000  0.95158000  0.02475000  1.0 -0.0498361165
N  N40  1  0.95158000  0.77736000  0.47525000  1.0 -0.0498361165
N  N41  1  0.21909000  0.97215000  0.98765000  1.0 -0.0305604635
N  N42  1  0.97215000  0.21909000  0.51235000  1.0 -0.0305604635
N  N43  1  0.78091000  0.02785000  0.01235000  1.0 -0.0305604635
N  N44  1  0.02785000  0.78091000  0.48765000  1.0 -0.0305604635
N  N45  1  0.27885000  0.94889000  0.04913000  1.0 -0.2624927004
N  N46  1  0.94889000  0.27885000  0.45087000  1.0 -0.2624927004
N  N47  1  0.72115000  0.05111000  0.95087000  1.0 -0.2624927004
N  N48  1  0.05111000  0.72115000  0.54913000  1.0 -0.2624927004
N  N49  1  0.73099000  0.03155000  0.46594000  1.0 -0.2777127936
N  N50  1  0.03155000  0.73099000  0.03406000  1.0 -0.2777127936
N  N51  1  0.26901000  0.96845000  0.53406000  1.0 -0.2777127936
N  N52  1  0.96845000  0.26901000  0.96594000  1.0 -0.2777127936
N  N53  1  0.79779000  0.01657000  0.52591000  1.0 -0.0305604635
N  N54  1  0.01657000  0.79779000  0.97409000  1.0 -0.0305604635
N  N55  1  0.20221000  0.98343000  0.47409000  1.0 -0.0305604635
N  N56  1  0.98343000  0.20221000  0.02591000  1.0 -0.0305604635
N  N57  1  0.81433000  0.95601000  0.53555000  1.0 -0.0787620609
N  N58  1  0.95601000  0.81433000  0.96445000  1.0 -0.0787620609
N  N59  1  0.18567000  0.04399000  0.46445000  1.0 -0.0693107585
N  N60  1  0.04399000  0.18567000  0.03555000  1.0 -0.0693107585
N  N61  1  0.75384000  0.92536000  0.48268000  1.0 -0.2624927004
N  N62  1  0.92536000  0.75384000  0.01732000  1.0 -0.2624927004
N  N63  1  0.24616000  0.07464000  0.51732000  1.0 -0.2624927004
N  N64  1  0.07464000  0.24616000  0.98268000  1.0 -0.2624927004
N  N65  1  0.43700000  0.24760000  0.88900000  1.0 0.0599335496
N  N66  1  0.24760000  0.43700000  0.61100000  1.0 0.0599335496
N  N67  1  0.56300000  0.75240000  0.11100000  1.0 0.0599335496
N  N68  1  0.75240000  0.56300000  0.38900000  1.0 0.0599335496
N  N69  1  0.40820000  0.28100000  0.81410000  1.0 -0.0100828606
N  N70  1  0.28100000  0.40820000  0.68590000  1.0 -0.0100828606
N  N71  1  0.59180000  0.71900000  0.18590000  1.0 -0.0100828606
N  N72  1  0.71900000  0.59180000  0.31410000  1.0 -0.0100828606
O  O1  1  0.05379000  0.98557000  0.85272000  1.0 -0.8005353973
O  O2  1  0.98557000  0.05379000  0.64728000  1.0 -0.8005353973
O  O3  1  0.94621000  0.01443000  0.14728000  1.0 -0.8005353973
O  O4  1  0.01443000  0.94621000  0.35272000  1.0 -0.8005353973
O  O5  1  0.27901000  0.19151000  0.85239000  1.0 -0.3183474109
O  O6  1  0.19151000  0.27901000  0.64761000  1.0 -0.3183474109
O  O7  1  0.72099000  0.80849000  0.14761000  1.0 -0.3183474109
O  O8  1  0.80849000  0.72099000  0.35239000  1.0 -0.3183474109
