# DDEC6 charges by PACMAN v1.1 (https://github.com/mtap-research/PACMAN-charge/)
data_BAZJET_ASR_pacman
_symmetry_space_group_name_H-M   'P 1'
_cell_length_a   20.79200000
_cell_length_b   20.79200000
_cell_length_c   13.81400000
_cell_angle_alpha   90.00000000
_cell_angle_beta   90.00000000
_cell_angle_gamma   120.00000000
_symmetry_Int_Tables_number   1
_chemical_formula_structural   Mn3H18C36N24O
_chemical_formula_sum   'Mn6 H36 C72 N48 O2'
_cell_volume   5171.81065255
_cell_formula_units_Z   2
loop_
 _symmetry_equiv_pos_site_id
 _symmetry_equiv_pos_as_xyz
  1  'x, y, z'
loop_
 _atom_site_type_symbol
 _atom_site_label
 _atom_site_symmetry_multiplicity
 _atom_site_fract_x
 _atom_site_fract_y
 _atom_site_fract_z
 _atom_site_occupancy
 _atom_site_charge
Mn  Mn1  1  0.62052000  0.40103000  0.75000000  1.0 0.7609322177
Mn  Mn2  1  0.59897000  0.21949000  0.75000000  1.0 0.7609322177
Mn  Mn3  1  0.78051000  0.37948000  0.75000000  1.0 0.7609322177
Mn  Mn4  1  0.37948000  0.59897000  0.25000000  1.0 0.7609322177
Mn  Mn5  1  0.40103000  0.78051000  0.25000000  1.0 0.7609322177
Mn  Mn6  1  0.21949000  0.62052000  0.25000000  1.0 0.7609322177
H  H1  1  0.58970000  0.44850000  0.54760000  1.0 0.1249672628
H  H2  1  0.55150000  0.14120000  0.54760000  1.0 0.1249672628
H  H3  1  0.85880000  0.41030000  0.54760000  1.0 0.1249672628
H  H4  1  0.41030000  0.55150000  0.04760000  1.0 0.1249672628
H  H5  1  0.44850000  0.85880000  0.04760000  1.0 0.1249672628
H  H6  1  0.14120000  0.58970000  0.04760000  1.0 0.1249672628
H  H7  1  0.41030000  0.55150000  0.45240000  1.0 0.1249672628
H  H8  1  0.44850000  0.85880000  0.45240000  1.0 0.1249672628
H  H9  1  0.14120000  0.58970000  0.45240000  1.0 0.1249672628
H  H10  1  0.58970000  0.44850000  0.95240000  1.0 0.1249672628
H  H11  1  0.55150000  0.14120000  0.95240000  1.0 0.1249672628
H  H12  1  0.85880000  0.41030000  0.95240000  1.0 0.1249672628
H  H13  1  0.36600000  0.31520000  0.52730000  1.0 0.1321805399
H  H14  1  0.68480000  0.05080000  0.52730000  1.0 0.1321805399
H  H15  1  0.94920000  0.63400000  0.52730000  1.0 0.1321805399
H  H16  1  0.63400000  0.68480000  0.02730000  1.0 0.1321805399
H  H17  1  0.31520000  0.94920000  0.02730000  1.0 0.1321805399
H  H18  1  0.05080000  0.36600000  0.02730000  1.0 0.1321805399
H  H19  1  0.63400000  0.68480000  0.47270000  1.0 0.1321805399
H  H20  1  0.31520000  0.94920000  0.47270000  1.0 0.1321805399
H  H21  1  0.05080000  0.36600000  0.47270000  1.0 0.1321805399
H  H22  1  0.36600000  0.31520000  0.97270000  1.0 0.1321805399
H  H23  1  0.68480000  0.05080000  0.97270000  1.0 0.1321805399
H  H24  1  0.94920000  0.63400000  0.97270000  1.0 0.1321805399
H  H25  1  0.64650000  0.58440000  0.51680000  1.0 0.1385653547
H  H26  1  0.41560000  0.06210000  0.51680000  1.0 0.1385653547
H  H27  1  0.93790000  0.35350000  0.51680000  1.0 0.1385653547
H  H28  1  0.35350000  0.41560000  0.01680000  1.0 0.1385653547
H  H29  1  0.58440000  0.93790000  0.01680000  1.0 0.1385653547
H  H30  1  0.06210000  0.64650000  0.01680000  1.0 0.1385653547
H  H31  1  0.35350000  0.41560000  0.48320000  1.0 0.1385653547
H  H32  1  0.58440000  0.93790000  0.48320000  1.0 0.1385653547
H  H33  1  0.06210000  0.64650000  0.48320000  1.0 0.1385653547
H  H34  1  0.64650000  0.58440000  0.98320000  1.0 0.1385653547
H  H35  1  0.41560000  0.06210000  0.98320000  1.0 0.1385653547
H  H36  1  0.93790000  0.35350000  0.98320000  1.0 0.1385653547
C  C1  1  0.53601000  0.50506000  0.50930000  1.0 0.0927249081
C  C2  1  0.49494000  0.03095000  0.50930000  1.0 0.0927249081
C  C3  1  0.96905000  0.46399000  0.50930000  1.0 0.0927249081
C  C4  1  0.46399000  0.49494000  0.00930000  1.0 0.0927249081
C  C5  1  0.50506000  0.96905000  0.00930000  1.0 0.0927249081
C  C6  1  0.03095000  0.53601000  0.00930000  1.0 0.0927249081
C  C7  1  0.46399000  0.49494000  0.49070000  1.0 0.0927249081
C  C8  1  0.50506000  0.96905000  0.49070000  1.0 0.0927249081
C  C9  1  0.03095000  0.53601000  0.49070000  1.0 0.0927249081
C  C10  1  0.53601000  0.50506000  0.99070000  1.0 0.0927249081
C  C11  1  0.49494000  0.03095000  0.99070000  1.0 0.0927249081
C  C12  1  0.96905000  0.46399000  0.99070000  1.0 0.0927249081
C  C13  1  0.54205000  0.44260000  0.53560000  1.0 -0.1784614963
C  C14  1  0.55740000  0.09945000  0.53560000  1.0 -0.1784614963
C  C15  1  0.90055000  0.45795000  0.53560000  1.0 -0.1784614963
C  C16  1  0.45795000  0.55740000  0.03560000  1.0 -0.1784614963
C  C17  1  0.44260000  0.90055000  0.03560000  1.0 -0.1784614963
C  C18  1  0.09945000  0.54205000  0.03560000  1.0 -0.1784614963
C  C19  1  0.45795000  0.55740000  0.46440000  1.0 -0.1784614963
C  C20  1  0.44260000  0.90055000  0.46440000  1.0 -0.1784614963
C  C21  1  0.09945000  0.54205000  0.46440000  1.0 -0.1784614963
C  C22  1  0.54205000  0.44260000  0.96440000  1.0 -0.1784614963
C  C23  1  0.55740000  0.09945000  0.96440000  1.0 -0.1784614963
C  C24  1  0.90055000  0.45795000  0.96440000  1.0 -0.1784614963
C  C25  1  0.48017000  0.37346000  0.54406000  1.0 0.0617341312
C  C26  1  0.62654000  0.10671000  0.54406000  1.0 0.0617341312
C  C27  1  0.89329000  0.51983000  0.54406000  1.0 0.0617341312
C  C28  1  0.51983000  0.62654000  0.04406000  1.0 0.0617341312
C  C29  1  0.37346000  0.89329000  0.04406000  1.0 0.0617341312
C  C30  1  0.10671000  0.48017000  0.04406000  1.0 0.0617341312
C  C31  1  0.51983000  0.62654000  0.45594000  1.0 0.0617341312
C  C32  1  0.37346000  0.89329000  0.45594000  1.0 0.0617341312
C  C33  1  0.10671000  0.48017000  0.45594000  1.0 0.0617341312
C  C34  1  0.48017000  0.37346000  0.95594000  1.0 0.0617341312
C  C35  1  0.62654000  0.10671000  0.95594000  1.0 0.0617341312
C  C36  1  0.89329000  0.51983000  0.95594000  1.0 0.0617341312
C  C37  1  0.40871000  0.36334000  0.52320000  1.0 -0.1017759293
C  C38  1  0.63666000  0.04537000  0.52320000  1.0 -0.1017759293
C  C39  1  0.95463000  0.59129000  0.52320000  1.0 -0.1017759293
C  C40  1  0.59129000  0.63666000  0.02320000  1.0 -0.1017759293
C  C41  1  0.36334000  0.95463000  0.02320000  1.0 -0.1017759293
C  C42  1  0.04537000  0.40871000  0.02320000  1.0 -0.1017759293
C  C43  1  0.59129000  0.63666000  0.47680000  1.0 -0.1017759293
C  C44  1  0.36334000  0.95463000  0.47680000  1.0 -0.1017759293
C  C45  1  0.04537000  0.40871000  0.47680000  1.0 -0.1017759293
C  C46  1  0.40871000  0.36334000  0.97680000  1.0 -0.1017759293
C  C47  1  0.63666000  0.04537000  0.97680000  1.0 -0.1017759293
C  C48  1  0.95463000  0.59129000  0.97680000  1.0 -0.1017759293
C  C49  1  0.59855000  0.57716000  0.50280000  1.0 -0.1323196571
C  C50  1  0.42284000  0.02139000  0.50280000  1.0 -0.1323196571
C  C51  1  0.97861000  0.40145000  0.50280000  1.0 -0.1323196571
C  C52  1  0.40145000  0.42284000  0.00280000  1.0 -0.1323196571
C  C53  1  0.57716000  0.97861000  0.00280000  1.0 -0.1323196571
C  C54  1  0.02139000  0.59855000  0.00280000  1.0 -0.1323196571
C  C55  1  0.40145000  0.42284000  0.49720000  1.0 -0.1323196571
C  C56  1  0.57716000  0.97861000  0.49720000  1.0 -0.1323196571
C  C57  1  0.02139000  0.59855000  0.49720000  1.0 -0.1323196571
C  C58  1  0.59855000  0.57716000  0.99720000  1.0 -0.1323196571
C  C59  1  0.42284000  0.02139000  0.99720000  1.0 -0.1323196571
C  C60  1  0.97861000  0.40145000  0.99720000  1.0 -0.1323196571
C  C61  1  0.48806000  0.31032000  0.57576000  1.0 0.2482546587
C  C62  1  0.68968000  0.17774000  0.57576000  1.0 0.2482546587
C  C63  1  0.82226000  0.51194000  0.57576000  1.0 0.2482546587
C  C64  1  0.51194000  0.68968000  0.07576000  1.0 0.2482546587
C  C65  1  0.31032000  0.82226000  0.07576000  1.0 0.2482546587
C  C66  1  0.17774000  0.48806000  0.07576000  1.0 0.2482546587
C  C67  1  0.51194000  0.68968000  0.42424000  1.0 0.2482546587
C  C68  1  0.31032000  0.82226000  0.42424000  1.0 0.2482546587
C  C69  1  0.17774000  0.48806000  0.42424000  1.0 0.2482546587
C  C70  1  0.48806000  0.31032000  0.92424000  1.0 0.2482546587
C  C71  1  0.68968000  0.17774000  0.92424000  1.0 0.2482546587
C  C72  1  0.82226000  0.51194000  0.92424000  1.0 0.2482546587
N  N1  1  0.54063000  0.31651000  0.63680000  1.0 -0.2364475244
N  N2  1  0.68349000  0.22412000  0.63680000  1.0 -0.234288662
N  N3  1  0.77588000  0.45937000  0.63680000  1.0 -0.2364475244
N  N4  1  0.45937000  0.68349000  0.13680000  1.0 -0.2364475244
N  N5  1  0.31651000  0.77588000  0.13680000  1.0 -0.2364475244
N  N6  1  0.22412000  0.54063000  0.13680000  1.0 -0.2364475244
N  N7  1  0.45937000  0.68349000  0.36320000  1.0 -0.2364475244
N  N8  1  0.31651000  0.77588000  0.36320000  1.0 -0.2364475244
N  N9  1  0.22412000  0.54063000  0.36320000  1.0 -0.2364475244
N  N10  1  0.54063000  0.31651000  0.86320000  1.0 -0.2364475244
N  N11  1  0.68349000  0.22412000  0.86320000  1.0 -0.234288662
N  N12  1  0.77588000  0.45937000  0.86320000  1.0 -0.2364475244
N  N13  1  0.52882000  0.24621000  0.64401000  1.0 -0.026478338
N  N14  1  0.75379000  0.28261000  0.64401000  1.0 -0.026478338
N  N15  1  0.71739000  0.47118000  0.64401000  1.0 -0.026478338
N  N16  1  0.47118000  0.75379000  0.14401000  1.0 -0.026478338
N  N17  1  0.24621000  0.71739000  0.14401000  1.0 -0.026478338
N  N18  1  0.28261000  0.52882000  0.14401000  1.0 -0.026478338
N  N19  1  0.47118000  0.75379000  0.35599000  1.0 -0.026478338
N  N20  1  0.24621000  0.71739000  0.35599000  1.0 -0.026478338
N  N21  1  0.28261000  0.52882000  0.35599000  1.0 -0.026478338
N  N22  1  0.52882000  0.24621000  0.85599000  1.0 -0.026478338
N  N23  1  0.75379000  0.28261000  0.85599000  1.0 -0.026478338
N  N24  1  0.71739000  0.47118000  0.85599000  1.0 -0.026478338
N  N25  1  0.47157000  0.20080000  0.59079000  1.0 -0.1119399772
N  N26  1  0.79920000  0.27077000  0.59079000  1.0 -0.1119399772
N  N27  1  0.72923000  0.52843000  0.59079000  1.0 -0.1119399772
N  N28  1  0.52843000  0.79920000  0.09079000  1.0 -0.1119399772
N  N29  1  0.20080000  0.72923000  0.09079000  1.0 -0.1119399772
N  N30  1  0.27077000  0.47157000  0.09079000  1.0 -0.1119399772
N  N31  1  0.52843000  0.79920000  0.40921000  1.0 -0.1119399772
N  N32  1  0.20080000  0.72923000  0.40921000  1.0 -0.1119399772
N  N33  1  0.27077000  0.47157000  0.40921000  1.0 -0.1119399772
N  N34  1  0.47157000  0.20080000  0.90921000  1.0 -0.1119399772
N  N35  1  0.79920000  0.27077000  0.90921000  1.0 -0.1119399772
N  N36  1  0.72923000  0.52843000  0.90921000  1.0 -0.1119399772
N  N37  1  0.44424000  0.24006000  0.54645000  1.0 -0.2638954513
N  N38  1  0.75994000  0.20418000  0.54645000  1.0 -0.2638954513
N  N39  1  0.79582000  0.55576000  0.54645000  1.0 -0.2638954513
N  N40  1  0.55576000  0.75994000  0.04645000  1.0 -0.2638954513
N  N41  1  0.24006000  0.79582000  0.04645000  1.0 -0.2638954513
N  N42  1  0.20418000  0.44424000  0.04645000  1.0 -0.2638954513
N  N43  1  0.55576000  0.75994000  0.45355000  1.0 -0.2638954513
N  N44  1  0.24006000  0.79582000  0.45355000  1.0 -0.2638954513
N  N45  1  0.20418000  0.44424000  0.45355000  1.0 -0.2638954513
N  N46  1  0.44424000  0.24006000  0.95355000  1.0 -0.2638954513
N  N47  1  0.75994000  0.20418000  0.95355000  1.0 -0.2638954513
N  N48  1  0.79582000  0.55576000  0.95355000  1.0 -0.2638954513
O  O1  1  0.66666667  0.33333333  0.75000000  1.0 -0.7676064068
O  O2  1  0.33333333  0.66666667  0.25000000  1.0 -0.7676064068
