# DDEC6 charges by PACMAN v1.1 (https://github.com/mtap-research/PACMAN-charge/)
data_BEBSUA_ASR_pacman
_symmetry_space_group_name_H-M   'P 1'
_cell_length_a   14.96730000
_cell_length_b   17.63390000
_cell_length_c   23.25710000
_cell_angle_alpha   108.24500000
_cell_angle_beta   90.60700000
_cell_angle_gamma   109.61600000
_symmetry_Int_Tables_number   1
_chemical_formula_structural   Co7P2H48W22C72(N12O31)2
_chemical_formula_sum   'Co7 P2 H48 W22 C72 N24 O62'
_cell_volume   5445.24380306
_cell_formula_units_Z   1
loop_
 _symmetry_equiv_pos_site_id
 _symmetry_equiv_pos_as_xyz
  1  'x, y, z'
loop_
 _atom_site_type_symbol
 _atom_site_label
 _atom_site_symmetry_multiplicity
 _atom_site_fract_x
 _atom_site_fract_y
 _atom_site_fract_z
 _atom_site_occupancy
 _atom_site_charge
Co  Co1  1  0.55526000  0.68471000  0.29288000  1.0 1.0620804941
Co  Co2  1  0.62102000  0.26083000  0.24415000  1.0 0.2997559821
Co  Co3  1  0.44474000  0.31529000  0.70712000  1.0 1.0620804941
Co  Co4  1  0.37898000  0.73917000  0.75585000  1.0 0.2907960629
Co  Co5  1  0.00000000  0.50000000  0.50000000  1.0 0.7503043925
Co  Co6  1  0.50000000  0.00000000  0.50000000  1.0 0.7848634636
Co  Co7  1  0.00000000  0.50000000  0.00000000  1.0 0.69328498
P  P1  1  0.30600000  0.58387000  0.26886000  1.0 1.241321913
P  P2  1  0.69400000  0.41613000  0.73114000  1.0 1.241321913
H  H1  1  0.76536000  0.70934000  0.34366000  1.0 0.1006465517
H  H2  1  0.90541000  0.81734000  0.38737000  1.0 0.1100174217
H  H3  1  0.78086000  0.98294000  0.37749000  1.0 0.1100174217
H  H4  1  0.64547000  0.86739000  0.32884000  1.0 0.1100174217
H  H5  1  0.87223000  0.18655000  0.47113000  1.0 0.1100174217
H  H6  1  0.86981000  0.32118000  0.48981000  1.0 0.1006465517
H  H7  1  0.14711000  0.41269000  0.49910000  1.0 0.1006465517
H  H8  1  0.15827000  0.28260000  0.48401000  1.0 0.1162986046
H  H9  1  0.14773000  0.90905000  0.44331000  1.0 0.1100174217
H  H10  1  0.29160000  0.90006000  0.46989000  1.0 0.1006465517
H  H11  1  0.41769000  0.14502000  0.51606000  1.0 0.0917713111
H  H12  1  0.27990000  0.16300000  0.49508000  1.0 0.1162986046
H  H13  1  0.15437000  0.66906000  0.05235000  1.0 0.1006465517
H  H14  1  0.18707000  0.81187000  0.09534000  1.0 0.1100174217
H  H15  1  0.90597000  0.76276000  0.08037000  1.0 0.1162986046
H  H16  1  0.88063000  0.62001000  0.03873000  1.0 0.1006465517
H  H17  1  0.33337000  0.99304000  0.17569000  1.0 0.1162986046
H  H18  1  0.48658000  0.08147000  0.20892000  1.0 0.0758466115
H  H19  1  0.42516000  0.27966000  0.21602000  1.0 0.0917713111
H  H20  1  0.26790000  0.20049000  0.18990000  1.0 0.1162986046
H  H21  1  0.03675000  0.17193000  0.17597000  1.0 0.0917713111
H  H22  1  0.91419000  0.22577000  0.18514000  1.0 0.0917713111
H  H23  1  0.72179000  0.00166000  0.14574000  1.0 0.0699363928
H  H24  1  0.83308000  0.93693000  0.13525000  1.0 0.1006465517
H  H25  1  0.23464000  0.29066000  0.65634000  1.0 0.1006465517
H  H26  1  0.09459000  0.18266000  0.61263000  1.0 0.1100174217
H  H27  1  0.21914000  0.01706000  0.62251000  1.0 0.1100174217
H  H28  1  0.35453000  0.13261000  0.67116000  1.0 0.1100174217
H  H29  1  0.12777000  0.81345000  0.52887000  1.0 0.1100174217
H  H30  1  0.13019000  0.67882000  0.51019000  1.0 0.1006465517
H  H31  1  0.85289000  0.58731000  0.50090000  1.0 0.1006465517
H  H32  1  0.84173000  0.71740000  0.51599000  1.0 0.1162986046
H  H33  1  0.85227000  0.09095000  0.55669000  1.0 0.1100174217
H  H34  1  0.70840000  0.09994000  0.53011000  1.0 0.1006465517
H  H35  1  0.58231000  0.85498000  0.48394000  1.0 0.0917713111
H  H36  1  0.72010000  0.83700000  0.50492000  1.0 0.1162986046
H  H37  1  0.84563000  0.33094000  0.94765000  1.0 0.1006465517
H  H38  1  0.81293000  0.18813000  0.90466000  1.0 0.1100174217
H  H39  1  0.09403000  0.23724000  0.91963000  1.0 0.1162986046
H  H40  1  0.11937000  0.37999000  0.96127000  1.0 0.1006465517
H  H41  1  0.66666667  0.00696000  0.82431000  1.0 0.1162986046
H  H42  1  0.51342000  0.91853000  0.79108000  1.0 0.0758466115
H  H43  1  0.57484000  0.72034000  0.78398000  1.0 0.0917713111
H  H44  1  0.73210000  0.79951000  0.81010000  1.0 0.1162986046
H  H45  1  0.96325000  0.82807000  0.82403000  1.0 0.1006465517
H  H46  1  0.08581000  0.77423000  0.81486000  1.0 0.1006465517
H  H47  1  0.27821000  0.99834000  0.85426000  1.0 0.0699363928
H  H48  1  0.16692000  0.06307000  0.86475000  1.0 0.1006465517
W  W1  1  0.46732000  0.48251000  0.20378000  1.0 2.4863126989
W  W2  1  0.43064000  0.63271000  0.41568000  1.0 2.4304163372
W  W3  1  0.32486000  0.42207000  0.32363000  1.0 2.4598941719
W  W4  1  0.20103000  0.36793000  0.17119000  1.0 2.4007489001
W  W5  1  0.05164000  0.47182000  0.23694000  1.0 2.4681962247
W  W6  1  0.28000000  0.75081000  0.22410000  1.0 2.4105913555
W  W7  1  0.44545000  0.63888000  0.15540000  1.0 2.4841387188
W  W8  1  0.18272000  0.53177000  0.39012000  1.0 2.4219427025
W  W9  1  0.17813000  0.52653000  0.12432000  1.0 2.4007489001
W  W10  1  0.39993000  0.79823000  0.36390000  1.0 2.3873886978
W  W11  1  0.15255000  0.69983000  0.33597000  1.0 2.4105913555
W  W12  1  0.53268000  0.51749000  0.79622000  1.0 2.4863126989
W  W13  1  0.56936000  0.36729000  0.58432000  1.0 2.4304163372
W  W14  1  0.67514000  0.57793000  0.67637000  1.0 2.4681962247
W  W15  1  0.79897000  0.63207000  0.82881000  1.0 2.4007489001
W  W16  1  0.94836000  0.52818000  0.76306000  1.0 2.4681962247
W  W17  1  0.72000000  0.24919000  0.77590000  1.0 2.4105913555
W  W18  1  0.55455000  0.36112000  0.84460000  1.0 2.4863126989
W  W19  1  0.81728000  0.46823000  0.60988000  1.0 2.4219427025
W  W20  1  0.82187000  0.47347000  0.87568000  1.0 2.4007489001
W  W21  1  0.60007000  0.20177000  0.63610000  1.0 2.3873886978
W  W22  1  0.84745000  0.30017000  0.66403000  1.0 2.4105913555
C  C1  1  0.76920000  0.76510000  0.34970000  1.0 0.0583715709
C  C2  1  0.85330000  0.82980000  0.37670000  1.0 -0.2084638436
C  C3  1  0.86210000  0.91520000  0.38860000  1.0 0.0321493715
C  C4  1  0.78040000  0.92790000  0.37040000  1.0 -0.2084638436
C  C5  1  0.69840000  0.85770000  0.34160000  1.0 0.0699363928
C  C6  1  0.01490000  0.21850000  0.47390000  1.0 0.0321493715
C  C7  1  0.92930000  0.23220000  0.47660000  1.0 -0.2010199909
C  C8  1  0.92810000  0.31300000  0.48740000  1.0 0.048544175
C  C9  1  0.09090000  0.36610000  0.49320000  1.0 0.0699363928
C  C10  1  0.09880000  0.28850000  0.48380000  1.0 -0.1918305327
C  C11  1  0.19760000  0.03820000  0.46850000  1.0 0.0403715717
C  C12  1  0.20190000  0.95820000  0.45910000  1.0 -0.1795992594
C  C13  1  0.28900000  0.95340000  0.47370000  1.0 0.0583715709
C  C14  1  0.36230000  0.09690000  0.50120000  1.0 0.0403715717
C  C15  1  0.28030000  0.10850000  0.48930000  1.0 -0.1918305327
C  C16  1  0.94750000  0.99050000  0.41870000  1.0 0.3170075333
C  C17  1  0.01920000  0.13260000  0.45870000  1.0 0.327541179
C  C18  1  0.10480000  0.04740000  0.45460000  1.0 0.3384636557
C  C19  1  0.10320000  0.68810000  0.05790000  1.0 0.048544175
C  C20  1  0.12410000  0.77420000  0.08370000  1.0 -0.1918305327
C  C21  1  0.04910000  0.80350000  0.09200000  1.0 0.0321493715
C  C22  1  0.95790000  0.74470000  0.07490000  1.0 -0.1795992594
C  C23  1  0.94310000  0.65900000  0.04960000  1.0 0.0699363928
C  C24  1  0.28100000  0.08590000  0.17670000  1.0 0.0403715717
C  C25  1  0.35000000  0.05160000  0.18410000  1.0 -0.1918305327
C  C26  1  0.44120000  0.10490000  0.20360000  1.0 0.048544175
C  C27  1  0.40550000  0.22120000  0.20880000  1.0 0.048544175
C  C28  1  0.31170000  0.17410000  0.19170000  1.0 -0.2084638436
C  C29  1  0.94610000  0.04730000  0.15220000  1.0 0.0221884148
C  C30  1  0.97300000  0.13590000  0.16920000  1.0 -0.1795992594
C  C31  1  0.89800000  0.16710000  0.17530000  1.0 0.048544175
C  C32  1  0.78600000  0.03630000  0.15240000  1.0 0.0403715717
C  C33  1  0.85170000  0.99580000  0.14480000  1.0 -0.1795992594
C  C34  1  0.07030000  0.89750000  0.11940000  1.0 0.3579632705
C  C35  1  0.17900000  0.03190000  0.15780000  1.0 0.3461480653
C  C36  1  0.02190000  0.01050000  0.14650000  1.0 0.3579632705
C  C37  1  0.23080000  0.23490000  0.65030000  1.0 0.0583715709
C  C38  1  0.14670000  0.17020000  0.62330000  1.0 -0.2084638436
C  C39  1  0.13790000  0.08480000  0.61140000  1.0 0.0321493715
C  C40  1  0.21960000  0.07210000  0.62960000  1.0 -0.2084638436
C  C41  1  0.30160000  0.14230000  0.65840000  1.0 0.0699363928
C  C42  1  0.98510000  0.78150000  0.52610000  1.0 0.0321493715
C  C43  1  0.07070000  0.76780000  0.52340000  1.0 -0.2010199909
C  C44  1  0.07190000  0.68700000  0.51260000  1.0 0.048544175
C  C45  1  0.90910000  0.63390000  0.50680000  1.0 0.0699363928
C  C46  1  0.90120000  0.71150000  0.51620000  1.0 -0.2010199909
C  C47  1  0.80240000  0.96180000  0.53150000  1.0 0.0403715717
C  C48  1  0.79810000  0.04180000  0.54090000  1.0 -0.1795992594
C  C49  1  0.71100000  0.04660000  0.52630000  1.0 0.0583715709
C  C50  1  0.63770000  0.90310000  0.49880000  1.0 0.0403715717
C  C51  1  0.71970000  0.89150000  0.51070000  1.0 -0.1918305327
C  C52  1  0.05250000  0.00950000  0.58130000  1.0 0.3170075333
C  C53  1  0.98080000  0.86740000  0.54130000  1.0 0.327541179
C  C54  1  0.89520000  0.95260000  0.54540000  1.0 0.3384636557
C  C55  1  0.89680000  0.31190000  0.94210000  1.0 0.048544175
C  C56  1  0.87590000  0.22580000  0.91630000  1.0 -0.1918305327
C  C57  1  0.95090000  0.19650000  0.90800000  1.0 0.0321493715
C  C58  1  0.04210000  0.25530000  0.92510000  1.0 -0.1749438876
C  C59  1  0.05690000  0.34100000  0.95040000  1.0 0.0699363928
C  C60  1  0.71900000  0.91410000  0.82330000  1.0 0.0403715717
C  C61  1  0.65000000  0.94840000  0.81590000  1.0 -0.1918305327
C  C62  1  0.55880000  0.89510000  0.79640000  1.0 0.0403715717
C  C63  1  0.59450000  0.77880000  0.79120000  1.0 0.048544175
C  C64  1  0.68830000  0.82590000  0.80830000  1.0 -0.2084638436
C  C65  1  0.05390000  0.95270000  0.84780000  1.0 0.0221884148
C  C66  1  0.02700000  0.86410000  0.83080000  1.0 -0.1795992594
C  C67  1  0.10200000  0.83290000  0.82470000  1.0 0.048544175
C  C68  1  0.21400000  0.96370000  0.84760000  1.0 0.0321493715
C  C69  1  0.14830000  0.00420000  0.85520000  1.0 -0.1795992594
C  C70  1  0.92970000  0.10250000  0.88060000  1.0 0.3579632705
C  C71  1  0.82100000  0.96810000  0.84220000  1.0 0.3461480653
C  C72  1  0.97810000  0.98950000  0.85350000  1.0 0.3579632705
N  N1  1  0.69170000  0.77740000  0.33140000  1.0 -0.2589796667
N  N2  1  0.00870000  0.38050000  0.49470000  1.0 -0.2657250995
N  N3  1  0.36910000  0.02090000  0.49300000  1.0 -0.2589796667
N  N4  1  0.94040000  0.06690000  0.43380000  1.0 -0.4245719993
N  N5  1  0.02830000  0.97620000  0.42830000  1.0 -0.4474468613
N  N6  1  0.10500000  0.12670000  0.46980000  1.0 -0.440670141
N  N7  1  0.01600000  0.62970000  0.04010000  1.0 -0.2589796667
N  N8  1  0.47050000  0.18910000  0.21570000  1.0 -0.2498154203
N  N9  1  0.80550000  0.12030000  0.16820000  1.0 -0.3153171623
N  N10  1  0.15920000  0.94590000  0.13510000  1.0 -0.440670141
N  N11  1  0.11280000  0.06520000  0.16250000  1.0 -0.4474468613
N  N12  1  0.99580000  0.92550000  0.12440000  1.0 -0.4652855778
N  N13  1  0.30830000  0.22260000  0.66860000  1.0 -0.2589796667
N  N14  1  0.99130000  0.61950000  0.50530000  1.0 -0.2657250995
N  N15  1  0.63090000  0.97910000  0.50700000  1.0 -0.2589796667
N  N16  1  0.05960000  0.93310000  0.56620000  1.0 -0.4245719993
N  N17  1  0.97170000  0.02380000  0.57170000  1.0 -0.4474468613
N  N18  1  0.89500000  0.87330000  0.53020000  1.0 -0.440670141
N  N19  1  0.98400000  0.37030000  0.95990000  1.0 -0.2589796667
N  N20  1  0.52950000  0.81090000  0.78430000  1.0 -0.2498154203
N  N21  1  0.19450000  0.87970000  0.83180000  1.0 -0.3088681484
N  N22  1  0.84080000  0.05410000  0.86490000  1.0 -0.440670141
N  N23  1  0.88720000  0.93480000  0.83750000  1.0 -0.4474468613
N  N24  1  0.00420000  0.07450000  0.87560000  1.0 -0.4652855778
O  O1  1  0.07870000  0.37190000  0.19800000  1.0 -0.9789999211
O  O2  1  0.29340000  0.66970000  0.28880000  1.0 -0.9688866222
O  O3  1  0.40950000  0.51230000  0.39280000  1.0 -1.0412493432
O  O4  1  0.22210000  0.43390000  0.36990000  1.0 -0.9394032443
O  O5  1  0.16980000  0.41090000  0.11040000  1.0 -0.9394032443
O  O6  1  0.39550000  0.72690000  0.41060000  1.0 -0.9600529397
O  O7  1  0.46830000  0.53350000  0.14160000  1.0 -1.0521662319
O  O8  1  0.54850000  0.70250000  0.20890000  1.0 -0.8709508861
O  O9  1  0.10170000  0.47420000  0.31270000  1.0 -0.9688866222
O  O10  1  0.41990000  0.44860000  0.27180000  1.0 -1.008736738
O  O11  1  0.49320000  0.77340000  0.32710000  1.0 -0.8429661477
O  O12  1  0.12740000  0.51690000  0.05370000  1.0 -0.8293053592
O  O13  1  0.30830000  0.55390000  0.32400000  1.0 -0.9789999211
O  O14  1  0.17400000  0.74690000  0.27180000  1.0 -0.9789999211
O  O15  1  0.29650000  0.59420000  0.44120000  1.0 -0.9394032443
O  O16  1  0.23400000  0.37190000  0.25160000  1.0 -0.9789999211
O  O17  1  0.08080000  0.59200000  0.27670000  1.0 -1.003175416
O  O18  1  0.51920000  0.65240000  0.36710000  1.0 -0.8860606337
O  O19  1  0.22090000  0.51870000  0.22180000  1.0 -0.9883288229
O  O20  1  0.26530000  0.78420000  0.38100000  1.0 -0.9333091939
O  O21  1  0.10500000  0.51090000  0.44200000  1.0 -0.8158462131
O  O22  1  0.45490000  0.89860000  0.41770000  1.0 -0.8293053592
O  O23  1  0.30630000  0.56000000  0.12080000  1.0 -0.9394032443
O  O24  1  0.19610000  0.64040000  0.17060000  1.0 -0.9333091939
O  O25  1  0.17050000  0.63110000  0.38250000  1.0 -0.9452416385
O  O26  1  0.56910000  0.56870000  0.25020000  1.0 -0.898472854
O  O27  1  0.39920000  0.59070000  0.24100000  1.0 -0.9333091939
O  O28  1  0.38020000  0.71740000  0.19010000  1.0 -1.003175416
O  O29  1  0.06070000  0.49320000  0.16100000  1.0 -0.9394032443
O  O30  1  0.36130000  0.82810000  0.29610000  1.0 -0.9600529397
O  O31  1  0.32920000  0.41390000  0.16720000  1.0 -0.9688866222
O  O32  1  0.92130000  0.62810000  0.80200000  1.0 -0.9789999211
O  O33  1  0.70660000  0.33030000  0.71120000  1.0 -0.9688866222
O  O34  1  0.59050000  0.48770000  0.60720000  1.0 -1.0412493432
O  O35  1  0.77790000  0.56610000  0.63010000  1.0 -0.9394032443
O  O36  1  0.83020000  0.58910000  0.88960000  1.0 -0.9394032443
O  O37  1  0.60450000  0.27310000  0.58940000  1.0 -0.9600529397
O  O38  1  0.53170000  0.46650000  0.85840000  1.0 -1.0521662319
O  O39  1  0.45150000  0.29750000  0.79110000  1.0 -0.8709508861
O  O40  1  0.89830000  0.52580000  0.68730000  1.0 -0.9600529397
O  O41  1  0.58010000  0.55140000  0.72820000  1.0 -1.008736738
O  O42  1  0.50680000  0.22660000  0.67290000  1.0 -0.8429661477
O  O43  1  0.87260000  0.48310000  0.94630000  1.0 -0.8293053592
O  O44  1  0.69170000  0.44610000  0.67600000  1.0 -0.9789999211
O  O45  1  0.82600000  0.25310000  0.72820000  1.0 -0.9789999211
O  O46  1  0.70350000  0.40580000  0.55880000  1.0 -0.9394032443
O  O47  1  0.76600000  0.62810000  0.74840000  1.0 -0.9789999211
O  O48  1  0.91920000  0.40800000  0.72330000  1.0 -1.003175416
O  O49  1  0.48080000  0.34760000  0.63290000  1.0 -0.8860606337
O  O50  1  0.77910000  0.48130000  0.77820000  1.0 -0.9789999211
O  O51  1  0.73470000  0.21580000  0.61900000  1.0 -0.9333091939
O  O52  1  0.89500000  0.48910000  0.55800000  1.0 -0.8149420107
O  O53  1  0.54510000  0.10140000  0.58230000  1.0 -0.8293053592
O  O54  1  0.69370000  0.44000000  0.87920000  1.0 -0.9394032443
O  O55  1  0.80390000  0.35960000  0.82940000  1.0 -0.9394032443
O  O56  1  0.82950000  0.36890000  0.61750000  1.0 -0.9452416385
O  O57  1  0.43090000  0.43130000  0.74980000  1.0 -0.898472854
O  O58  1  0.60080000  0.40930000  0.75900000  1.0 -0.9333091939
O  O59  1  0.61980000  0.28260000  0.80990000  1.0 -1.003175416
O  O60  1  0.93930000  0.50680000  0.83900000  1.0 -0.9394032443
O  O61  1  0.63870000  0.17190000  0.70390000  1.0 -0.9600529397
O  O62  1  0.67080000  0.58610000  0.83280000  1.0 -0.9688866222
