# DDEC6 charges by PACMAN v1.1 (https://github.com/mtap-research/PACMAN-charge/)
data_BEFLIJ_ASR_pacman
_symmetry_space_group_name_H-M   'P 1'
_cell_length_a   10.16450000
_cell_length_b   8.91128000
_cell_length_c   8.72547000
_cell_angle_alpha   70.37610000
_cell_angle_beta   55.66800000
_cell_angle_gamma   53.95590000
_symmetry_Int_Tables_number   1
_chemical_formula_structural   AlPO4
_chemical_formula_sum   'Al4 P4 O16'
_cell_volume   527.70102325
_cell_formula_units_Z   4
loop_
 _symmetry_equiv_pos_site_id
 _symmetry_equiv_pos_as_xyz
  1  'x, y, z'
loop_
 _atom_site_type_symbol
 _atom_site_label
 _atom_site_symmetry_multiplicity
 _atom_site_fract_x
 _atom_site_fract_y
 _atom_site_fract_z
 _atom_site_occupancy
 _atom_site_charge
Al  Al1  1  0.10450000  0.10450000  0.39550000  1.0 1.7867459307
Al  Al2  1  0.39550000  0.39550000  0.10450000  1.0 1.7867459307
Al  Al3  1  0.14550000  0.14550000  0.85450000  1.0 1.7839269886
Al  Al4  1  0.85450000  0.85450000  0.14550000  1.0 1.7867459307
P  P1  1  0.16400000  0.83600000  0.16400000  1.0 1.4204618285
P  P2  1  0.83600000  0.16400000  0.83600000  1.0 1.4204618285
P  P3  1  0.08600000  0.41400000  0.08600000  1.0 1.4204618285
P  P4  1  0.41400000  0.08600000  0.41400000  1.0 1.4204618285
O  O1  1  0.14510000  0.91570000  0.30770000  1.0 -0.7791314547
O  O2  1  0.91570000  0.14510000  0.63150000  1.0 -0.7791314547
O  O3  1  0.63150000  0.30770000  0.91570000  1.0 -0.7791314547
O  O4  1  0.30770000  0.63150000  0.14510000  1.0 -0.7791314547
O  O5  1  0.10490000  0.33430000  0.94230000  1.0 -0.7791314547
O  O6  1  0.33430000  0.10490000  0.61850000  1.0 -0.7791314547
O  O7  1  0.61850000  0.94230000  0.33430000  1.0 -0.7791314547
O  O8  1  0.94230000  0.61850000  0.10490000  1.0 -0.7791314547
O  O9  1  0.97880000  0.86500000  0.22740000  1.0 -0.8222328772
O  O10  1  0.86500000  0.97880000  0.92880000  1.0 -0.8222328772
O  O11  1  0.92880000  0.22740000  0.86500000  1.0 -0.8222328772
O  O12  1  0.22740000  0.92880000  0.97880000  1.0 -0.827265357
O  O13  1  0.27120000  0.38500000  0.02260000  1.0 -0.8222328772
O  O14  1  0.38500000  0.27120000  0.32120000  1.0 -0.8222328772
O  O15  1  0.32120000  0.02260000  0.38500000  1.0 -0.827265357
O  O16  1  0.02260000  0.32120000  0.27120000  1.0 -0.827265357
