# DDEC6 charges by PACMAN v1.1 (https://github.com/mtap-research/PACMAN-charge/)
data_BEFLUV_FSR_pacman
_symmetry_space_group_name_H-M   'P 1'
_cell_length_a   14.66150000
_cell_length_b   14.66150000
_cell_length_c   9.61460000
_cell_angle_alpha   90.00000000
_cell_angle_beta   90.00000000
_cell_angle_gamma   90.00000000
_symmetry_Int_Tables_number   1
_chemical_formula_structural   AlPO4
_chemical_formula_sum   'Al16 P16 O64'
_cell_volume   2066.75039950
_cell_formula_units_Z   16
loop_
 _symmetry_equiv_pos_site_id
 _symmetry_equiv_pos_as_xyz
  1  'x, y, z'
loop_
 _atom_site_type_symbol
 _atom_site_label
 _atom_site_symmetry_multiplicity
 _atom_site_fract_x
 _atom_site_fract_y
 _atom_site_fract_z
 _atom_site_occupancy
 _atom_site_charge
Al  Al1  1  0.88600000  0.25760000  0.14990000  1.0 1.8186553779
Al  Al2  1  0.25760000  0.11400000  0.14990000  1.0 1.8186553779
Al  Al3  1  0.11400000  0.25760000  0.85010000  1.0 1.8140167854
Al  Al4  1  0.11400000  0.74240000  0.14990000  1.0 1.8186553779
Al  Al5  1  0.25760000  0.88600000  0.85010000  1.0 1.8140167854
Al  Al6  1  0.74240000  0.88600000  0.14990000  1.0 1.8186553779
Al  Al7  1  0.88600000  0.74240000  0.85010000  1.0 1.8140167854
Al  Al8  1  0.74240000  0.11400000  0.85010000  1.0 1.8140167854
Al  Al9  1  0.61400000  0.24240000  0.35010000  1.0 1.8186553779
Al  Al10  1  0.24240000  0.38600000  0.35010000  1.0 1.8186553779
Al  Al11  1  0.38600000  0.24240000  0.64990000  1.0 1.8186553779
Al  Al12  1  0.38600000  0.75760000  0.35010000  1.0 1.8186553779
Al  Al13  1  0.24240000  0.61400000  0.64990000  1.0 1.8186553779
Al  Al14  1  0.75760000  0.61400000  0.35010000  1.0 1.8186553779
Al  Al15  1  0.61400000  0.75760000  0.64990000  1.0 1.8186553779
Al  Al16  1  0.75760000  0.38600000  0.64990000  1.0 1.8186553779
P  P1  1  0.89780000  0.26120000  0.81420000  1.0 1.4321918525
P  P2  1  0.26120000  0.10220000  0.81420000  1.0 1.4321918525
P  P3  1  0.10220000  0.26120000  0.18580000  1.0 1.4321918525
P  P4  1  0.10220000  0.73880000  0.81420000  1.0 1.4321918525
P  P5  1  0.26120000  0.89780000  0.18580000  1.0 1.4321918525
P  P6  1  0.73880000  0.89780000  0.81420000  1.0 1.4321918525
P  P7  1  0.89780000  0.73880000  0.18580000  1.0 1.4321918525
P  P8  1  0.73880000  0.10220000  0.18580000  1.0 1.4321918525
P  P9  1  0.60220000  0.23880000  0.68580000  1.0 1.4321918525
P  P10  1  0.23880000  0.39780000  0.68580000  1.0 1.4321918525
P  P11  1  0.39780000  0.23880000  0.31420000  1.0 1.4321918525
P  P12  1  0.39780000  0.76120000  0.68580000  1.0 1.4321918525
P  P13  1  0.23880000  0.60220000  0.31420000  1.0 1.4321918525
P  P14  1  0.76120000  0.60220000  0.68580000  1.0 1.4321918525
P  P15  1  0.60220000  0.76120000  0.31420000  1.0 1.4321918525
P  P16  1  0.76120000  0.39780000  0.31420000  1.0 1.4321918525
O  O1  1  0.88590000  0.29520000  0.95970000  1.0 -0.8500653125
O  O2  1  0.29520000  0.11410000  0.95970000  1.0 -0.8500653125
O  O3  1  0.11410000  0.29520000  0.04030000  1.0 -0.8500653125
O  O4  1  0.11410000  0.70480000  0.95970000  1.0 -0.8500653125
O  O5  1  0.29520000  0.88590000  0.04030000  1.0 -0.8500653125
O  O6  1  0.70480000  0.88590000  0.95970000  1.0 -0.8500653125
O  O7  1  0.88590000  0.70480000  0.04030000  1.0 -0.8500653125
O  O8  1  0.70480000  0.11410000  0.04030000  1.0 -0.8500653125
O  O9  1  0.61410000  0.20480000  0.54030000  1.0 -0.8561723121
O  O10  1  0.20480000  0.38590000  0.54030000  1.0 -0.8561723121
O  O11  1  0.38590000  0.20480000  0.45970000  1.0 -0.8561723121
O  O12  1  0.38590000  0.79520000  0.54030000  1.0 -0.8561723121
O  O13  1  0.20480000  0.61410000  0.45970000  1.0 -0.8561723121
O  O14  1  0.79520000  0.61410000  0.54030000  1.0 -0.8561723121
O  O15  1  0.61410000  0.79520000  0.45970000  1.0 -0.8561723121
O  O16  1  0.79520000  0.38590000  0.45970000  1.0 -0.8561723121
O  O17  1  0.84490000  0.17610000  0.78470000  1.0 -0.8438171881
O  O18  1  0.17610000  0.15510000  0.78470000  1.0 -0.8438171881
O  O19  1  0.15510000  0.17610000  0.21530000  1.0 -0.8500653125
O  O20  1  0.15510000  0.82390000  0.78470000  1.0 -0.8438171881
O  O21  1  0.17610000  0.84490000  0.21530000  1.0 -0.8500653125
O  O22  1  0.82390000  0.84490000  0.78470000  1.0 -0.8438171881
O  O23  1  0.84490000  0.82390000  0.21530000  1.0 -0.8500653125
O  O24  1  0.82390000  0.15510000  0.21530000  1.0 -0.8500653125
O  O25  1  0.65510000  0.32390000  0.71530000  1.0 -0.8438171881
O  O26  1  0.32390000  0.34490000  0.71530000  1.0 -0.8438171881
O  O27  1  0.34490000  0.32390000  0.28470000  1.0 -0.8500653125
O  O28  1  0.34490000  0.67610000  0.71530000  1.0 -0.8438171881
O  O29  1  0.32390000  0.65510000  0.28470000  1.0 -0.8500653125
O  O30  1  0.67610000  0.65510000  0.71530000  1.0 -0.8438171881
O  O31  1  0.65510000  0.67610000  0.28470000  1.0 -0.8438171881
O  O32  1  0.67610000  0.34490000  0.28470000  1.0 -0.8500653125
O  O33  1  0.99710000  0.24870000  0.77380000  1.0 -0.7896063812
O  O34  1  0.24870000  0.00290000  0.77380000  1.0 -0.7896063812
O  O35  1  0.00290000  0.24870000  0.22620000  1.0 -0.7896063812
O  O36  1  0.00290000  0.75130000  0.77380000  1.0 -0.7896063812
O  O37  1  0.24870000  0.99710000  0.22620000  1.0 -0.7896063812
O  O38  1  0.75130000  0.99710000  0.77380000  1.0 -0.7896063812
O  O39  1  0.99710000  0.75130000  0.22620000  1.0 -0.7896063812
O  O40  1  0.75130000  0.00290000  0.22620000  1.0 -0.7896063812
O  O41  1  0.50290000  0.25130000  0.72620000  1.0 -0.7896063812
O  O42  1  0.25130000  0.49710000  0.72620000  1.0 -0.7896063812
O  O43  1  0.49710000  0.25130000  0.27380000  1.0 -0.7896063812
O  O44  1  0.49710000  0.74870000  0.72620000  1.0 -0.7896063812
O  O45  1  0.25130000  0.50290000  0.27380000  1.0 -0.7896063812
O  O46  1  0.74870000  0.50290000  0.72620000  1.0 -0.7896063812
O  O47  1  0.50290000  0.74870000  0.27380000  1.0 -0.7896063812
O  O48  1  0.74870000  0.49710000  0.27380000  1.0 -0.7896063812
O  O49  1  0.86560000  0.33590000  0.71960000  1.0 -0.7604116462
O  O50  1  0.33590000  0.13440000  0.71960000  1.0 -0.7604116462
O  O51  1  0.13440000  0.33590000  0.28040000  1.0 -0.7604116462
O  O52  1  0.13440000  0.66410000  0.71960000  1.0 -0.7604116462
O  O53  1  0.33590000  0.86560000  0.28040000  1.0 -0.7604116462
O  O54  1  0.66410000  0.86560000  0.71960000  1.0 -0.7604116462
O  O55  1  0.86560000  0.66410000  0.28040000  1.0 -0.7604116462
O  O56  1  0.66410000  0.13440000  0.28040000  1.0 -0.7604116462
O  O57  1  0.63440000  0.16410000  0.78040000  1.0 -0.7604116462
O  O58  1  0.16410000  0.36560000  0.78040000  1.0 -0.7604116462
O  O59  1  0.36560000  0.16410000  0.21960000  1.0 -0.7604116462
O  O60  1  0.36560000  0.83590000  0.78040000  1.0 -0.7604116462
O  O61  1  0.16410000  0.63440000  0.21960000  1.0 -0.7604116462
O  O62  1  0.83590000  0.63440000  0.78040000  1.0 -0.7604116462
O  O63  1  0.63440000  0.83590000  0.21960000  1.0 -0.7604116462
O  O64  1  0.83590000  0.36560000  0.21960000  1.0 -0.7604116462
