# DDEC6 charges by PACMAN v1.1 (https://github.com/mtap-research/PACMAN-charge/)
data_BEFMUW_FSR_pacman
_symmetry_space_group_name_H-M   'P 1'
_cell_length_a   9.55107000
_cell_length_b   9.55107000
_cell_length_c   13.85270000
_cell_angle_alpha   89.41830000
_cell_angle_beta   90.58170000
_cell_angle_gamma   92.68580000
_symmetry_Int_Tables_number   1
_chemical_formula_structural   CoPO4
_chemical_formula_sum   'Co10 P10 O40'
_cell_volume   1262.17157348
_cell_formula_units_Z   10
loop_
 _symmetry_equiv_pos_site_id
 _symmetry_equiv_pos_as_xyz
  1  'x, y, z'
loop_
 _atom_site_type_symbol
 _atom_site_label
 _atom_site_symmetry_multiplicity
 _atom_site_fract_x
 _atom_site_fract_y
 _atom_site_fract_z
 _atom_site_occupancy
 _atom_site_charge
Co  Co1  1  0.73510000  0.98290000  0.27460000  1.0 1.2132180045
Co  Co2  1  0.98290000  0.73510000  0.22540000  1.0 1.2132180045
Co  Co3  1  0.26490000  0.01710000  0.72540000  1.0 1.2153452943
Co  Co4  1  0.01710000  0.26490000  0.77460000  1.0 1.2153452943
Co  Co5  1  0.71560000  0.76560000  0.87640000  1.0 1.1791985641
Co  Co6  1  0.76560000  0.71560000  0.62360000  1.0 1.1791985641
Co  Co7  1  0.28440000  0.23440000  0.12360000  1.0 1.1791985641
Co  Co8  1  0.23440000  0.28440000  0.37640000  1.0 1.1791985641
Co  Co9  1  0.55780000  0.55780000  0.25000000  1.0 1.2676459858
Co  Co10  1  0.44220000  0.44220000  0.75000000  1.0 1.2676459858
P  P1  1  0.71010000  0.76850000  0.10540000  1.0 1.3781057427
P  P2  1  0.76850000  0.71010000  0.39460000  1.0 1.3781057427
P  P3  1  0.28990000  0.23150000  0.89460000  1.0 1.3781057427
P  P4  1  0.23150000  0.28990000  0.60540000  1.0 1.3781057427
P  P5  1  0.23020000  0.51960000  0.21940000  1.0 1.3781057427
P  P6  1  0.51960000  0.23020000  0.28060000  1.0 1.3781057427
P  P7  1  0.76980000  0.48040000  0.78060000  1.0 1.3781057427
P  P8  1  0.48040000  0.76980000  0.71940000  1.0 1.3781057427
P  P9  1  0.05940000  0.05940000  0.25000000  1.0 1.3781057427
P  P10  1  0.94060000  0.94060000  0.75000000  1.0 1.3781057427
O  O1  1  0.67080000  0.80860000  0.00170000  1.0 -0.5621825745
O  O2  1  0.80860000  0.67080000  0.49830000  1.0 -0.5621825745
O  O3  1  0.32920000  0.19140000  0.99830000  1.0 -0.5621825745
O  O4  1  0.19140000  0.32920000  0.50170000  1.0 -0.5621825745
O  O5  1  0.64300000  0.62520000  0.13040000  1.0 -0.6497086128
O  O6  1  0.62520000  0.64300000  0.36960000  1.0 -0.6497086128
O  O7  1  0.35700000  0.37480000  0.86960000  1.0 -0.6497086128
O  O8  1  0.37480000  0.35700000  0.63040000  1.0 -0.6497086128
O  O9  1  0.36170000  0.60250000  0.25200000  1.0 -0.6584524279
O  O10  1  0.60250000  0.36170000  0.24800000  1.0 -0.6584524279
O  O11  1  0.63830000  0.39750000  0.74800000  1.0 -0.6584524279
O  O12  1  0.39750000  0.63830000  0.75200000  1.0 -0.6584524279
O  O13  1  0.26540000  0.42540000  0.13650000  1.0 -0.6672082831
O  O14  1  0.42540000  0.26540000  0.36350000  1.0 -0.6672082831
O  O15  1  0.73460000  0.57460000  0.86350000  1.0 -0.6672082831
O  O16  1  0.57460000  0.73460000  0.63650000  1.0 -0.6672082831
O  O17  1  0.90560000  0.08480000  0.24290000  1.0 -0.6584524279
O  O18  1  0.08480000  0.90560000  0.25710000  1.0 -0.6584524279
O  O19  1  0.09440000  0.91520000  0.75710000  1.0 -0.6584524279
O  O20  1  0.91520000  0.09440000  0.74290000  1.0 -0.6584524279
O  O21  1  0.16650000  0.43290000  0.30160000  1.0 -0.6782398512
O  O22  1  0.43290000  0.16650000  0.19840000  1.0 -0.6782398512
O  O23  1  0.83350000  0.56710000  0.69840000  1.0 -0.6782398512
O  O24  1  0.56710000  0.83350000  0.80160000  1.0 -0.6782398512
O  O25  1  0.12270000  0.12590000  0.34130000  1.0 -0.6497086128
O  O26  1  0.12590000  0.12270000  0.15870000  1.0 -0.6497086128
O  O27  1  0.87730000  0.87410000  0.65870000  1.0 -0.6497086128
O  O28  1  0.87410000  0.87730000  0.84130000  1.0 -0.6497086128
O  O29  1  0.65180000  0.87820000  0.17160000  1.0 -0.6890701866
O  O30  1  0.87820000  0.65180000  0.32840000  1.0 -0.6890701866
O  O31  1  0.34820000  0.12180000  0.82840000  1.0 -0.6890701866
O  O32  1  0.12180000  0.34820000  0.67160000  1.0 -0.6890701866
O  O33  1  0.12490000  0.62070000  0.18110000  1.0 -0.5704744001
O  O34  1  0.62070000  0.12490000  0.31890000  1.0 -0.5704744001
O  O35  1  0.87510000  0.37930000  0.81890000  1.0 -0.5704744001
O  O36  1  0.37930000  0.87510000  0.68110000  1.0 -0.5704744001
O  O37  1  0.86830000  0.76550000  0.11500000  1.0 -0.6890701866
O  O38  1  0.76550000  0.86830000  0.38500000  1.0 -0.6890701866
O  O39  1  0.13170000  0.23450000  0.88500000  1.0 -0.6890701866
O  O40  1  0.23450000  0.13170000  0.61500000  1.0 -0.6890701866
