# DDEC6 charges by PACMAN v1.1 (https://github.com/mtap-research/PACMAN-charge/)
data_BEFMOQ_FSR_pacman
_symmetry_space_group_name_H-M   'P 1'
_cell_length_a   9.66070000
_cell_length_b   9.66070000
_cell_length_c   14.01800000
_cell_angle_alpha   89.58970000
_cell_angle_beta   90.41030000
_cell_angle_gamma   93.99320000
_symmetry_Int_Tables_number   1
_chemical_formula_structural   CoPO4
_chemical_formula_sum   'Co10 P10 O40'
_cell_volume   1305.04899527
_cell_formula_units_Z   10
loop_
 _symmetry_equiv_pos_site_id
 _symmetry_equiv_pos_as_xyz
  1  'x, y, z'
loop_
 _atom_site_type_symbol
 _atom_site_label
 _atom_site_symmetry_multiplicity
 _atom_site_fract_x
 _atom_site_fract_y
 _atom_site_fract_z
 _atom_site_occupancy
 _atom_site_charge
Co  Co1  1  0.73420000  0.98200000  0.27430000  1.0 1.2348251909
Co  Co2  1  0.98200000  0.73420000  0.22570000  1.0 1.2348251909
Co  Co3  1  0.26580000  0.01800000  0.72570000  1.0 1.2374696106
Co  Co4  1  0.01800000  0.26580000  0.77430000  1.0 1.2374696106
Co  Co5  1  0.72330000  0.76170000  0.87710000  1.0 1.1841639847
Co  Co6  1  0.76170000  0.72330000  0.62290000  1.0 1.1841639847
Co  Co7  1  0.27670000  0.23830000  0.12290000  1.0 1.185577926
Co  Co8  1  0.23830000  0.27670000  0.37710000  1.0 1.185577926
Co  Co9  1  0.55320000  0.55320000  0.25000000  1.0 1.2704669803
Co  Co10  1  0.44680000  0.44680000  0.75000000  1.0 1.2704669803
P  P1  1  0.71210000  0.76290000  0.10670000  1.0 1.3494411422
P  P2  1  0.76290000  0.71210000  0.39330000  1.0 1.3494411422
P  P3  1  0.28790000  0.23710000  0.89330000  1.0 1.3494411422
P  P4  1  0.23710000  0.28790000  0.60670000  1.0 1.3494411422
P  P5  1  0.22660000  0.51520000  0.22500000  1.0 1.3494411422
P  P6  1  0.51520000  0.22660000  0.27500000  1.0 1.3431102206
P  P7  1  0.77340000  0.48480000  0.77500000  1.0 1.3431102206
P  P8  1  0.48480000  0.77340000  0.72500000  1.0 1.3431102206
P  P9  1  0.05940000  0.05940000  0.25000000  1.0 1.3494411422
P  P10  1  0.94060000  0.94060000  0.75000000  1.0 1.3494411422
O  O1  1  0.67690000  0.79630000  0.00210000  1.0 -0.5657193691
O  O2  1  0.79630000  0.67690000  0.49790000  1.0 -0.5657193691
O  O3  1  0.32310000  0.20370000  0.99790000  1.0 -0.5657193691
O  O4  1  0.20370000  0.32310000  0.50210000  1.0 -0.5657193691
O  O5  1  0.63750000  0.62430000  0.13190000  1.0 -0.6327827007
O  O6  1  0.62430000  0.63750000  0.36810000  1.0 -0.6327827007
O  O7  1  0.36250000  0.37570000  0.86810000  1.0 -0.6327827007
O  O8  1  0.37570000  0.36250000  0.63190000  1.0 -0.6327827007
O  O9  1  0.35950000  0.59650000  0.25880000  1.0 -0.6505629829
O  O10  1  0.59650000  0.35950000  0.24120000  1.0 -0.6505629829
O  O11  1  0.64050000  0.40350000  0.74120000  1.0 -0.6505629829
O  O12  1  0.40350000  0.64050000  0.75880000  1.0 -0.6505629829
O  O13  1  0.26180000  0.42820000  0.14100000  1.0 -0.669990021
O  O14  1  0.42820000  0.26180000  0.35900000  1.0 -0.669990021
O  O15  1  0.73820000  0.57180000  0.85900000  1.0 -0.669990021
O  O16  1  0.57180000  0.73820000  0.64100000  1.0 -0.669990021
O  O17  1  0.90810000  0.08650000  0.25240000  1.0 -0.6505629829
O  O18  1  0.08650000  0.90810000  0.24760000  1.0 -0.6505629829
O  O19  1  0.09190000  0.91350000  0.74760000  1.0 -0.6505629829
O  O20  1  0.91350000  0.09190000  0.75240000  1.0 -0.6505629829
O  O21  1  0.17020000  0.42260000  0.30360000  1.0 -0.669990021
O  O22  1  0.42260000  0.17020000  0.19640000  1.0 -0.669990021
O  O23  1  0.82980000  0.57740000  0.69640000  1.0 -0.669990021
O  O24  1  0.57740000  0.82980000  0.80360000  1.0 -0.669990021
O  O25  1  0.13060000  0.11240000  0.33870000  1.0 -0.6505629829
O  O26  1  0.11240000  0.13060000  0.16130000  1.0 -0.6449251205
O  O27  1  0.86940000  0.88760000  0.66130000  1.0 -0.6505629829
O  O28  1  0.88760000  0.86940000  0.83870000  1.0 -0.6505629829
O  O29  1  0.66290000  0.87490000  0.16980000  1.0 -0.6783897012
O  O30  1  0.87490000  0.66290000  0.33020000  1.0 -0.6783897012
O  O31  1  0.33710000  0.12510000  0.83020000  1.0 -0.6783897012
O  O32  1  0.12510000  0.33710000  0.66980000  1.0 -0.6783897012
O  O33  1  0.12050000  0.61070000  0.19270000  1.0 -0.5795655131
O  O34  1  0.61070000  0.12050000  0.30730000  1.0 -0.5795655131
O  O35  1  0.87950000  0.38930000  0.80730000  1.0 -0.5795655131
O  O36  1  0.38930000  0.87950000  0.69270000  1.0 -0.5795655131
O  O37  1  0.86850000  0.75570000  0.11620000  1.0 -0.6783897012
O  O38  1  0.75570000  0.86850000  0.38380000  1.0 -0.6783897012
O  O39  1  0.13150000  0.24430000  0.88380000  1.0 -0.6783897012
O  O40  1  0.24430000  0.13150000  0.61620000  1.0 -0.6783897012
