# DDEC6 charges by PACMAN v1.1 (https://github.com/mtap-research/PACMAN-charge/)
data_BEFNUX_FSR_pacman
_symmetry_space_group_name_H-M   'P 1'
_cell_length_a   8.90910000
_cell_length_b   14.78910000
_cell_length_c   14.97480000
_cell_angle_alpha   90.00000000
_cell_angle_beta   90.00000000
_cell_angle_gamma   90.00000000
_symmetry_Int_Tables_number   1
_chemical_formula_structural   GaCo3P4O17
_chemical_formula_sum   'Ga4 Co12 P16 O68'
_cell_volume   1973.04327137
_cell_formula_units_Z   4
loop_
 _symmetry_equiv_pos_site_id
 _symmetry_equiv_pos_as_xyz
  1  'x, y, z'
loop_
 _atom_site_type_symbol
 _atom_site_label
 _atom_site_symmetry_multiplicity
 _atom_site_fract_x
 _atom_site_fract_y
 _atom_site_fract_z
 _atom_site_occupancy
 _atom_site_charge
Ga  Ga1  1  0.07750000  0.25000000  0.13020000  1.0 1.3593775985
Ga  Ga2  1  0.92250000  0.75000000  0.86980000  1.0 1.3593775985
Ga  Ga3  1  0.07750000  0.75000000  0.36980000  1.0 1.3593775985
Ga  Ga4  1  0.92250000  0.25000000  0.63020000  1.0 1.3593775985
Co  Co1  1  0.33050000  0.25000000  0.50670000  1.0 1.25380308
Co  Co2  1  0.66950000  0.75000000  0.49330000  1.0 1.25380308
Co  Co3  1  0.33050000  0.75000000  0.99330000  1.0 1.25380308
Co  Co4  1  0.66950000  0.25000000  0.00670000  1.0 1.25380308
Co  Co5  1  0.84440000  0.11790000  0.34470000  1.0 1.1802589354
Co  Co6  1  0.15560000  0.61790000  0.65530000  1.0 1.1802589354
Co  Co7  1  0.84440000  0.88210000  0.15530000  1.0 1.1802589354
Co  Co8  1  0.15560000  0.38210000  0.84470000  1.0 1.1802589354
Co  Co9  1  0.15560000  0.88210000  0.65530000  1.0 1.1802589354
Co  Co10  1  0.84440000  0.38210000  0.34470000  1.0 1.1802589354
Co  Co11  1  0.15560000  0.11790000  0.84470000  1.0 1.1802589354
Co  Co12  1  0.84440000  0.61790000  0.15530000  1.0 1.1802589354
P  P1  1  0.31130000  0.25000000  0.97590000  1.0 1.1937236544
P  P2  1  0.68870000  0.75000000  0.02410000  1.0 1.1937236544
P  P3  1  0.31130000  0.75000000  0.52410000  1.0 1.1937236544
P  P4  1  0.68870000  0.25000000  0.47590000  1.0 1.1937236544
P  P5  1  0.13630000  0.25000000  0.33060000  1.0 1.4894529637
P  P6  1  0.86370000  0.75000000  0.66940000  1.0 1.4821131286
P  P7  1  0.13630000  0.75000000  0.16940000  1.0 1.4894529637
P  P8  1  0.86370000  0.25000000  0.83060000  1.0 1.4821131286
P  P9  1  0.82680000  0.10210000  0.13400000  1.0 1.3895127234
P  P10  1  0.17320000  0.60210000  0.86600000  1.0 1.3895127234
P  P11  1  0.82680000  0.89790000  0.36600000  1.0 1.3895127234
P  P12  1  0.17320000  0.39790000  0.63400000  1.0 1.3895127234
P  P13  1  0.17320000  0.89790000  0.86600000  1.0 1.3895127234
P  P14  1  0.82680000  0.39790000  0.13400000  1.0 1.3895127234
P  P15  1  0.17320000  0.10210000  0.63400000  1.0 1.3895127234
P  P16  1  0.82680000  0.60210000  0.36600000  1.0 1.3895127234
O  O1  1  0.75650000  0.12070000  0.22640000  1.0 -0.7703527454
O  O2  1  0.24350000  0.62070000  0.77360000  1.0 -0.7703527454
O  O3  1  0.75650000  0.87930000  0.27360000  1.0 -0.7703527454
O  O4  1  0.24350000  0.37930000  0.72640000  1.0 -0.7703527454
O  O5  1  0.24350000  0.87930000  0.77360000  1.0 -0.7703527454
O  O6  1  0.75650000  0.37930000  0.22640000  1.0 -0.7703527454
O  O7  1  0.24350000  0.12070000  0.72640000  1.0 -0.7703527454
O  O8  1  0.75650000  0.62070000  0.27360000  1.0 -0.7703527454
O  O9  1  0.18520000  0.25000000  0.23260000  1.0 -0.6807612199
O  O10  1  0.81480000  0.75000000  0.76740000  1.0 -0.6807612199
O  O11  1  0.18520000  0.75000000  0.26740000  1.0 -0.6807612199
O  O12  1  0.81480000  0.25000000  0.73260000  1.0 -0.6807612199
O  O13  1  0.04550000  0.16310000  0.35090000  1.0 -0.776591109
O  O14  1  0.95450000  0.66310000  0.64910000  1.0 -0.776591109
O  O15  1  0.04550000  0.83690000  0.14910000  1.0 -0.776591109
O  O16  1  0.95450000  0.33690000  0.85090000  1.0 -0.776591109
O  O17  1  0.95450000  0.83690000  0.64910000  1.0 -0.776591109
O  O18  1  0.04550000  0.33690000  0.35090000  1.0 -0.776591109
O  O19  1  0.95450000  0.16310000  0.85090000  1.0 -0.776591109
O  O20  1  0.04550000  0.66310000  0.14910000  1.0 -0.776591109
O  O21  1  0.28510000  0.25000000  0.37980000  1.0 -0.6878552156
O  O22  1  0.71490000  0.75000000  0.62020000  1.0 -0.6878552156
O  O23  1  0.28510000  0.75000000  0.12020000  1.0 -0.6878552156
O  O24  1  0.71490000  0.25000000  0.87980000  1.0 -0.6878552156
O  O25  1  0.73030000  0.13530000  0.06380000  1.0 -0.7368391696
O  O26  1  0.26970000  0.63530000  0.93620000  1.0 -0.7368391696
O  O27  1  0.73030000  0.86470000  0.43620000  1.0 -0.7368391696
O  O28  1  0.26970000  0.36470000  0.56380000  1.0 -0.7368391696
O  O29  1  0.26970000  0.86470000  0.93620000  1.0 -0.7368391696
O  O30  1  0.73030000  0.36470000  0.06380000  1.0 -0.7368391696
O  O31  1  0.26970000  0.13530000  0.56380000  1.0 -0.7368391696
O  O32  1  0.73030000  0.63530000  0.43620000  1.0 -0.7368391696
O  O33  1  0.85140000  0.00470000  0.11520000  1.0 -0.6212274256
O  O34  1  0.14860000  0.50470000  0.88480000  1.0 -0.6212274256
O  O35  1  0.85140000  0.99530000  0.38480000  1.0 -0.6259967032
O  O36  1  0.14860000  0.49530000  0.61520000  1.0 -0.6212274256
O  O37  1  0.14860000  0.99530000  0.88480000  1.0 -0.6212274256
O  O38  1  0.85140000  0.49530000  0.11520000  1.0 -0.6212274256
O  O39  1  0.14860000  0.00470000  0.61520000  1.0 -0.6212274256
O  O40  1  0.85140000  0.50470000  0.38480000  1.0 -0.6259967032
O  O41  1  0.45430000  0.25000000  0.03000000  1.0 -0.6212274256
O  O42  1  0.54570000  0.75000000  0.97000000  1.0 -0.6212274256
O  O43  1  0.45430000  0.75000000  0.47000000  1.0 -0.6212274256
O  O44  1  0.54570000  0.25000000  0.53000000  1.0 -0.6212274256
O  O45  1  0.97670000  0.12880000  0.13920000  1.0 -0.6878552156
O  O46  1  0.02330000  0.62880000  0.86080000  1.0 -0.6807612199
O  O47  1  0.97670000  0.87120000  0.36080000  1.0 -0.6878552156
O  O48  1  0.02330000  0.37120000  0.63920000  1.0 -0.6807612199
O  O49  1  0.02330000  0.87120000  0.86080000  1.0 -0.6807612199
O  O50  1  0.97670000  0.37120000  0.13920000  1.0 -0.6878552156
O  O51  1  0.02330000  0.12880000  0.63920000  1.0 -0.6807612199
O  O52  1  0.97670000  0.62880000  0.36080000  1.0 -0.6878552156
O  O53  1  0.31750000  0.31460000  0.90510000  1.0 -0.4097210857
O  O54  1  0.68250000  0.81460000  0.09490000  1.0 -0.4097210857
O  O55  1  0.31750000  0.68540000  0.59490000  1.0 -0.4097210857
O  O56  1  0.68250000  0.18540000  0.40510000  1.0 -0.4097210857
O  O57  1  0.68250000  0.68540000  0.09490000  1.0 -0.4097210857
O  O58  1  0.31750000  0.18540000  0.90510000  1.0 -0.4097210857
O  O59  1  0.68250000  0.31460000  0.40510000  1.0 -0.4097210857
O  O60  1  0.31750000  0.81460000  0.59490000  1.0 -0.4097210857
O  O61  1  0.19300000  0.20200000  0.02960000  1.0 -0.2209613453
O  O62  1  0.80700000  0.70200000  0.97040000  1.0 -0.2209613453
O  O63  1  0.19300000  0.79800000  0.47040000  1.0 -0.2209613453
O  O64  1  0.80700000  0.29800000  0.52960000  1.0 -0.2209613453
O  O65  1  0.80700000  0.79800000  0.97040000  1.0 -0.2209613453
O  O66  1  0.19300000  0.29800000  0.02960000  1.0 -0.2209613453
O  O67  1  0.80700000  0.20200000  0.52960000  1.0 -0.2209613453
O  O68  1  0.19300000  0.70200000  0.47040000  1.0 -0.2209613453
