# DDEC6 charges by PACMAN v1.1 (https://github.com/mtap-research/PACMAN-charge/)
data_BEFNEH_ASR_pacman
_symmetry_space_group_name_H-M   'P 1'
_cell_length_a   12.92280000
_cell_length_b   14.22620000
_cell_length_c   18.72650000
_cell_angle_alpha   90.00000000
_cell_angle_beta   130.77600000
_cell_angle_gamma   90.00000000
_symmetry_Int_Tables_number   1
_chemical_formula_structural   GaCo5(PO4)5
_chemical_formula_sum   'Ga4 Co20 P20 O80'
_cell_volume   2607.06674979
_cell_formula_units_Z   4
loop_
 _symmetry_equiv_pos_site_id
 _symmetry_equiv_pos_as_xyz
  1  'x, y, z'
loop_
 _atom_site_type_symbol
 _atom_site_label
 _atom_site_symmetry_multiplicity
 _atom_site_fract_x
 _atom_site_fract_y
 _atom_site_fract_z
 _atom_site_occupancy
 _atom_site_charge
Ga  Ga1  1  0.50560000  0.26650000  0.39670000  1.0 1.5301238836
Ga  Ga2  1  0.49440000  0.76650000  0.10330000  1.0 1.5301238836
Ga  Ga3  1  0.49440000  0.73350000  0.60330000  1.0 1.5301238836
Ga  Ga4  1  0.50560000  0.23350000  0.89670000  1.0 1.5301238836
Co  Co1  1  0.22080000  0.23760000  0.12830000  1.0 1.1704754474
Co  Co2  1  0.77920000  0.73760000  0.37170000  1.0 1.1704754474
Co  Co3  1  0.77920000  0.76240000  0.87170000  1.0 1.1704754474
Co  Co4  1  0.22080000  0.26240000  0.62830000  1.0 1.1704754474
Co  Co5  1  0.73370000  0.12630000  0.72850000  1.0 1.1972730698
Co  Co6  1  0.26630000  0.62630000  0.77150000  1.0 1.1972730698
Co  Co7  1  0.26630000  0.87370000  0.27150000  1.0 1.1940215768
Co  Co8  1  0.73370000  0.37370000  0.22850000  1.0 1.1940215768
Co  Co9  1  0.75550000  0.12560000  0.24240000  1.0 1.2174987139
Co  Co10  1  0.24450000  0.62560000  0.25760000  1.0 1.2174987139
Co  Co11  1  0.24450000  0.87440000  0.75760000  1.0 1.2174987139
Co  Co12  1  0.75550000  0.37440000  0.74240000  1.0 1.2174987139
Co  Co13  1  0.08100000  0.25910000  0.27440000  1.0 1.1972730698
Co  Co14  1  0.91900000  0.75910000  0.22560000  1.0 1.1972730698
Co  Co15  1  0.91900000  0.74090000  0.72560000  1.0 1.1972730698
Co  Co16  1  0.08100000  0.24090000  0.77440000  1.0 1.1972730698
Co  Co17  1  0.50470000  0.25680000  0.38400000  1.0 1.2494012656
Co  Co18  1  0.49530000  0.75680000  0.11600000  1.0 1.2494012656
Co  Co19  1  0.49530000  0.74320000  0.61600000  1.0 1.2494012656
Co  Co20  1  0.50470000  0.24320000  0.88400000  1.0 1.2494012656
P  P1  1  0.99480000  0.23470000  0.89650000  1.0 1.3708413186
P  P2  1  0.00520000  0.73470000  0.60350000  1.0 1.3770832958
P  P3  1  0.00520000  0.76530000  0.10350000  1.0 1.3770832958
P  P4  1  0.99480000  0.26530000  0.39650000  1.0 1.3708413186
P  P5  1  0.27390000  0.10670000  0.28640000  1.0 1.3596615733
P  P6  1  0.72610000  0.60670000  0.21360000  1.0 1.3596615733
P  P7  1  0.72610000  0.89330000  0.71360000  1.0 1.3596615733
P  P8  1  0.27390000  0.39330000  0.78640000  1.0 1.3596615733
P  P9  1  0.24550000  0.39360000  0.25540000  1.0 1.3962642791
P  P10  1  0.75450000  0.89360000  0.24460000  1.0 1.3962642791
P  P11  1  0.75450000  0.60640000  0.74460000  1.0 1.3962642791
P  P12  1  0.24550000  0.10640000  0.75540000  1.0 1.3962642791
P  P13  1  0.76110000  0.25280000  0.60780000  1.0 1.4394256117
P  P14  1  0.23890000  0.75280000  0.89220000  1.0 1.4394256117
P  P15  1  0.23890000  0.74720000  0.39220000  1.0 1.4394256117
P  P16  1  0.76110000  0.24720000  0.10780000  1.0 1.4394256117
P  P17  1  0.53080000  0.24620000  0.22470000  1.0 1.4211075248
P  P18  1  0.46920000  0.74620000  0.27530000  1.0 1.4211075248
P  P19  1  0.46920000  0.75380000  0.77530000  1.0 1.4211075248
P  P20  1  0.53080000  0.25380000  0.72470000  1.0 1.4211075248
O  O1  1  0.91960000  0.14560000  0.83940000  1.0 -0.7599920539
O  O2  1  0.08040000  0.64560000  0.66060000  1.0 -0.7599920539
O  O3  1  0.08040000  0.85440000  0.16060000  1.0 -0.7599920539
O  O4  1  0.91960000  0.35440000  0.33940000  1.0 -0.7599920539
O  O5  1  0.26500000  0.12680000  0.20230000  1.0 -0.7599920539
O  O6  1  0.73500000  0.62680000  0.29770000  1.0 -0.7599920539
O  O7  1  0.73500000  0.87320000  0.79770000  1.0 -0.7599920539
O  O8  1  0.26500000  0.37320000  0.70230000  1.0 -0.7599920539
O  O9  1  0.67810000  0.18700000  0.61750000  1.0 -0.7466569899
O  O10  1  0.32190000  0.68700000  0.88250000  1.0 -0.7466569899
O  O11  1  0.32190000  0.81300000  0.38250000  1.0 -0.7466569899
O  O12  1  0.67810000  0.31300000  0.11750000  1.0 -0.7466569899
O  O13  1  0.19620000  0.36740000  0.30830000  1.0 -0.7118757872
O  O14  1  0.80380000  0.86740000  0.19170000  1.0 -0.7118757872
O  O15  1  0.80380000  0.63260000  0.69170000  1.0 -0.7118757872
O  O16  1  0.19620000  0.13260000  0.80830000  1.0 -0.7118757872
O  O17  1  0.37760000  0.25930000  0.14130000  1.0 -0.6913400648
O  O18  1  0.62240000  0.75930000  0.35870000  1.0 -0.6913400648
O  O19  1  0.62240000  0.74070000  0.85870000  1.0 -0.6913400648
O  O20  1  0.37760000  0.24070000  0.64130000  1.0 -0.6913400648
O  O21  1  0.39570000  0.37010000  0.31450000  1.0 -0.8515968977
O  O22  1  0.60430000  0.87010000  0.18550000  1.0 -0.8515968977
O  O23  1  0.60430000  0.62990000  0.68550000  1.0 -0.8515968977
O  O24  1  0.39570000  0.12990000  0.81450000  1.0 -0.8515968977
O  O25  1  0.16140000  0.33700000  0.16310000  1.0 -0.7209861574
O  O26  1  0.83860000  0.83700000  0.33690000  1.0 -0.7209861574
O  O27  1  0.83860000  0.66300000  0.83690000  1.0 -0.7209861574
O  O28  1  0.16140000  0.16300000  0.66310000  1.0 -0.7209861574
O  O29  1  0.39680000  0.15600000  0.37530000  1.0 -0.8319992928
O  O30  1  0.60320000  0.65600000  0.12470000  1.0 -0.8319992928
O  O31  1  0.60320000  0.84400000  0.62470000  1.0 -0.8319992928
O  O32  1  0.39680000  0.34400000  0.87530000  1.0 -0.8319992928
O  O33  1  0.09600000  0.26040000  0.88390000  1.0 -0.7209861574
O  O34  1  0.90400000  0.76040000  0.61610000  1.0 -0.7209861574
O  O35  1  0.90400000  0.73960000  0.11610000  1.0 -0.7209861574
O  O36  1  0.09600000  0.23960000  0.38390000  1.0 -0.7209861574
O  O37  1  0.57900000  0.16880000  0.19550000  1.0 -0.7209861574
O  O38  1  0.42100000  0.66880000  0.30450000  1.0 -0.7209861574
O  O39  1  0.42100000  0.83120000  0.80450000  1.0 -0.7209861574
O  O40  1  0.57900000  0.33120000  0.69550000  1.0 -0.7209861574
O  O41  1  0.14490000  0.13830000  0.26680000  1.0 -0.6968621073
O  O42  1  0.85510000  0.63830000  0.23320000  1.0 -0.6968621073
O  O43  1  0.85510000  0.86170000  0.73320000  1.0 -0.6968621073
O  O44  1  0.14490000  0.36170000  0.76680000  1.0 -0.6968621073
O  O45  1  0.77830000  0.34800000  0.65290000  1.0 -0.7250220237
O  O46  1  0.22170000  0.84800000  0.84710000  1.0 -0.7209861574
O  O47  1  0.22170000  0.65200000  0.34710000  1.0 -0.7209861574
O  O48  1  0.77830000  0.15200000  0.15290000  1.0 -0.7209861574
O  O49  1  0.90300000  0.21140000  0.65710000  1.0 -0.671113318
O  O50  1  0.09700000  0.71140000  0.84290000  1.0 -0.671113318
O  O51  1  0.09700000  0.78860000  0.34290000  1.0 -0.671113318
O  O52  1  0.90300000  0.28860000  0.15710000  1.0 -0.671113318
O  O53  1  0.06660000  0.21550000  0.99910000  1.0 -0.6619365571
O  O54  1  0.93340000  0.71550000  0.50090000  1.0 -0.6619365571
O  O55  1  0.93340000  0.78450000  0.00090000  1.0 -0.6619365571
O  O56  1  0.06660000  0.28450000  0.49910000  1.0 -0.6619365571
O  O57  1  0.59960000  0.33950000  0.23790000  1.0 -0.7118757872
O  O58  1  0.40040000  0.83950000  0.26210000  1.0 -0.7118757872
O  O59  1  0.40040000  0.66050000  0.76210000  1.0 -0.7118757872
O  O60  1  0.59960000  0.16050000  0.73790000  1.0 -0.7118757872
O  O61  1  0.55950000  0.21830000  0.31400000  1.0 -0.8024005352
O  O62  1  0.44050000  0.71830000  0.18600000  1.0 -0.8024005352
O  O63  1  0.44050000  0.78170000  0.68600000  1.0 -0.8024005352
O  O64  1  0.55950000  0.28170000  0.81400000  1.0 -0.8024005352
O  O65  1  0.89180000  0.31350000  0.86200000  1.0 -0.7599920539
O  O66  1  0.10820000  0.81350000  0.63800000  1.0 -0.7599920539
O  O67  1  0.10820000  0.68650000  0.13800000  1.0 -0.7599920539
O  O68  1  0.89180000  0.18650000  0.36200000  1.0 -0.7599920539
O  O69  1  0.69090000  0.26490000  0.50440000  1.0 -0.7779791562
O  O70  1  0.30910000  0.76490000  0.99560000  1.0 -0.7779791562
O  O71  1  0.30910000  0.73510000  0.49560000  1.0 -0.7779791562
O  O72  1  0.69090000  0.23510000  0.00440000  1.0 -0.7779791562
O  O73  1  0.29040000  0.00230000  0.30610000  1.0 -0.6231466589
O  O74  1  0.70960000  0.50230000  0.19390000  1.0 -0.6231466589
O  O75  1  0.70960000  0.99770000  0.69390000  1.0 -0.6231466589
O  O76  1  0.29040000  0.49770000  0.80610000  1.0 -0.6231466589
O  O77  1  0.22040000  0.49590000  0.22910000  1.0 -0.6071280895
O  O78  1  0.77960000  0.99590000  0.27090000  1.0 -0.6071280895
O  O79  1  0.77960000  0.50410000  0.77090000  1.0 -0.6071280895
O  O80  1  0.22040000  0.00410000  0.72910000  1.0 -0.6071280895
