# DDEC6 charges by PACMAN v1.1 (https://github.com/mtap-research/PACMAN-charge/)
data_BEFNAD_ASR_pacman
_symmetry_space_group_name_H-M   'P 1'
_cell_length_a   9.56806000
_cell_length_b   9.56806000
_cell_length_c   13.84200000
_cell_angle_alpha   89.04180000
_cell_angle_beta   90.95820000
_cell_angle_gamma   92.36630000
_symmetry_Int_Tables_number   1
_chemical_formula_structural   GaCo4(PO4)5
_chemical_formula_sum   'Ga2 Co8 P10 O40'
_cell_volume   1265.78361428
_cell_formula_units_Z   2
loop_
 _symmetry_equiv_pos_site_id
 _symmetry_equiv_pos_as_xyz
  1  'x, y, z'
loop_
 _atom_site_type_symbol
 _atom_site_label
 _atom_site_symmetry_multiplicity
 _atom_site_fract_x
 _atom_site_fract_y
 _atom_site_fract_z
 _atom_site_occupancy
 _atom_site_charge
Ga  Ga1  1  0.55880000  0.55880000  0.25000000  1.0 1.5458763461
Ga  Ga2  1  0.44120000  0.44120000  0.75000000  1.0 1.5458763461
Co  Co1  1  0.98400000  0.73740000  0.22430000  1.0 1.2212966303
Co  Co2  1  0.73740000  0.98400000  0.27570000  1.0 1.2282573799
Co  Co3  1  0.01600000  0.26260000  0.77570000  1.0 1.2282573799
Co  Co4  1  0.26260000  0.01600000  0.72430000  1.0 1.2282573799
Co  Co5  1  0.76550000  0.71270000  0.62280000  1.0 1.211655579
Co  Co6  1  0.71270000  0.76550000  0.87720000  1.0 1.211655579
Co  Co7  1  0.23450000  0.28730000  0.37720000  1.0 1.211655579
Co  Co8  1  0.28730000  0.23450000  0.12280000  1.0 1.211655579
P  P1  1  0.77090000  0.70730000  0.39400000  1.0 1.4072533469
P  P2  1  0.70730000  0.77090000  0.10600000  1.0 1.4072533469
P  P3  1  0.22910000  0.29270000  0.60600000  1.0 1.4072533469
P  P4  1  0.29270000  0.22910000  0.89400000  1.0 1.4072533469
P  P5  1  0.52150000  0.23310000  0.28410000  1.0 1.4030100922
P  P6  1  0.23310000  0.52150000  0.21590000  1.0 1.4072533469
P  P7  1  0.47850000  0.76690000  0.71590000  1.0 1.4030100922
P  P8  1  0.76690000  0.47850000  0.78410000  1.0 1.4030100922
P  P9  1  0.06210000  0.06210000  0.25000000  1.0 1.4072533469
P  P10  1  0.93790000  0.93790000  0.75000000  1.0 1.4030100922
O  O1  1  0.81020000  0.66160000  0.49720000  1.0 -0.5831771573
O  O2  1  0.66160000  0.81020000  0.00280000  1.0 -0.5831771573
O  O3  1  0.18980000  0.33840000  0.50280000  1.0 -0.5831771573
O  O4  1  0.33840000  0.18980000  0.99720000  1.0 -0.5831771573
O  O5  1  0.62600000  0.64220000  0.36700000  1.0 -0.6805846175
O  O6  1  0.64220000  0.62600000  0.13300000  1.0 -0.6805846175
O  O7  1  0.37400000  0.35780000  0.63300000  1.0 -0.6805846175
O  O8  1  0.35780000  0.37400000  0.86700000  1.0 -0.6805846175
O  O9  1  0.60100000  0.36480000  0.24900000  1.0 -0.6805846175
O  O10  1  0.36480000  0.60100000  0.25100000  1.0 -0.6805846175
O  O11  1  0.39900000  0.63520000  0.75100000  1.0 -0.6805846175
O  O12  1  0.63520000  0.39900000  0.74900000  1.0 -0.6805846175
O  O13  1  0.42900000  0.27100000  0.36620000  1.0 -0.7013302748
O  O14  1  0.27100000  0.42900000  0.13380000  1.0 -0.7013302748
O  O15  1  0.57100000  0.72900000  0.63380000  1.0 -0.7013302748
O  O16  1  0.72900000  0.57100000  0.86620000  1.0 -0.7013302748
O  O17  1  0.08880000  0.90860000  0.25560000  1.0 -0.6854797383
O  O18  1  0.90860000  0.08880000  0.24440000  1.0 -0.6854797383
O  O19  1  0.91120000  0.09140000  0.74440000  1.0 -0.6854797383
O  O20  1  0.09140000  0.91120000  0.75560000  1.0 -0.6854797383
O  O21  1  0.43380000  0.16680000  0.20300000  1.0 -0.7013302748
O  O22  1  0.16680000  0.43380000  0.29700000  1.0 -0.7013302748
O  O23  1  0.56620000  0.83320000  0.79700000  1.0 -0.7013302748
O  O24  1  0.83320000  0.56620000  0.70300000  1.0 -0.7013302748
O  O25  1  0.12390000  0.12990000  0.15820000  1.0 -0.6725444277
O  O26  1  0.12990000  0.12390000  0.34180000  1.0 -0.6725444277
O  O27  1  0.87610000  0.87010000  0.84180000  1.0 -0.6725444277
O  O28  1  0.87010000  0.87610000  0.65820000  1.0 -0.6725444277
O  O29  1  0.87990000  0.64810000  0.32740000  1.0 -0.7196495612
O  O30  1  0.64810000  0.87990000  0.17260000  1.0 -0.7196495612
O  O31  1  0.12010000  0.35190000  0.67260000  1.0 -0.7196495612
O  O32  1  0.35190000  0.12010000  0.82740000  1.0 -0.7196495612
O  O33  1  0.62600000  0.13020000  0.32340000  1.0 -0.587189429
O  O34  1  0.13020000  0.62600000  0.17660000  1.0 -0.587189429
O  O35  1  0.37400000  0.86980000  0.67660000  1.0 -0.587189429
O  O36  1  0.86980000  0.37400000  0.82340000  1.0 -0.587189429
O  O37  1  0.76990000  0.86530000  0.38800000  1.0 -0.7131309589
O  O38  1  0.86530000  0.76990000  0.11200000  1.0 -0.7131309589
O  O39  1  0.23010000  0.13470000  0.61200000  1.0 -0.7131309589
O  O40  1  0.13470000  0.23010000  0.88800000  1.0 -0.7131309589
