# DDEC6 charges by PACMAN v1.1 (https://github.com/mtap-research/PACMAN-charge/)
data_BEFNOR_ASR_pacman
_symmetry_space_group_name_H-M   'P 1'
_cell_length_a   8.91000000
_cell_length_b   14.71200000
_cell_length_c   14.97400000
_cell_angle_alpha   90.00000000
_cell_angle_beta   90.00000000
_cell_angle_gamma   90.00000000
_symmetry_Int_Tables_number   1
_chemical_formula_structural   Al4P4O17
_chemical_formula_sum   'Al16 P16 O68'
_cell_volume   1962.85061808
_cell_formula_units_Z   4
loop_
 _symmetry_equiv_pos_site_id
 _symmetry_equiv_pos_as_xyz
  1  'x, y, z'
loop_
 _atom_site_type_symbol
 _atom_site_label
 _atom_site_symmetry_multiplicity
 _atom_site_fract_x
 _atom_site_fract_y
 _atom_site_fract_z
 _atom_site_occupancy
 _atom_site_charge
Al  Al1  1  0.67230000  0.25000000  0.00760000  1.0 1.8016350508
Al  Al2  1  0.32770000  0.75000000  0.99240000  1.0 1.8016350508
Al  Al3  1  0.67230000  0.75000000  0.49240000  1.0 1.8016350508
Al  Al4  1  0.32770000  0.25000000  0.50760000  1.0 1.8016350508
Al  Al5  1  0.84320000  0.11690000  0.34530000  1.0 1.7583808243
Al  Al6  1  0.15680000  0.61690000  0.65470000  1.0 1.7583808243
Al  Al7  1  0.84320000  0.88310000  0.15470000  1.0 1.7583808243
Al  Al8  1  0.15680000  0.38310000  0.84530000  1.0 1.7583808243
Al  Al9  1  0.15680000  0.88310000  0.65470000  1.0 1.7583808243
Al  Al10  1  0.84320000  0.38310000  0.34530000  1.0 1.7583808243
Al  Al11  1  0.15680000  0.11690000  0.84530000  1.0 1.7583808243
Al  Al12  1  0.84320000  0.61690000  0.15470000  1.0 1.7583808243
Al  Al13  1  0.91380000  0.25000000  0.63240000  1.0 1.499193871
Al  Al14  1  0.08620000  0.75000000  0.36760000  1.0 1.499193871
Al  Al15  1  0.91380000  0.75000000  0.86760000  1.0 1.4873585343
Al  Al16  1  0.08620000  0.25000000  0.13240000  1.0 1.499193871
P  P1  1  0.31620000  0.25000000  0.97490000  1.0 1.1884602547
P  P2  1  0.68380000  0.75000000  0.02510000  1.0 1.1884602547
P  P3  1  0.31620000  0.75000000  0.52510000  1.0 1.1884602547
P  P4  1  0.68380000  0.25000000  0.47490000  1.0 1.1884602547
P  P5  1  0.87050000  0.25000000  0.83450000  1.0 1.4526857177
P  P6  1  0.12950000  0.75000000  0.16550000  1.0 1.4526857177
P  P7  1  0.87050000  0.75000000  0.66550000  1.0 1.4526857177
P  P8  1  0.12950000  0.25000000  0.33450000  1.0 1.4563098788
P  P9  1  0.83040000  0.10270000  0.13470000  1.0 1.4394764841
P  P10  1  0.16960000  0.60270000  0.86530000  1.0 1.4394764841
P  P11  1  0.83040000  0.89730000  0.36530000  1.0 1.4394764841
P  P12  1  0.16960000  0.39730000  0.63470000  1.0 1.4394764841
P  P13  1  0.16960000  0.89730000  0.86530000  1.0 1.4394764841
P  P14  1  0.83040000  0.39730000  0.13470000  1.0 1.4394764841
P  P15  1  0.16960000  0.10270000  0.63470000  1.0 1.4394764841
P  P16  1  0.83040000  0.60270000  0.36530000  1.0 1.4394764841
O  O1  1  0.76510000  0.12110000  0.22600000  1.0 -0.8956824303
O  O2  1  0.23490000  0.62110000  0.77400000  1.0 -0.8937062978
O  O3  1  0.76510000  0.87890000  0.27400000  1.0 -0.8956824303
O  O4  1  0.23490000  0.37890000  0.72600000  1.0 -0.8937062978
O  O5  1  0.23490000  0.87890000  0.77400000  1.0 -0.8937062978
O  O6  1  0.76510000  0.37890000  0.22600000  1.0 -0.8956824303
O  O7  1  0.23490000  0.12110000  0.72600000  1.0 -0.8937062978
O  O8  1  0.76510000  0.62110000  0.27400000  1.0 -0.8956824303
O  O9  1  0.81330000  0.25000000  0.73860000  1.0 -0.8066861093
O  O10  1  0.18670000  0.75000000  0.26140000  1.0 -0.8066861093
O  O11  1  0.81330000  0.75000000  0.76140000  1.0 -0.8066861093
O  O12  1  0.18670000  0.25000000  0.23860000  1.0 -0.8066861093
O  O13  1  0.95750000  0.33550000  0.85310000  1.0 -0.8815735936
O  O14  1  0.04250000  0.83550000  0.14690000  1.0 -0.8815735936
O  O15  1  0.95750000  0.66450000  0.64690000  1.0 -0.8815735936
O  O16  1  0.04250000  0.16450000  0.35310000  1.0 -0.8815735936
O  O17  1  0.04250000  0.66450000  0.14690000  1.0 -0.8815735936
O  O18  1  0.95750000  0.16450000  0.85310000  1.0 -0.8815735936
O  O19  1  0.04250000  0.33550000  0.35310000  1.0 -0.8815735936
O  O20  1  0.95750000  0.83550000  0.64690000  1.0 -0.8815735936
O  O21  1  0.72630000  0.25000000  0.88810000  1.0 -0.8279429585
O  O22  1  0.27370000  0.75000000  0.11190000  1.0 -0.8279429585
O  O23  1  0.72630000  0.75000000  0.61190000  1.0 -0.8279429585
O  O24  1  0.27370000  0.25000000  0.38810000  1.0 -0.8279429585
O  O25  1  0.72800000  0.13620000  0.06550000  1.0 -0.8229041755
O  O26  1  0.27200000  0.63620000  0.93450000  1.0 -0.8229041755
O  O27  1  0.72800000  0.86380000  0.43450000  1.0 -0.8229041755
O  O28  1  0.27200000  0.36380000  0.56550000  1.0 -0.8229041755
O  O29  1  0.27200000  0.86380000  0.93450000  1.0 -0.8229041755
O  O30  1  0.72800000  0.36380000  0.06550000  1.0 -0.8229041755
O  O31  1  0.27200000  0.13620000  0.56550000  1.0 -0.8229041755
O  O32  1  0.72800000  0.63620000  0.43450000  1.0 -0.8229041755
O  O33  1  0.85720000  0.00570000  0.11670000  1.0 -0.8022408843
O  O34  1  0.14280000  0.50570000  0.88330000  1.0 -0.8022408843
O  O35  1  0.85720000  0.99430000  0.38330000  1.0 -0.8022408843
O  O36  1  0.14280000  0.49430000  0.61670000  1.0 -0.8022408843
O  O37  1  0.14280000  0.99430000  0.88330000  1.0 -0.8022408843
O  O38  1  0.85720000  0.49430000  0.11670000  1.0 -0.8022408843
O  O39  1  0.14280000  0.00570000  0.61670000  1.0 -0.8022408843
O  O40  1  0.85720000  0.50570000  0.38330000  1.0 -0.8022408843
O  O41  1  0.46160000  0.25000000  0.02700000  1.0 -0.7352869868
O  O42  1  0.53840000  0.75000000  0.97300000  1.0 -0.7331605315
O  O43  1  0.46160000  0.75000000  0.47300000  1.0 -0.7352869868
O  O44  1  0.53840000  0.25000000  0.52700000  1.0 -0.7352869868
O  O45  1  0.29960000  0.32620000  0.92030000  1.0 -0.642660579
O  O46  1  0.70040000  0.82620000  0.07970000  1.0 -0.642660579
O  O47  1  0.29960000  0.67380000  0.57970000  1.0 -0.642660579
O  O48  1  0.70040000  0.17380000  0.42030000  1.0 -0.642660579
O  O49  1  0.70040000  0.67380000  0.07970000  1.0 -0.642660579
O  O50  1  0.29960000  0.17380000  0.92030000  1.0 -0.642660579
O  O51  1  0.70040000  0.32620000  0.42030000  1.0 -0.642660579
O  O52  1  0.29960000  0.82620000  0.57970000  1.0 -0.642660579
O  O53  1  0.97800000  0.14950000  0.12700000  1.0 -0.8383685559
O  O54  1  0.02200000  0.64950000  0.87300000  1.0 -0.8383685559
O  O55  1  0.97800000  0.85050000  0.37300000  1.0 -0.8383685559
O  O56  1  0.02200000  0.35050000  0.62700000  1.0 -0.8383685559
O  O57  1  0.02200000  0.85050000  0.87300000  1.0 -0.8383685559
O  O58  1  0.97800000  0.35050000  0.12700000  1.0 -0.8383685559
O  O59  1  0.02200000  0.14950000  0.62700000  1.0 -0.8383685559
O  O60  1  0.97800000  0.64950000  0.37300000  1.0 -0.8383685559
O  O61  1  0.20400000  0.21610000  0.04140000  1.0 -0.1006839856
O  O62  1  0.79600000  0.71610000  0.95860000  1.0 -0.1006839856
O  O63  1  0.20400000  0.78390000  0.45860000  1.0 -0.1006839856
O  O64  1  0.79600000  0.28390000  0.54140000  1.0 -0.1006839856
O  O65  1  0.79600000  0.78390000  0.95860000  1.0 -0.1006839856
O  O66  1  0.20400000  0.28390000  0.04140000  1.0 -0.1006839856
O  O67  1  0.79600000  0.21610000  0.54140000  1.0 -0.1006839856
O  O68  1  0.20400000  0.71610000  0.45860000  1.0 -0.1006839856
