# DDEC6 charges by PACMAN v1.1 (https://github.com/mtap-research/PACMAN-charge/)
data_BEFPAF_FSR_pacman
_symmetry_space_group_name_H-M   'P 1'
_cell_length_a   9.44252000
_cell_length_b   9.44252000
_cell_length_c   18.63400000
_cell_angle_alpha   89.73560000
_cell_angle_beta   90.26440000
_cell_angle_gamma   94.88760000
_symmetry_Int_Tables_number   1
_chemical_formula_structural   AlPO4
_chemical_formula_sum   'Al12 P12 O48'
_cell_volume   1655.35565951
_cell_formula_units_Z   12
loop_
 _symmetry_equiv_pos_site_id
 _symmetry_equiv_pos_as_xyz
  1  'x, y, z'
loop_
 _atom_site_type_symbol
 _atom_site_label
 _atom_site_symmetry_multiplicity
 _atom_site_fract_x
 _atom_site_fract_y
 _atom_site_fract_z
 _atom_site_occupancy
 _atom_site_charge
Al  Al1  1  0.85430000  0.06810000  0.83660000  1.0 1.7936630398
Al  Al2  1  0.06810000  0.85430000  0.66340000  1.0 1.7936630398
Al  Al3  1  0.14570000  0.93190000  0.16340000  1.0 1.7936630398
Al  Al4  1  0.93190000  0.14570000  0.33660000  1.0 1.7936630398
Al  Al5  1  0.32380000  0.86280000  0.95260000  1.0 1.7479709834
Al  Al6  1  0.86280000  0.32380000  0.54740000  1.0 1.7479709834
Al  Al7  1  0.67620000  0.13720000  0.04740000  1.0 1.7479709834
Al  Al8  1  0.13720000  0.67620000  0.45260000  1.0 1.7479709834
Al  Al9  1  0.89410000  0.66090000  0.93940000  1.0 1.7390739172
Al  Al10  1  0.66090000  0.89410000  0.56060000  1.0 1.7390739172
Al  Al11  1  0.10590000  0.33910000  0.06060000  1.0 1.7390739172
Al  Al12  1  0.33910000  0.10590000  0.43940000  1.0 1.7390739172
P  P1  1  0.86860000  0.33060000  0.94110000  1.0 1.4127815118
P  P2  1  0.33060000  0.86860000  0.55890000  1.0 1.4127815118
P  P3  1  0.13140000  0.66940000  0.05890000  1.0 1.4157658368
P  P4  1  0.66940000  0.13140000  0.44110000  1.0 1.4127815118
P  P5  1  0.65720000  0.87560000  0.93890000  1.0 1.4277350456
P  P6  1  0.87560000  0.65720000  0.56110000  1.0 1.4277350456
P  P7  1  0.34280000  0.12440000  0.06110000  1.0 1.4277350456
P  P8  1  0.12440000  0.34280000  0.43890000  1.0 1.4277350456
P  P9  1  0.08900000  0.85120000  0.83450000  1.0 1.4408587962
P  P10  1  0.85120000  0.08900000  0.66550000  1.0 1.4408587962
P  P11  1  0.91100000  0.14880000  0.16550000  1.0 1.4408587962
P  P12  1  0.14880000  0.91100000  0.33450000  1.0 1.4408587962
O  O1  1  0.23700000  0.86340000  0.86920000  1.0 -0.7619174967
O  O2  1  0.86340000  0.23700000  0.63080000  1.0 -0.7619174967
O  O3  1  0.76300000  0.13660000  0.13080000  1.0 -0.7619174967
O  O4  1  0.13660000  0.76300000  0.36920000  1.0 -0.7619174967
O  O5  1  0.68140000  0.96720000  0.00480000  1.0 -0.8217892199
O  O6  1  0.96720000  0.68140000  0.49520000  1.0 -0.8217892199
O  O7  1  0.31860000  0.03280000  0.99520000  1.0 -0.8217892199
O  O8  1  0.03280000  0.31860000  0.50480000  1.0 -0.8217892199
O  O9  1  0.73470000  0.74590000  0.94870000  1.0 -0.7702516318
O  O10  1  0.74590000  0.73470000  0.55130000  1.0 -0.7702516318
O  O11  1  0.26530000  0.25410000  0.05130000  1.0 -0.7702516318
O  O12  1  0.25410000  0.26530000  0.44870000  1.0 -0.7702516318
O  O13  1  0.00940000  0.32380000  0.97830000  1.0 -0.8217892199
O  O14  1  0.32380000  0.00940000  0.52170000  1.0 -0.8217892199
O  O15  1  0.99060000  0.67620000  0.02170000  1.0 -0.8217892199
O  O16  1  0.67620000  0.99060000  0.47830000  1.0 -0.8217892199
O  O17  1  0.86580000  0.24600000  0.87350000  1.0 -0.7619174967
O  O18  1  0.24600000  0.86580000  0.62650000  1.0 -0.7619174967
O  O19  1  0.13420000  0.75400000  0.12650000  1.0 -0.7619174967
O  O20  1  0.75400000  0.13420000  0.37350000  1.0 -0.7619174967
O  O21  1  0.02350000  0.98670000  0.84480000  1.0 -0.828178376
O  O22  1  0.98670000  0.02350000  0.65520000  1.0 -0.828178376
O  O23  1  0.97650000  0.01330000  0.15520000  1.0 -0.828178376
O  O24  1  0.01330000  0.97650000  0.34480000  1.0 -0.828178376
O  O25  1  0.99880000  0.72760000  0.86820000  1.0 -0.8217892199
O  O26  1  0.72760000  0.99880000  0.63180000  1.0 -0.8217892199
O  O27  1  0.00120000  0.27240000  0.13180000  1.0 -0.8217892199
O  O28  1  0.27240000  0.00120000  0.36820000  1.0 -0.8217892199
O  O29  1  0.49970000  0.82870000  0.93090000  1.0 -0.7702516318
O  O30  1  0.82870000  0.49970000  0.56910000  1.0 -0.7702516318
O  O31  1  0.50030000  0.17130000  0.06910000  1.0 -0.7702516318
O  O32  1  0.17130000  0.50030000  0.43090000  1.0 -0.7702516318
O  O33  1  0.10630000  0.81970000  0.75690000  1.0 -0.7796363384
O  O34  1  0.81970000  0.10630000  0.74310000  1.0 -0.7796363384
O  O35  1  0.89370000  0.18030000  0.24310000  1.0 -0.7796363384
O  O36  1  0.18030000  0.89370000  0.25690000  1.0 -0.7796363384
O  O37  1  0.84640000  0.48180000  0.91980000  1.0 -0.7619174967
O  O38  1  0.48180000  0.84640000  0.58020000  1.0 -0.7619174967
O  O39  1  0.15360000  0.51820000  0.08020000  1.0 -0.7619174967
O  O40  1  0.51820000  0.15360000  0.41980000  1.0 -0.7619174967
O  O41  1  0.70310000  0.95570000  0.87240000  1.0 -0.828178376
O  O42  1  0.95570000  0.70310000  0.62760000  1.0 -0.828178376
O  O43  1  0.29690000  0.04430000  0.12760000  1.0 -0.828178376
O  O44  1  0.04430000  0.29690000  0.37240000  1.0 -0.828178376
O  O45  1  0.74780000  0.27840000  0.99010000  1.0 -0.8352128714
O  O46  1  0.27840000  0.74780000  0.50990000  1.0 -0.8352128714
O  O47  1  0.25220000  0.72160000  0.00990000  1.0 -0.8352128714
O  O48  1  0.72160000  0.25220000  0.49010000  1.0 -0.8352128714
