# DDEC6 charges by PACMAN v1.1 (https://github.com/mtap-research/PACMAN-charge/)
data_BEGDEY_ASR_pacman
_symmetry_space_group_name_H-M   'P 1'
_cell_length_a   22.24110000
_cell_length_b   22.24110000
_cell_length_c   22.24110000
_cell_angle_alpha   130.28400000
_cell_angle_beta   130.28400000
_cell_angle_gamma   72.95390000
_symmetry_Int_Tables_number   1
_chemical_formula_structural   ZnCu2H22C54(NO)8
_chemical_formula_sum   'Zn4 Cu8 H88 C216 N32 O32'
_cell_volume   6253.19278445
_cell_formula_units_Z   4
loop_
 _symmetry_equiv_pos_site_id
 _symmetry_equiv_pos_as_xyz
  1  'x, y, z'
loop_
 _atom_site_type_symbol
 _atom_site_label
 _atom_site_symmetry_multiplicity
 _atom_site_fract_x
 _atom_site_fract_y
 _atom_site_fract_z
 _atom_site_occupancy
 _atom_site_charge
Zn  Zn1  1  0.00000000  0.28898000  0.28898000  1.0 0.5670028406
Zn  Zn2  1  0.00000000  0.71102000  0.71102000  1.0 0.5670028406
Zn  Zn3  1  0.71102000  0.00000000  0.71102000  1.0 0.5670028406
Zn  Zn4  1  0.28898000  0.00000000  0.28898000  1.0 0.5670028406
Cu  Cu1  1  0.06082000  0.06082000  0.56476000  1.0 0.8865008878
Cu  Cu2  1  0.49606000  0.49606000  0.43524000  1.0 0.8865008878
Cu  Cu3  1  0.93918000  0.50394000  0.00000000  1.0 0.8865008878
Cu  Cu4  1  0.50394000  0.93918000  0.00000000  1.0 0.8865008878
Cu  Cu5  1  0.93918000  0.93918000  0.43524000  1.0 0.8865008878
Cu  Cu6  1  0.50394000  0.50394000  0.56476000  1.0 0.8865008878
Cu  Cu7  1  0.49606000  0.06082000  0.00000000  1.0 0.8865008878
Cu  Cu8  1  0.06082000  0.49606000  0.00000000  1.0 0.8865008878
H  H1  1  0.09730000  0.49200000  0.58930000  1.0 0.1585844162
H  H2  1  0.90270000  0.50800000  0.41070000  1.0 0.1585844162
H  H3  1  0.90270000  0.49200000  0.39470000  1.0 0.1585844162
H  H4  1  0.09730000  0.50800000  0.60530000  1.0 0.1585844162
H  H5  1  0.50800000  0.90270000  0.41070000  1.0 0.1585844162
H  H6  1  0.49200000  0.09730000  0.58930000  1.0 0.1585844162
H  H7  1  0.50800000  0.09730000  0.60530000  1.0 0.1585844162
H  H8  1  0.49200000  0.90270000  0.39470000  1.0 0.1585844162
H  H9  1  0.01130000  0.42690000  0.58520000  1.0 0.1181742602
H  H10  1  0.84170000  0.42610000  0.41480000  1.0 0.1181742602
H  H11  1  0.98870000  0.57390000  0.41560000  1.0 0.1181742602
H  H12  1  0.15830000  0.57310000  0.58440000  1.0 0.1181742602
H  H13  1  0.57310000  0.98870000  0.41480000  1.0 0.1181742602
H  H14  1  0.57390000  0.15830000  0.58520000  1.0 0.1181742602
H  H15  1  0.42610000  0.01130000  0.58440000  1.0 0.1181742602
H  H16  1  0.42690000  0.84170000  0.41560000  1.0 0.1181742602
H  H17  1  0.94070000  0.28990000  0.47540000  1.0 0.1303149893
H  H18  1  0.81450000  0.46530000  0.52460000  1.0 0.1303149893
H  H19  1  0.05930000  0.53470000  0.34920000  1.0 0.1303149893
H  H20  1  0.18550000  0.71010000  0.65080000  1.0 0.1303149893
H  H21  1  0.71010000  0.05930000  0.52460000  1.0 0.1303149893
H  H22  1  0.53470000  0.18550000  0.47540000  1.0 0.1303149893
H  H23  1  0.46530000  0.94070000  0.65080000  1.0 0.1303149893
H  H24  1  0.28990000  0.81450000  0.34920000  1.0 0.1303149893
H  H25  1  0.05930000  0.71010000  0.52460000  1.0 0.1303149893
H  H26  1  0.18550000  0.53470000  0.47540000  1.0 0.1303149893
H  H27  1  0.94070000  0.46530000  0.65080000  1.0 0.1303149893
H  H28  1  0.81450000  0.28990000  0.34920000  1.0 0.1303149893
H  H29  1  0.28990000  0.94070000  0.47540000  1.0 0.1303149893
H  H30  1  0.46530000  0.81450000  0.52460000  1.0 0.1303149893
H  H31  1  0.53470000  0.05930000  0.34920000  1.0 0.1303149893
H  H32  1  0.71010000  0.18550000  0.65080000  1.0 0.1303149893
H  H33  1  0.94410000  0.04540000  0.23590000  1.0 0.1303149893
H  H34  1  0.80950000  0.70820000  0.76410000  1.0 0.1303149893
H  H35  1  0.05590000  0.29180000  0.10130000  1.0 0.1303149893
H  H36  1  0.19050000  0.95460000  0.89870000  1.0 0.1303149893
H  H37  1  0.95460000  0.05590000  0.76410000  1.0 0.1303149893
H  H38  1  0.29180000  0.19050000  0.23590000  1.0 0.1303149893
H  H39  1  0.70820000  0.94410000  0.89870000  1.0 0.1303149893
H  H40  1  0.04540000  0.80950000  0.10130000  1.0 0.1303149893
H  H41  1  0.05590000  0.95460000  0.76410000  1.0 0.1303149893
H  H42  1  0.19050000  0.29180000  0.23590000  1.0 0.1303149893
H  H43  1  0.94410000  0.70820000  0.89870000  1.0 0.1303149893
H  H44  1  0.80950000  0.04540000  0.10130000  1.0 0.1303149893
H  H45  1  0.04540000  0.94410000  0.23590000  1.0 0.1303149893
H  H46  1  0.70820000  0.80950000  0.76410000  1.0 0.1303149893
H  H47  1  0.29180000  0.05590000  0.10130000  1.0 0.1303149893
H  H48  1  0.95460000  0.19050000  0.89870000  1.0 0.1303149893
H  H49  1  0.02210000  0.99260000  0.15770000  1.0 0.1181742602
H  H50  1  0.83490000  0.86440000  0.84230000  1.0 0.1181742602
H  H51  1  0.97790000  0.13560000  0.97050000  1.0 0.1181742602
H  H52  1  0.16510000  0.00740000  0.02950000  1.0 0.1181742602
H  H53  1  0.00740000  0.97790000  0.84230000  1.0 0.1181742602
H  H54  1  0.13560000  0.16510000  0.15770000  1.0 0.1181742602
H  H55  1  0.86440000  0.02210000  0.02950000  1.0 0.1181742602
H  H56  1  0.99260000  0.83490000  0.97050000  1.0 0.1181742602
H  H57  1  0.97790000  0.00740000  0.84230000  1.0 0.1181742602
H  H58  1  0.16510000  0.13560000  0.15770000  1.0 0.1181742602
H  H59  1  0.02210000  0.86440000  0.02950000  1.0 0.1181742602
H  H60  1  0.83490000  0.99260000  0.97050000  1.0 0.1181742602
H  H61  1  0.99260000  0.02210000  0.15770000  1.0 0.1181742602
H  H62  1  0.86440000  0.83490000  0.84230000  1.0 0.1181742602
H  H63  1  0.13560000  0.97790000  0.97050000  1.0 0.1181742602
H  H64  1  0.00740000  0.16510000  0.02950000  1.0 0.1181742602
H  H65  1  0.96230000  0.13500000  0.38710000  1.0 0.1440260935
H  H66  1  0.74790000  0.57520000  0.61290000  1.0 0.1440260935
H  H67  1  0.03770000  0.42480000  0.17270000  1.0 0.1440260935
H  H68  1  0.25210000  0.86500000  0.82730000  1.0 0.1440260935
H  H69  1  0.86500000  0.03770000  0.61290000  1.0 0.1440260935
H  H70  1  0.42480000  0.25210000  0.38710000  1.0 0.1440260935
H  H71  1  0.57520000  0.96230000  0.82730000  1.0 0.1440260935
H  H72  1  0.13500000  0.74790000  0.17270000  1.0 0.1440260935
H  H73  1  0.03770000  0.86500000  0.61290000  1.0 0.1440260935
H  H74  1  0.25210000  0.42480000  0.38710000  1.0 0.1440260935
H  H75  1  0.96230000  0.57520000  0.82730000  1.0 0.1440260935
H  H76  1  0.74790000  0.13500000  0.17270000  1.0 0.1440260935
H  H77  1  0.13500000  0.96230000  0.38710000  1.0 0.1440260935
H  H78  1  0.57520000  0.74790000  0.61290000  1.0 0.1440260935
H  H79  1  0.42480000  0.03770000  0.17270000  1.0 0.1440260935
H  H80  1  0.86500000  0.25210000  0.82730000  1.0 0.1440260935
H  H81  1  0.75870000  0.01030000  0.25160000  1.0 0.1488318968
H  H82  1  0.75870000  0.50710000  0.74840000  1.0 0.1488318968
H  H83  1  0.24130000  0.49290000  0.25160000  1.0 0.1488318968
H  H84  1  0.24130000  0.98970000  0.74840000  1.0 0.1488318968
H  H85  1  0.98970000  0.24130000  0.74840000  1.0 0.1488318968
H  H86  1  0.49290000  0.24130000  0.25160000  1.0 0.1488318968
H  H87  1  0.50710000  0.75870000  0.74840000  1.0 0.1488318968
H  H88  1  0.01030000  0.75870000  0.25160000  1.0 0.1488318968
C  C1  1  0.07700000  0.44670000  0.52370000  1.0 -0.2562482838
C  C2  1  0.92300000  0.55330000  0.47630000  1.0 -0.2562482838
C  C3  1  0.92300000  0.44670000  0.36970000  1.0 -0.2562482838
C  C4  1  0.07700000  0.55330000  0.63030000  1.0 -0.2562482838
C  C5  1  0.55330000  0.92300000  0.47630000  1.0 -0.2562482838
C  C6  1  0.44670000  0.07700000  0.52370000  1.0 -0.2562482838
C  C7  1  0.55330000  0.07700000  0.63030000  1.0 -0.2562482838
C  C8  1  0.44670000  0.92300000  0.36970000  1.0 -0.2562482838
C  C9  1  0.02850000  0.38270000  0.48100000  1.0 -0.0091770541
C  C10  1  0.90170000  0.54750000  0.51900000  1.0 -0.0091770541
C  C11  1  0.97150000  0.45250000  0.35420000  1.0 -0.0091770541
C  C12  1  0.09830000  0.61730000  0.64580000  1.0 -0.0091770541
C  C13  1  0.61730000  0.97150000  0.51900000  1.0 -0.0091770541
C  C14  1  0.45250000  0.09830000  0.48100000  1.0 -0.0091770541
C  C15  1  0.54750000  0.02850000  0.64580000  1.0 -0.0091770541
C  C16  1  0.38270000  0.90170000  0.35420000  1.0 -0.0091770541
C  C17  1  0.97150000  0.61730000  0.51900000  1.0 -0.0091770541
C  C18  1  0.09830000  0.45250000  0.48100000  1.0 -0.0091770541
C  C19  1  0.02850000  0.54750000  0.64580000  1.0 -0.0091770541
C  C20  1  0.90170000  0.38270000  0.35420000  1.0 -0.0091770541
C  C21  1  0.38270000  0.02850000  0.48100000  1.0 -0.0091770541
C  C22  1  0.54750000  0.90170000  0.51900000  1.0 -0.0091770541
C  C23  1  0.45250000  0.97150000  0.35420000  1.0 -0.0091770541
C  C24  1  0.61730000  0.09830000  0.64580000  1.0 -0.0091770541
C  C25  1  0.00150000  0.38300000  0.52450000  1.0 -0.0720971862
C  C26  1  0.85850000  0.47700000  0.47550000  1.0 -0.0720971862
C  C27  1  0.99850000  0.52300000  0.38150000  1.0 -0.0720971862
C  C28  1  0.14150000  0.61700000  0.61850000  1.0 -0.0720971862
C  C29  1  0.61700000  0.99850000  0.47550000  1.0 -0.0720971862
C  C30  1  0.52300000  0.14150000  0.52450000  1.0 -0.0720971862
C  C31  1  0.47700000  0.00150000  0.61850000  1.0 -0.0720971862
C  C32  1  0.38300000  0.85850000  0.38150000  1.0 -0.0720971862
C  C33  1  0.99850000  0.61700000  0.47550000  1.0 -0.0720971862
C  C34  1  0.14150000  0.52300000  0.52450000  1.0 -0.0720971862
C  C35  1  0.00150000  0.47700000  0.61850000  1.0 -0.0720971862
C  C36  1  0.85850000  0.38300000  0.38150000  1.0 -0.0720971862
C  C37  1  0.38300000  0.00150000  0.52450000  1.0 -0.0720971862
C  C38  1  0.47700000  0.85850000  0.47550000  1.0 -0.0720971862
C  C39  1  0.52300000  0.99850000  0.38150000  1.0 -0.0720971862
C  C40  1  0.61700000  0.14150000  0.61850000  1.0 -0.0720971862
C  C41  1  0.95970000  0.30830000  0.46180000  1.0 -0.2044510093
C  C42  1  0.84650000  0.49790000  0.53820000  1.0 -0.2044510093
C  C43  1  0.04030000  0.50210000  0.34860000  1.0 -0.2044510093
C  C44  1  0.15350000  0.69170000  0.65140000  1.0 -0.2044510093
C  C45  1  0.69170000  0.04030000  0.53820000  1.0 -0.2044510093
C  C46  1  0.50210000  0.15350000  0.46180000  1.0 -0.2044510093
C  C47  1  0.49790000  0.95970000  0.65140000  1.0 -0.2044510093
C  C48  1  0.30830000  0.84650000  0.34860000  1.0 -0.2044510093
C  C49  1  0.04030000  0.69170000  0.53820000  1.0 -0.2044510093
C  C50  1  0.15350000  0.50210000  0.46180000  1.0 -0.2044510093
C  C51  1  0.95970000  0.49790000  0.65140000  1.0 -0.2058441114
C  C52  1  0.84650000  0.30830000  0.34860000  1.0 -0.2058441114
C  C53  1  0.30830000  0.95970000  0.46180000  1.0 -0.2044510093
C  C54  1  0.49790000  0.84650000  0.53820000  1.0 -0.2044510093
C  C55  1  0.50210000  0.04030000  0.34860000  1.0 -0.2058441114
C  C56  1  0.69170000  0.15350000  0.65140000  1.0 -0.2058441114
C  C57  1  0.94880000  0.26010000  0.36810000  1.0 0.1009518056
C  C58  1  0.89200000  0.58070000  0.63190000  1.0 0.1009518056
C  C59  1  0.05120000  0.41930000  0.31130000  1.0 0.1009518056
C  C60  1  0.10800000  0.73990000  0.68870000  1.0 0.1009518056
C  C61  1  0.73990000  0.05120000  0.63190000  1.0 0.1009518056
C  C62  1  0.41930000  0.10800000  0.36810000  1.0 0.1009518056
C  C63  1  0.58070000  0.94880000  0.68870000  1.0 0.1009518056
C  C64  1  0.26010000  0.89200000  0.31130000  1.0 0.1009518056
C  C65  1  0.05120000  0.73990000  0.63190000  1.0 0.1009518056
C  C66  1  0.10800000  0.41930000  0.36810000  1.0 0.1009518056
C  C67  1  0.94880000  0.58070000  0.68870000  1.0 0.1009518056
C  C68  1  0.89200000  0.26010000  0.31130000  1.0 0.1009518056
C  C69  1  0.26010000  0.94880000  0.36810000  1.0 0.1009518056
C  C70  1  0.58070000  0.89200000  0.63190000  1.0 0.1009518056
C  C71  1  0.41930000  0.05120000  0.31130000  1.0 0.1009518056
C  C72  1  0.73990000  0.10800000  0.68870000  1.0 0.1009518056
C  C73  1  0.90380000  0.18560000  0.28180000  1.0 -0.0091770541
C  C74  1  0.90380000  0.62200000  0.71820000  1.0 -0.0091770541
C  C75  1  0.09620000  0.37800000  0.28180000  1.0 -0.0091770541
C  C76  1  0.09620000  0.81440000  0.71820000  1.0 -0.0091770541
C  C77  1  0.81440000  0.09620000  0.71820000  1.0 -0.0091770541
C  C78  1  0.37800000  0.09620000  0.28180000  1.0 -0.0091770541
C  C79  1  0.62200000  0.90380000  0.71820000  1.0 -0.0091770541
C  C80  1  0.18560000  0.90380000  0.28180000  1.0 -0.0091770541
C  C81  1  0.95180000  0.14510000  0.25550000  1.0 0.1009518056
C  C82  1  0.88960000  0.69630000  0.74450000  1.0 0.1009518056
C  C83  1  0.04820000  0.30370000  0.19330000  1.0 0.1009518056
C  C84  1  0.11040000  0.85490000  0.80670000  1.0 0.1009518056
C  C85  1  0.85490000  0.04820000  0.74450000  1.0 0.1009518056
C  C86  1  0.30370000  0.11040000  0.25550000  1.0 0.1009518056
C  C87  1  0.69630000  0.95180000  0.80670000  1.0 0.1009518056
C  C88  1  0.14510000  0.88960000  0.19330000  1.0 0.1009518056
C  C89  1  0.04820000  0.85490000  0.74450000  1.0 0.1009518056
C  C90  1  0.11040000  0.30370000  0.25550000  1.0 0.1009518056
C  C91  1  0.95180000  0.69630000  0.80670000  1.0 0.1009518056
C  C92  1  0.88960000  0.14510000  0.19330000  1.0 0.1009518056
C  C93  1  0.14510000  0.95180000  0.25550000  1.0 0.1009518056
C  C94  1  0.69630000  0.88960000  0.74450000  1.0 0.1009518056
C  C95  1  0.30370000  0.04820000  0.19330000  1.0 0.1009518056
C  C96  1  0.85490000  0.11040000  0.80670000  1.0 0.1009518056
C  C97  1  0.96170000  0.07340000  0.23030000  1.0 -0.2507588562
C  C98  1  0.84310000  0.73140000  0.76970000  1.0 -0.2507588562
C  C99  1  0.03830000  0.26860000  0.11170000  1.0 -0.2507588562
C  C100  1  0.15690000  0.92660000  0.88830000  1.0 -0.2507588562
C  C101  1  0.92660000  0.03830000  0.76970000  1.0 -0.2507588562
C  C102  1  0.26860000  0.15690000  0.23030000  1.0 -0.2507588562
C  C103  1  0.73140000  0.96170000  0.88830000  1.0 -0.2507588562
C  C104  1  0.07340000  0.84310000  0.11170000  1.0 -0.2507588562
C  C105  1  0.03830000  0.92660000  0.76970000  1.0 -0.2507588562
C  C106  1  0.15690000  0.26860000  0.23030000  1.0 -0.2507588562
C  C107  1  0.96170000  0.73140000  0.88830000  1.0 -0.2507588562
C  C108  1  0.84310000  0.07340000  0.11170000  1.0 -0.2507588562
C  C109  1  0.07340000  0.96170000  0.23030000  1.0 -0.2507588562
C  C110  1  0.73140000  0.84310000  0.76970000  1.0 -0.2507588562
C  C111  1  0.26860000  0.03830000  0.11170000  1.0 -0.2507588562
C  C112  1  0.92660000  0.15690000  0.88830000  1.0 -0.2507588562
C  C113  1  0.01020000  0.04310000  0.18830000  1.0 -0.0612483376
C  C114  1  0.85480000  0.82190000  0.81170000  1.0 -0.0612483376
C  C115  1  0.98980000  0.17810000  0.03290000  1.0 -0.0612483376
C  C116  1  0.14520000  0.95690000  0.96710000  1.0 -0.0612483376
C  C117  1  0.95690000  0.98980000  0.81170000  1.0 -0.0612483376
C  C118  1  0.17810000  0.14520000  0.18830000  1.0 -0.0612483376
C  C119  1  0.82190000  0.01020000  0.96710000  1.0 -0.0612483376
C  C120  1  0.04310000  0.85480000  0.03290000  1.0 -0.0612483376
C  C121  1  0.98980000  0.95690000  0.81170000  1.0 -0.0612483376
C  C122  1  0.14520000  0.17810000  0.18830000  1.0 -0.0612483376
C  C123  1  0.01020000  0.82190000  0.96710000  1.0 -0.0612483376
C  C124  1  0.85480000  0.04310000  0.03290000  1.0 -0.0612483376
C  C125  1  0.04310000  0.01020000  0.18830000  1.0 -0.0612483376
C  C126  1  0.82190000  0.85480000  0.81170000  1.0 -0.0612483376
C  C127  1  0.17810000  0.98980000  0.03290000  1.0 -0.0612483376
C  C128  1  0.95690000  0.14520000  0.96710000  1.0 -0.0612483376
C  C129  1  0.02940000  0.11030000  0.20850000  1.0 0.0390690171
C  C130  1  0.90180000  0.82090000  0.79150000  1.0 0.0390690171
C  C131  1  0.97060000  0.17910000  0.08090000  1.0 0.0390690171
C  C132  1  0.09820000  0.88970000  0.91910000  1.0 0.0390690171
C  C133  1  0.88970000  0.97060000  0.79150000  1.0 0.0390690171
C  C134  1  0.17910000  0.09820000  0.20850000  1.0 0.0390690171
C  C135  1  0.82090000  0.02940000  0.91910000  1.0 0.0390690171
C  C136  1  0.11030000  0.90180000  0.08090000  1.0 0.0390690171
C  C137  1  0.97060000  0.88970000  0.79150000  1.0 0.0390690171
C  C138  1  0.09820000  0.17910000  0.20850000  1.0 0.0390690171
C  C139  1  0.02940000  0.82090000  0.91910000  1.0 0.0390690171
C  C140  1  0.90180000  0.11030000  0.08090000  1.0 0.0390690171
C  C141  1  0.11030000  0.02940000  0.20850000  1.0 0.0390690171
C  C142  1  0.82090000  0.90180000  0.79150000  1.0 0.0390690171
C  C143  1  0.17910000  0.97060000  0.08090000  1.0 0.0390690171
C  C144  1  0.88970000  0.09820000  0.91910000  1.0 0.0390690171
C  C145  1  0.09500000  0.11000000  0.20500000  1.0 -0.1008519165
C  C146  1  0.90500000  0.89000000  0.79500000  1.0 -0.1008519165
C  C147  1  0.90500000  0.11000000  0.01500000  1.0 -0.1008519165
C  C148  1  0.09500000  0.89000000  0.98500000  1.0 -0.1008519165
C  C149  1  0.89000000  0.90500000  0.79500000  1.0 -0.1008519165
C  C150  1  0.11000000  0.09500000  0.20500000  1.0 -0.1008519165
C  C151  1  0.89000000  0.09500000  0.98500000  1.0 -0.0943878439
C  C152  1  0.11000000  0.90500000  0.01500000  1.0 -0.1008519165
C  C153  1  0.86190000  0.14150000  0.27960000  1.0 0.0764826893
C  C154  1  0.86190000  0.58230000  0.72040000  1.0 0.0764826893
C  C155  1  0.13810000  0.41770000  0.27960000  1.0 0.0764826893
C  C156  1  0.13810000  0.85850000  0.72040000  1.0 0.0764826893
C  C157  1  0.85850000  0.13810000  0.72040000  1.0 0.0764826893
C  C158  1  0.41770000  0.13810000  0.27960000  1.0 0.0764826893
C  C159  1  0.58230000  0.86190000  0.72040000  1.0 0.0764826893
C  C160  1  0.14150000  0.86190000  0.27960000  1.0 0.0764826893
C  C161  1  0.90630000  0.11900000  0.34090000  1.0 -0.1271350139
C  C162  1  0.77810000  0.56540000  0.65910000  1.0 -0.1271350139
C  C163  1  0.09370000  0.43460000  0.21270000  1.0 -0.1271350139
C  C164  1  0.22190000  0.88100000  0.78730000  1.0 -0.1271350139
C  C165  1  0.88100000  0.09370000  0.65910000  1.0 -0.1271350139
C  C166  1  0.43460000  0.22190000  0.34090000  1.0 -0.1271350139
C  C167  1  0.56540000  0.90630000  0.78730000  1.0 -0.1271350139
C  C168  1  0.11900000  0.77810000  0.21270000  1.0 -0.1271350139
C  C169  1  0.09370000  0.88100000  0.65910000  1.0 -0.1271350139
C  C170  1  0.22190000  0.43460000  0.34090000  1.0 -0.1271350139
C  C171  1  0.90630000  0.56540000  0.78730000  1.0 -0.1271350139
C  C172  1  0.77810000  0.11900000  0.21270000  1.0 -0.1271350139
C  C173  1  0.11900000  0.90630000  0.34090000  1.0 -0.1271350139
C  C174  1  0.56540000  0.77810000  0.65910000  1.0 -0.1271350139
C  C175  1  0.43460000  0.09370000  0.21270000  1.0 -0.1271350139
C  C176  1  0.88100000  0.22190000  0.78730000  1.0 -0.1271350139
C  C177  1  0.86855000  0.07285000  0.33450000  1.0 -0.0373857559
C  C178  1  0.73835000  0.53405000  0.66550000  1.0 -0.0373857559
C  C179  1  0.13145000  0.46595000  0.20430000  1.0 -0.0373857559
C  C180  1  0.26165000  0.92715000  0.79570000  1.0 -0.0373857559
C  C181  1  0.92715000  0.13145000  0.66550000  1.0 -0.0373857559
C  C182  1  0.46595000  0.26165000  0.33450000  1.0 -0.0373857559
C  C183  1  0.53405000  0.86855000  0.79570000  1.0 -0.0373857559
C  C184  1  0.07285000  0.73835000  0.20430000  1.0 -0.0373857559
C  C185  1  0.13145000  0.92715000  0.66550000  1.0 -0.0373857559
C  C186  1  0.26165000  0.46595000  0.33450000  1.0 -0.0373857559
C  C187  1  0.86855000  0.53405000  0.79570000  1.0 -0.0373857559
C  C188  1  0.73835000  0.07285000  0.20430000  1.0 -0.0373857559
C  C189  1  0.07285000  0.86855000  0.33450000  1.0 -0.0373857559
C  C190  1  0.53405000  0.73835000  0.66550000  1.0 -0.0373857559
C  C191  1  0.46595000  0.13145000  0.20430000  1.0 -0.0373857559
C  C192  1  0.92715000  0.26165000  0.79570000  1.0 -0.0373857559
C  C193  1  0.78412000  0.04582000  0.26170000  1.0 -0.078031413
C  C194  1  0.78412000  0.52242000  0.73830000  1.0 -0.078031413
C  C195  1  0.21588000  0.47758000  0.26170000  1.0 -0.078031413
C  C196  1  0.21588000  0.95418000  0.73830000  1.0 -0.078031413
C  C197  1  0.95418000  0.21588000  0.73830000  1.0 -0.078031413
C  C198  1  0.47758000  0.21588000  0.26170000  1.0 -0.078031413
C  C199  1  0.52242000  0.78412000  0.73830000  1.0 -0.078031413
C  C200  1  0.04582000  0.78412000  0.26170000  1.0 -0.078031413
C  C201  1  0.91492000  0.04682000  0.39490000  1.0 0.5822058808
C  C202  1  0.65192000  0.52002000  0.60510000  1.0 0.5822058808
C  C203  1  0.08508000  0.47998000  0.13190000  1.0 0.5822058808
C  C204  1  0.34808000  0.95318000  0.86810000  1.0 0.5822058808
C  C205  1  0.95318000  0.08508000  0.60510000  1.0 0.5822058808
C  C206  1  0.47998000  0.34808000  0.39490000  1.0 0.5822058808
C  C207  1  0.52002000  0.91492000  0.86810000  1.0 0.5822058808
C  C208  1  0.04682000  0.65192000  0.13190000  1.0 0.5822058808
C  C209  1  0.08508000  0.95318000  0.60510000  1.0 0.5822058808
C  C210  1  0.34808000  0.47998000  0.39490000  1.0 0.5822058808
C  C211  1  0.91492000  0.52002000  0.86810000  1.0 0.5822058808
C  C212  1  0.65192000  0.04682000  0.13190000  1.0 0.5822058808
C  C213  1  0.04682000  0.91492000  0.39490000  1.0 0.5822058808
C  C214  1  0.52002000  0.65192000  0.60510000  1.0 0.5822058808
C  C215  1  0.47998000  0.08508000  0.13190000  1.0 0.5822058808
C  C216  1  0.95318000  0.34808000  0.86810000  1.0 0.5822058808
N  N1  1  0.99090000  0.30960000  0.38110000  1.0 -0.0313934895
N  N2  1  0.92850000  0.60980000  0.61890000  1.0 -0.0313934895
N  N3  1  0.00910000  0.39020000  0.31870000  1.0 -0.0313934895
N  N4  1  0.07150000  0.69040000  0.68130000  1.0 -0.0313934895
N  N5  1  0.69040000  0.00910000  0.61890000  1.0 -0.0313934895
N  N6  1  0.39020000  0.07150000  0.38110000  1.0 -0.0313934895
N  N7  1  0.60980000  0.99090000  0.68130000  1.0 -0.0313934895
N  N8  1  0.30960000  0.92850000  0.31870000  1.0 -0.0313934895
N  N9  1  0.00910000  0.69040000  0.61890000  1.0 -0.0313934895
N  N10  1  0.07150000  0.39020000  0.38110000  1.0 -0.0313934895
N  N11  1  0.99090000  0.60980000  0.68130000  1.0 -0.0313934895
N  N12  1  0.92850000  0.30960000  0.31870000  1.0 -0.0313934895
N  N13  1  0.30960000  0.99090000  0.38110000  1.0 -0.0313934895
N  N14  1  0.60980000  0.92850000  0.61890000  1.0 -0.0313934895
N  N15  1  0.39020000  0.00910000  0.31870000  1.0 -0.0313934895
N  N16  1  0.69040000  0.07150000  0.68130000  1.0 -0.0313934895
N  N17  1  0.99980000  0.17670000  0.25750000  1.0 -0.1524063224
N  N18  1  0.91920000  0.74230000  0.74250000  1.0 -0.1524063224
N  N19  1  0.00020000  0.25770000  0.17690000  1.0 -0.1524063224
N  N20  1  0.08080000  0.82330000  0.82310000  1.0 -0.1524063224
N  N21  1  0.82330000  0.00020000  0.74250000  1.0 -0.1524063224
N  N22  1  0.25770000  0.08080000  0.25750000  1.0 -0.1524063224
N  N23  1  0.74230000  0.99980000  0.82310000  1.0 -0.1524063224
N  N24  1  0.17670000  0.91920000  0.17690000  1.0 -0.1524063224
N  N25  1  0.00020000  0.82330000  0.74250000  1.0 -0.1524063224
N  N26  1  0.08080000  0.25770000  0.25750000  1.0 -0.1524063224
N  N27  1  0.99980000  0.74230000  0.82310000  1.0 -0.1524063224
N  N28  1  0.91920000  0.17670000  0.17690000  1.0 -0.1524063224
N  N29  1  0.17670000  0.99980000  0.25750000  1.0 -0.1524063224
N  N30  1  0.74230000  0.91920000  0.74250000  1.0 -0.1524063224
N  N31  1  0.25770000  0.00020000  0.17690000  1.0 -0.1524063224
N  N32  1  0.82330000  0.08080000  0.82310000  1.0 -0.1524063224
O  O1  1  0.98601000  0.08801000  0.47520000  1.0 -0.5137049999
O  O2  1  0.61281000  0.51081000  0.52480000  1.0 -0.5137049999
O  O3  1  0.01399000  0.48919000  0.10200000  1.0 -0.5137049999
O  O4  1  0.38719000  0.91199000  0.89800000  1.0 -0.5137049999
O  O5  1  0.91199000  0.01399000  0.52480000  1.0 -0.5137049999
O  O6  1  0.48919000  0.38719000  0.47520000  1.0 -0.5137049999
O  O7  1  0.51081000  0.98601000  0.89800000  1.0 -0.5137049999
O  O8  1  0.08801000  0.61281000  0.10200000  1.0 -0.5137049999
O  O9  1  0.01399000  0.91199000  0.52480000  1.0 -0.5137049999
O  O10  1  0.38719000  0.48919000  0.47520000  1.0 -0.5137049999
O  O11  1  0.98601000  0.51081000  0.89800000  1.0 -0.5137049999
O  O12  1  0.61281000  0.08801000  0.10200000  1.0 -0.5137049999
O  O13  1  0.08801000  0.98601000  0.47520000  1.0 -0.5137049999
O  O14  1  0.51081000  0.61281000  0.52480000  1.0 -0.5137049999
O  O15  1  0.48919000  0.01399000  0.10200000  1.0 -0.5137049999
O  O16  1  0.91199000  0.38719000  0.89800000  1.0 -0.5137049999
O  O17  1  0.88371000  0.98761000  0.36830000  1.0 -0.500189997
O  O18  1  0.61931000  0.51541000  0.63170000  1.0 -0.500189997
O  O19  1  0.11629000  0.48459000  0.10390000  1.0 -0.500189997
O  O20  1  0.38069000  0.01239000  0.89610000  1.0 -0.500189997
O  O21  1  0.01239000  0.11629000  0.63170000  1.0 -0.500189997
O  O22  1  0.48459000  0.38069000  0.36830000  1.0 -0.500189997
O  O23  1  0.51541000  0.88371000  0.89610000  1.0 -0.500189997
O  O24  1  0.98761000  0.61931000  0.10390000  1.0 -0.500189997
O  O25  1  0.11629000  0.01239000  0.63170000  1.0 -0.500189997
O  O26  1  0.38069000  0.48459000  0.36830000  1.0 -0.500189997
O  O27  1  0.88371000  0.51541000  0.89610000  1.0 -0.500189997
O  O28  1  0.61931000  0.98761000  0.10390000  1.0 -0.500189997
O  O29  1  0.98761000  0.88371000  0.36830000  1.0 -0.500189997
O  O30  1  0.51541000  0.61931000  0.63170000  1.0 -0.500189997
O  O31  1  0.48459000  0.11629000  0.10390000  1.0 -0.500189997
O  O32  1  0.01239000  0.38069000  0.89610000  1.0 -0.500189997
