# DDEC6 charges by PACMAN v1.1 (https://github.com/mtap-research/PACMAN-charge/)
data_BEJMAH_ASR_pacman
_symmetry_space_group_name_H-M   'P 1'
_cell_length_a   16.83760000
_cell_length_b   16.83760000
_cell_length_c   6.93630000
_cell_angle_alpha   90.00000000
_cell_angle_beta   90.00000000
_cell_angle_gamma   144.52800000
_symmetry_Int_Tables_number   1
_chemical_formula_structural   Zn2H3C21(NO2)4
_chemical_formula_sum   'Zn4 H6 C42 N8 O16'
_cell_volume   1141.15485654
_cell_formula_units_Z   2
loop_
 _symmetry_equiv_pos_site_id
 _symmetry_equiv_pos_as_xyz
  1  'x, y, z'
loop_
 _atom_site_type_symbol
 _atom_site_label
 _atom_site_symmetry_multiplicity
 _atom_site_fract_x
 _atom_site_fract_y
 _atom_site_fract_z
 _atom_site_occupancy
 _atom_site_charge
Zn  Zn1  1  0.40390000  0.59610000  0.25000000  1.0 0.6589310904
Zn  Zn2  1  0.59610000  0.40390000  0.75000000  1.0 0.6589310904
Zn  Zn3  1  0.50000000  0.50000000  0.00000000  1.0 0.6589310904
Zn  Zn4  1  0.50000000  0.50000000  0.50000000  1.0 0.6589310904
H  H1  1  0.99950000  0.38670000  0.25000000  1.0 0.1217494895
H  H2  1  0.00050000  0.61330000  0.75000000  1.0 0.1217494895
H  H3  1  0.61330000  0.00050000  0.25000000  1.0 0.1217494895
H  H4  1  0.38670000  0.99950000  0.75000000  1.0 0.1217494895
H  H5  1  0.91460000  0.08540000  0.25000000  1.0 0.0881548253
H  H6  1  0.08540000  0.91460000  0.75000000  1.0 0.0881548253
C  C1  1  0.61780000  0.24480000  0.39070000  1.0 -0.0787345069
C  C2  1  0.65990000  0.19970000  0.38620000  1.0 -0.0452927361
C  C3  1  0.38220000  0.75520000  0.89070000  1.0 -0.0787345069
C  C4  1  0.34010000  0.80030000  0.88620000  1.0 -0.0444116416
C  C5  1  0.75520000  0.38220000  0.10930000  1.0 -0.0787345069
C  C6  1  0.80030000  0.34010000  0.11380000  1.0 -0.0444116416
C  C7  1  0.24480000  0.61780000  0.60930000  1.0 -0.0787345069
C  C8  1  0.19970000  0.65990000  0.61380000  1.0 -0.0452927361
C  C9  1  0.38220000  0.75520000  0.60930000  1.0 -0.0787345069
C  C10  1  0.34010000  0.80030000  0.61380000  1.0 -0.0444116416
C  C11  1  0.61780000  0.24480000  0.10930000  1.0 -0.0787345069
C  C12  1  0.65990000  0.19970000  0.11380000  1.0 -0.0452927361
C  C13  1  0.24480000  0.61780000  0.89070000  1.0 -0.0787345069
C  C14  1  0.19970000  0.65990000  0.88620000  1.0 -0.0444116416
C  C15  1  0.75520000  0.38220000  0.39070000  1.0 -0.0787345069
C  C16  1  0.80030000  0.34010000  0.38620000  1.0 -0.0444116416
C  C17  1  0.10430000  0.32090000  0.25000000  1.0 0.2134417583
C  C18  1  0.93480000  0.29340000  0.25000000  1.0 -0.127201086
C  C19  1  0.97860000  0.24900000  0.25000000  1.0 -0.0739289998
C  C20  1  0.17040000  0.41560000  0.25000000  1.0 0.2265956391
C  C21  1  0.89570000  0.67910000  0.75000000  1.0 0.2134417583
C  C22  1  0.06520000  0.70660000  0.75000000  1.0 -0.127201086
C  C23  1  0.02140000  0.75100000  0.75000000  1.0 -0.0739289998
C  C24  1  0.82960000  0.58440000  0.75000000  1.0 0.2242214073
C  C25  1  0.67910000  0.89570000  0.25000000  1.0 0.2134417583
C  C26  1  0.70660000  0.06520000  0.25000000  1.0 -0.127201086
C  C27  1  0.75100000  0.02140000  0.25000000  1.0 -0.0739289998
C  C28  1  0.58440000  0.82960000  0.25000000  1.0 0.2265956391
C  C29  1  0.32090000  0.10430000  0.75000000  1.0 0.2134417583
C  C30  1  0.29340000  0.93480000  0.75000000  1.0 -0.127201086
C  C31  1  0.24900000  0.97860000  0.75000000  1.0 -0.0739289998
C  C32  1  0.41560000  0.17040000  0.75000000  1.0 0.2265956391
C  C33  1  0.66470000  0.33530000  0.25000000  1.0 0.0050474209
C  C34  1  0.61910000  0.38090000  0.25000000  1.0 0.251424088
C  C35  1  0.75180000  0.24820000  0.25000000  1.0 0.0297236507
C  C36  1  0.79870000  0.20130000  0.25000000  1.0 0.0881548253
C  C37  1  0.88560000  0.11440000  0.25000000  1.0 -0.1624304812
C  C38  1  0.33530000  0.66470000  0.75000000  1.0 0.0050474209
C  C39  1  0.38090000  0.61910000  0.75000000  1.0 0.251424088
C  C40  1  0.24820000  0.75180000  0.75000000  1.0 0.0297236507
C  C41  1  0.20130000  0.79870000  0.75000000  1.0 0.0881548253
C  C42  1  0.11440000  0.88560000  0.75000000  1.0 -0.1624304812
N  N1  1  0.55613000  0.44387000  0.15740000  1.0 -0.127201086
N  N2  1  0.59535000  0.40465000  0.09170000  1.0 -0.2827275332
N  N3  1  0.44387000  0.55613000  0.65740000  1.0 -0.127201086
N  N4  1  0.40465000  0.59535000  0.59170000  1.0 -0.2827275332
N  N5  1  0.55613000  0.44387000  0.34260000  1.0 -0.127201086
N  N6  1  0.59535000  0.40465000  0.40830000  1.0 -0.2827275332
N  N7  1  0.44387000  0.55613000  0.84260000  1.0 -0.127201086
N  N8  1  0.40465000  0.59535000  0.90830000  1.0 -0.2827275332
O  O1  1  0.51960000  0.58940000  0.25000000  1.0 -0.2062958638
O  O2  1  0.12740000  0.26480000  0.25000000  1.0 -0.1498248066
O  O3  1  0.21700000  0.48420000  0.25000000  1.0 -0.1411084394
O  O4  1  0.20700000  0.36400000  0.25000000  1.0 -0.0105624675
O  O5  1  0.48040000  0.41060000  0.75000000  1.0 -0.2062958638
O  O6  1  0.87260000  0.73520000  0.75000000  1.0 -0.1498248066
O  O7  1  0.78300000  0.51580000  0.75000000  1.0 -0.1498248066
O  O8  1  0.79300000  0.63600000  0.75000000  1.0 -0.0105624675
O  O9  1  0.41060000  0.48040000  0.25000000  1.0 -0.2062958638
O  O10  1  0.73520000  0.87260000  0.25000000  1.0 -0.1498248066
O  O11  1  0.51580000  0.78300000  0.25000000  1.0 -0.1498248066
O  O12  1  0.63600000  0.79300000  0.25000000  1.0 -0.0105624675
O  O13  1  0.58940000  0.51960000  0.75000000  1.0 -0.2062958638
O  O14  1  0.26480000  0.12740000  0.75000000  1.0 -0.1498248066
O  O15  1  0.48420000  0.21700000  0.75000000  1.0 -0.1411084394
O  O16  1  0.36400000  0.20700000  0.75000000  1.0 -0.0105624675
