# DDEC6 charges by PACMAN v1.1 (https://github.com/mtap-research/PACMAN-charge/)
data_BELVEV_ASR_pacman
_symmetry_space_group_name_H-M   'P 1'
_cell_length_a   14.77190000
_cell_length_b   14.77190000
_cell_length_c   24.81210000
_cell_angle_alpha   65.93400000
_cell_angle_beta   114.06600000
_cell_angle_gamma   117.29600000
_symmetry_Int_Tables_number   1
_chemical_formula_structural   Mn3P2H30(C11O4)4
_chemical_formula_sum   'Mn6 P4 H60 C88 O32'
_cell_volume   4227.37126855
_cell_formula_units_Z   2
loop_
 _symmetry_equiv_pos_site_id
 _symmetry_equiv_pos_as_xyz
  1  'x, y, z'
loop_
 _atom_site_type_symbol
 _atom_site_label
 _atom_site_symmetry_multiplicity
 _atom_site_fract_x
 _atom_site_fract_y
 _atom_site_fract_z
 _atom_site_occupancy
 _atom_site_charge
Mn  Mn1  1  0.07381000  0.34555000  0.22357000  1.0 1.1015144576
Mn  Mn2  1  0.34555000  0.07381000  0.27643000  1.0 1.1015144576
Mn  Mn3  1  0.92619000  0.65445000  0.77643000  1.0 1.1015144576
Mn  Mn4  1  0.65445000  0.92619000  0.72357000  1.0 1.1015144576
Mn  Mn5  1  0.33016000  0.33016000  0.25000000  1.0 1.0325503338
Mn  Mn6  1  0.66984000  0.66984000  0.75000000  1.0 1.0325503338
P  P1  1  0.08335000  0.48563000  0.84487000  1.0 0.8681408454
P  P2  1  0.48563000  0.08335000  0.65513000  1.0 0.8681408454
P  P3  1  0.91665000  0.51437000  0.15513000  1.0 0.8681408454
P  P4  1  0.51437000  0.91665000  0.34487000  1.0 0.8681408454
H  H1  1  0.26800000  0.47020000  0.95010000  1.0 0.1102111602
H  H2  1  0.47020000  0.26800000  0.54990000  1.0 0.1102111602
H  H3  1  0.73200000  0.52980000  0.04990000  1.0 0.1102111602
H  H4  1  0.52980000  0.73200000  0.45010000  1.0 0.1102111602
H  H5  1  0.29960000  0.43620000  0.05510000  1.0 0.1279083902
H  H6  1  0.43620000  0.29960000  0.44490000  1.0 0.1279083902
H  H7  1  0.70040000  0.56380000  0.94490000  1.0 0.1279083902
H  H8  1  0.56380000  0.70040000  0.55510000  1.0 0.1279083902
H  H9  1  0.99840000  0.39760000  0.02980000  1.0 0.1279083902
H  H10  1  0.39760000  0.99840000  0.47020000  1.0 0.1279083902
H  H11  1  0.00160000  0.60240000  0.97020000  1.0 0.1279083902
H  H12  1  0.60240000  0.00160000  0.52980000  1.0 0.1279083902
H  H13  1  0.96840000  0.43920000  0.92440000  1.0 0.1279083902
H  H14  1  0.43920000  0.96840000  0.57560000  1.0 0.1279083902
H  H15  1  0.03160000  0.56080000  0.07560000  1.0 0.1279083902
H  H16  1  0.56080000  0.03160000  0.42440000  1.0 0.1279083902
H  H17  1  0.98240000  0.26760000  0.90760000  1.0 0.1102111602
H  H18  1  0.26760000  0.98240000  0.59240000  1.0 0.1102111602
H  H19  1  0.01760000  0.73240000  0.09240000  1.0 0.1102111602
H  H20  1  0.73240000  0.01760000  0.40760000  1.0 0.1102111602
H  H21  1  0.87070000  0.11450000  0.87460000  1.0 0.1279083902
H  H22  1  0.11450000  0.87070000  0.62540000  1.0 0.1279083902
H  H23  1  0.12930000  0.88550000  0.12540000  1.0 0.1279083902
H  H24  1  0.88550000  0.12930000  0.37460000  1.0 0.1279083902
H  H25  1  0.92280000  0.26820000  0.70780000  1.0 0.1279083902
H  H26  1  0.26820000  0.92280000  0.79220000  1.0 0.1279083902
H  H27  1  0.07720000  0.73180000  0.29220000  1.0 0.1279083902
H  H28  1  0.73180000  0.07720000  0.20780000  1.0 0.1279083902
H  H29  1  0.02960000  0.42220000  0.73930000  1.0 0.1199368004
H  H30  1  0.42220000  0.02960000  0.76070000  1.0 0.1199368004
H  H31  1  0.97040000  0.57780000  0.26070000  1.0 0.1199368004
H  H32  1  0.57780000  0.97040000  0.23930000  1.0 0.1199368004
H  H33  1  0.23060000  0.40940000  0.84130000  1.0 0.1102111602
H  H34  1  0.40940000  0.23060000  0.65870000  1.0 0.1102111602
H  H35  1  0.76940000  0.59060000  0.15870000  1.0 0.1102111602
H  H36  1  0.59060000  0.76940000  0.34130000  1.0 0.1102111602
H  H37  1  0.39010000  0.49310000  0.81490000  1.0 0.1279083902
H  H38  1  0.49310000  0.39010000  0.68510000  1.0 0.1279083902
H  H39  1  0.60990000  0.50690000  0.18510000  1.0 0.1279083902
H  H40  1  0.50690000  0.60990000  0.31490000  1.0 0.1279083902
H  H41  1  0.37460000  0.77880000  0.77950000  1.0 0.1199368004
H  H42  1  0.77880000  0.37460000  0.72050000  1.0 0.1199368004
H  H43  1  0.62540000  0.22120000  0.22050000  1.0 0.1199368004
H  H44  1  0.22120000  0.62540000  0.27950000  1.0 0.1199368004
H  H45  1  0.21490000  0.69610000  0.80560000  1.0 0.1199368004
H  H46  1  0.69610000  0.21490000  0.69440000  1.0 0.1199368004
H  H47  1  0.78510000  0.30390000  0.19440000  1.0 0.1199368004
H  H48  1  0.30390000  0.78510000  0.30560000  1.0 0.1199368004
H  H49  1  0.07030000  0.00750000  0.24080000  1.0 0.0512254329
H  H50  1  0.00750000  0.07030000  0.25920000  1.0 0.0512254329
H  H51  1  0.92970000  0.99250000  0.75920000  1.0 0.0512254329
H  H52  1  0.99250000  0.92970000  0.74080000  1.0 0.0512254329
H  H53  1  0.99950000  0.07830000  0.21880000  1.0 0.0689517714
H  H54  1  0.07830000  0.99950000  0.28120000  1.0 0.0689517714
H  H55  1  0.00050000  0.92170000  0.78120000  1.0 0.0689517714
H  H56  1  0.92170000  0.00050000  0.71880000  1.0 0.0689517714
H  H57  1  0.04690000  0.03090000  0.29040000  1.0 0.0689517714
H  H58  1  0.03090000  0.04690000  0.20960000  1.0 0.0689517714
H  H59  1  0.95310000  0.96910000  0.70960000  1.0 0.0689517714
H  H60  1  0.96910000  0.95310000  0.79040000  1.0 0.0689517714
C  C1  1  0.11433000  0.45669000  0.92705000  1.0 -0.1524133526
C  C2  1  0.45669000  0.11433000  0.57295000  1.0 -0.1524133526
C  C3  1  0.88567000  0.54331000  0.07295000  1.0 -0.1524133526
C  C4  1  0.54331000  0.88567000  0.42705000  1.0 -0.1524133526
C  C5  1  0.21312000  0.45628000  0.96617000  1.0 -0.0900005556
C  C6  1  0.45628000  0.21312000  0.53383000  1.0 -0.0900005556
C  C7  1  0.78688000  0.54372000  0.03383000  1.0 -0.0900005556
C  C8  1  0.54372000  0.78688000  0.46617000  1.0 -0.0900005556
C  C9  1  0.23149000  0.43551000  0.02852000  1.0 -0.0986041058
C  C10  1  0.43551000  0.23149000  0.47148000  1.0 -0.0986041058
C  C11  1  0.76851000  0.56449000  0.97148000  1.0 -0.0986041058
C  C12  1  0.56449000  0.76851000  0.52852000  1.0 -0.0986041058
C  C13  1  0.15235000  0.41373000  0.05284000  1.0 0.0100132439
C  C14  1  0.41373000  0.15235000  0.44716000  1.0 0.0100132439
C  C15  1  0.84765000  0.58627000  0.94716000  1.0 0.0100132439
C  C16  1  0.58627000  0.84765000  0.55284000  1.0 0.0100132439
C  C17  1  0.17278000  0.39182000  0.12115000  1.0 0.5841126133
C  C18  1  0.39182000  0.17278000  0.37885000  1.0 0.5841126133
C  C19  1  0.82722000  0.60818000  0.87885000  1.0 0.5841126133
C  C20  1  0.60818000  0.82722000  0.62115000  1.0 0.5841126133
C  C21  1  0.05390000  0.41368000  0.01364000  1.0 -0.0986041058
C  C22  1  0.41368000  0.05390000  0.48636000  1.0 -0.0986041058
C  C23  1  0.94610000  0.58632000  0.98636000  1.0 -0.0986041058
C  C24  1  0.58632000  0.94610000  0.51364000  1.0 -0.0986041058
C  C25  1  0.03563000  0.43689000  0.95107000  1.0 -0.0808690971
C  C26  1  0.43689000  0.03563000  0.54893000  1.0 -0.0808690971
C  C27  1  0.96437000  0.56311000  0.04893000  1.0 -0.0808690971
C  C28  1  0.56311000  0.96437000  0.45107000  1.0 -0.0808690971
C  C29  1  0.01428000  0.36106000  0.82607000  1.0 -0.1609090615
C  C30  1  0.36106000  0.01428000  0.67393000  1.0 -0.1609090615
C  C31  1  0.98572000  0.63894000  0.17393000  1.0 -0.1609090615
C  C32  1  0.63894000  0.98572000  0.32607000  1.0 -0.1609090615
C  C33  1  0.96882000  0.26884000  0.86650000  1.0 -0.0986041058
C  C34  1  0.26884000  0.96882000  0.63350000  1.0 -0.0986041058
C  C35  1  0.03118000  0.73116000  0.13350000  1.0 -0.0986041058
C  C36  1  0.73116000  0.03118000  0.36650000  1.0 -0.0986041058
C  C37  1  0.90286000  0.17740000  0.84689000  1.0 -0.0808690971
C  C38  1  0.17740000  0.90286000  0.65311000  1.0 -0.0808690971
C  C39  1  0.09714000  0.82260000  0.15311000  1.0 -0.0808690971
C  C40  1  0.82260000  0.09714000  0.34689000  1.0 -0.0808690971
C  C41  1  0.88399000  0.17767000  0.78780000  1.0 -0.005678125
C  C42  1  0.17767000  0.88399000  0.71220000  1.0 -0.005678125
C  C43  1  0.11601000  0.82233000  0.21220000  1.0 -0.005678125
C  C44  1  0.82233000  0.11601000  0.28780000  1.0 -0.005678125
C  C45  1  0.80574000  0.08174000  0.76558000  1.0 0.5380171526
C  C46  1  0.08174000  0.80574000  0.73442000  1.0 0.5380171526
C  C47  1  0.19426000  0.91826000  0.23442000  1.0 0.5380171526
C  C48  1  0.91826000  0.19426000  0.26558000  1.0 0.5380171526
C  C49  1  0.93301000  0.26837000  0.74811000  1.0 -0.0900005556
C  C50  1  0.26837000  0.93301000  0.75189000  1.0 -0.0900005556
C  C51  1  0.06699000  0.73163000  0.25189000  1.0 -0.0900005556
C  C52  1  0.73163000  0.06699000  0.24811000  1.0 -0.0900005556
C  C53  1  0.99708000  0.35976000  0.76705000  1.0 -0.0986041058
C  C54  1  0.35976000  0.99708000  0.73295000  1.0 -0.0986041058
C  C55  1  0.00292000  0.64024000  0.23295000  1.0 -0.0986041058
C  C56  1  0.64024000  0.00292000  0.26705000  1.0 -0.0986041058
C  C57  1  0.20624000  0.54484000  0.82505000  1.0 -0.1524133526
C  C58  1  0.54484000  0.20624000  0.67495000  1.0 -0.1524133526
C  C59  1  0.79376000  0.45516000  0.17495000  1.0 -0.1524133526
C  C60  1  0.45516000  0.79376000  0.32505000  1.0 -0.1524133526
C  C61  1  0.25935000  0.48457000  0.82828000  1.0 -0.0986041058
C  C62  1  0.48457000  0.25935000  0.67172000  1.0 -0.0986041058
C  C63  1  0.74065000  0.51543000  0.17172000  1.0 -0.0986041058
C  C64  1  0.51543000  0.74065000  0.32828000  1.0 -0.0986041058
C  C65  1  0.35401000  0.53431000  0.81256000  1.0 -0.0900005556
C  C66  1  0.53431000  0.35401000  0.68744000  1.0 -0.0900005556
C  C67  1  0.64599000  0.46569000  0.18744000  1.0 -0.0900005556
C  C68  1  0.46569000  0.64599000  0.31256000  1.0 -0.0900005556
C  C69  1  0.39634000  0.64362000  0.79339000  1.0 -0.0008964902
C  C70  1  0.64362000  0.39634000  0.70661000  1.0 -0.0008964902
C  C71  1  0.60366000  0.35638000  0.20661000  1.0 -0.0008964902
C  C72  1  0.35638000  0.60366000  0.29339000  1.0 -0.0008964902
C  C73  1  0.49796000  0.69672000  0.77446000  1.0 0.5841126133
C  C74  1  0.69672000  0.49796000  0.72554000  1.0 0.5841126133
C  C75  1  0.50204000  0.30328000  0.22554000  1.0 0.5841126133
C  C76  1  0.30328000  0.50204000  0.27446000  1.0 0.5841126133
C  C77  1  0.34474000  0.70368000  0.79152000  1.0 -0.0900005556
C  C78  1  0.70368000  0.34474000  0.70848000  1.0 -0.0900005556
C  C79  1  0.65526000  0.29632000  0.20848000  1.0 -0.0900005556
C  C80  1  0.29632000  0.65526000  0.29152000  1.0 -0.0900005556
C  C81  1  0.25005000  0.65459000  0.80712000  1.0 -0.0808690971
C  C82  1  0.65459000  0.25005000  0.69288000  1.0 -0.0808690971
C  C83  1  0.74995000  0.34541000  0.19288000  1.0 -0.0808690971
C  C84  1  0.34541000  0.74995000  0.30712000  1.0 -0.0808690971
C  C85  1  0.15810000  0.15810000  0.25000000  1.0 0.651165216
C  C86  1  0.84190000  0.84190000  0.75000000  1.0 0.651165216
C  C87  1  0.06010000  0.06010000  0.25000000  1.0 -0.3474072378
C  C88  1  0.93990000  0.93990000  0.75000000  1.0 -0.3474072378
O  O1  1  0.26144000  0.38838000  0.15401000  1.0 -0.525363804
O  O2  1  0.38838000  0.26144000  0.34599000  1.0 -0.525363804
O  O3  1  0.73856000  0.61162000  0.84599000  1.0 -0.525363804
O  O4  1  0.61162000  0.73856000  0.65401000  1.0 -0.525363804
O  O5  1  0.09772000  0.38046000  0.13831000  1.0 -0.5650619875
O  O6  1  0.38046000  0.09772000  0.36169000  1.0 -0.5609121334
O  O7  1  0.90228000  0.61954000  0.86169000  1.0 -0.5609121334
O  O8  1  0.61954000  0.90228000  0.63831000  1.0 -0.5609121334
O  O9  1  0.75193000  0.00515000  0.80029000  1.0 -0.5236756291
O  O10  1  0.00515000  0.75193000  0.69971000  1.0 -0.5236756291
O  O11  1  0.24807000  0.99485000  0.19971000  1.0 -0.5236756291
O  O12  1  0.99485000  0.24807000  0.30029000  1.0 -0.5236756291
O  O13  1  0.79256000  0.08230000  0.71198000  1.0 -0.5526818843
O  O14  1  0.08230000  0.79256000  0.78802000  1.0 -0.5526818843
O  O15  1  0.20744000  0.91770000  0.28802000  1.0 -0.5609121334
O  O16  1  0.91770000  0.20744000  0.21198000  1.0 -0.5609121334
O  O17  1  0.53204000  0.63706000  0.77035000  1.0 -0.5236756291
O  O18  1  0.63706000  0.53204000  0.72965000  1.0 -0.5236756291
O  O19  1  0.46796000  0.36294000  0.22965000  1.0 -0.5236756291
O  O20  1  0.36294000  0.46796000  0.27035000  1.0 -0.5236756291
O  O21  1  0.53904000  0.79566000  0.76410000  1.0 -0.5526818843
O  O22  1  0.79566000  0.53904000  0.73590000  1.0 -0.5526818843
O  O23  1  0.46096000  0.20434000  0.23590000  1.0 -0.5526818843
O  O24  1  0.20434000  0.46096000  0.26410000  1.0 -0.5526818843
O  O25  1  0.01858000  0.55540000  0.81263000  1.0 -0.5961630355
O  O26  1  0.55540000  0.01858000  0.68737000  1.0 -0.5961630355
O  O27  1  0.98142000  0.44460000  0.18737000  1.0 -0.5961630355
O  O28  1  0.44460000  0.98142000  0.31263000  1.0 -0.5961630355
O  O29  1  0.16147000  0.23567000  0.26089000  1.0 -0.5928412687
O  O30  1  0.23567000  0.16147000  0.23911000  1.0 -0.5928412687
O  O31  1  0.83853000  0.76433000  0.73911000  1.0 -0.5928412687
O  O32  1  0.76433000  0.83853000  0.76089000  1.0 -0.5928412687
