# DDEC6 charges by PACMAN v1.1 (https://github.com/mtap-research/PACMAN-charge/)
data_BEPDIM_ASR_pacman
_symmetry_space_group_name_H-M   'P 1'
_cell_length_a   23.78990000
_cell_length_b   23.78990000
_cell_length_c   13.11590000
_cell_angle_alpha   90.00000000
_cell_angle_beta   90.00000000
_cell_angle_gamma   120.00000000
_symmetry_Int_Tables_number   1
_chemical_formula_structural   Li5Zn3H18C38(NO6)4
_chemical_formula_sum   'Li15 Zn9 H54 C114 N12 O72'
_cell_volume   6428.56384590
_cell_formula_units_Z   3
loop_
 _symmetry_equiv_pos_site_id
 _symmetry_equiv_pos_as_xyz
  1  'x, y, z'
loop_
 _atom_site_type_symbol
 _atom_site_label
 _atom_site_symmetry_multiplicity
 _atom_site_fract_x
 _atom_site_fract_y
 _atom_site_fract_z
 _atom_site_occupancy
 _atom_site_charge
Li  Li1  1  0.22780000  0.50620000  0.14966000  1.0 0.8982261843
Li  Li2  1  0.85800000  0.08470000  0.02286000  1.0 0.8170339491
Li  Li3  1  0.27840000  0.77220000  0.48300000  1.0 0.8982261843
Li  Li4  1  0.22670000  0.14200000  0.35620000  1.0 0.8170339491
Li  Li5  1  0.49380000  0.72160000  0.81633000  1.0 0.8982261843
Li  Li6  1  0.91530000  0.77330000  0.68953000  1.0 0.8170339491
Li  Li7  1  0.72160000  0.49380000  0.18367000  1.0 0.8982261843
Li  Li8  1  0.77330000  0.91530000  0.31047000  1.0 0.8170339491
Li  Li9  1  0.50620000  0.22780000  0.85033000  1.0 0.8982261843
Li  Li10  1  0.08470000  0.85800000  0.97713000  1.0 0.8170339491
Li  Li11  1  0.77220000  0.27840000  0.51700000  1.0 0.8982261843
Li  Li12  1  0.14200000  0.22670000  0.64380000  1.0 0.8170339491
Li  Li13  1  0.88260000  0.00000000  0.16667000  1.0 0.8170339491
Li  Li14  1  0.11740000  0.11740000  0.50000000  1.0 0.8170339491
Li  Li15  1  0.00000000  0.88260000  0.83333000  1.0 0.8170339491
Zn  Zn1  1  0.10450000  0.43983000  0.00096000  1.0 0.8607917255
Zn  Zn2  1  0.33533000  0.89550000  0.33429000  1.0 0.8607917255
Zn  Zn3  1  0.56017000  0.66467000  0.66762000  1.0 0.8607917255
Zn  Zn4  1  0.66467000  0.56017000  0.33238000  1.0 0.8607917255
Zn  Zn5  1  0.43983000  0.10450000  0.99904000  1.0 0.8607917255
Zn  Zn6  1  0.89550000  0.33533000  0.66571000  1.0 0.8607917255
Zn  Zn7  1  0.28490000  0.28490000  0.50000000  1.0 0.9181934422
Zn  Zn8  1  0.00000000  0.71510000  0.83333000  1.0 0.9181934422
Zn  Zn9  1  0.71510000  0.00000000  0.16667000  1.0 0.9181934422
H  H1  1  0.18090000  0.33340000  0.28876000  1.0 0.1288262545
H  H2  1  0.06600000  0.14050000  0.27916000  1.0 0.1218521534
H  H3  1  0.01770000  0.25440000  0.12366000  1.0 0.1218521534
H  H4  1  0.38450000  0.47130000  0.65556000  1.0 0.1288262545
H  H5  1  0.34950000  0.56150000  0.88606000  1.0 0.1218521534
H  H6  1  0.21080000  0.38720000  0.79107000  1.0 0.1218521534
H  H7  1  0.97120000  0.46970000  0.78116000  1.0 0.0605463913
H  H8  1  0.04310000  0.50570000  0.82027000  1.0 0.0671728627
H  H9  1  0.98570000  0.47700000  0.89856000  1.0 0.0605463913
H  H10  1  0.15250000  0.81910000  0.62210000  1.0 0.1288262545
H  H11  1  0.07450000  0.93400000  0.61250000  1.0 0.1218521534
H  H12  1  0.23670000  0.98230000  0.45700000  1.0 0.1218521534
H  H13  1  0.08680000  0.61550000  0.98890000  1.0 0.1288262545
H  H14  1  0.21200000  0.65050000  0.21940000  1.0 0.1218521534
H  H15  1  0.17640000  0.78920000  0.12440000  1.0 0.1218521534
H  H16  1  0.49850000  0.02880000  0.11450000  1.0 0.0547134256
H  H17  1  0.46260000  0.95690000  0.15360000  1.0 0.0671728627
H  H18  1  0.49130000  0.01430000  0.23190000  1.0 0.0605463913
H  H19  1  0.66666667  0.84750000  0.95543000  1.0 0.1288262545
H  H20  1  0.85950000  0.92550000  0.94583000  1.0 0.1218521534
H  H21  1  0.74560000  0.76330000  0.79033000  1.0 0.1218521534
H  H22  1  0.52870000  0.91320000  0.32223000  1.0 0.1288262545
H  H23  1  0.43850000  0.78800000  0.55273000  1.0 0.1218521534
H  H24  1  0.61280000  0.82360000  0.45773000  1.0 0.1218521534
H  H25  1  0.53030000  0.50150000  0.44783000  1.0 0.0605463913
H  H26  1  0.49430000  0.53740000  0.48693000  1.0 0.0671728627
H  H27  1  0.52300000  0.50870000  0.56523000  1.0 0.0605463913
H  H28  1  0.84750000  0.66666667  0.04457000  1.0 0.1288262545
H  H29  1  0.92550000  0.85950000  0.05417000  1.0 0.1218521534
H  H30  1  0.76330000  0.74560000  0.20967000  1.0 0.1218521534
H  H31  1  0.91320000  0.52870000  0.67777000  1.0 0.1288262545
H  H32  1  0.78800000  0.43850000  0.44727000  1.0 0.1218521534
H  H33  1  0.82360000  0.61280000  0.54227000  1.0 0.1218521534
H  H34  1  0.50150000  0.53030000  0.55217000  1.0 0.0605463913
H  H35  1  0.53740000  0.49430000  0.51307000  1.0 0.0671728627
H  H36  1  0.50870000  0.52300000  0.43477000  1.0 0.0605463913
H  H37  1  0.33340000  0.18090000  0.71123000  1.0 0.1288262545
H  H38  1  0.14050000  0.06600000  0.72084000  1.0 0.1218521534
H  H39  1  0.25440000  0.01770000  0.87633000  1.0 0.1218521534
H  H40  1  0.47130000  0.38450000  0.34443000  1.0 0.1288262545
H  H41  1  0.56150000  0.34950000  0.11393000  1.0 0.1218521534
H  H42  1  0.38720000  0.21080000  0.20894000  1.0 0.1218521534
H  H43  1  0.46970000  0.97120000  0.21884000  1.0 0.0547134256
H  H44  1  0.50570000  0.04310000  0.17974000  1.0 0.0671728627
H  H45  1  0.47700000  0.98570000  0.10143000  1.0 0.0605463913
H  H46  1  0.81910000  0.15250000  0.37790000  1.0 0.1288262545
H  H47  1  0.93400000  0.07450000  0.38750000  1.0 0.1218521534
H  H48  1  0.98230000  0.23670000  0.54300000  1.0 0.1218521534
H  H49  1  0.61550000  0.08680000  0.01110000  1.0 0.1288262545
H  H50  1  0.65050000  0.21200000  0.78060000  1.0 0.1218521534
H  H51  1  0.78920000  0.17640000  0.87560000  1.0 0.1218521534
H  H52  1  0.02880000  0.49850000  0.88550000  1.0 0.0605463913
H  H53  1  0.95690000  0.46260000  0.84640000  1.0 0.0671728627
H  H54  1  0.01430000  0.49130000  0.76810000  1.0 0.0605463913
C  C1  1  0.17520000  0.22870000  0.36776000  1.0 0.6188286072
C  C2  1  0.97140000  0.12900000  0.15666000  1.0 0.5878727263
C  C3  1  0.14370000  0.29680000  0.26526000  1.0 -0.0899914676
C  C4  1  0.07480000  0.18170000  0.25956000  1.0 -0.1003944711
C  C5  1  0.27030000  0.36180000  0.64306000  1.0 0.5957569903
C  C6  1  0.12990000  0.23600000  0.29617000  1.0 -0.0355663494
C  C7  1  0.12060000  0.36990000  0.15957000  1.0 0.5878727263
C  C8  1  0.04640000  0.24950000  0.16576000  1.0 -0.1003944711
C  C9  1  0.29350000  0.41980000  0.71276000  1.0 -0.0238393825
C  C10  1  0.10170000  0.30350000  0.19856000  1.0 -0.0279795266
C  C11  1  0.03250000  0.18830000  0.19376000  1.0 -0.0238393825
C  C12  1  0.35610000  0.47220000  0.70337000  1.0 -0.0783286888
C  C13  1  0.33540000  0.52610000  0.84266000  1.0 -0.1003944711
C  C14  1  0.37620000  0.52630000  0.76567000  1.0 -0.0117048469
C  C15  1  0.22970000  0.47490000  0.93486000  1.0 0.5825482285
C  C16  1  0.25320000  0.42140000  0.78607000  1.0 -0.1003944711
C  C17  1  0.27510000  0.47390000  0.85347000  1.0 -0.0238393825
C  C18  1  0.44230000  0.58610000  0.75677000  1.0 0.5825482285
C  C19  1  0.05350000  0.82480000  0.70110000  1.0 0.6188286072
C  C20  1  0.15760000  0.02860000  0.49000000  1.0 0.5878727263
C  C21  1  0.15310000  0.85630000  0.59860000  1.0 -0.0899914676
C  C22  1  0.10690000  0.92520000  0.59290000  1.0 -0.1003944711
C  C23  1  0.09150000  0.72970000  0.97640000  1.0 0.5957569903
C  C24  1  0.10610000  0.87010000  0.62950000  1.0 -0.0355663494
C  C25  1  0.24930000  0.87940000  0.49290000  1.0 0.5878727263
C  C26  1  0.20310000  0.95360000  0.49910000  1.0 -0.1003944711
C  C27  1  0.12630000  0.70650000  0.04610000  1.0 -0.0238393825
C  C28  1  0.20180000  0.89830000  0.53190000  1.0 -0.0279795266
C  C29  1  0.15580000  0.96750000  0.52710000  1.0 -0.0238393825
C  C30  1  0.11610000  0.64390000  0.03670000  1.0 -0.0783286888
C  C31  1  0.19070000  0.66460000  0.17600000  1.0 -0.1003944711
C  C32  1  0.15010000  0.62380000  0.09900000  1.0 -0.0117048469
C  C33  1  0.24520000  0.77030000  0.26820000  1.0 0.5825482285
C  C34  1  0.16820000  0.74680000  0.11940000  1.0 -0.1003944711
C  C35  1  0.19880000  0.72490000  0.18680000  1.0 -0.0238393825
C  C36  1  0.14380000  0.55770000  0.09010000  1.0 0.5825482285
C  C37  1  0.77130000  0.94650000  0.03443000  1.0 0.6188286072
C  C38  1  0.87100000  0.84240000  0.82333000  1.0 0.5878727263
C  C39  1  0.70320000  0.84690000  0.93193000  1.0 -0.0899914676
C  C40  1  0.81830000  0.89310000  0.92623000  1.0 -0.1003944711
C  C41  1  0.63820000  0.90850000  0.30973000  1.0 0.5957569903
C  C42  1  0.76400000  0.89390000  0.96283000  1.0 -0.0355663494
C  C43  1  0.63010000  0.75070000  0.82623000  1.0 0.5878727263
C  C44  1  0.75050000  0.79690000  0.83243000  1.0 -0.1003944711
C  C45  1  0.58020000  0.87370000  0.37943000  1.0 -0.0238393825
C  C46  1  0.69650000  0.79820000  0.86523000  1.0 -0.0279795266
C  C47  1  0.81170000  0.84420000  0.86043000  1.0 -0.0238393825
C  C48  1  0.52780000  0.88390000  0.37003000  1.0 -0.0783286888
C  C49  1  0.47390000  0.80930000  0.50933000  1.0 -0.1003944711
C  C50  1  0.47370000  0.84990000  0.43233000  1.0 -0.0117048469
C  C51  1  0.52510000  0.75480000  0.60153000  1.0 0.5825482285
C  C52  1  0.57860000  0.83180000  0.45273000  1.0 -0.1003944711
C  C53  1  0.52610000  0.80120000  0.52013000  1.0 -0.0238393825
C  C54  1  0.41390000  0.85620000  0.42343000  1.0 0.5825482285
C  C55  1  0.94650000  0.77130000  0.96557000  1.0 0.6188286072
C  C56  1  0.84240000  0.87100000  0.17667000  1.0 0.5878727263
C  C57  1  0.84690000  0.70320000  0.06807000  1.0 -0.0899914676
C  C58  1  0.89310000  0.81830000  0.07377000  1.0 -0.1003944711
C  C59  1  0.90850000  0.63820000  0.69027000  1.0 0.5957569903
C  C60  1  0.89390000  0.76400000  0.03717000  1.0 -0.0355663494
C  C61  1  0.75070000  0.63010000  0.17377000  1.0 0.5878727263
C  C62  1  0.79690000  0.75050000  0.16757000  1.0 -0.1003944711
C  C63  1  0.87370000  0.58020000  0.62057000  1.0 -0.0238393825
C  C64  1  0.79820000  0.69650000  0.13477000  1.0 -0.0279795266
C  C65  1  0.84420000  0.81170000  0.13957000  1.0 -0.0238393825
C  C66  1  0.88390000  0.52780000  0.62997000  1.0 -0.0783286888
C  C67  1  0.80930000  0.47390000  0.49067000  1.0 -0.1003944711
C  C68  1  0.84990000  0.47370000  0.56767000  1.0 -0.0117048469
C  C69  1  0.75480000  0.52510000  0.39847000  1.0 0.5825482285
C  C70  1  0.83180000  0.57860000  0.54727000  1.0 -0.1003944711
C  C71  1  0.80120000  0.52610000  0.47987000  1.0 -0.0238393825
C  C72  1  0.85620000  0.41390000  0.57657000  1.0 0.5825482285
C  C73  1  0.22870000  0.17520000  0.63223000  1.0 0.6188286072
C  C74  1  0.12900000  0.97140000  0.84333000  1.0 0.5878727263
C  C75  1  0.29680000  0.14370000  0.73474000  1.0 -0.0899914676
C  C76  1  0.18170000  0.07480000  0.74043000  1.0 -0.1003944711
C  C77  1  0.36180000  0.27030000  0.35694000  1.0 0.5957569903
C  C78  1  0.23600000  0.12990000  0.70383000  1.0 -0.0355663494
C  C79  1  0.36990000  0.12060000  0.84044000  1.0 0.5878727263
C  C80  1  0.24950000  0.04640000  0.83423000  1.0 -0.1003944711
C  C81  1  0.41980000  0.29350000  0.28724000  1.0 -0.0238393825
C  C82  1  0.30350000  0.10170000  0.80144000  1.0 -0.0279795266
C  C83  1  0.18830000  0.03250000  0.80624000  1.0 -0.0238393825
C  C84  1  0.47220000  0.35610000  0.29663000  1.0 -0.0783286888
C  C85  1  0.52610000  0.33540000  0.15733000  1.0 -0.1003944711
C  C86  1  0.52630000  0.37620000  0.23433000  1.0 -0.0117048469
C  C87  1  0.47490000  0.22970000  0.06513000  1.0 0.5825482285
C  C88  1  0.42140000  0.25320000  0.21393000  1.0 -0.1003944711
C  C89  1  0.47390000  0.27510000  0.14653000  1.0 -0.0238393825
C  C90  1  0.58610000  0.44230000  0.24324000  1.0 0.5825482285
C  C91  1  0.82480000  0.05350000  0.29890000  1.0 0.6188286072
C  C92  1  0.02860000  0.15760000  0.51000000  1.0 0.5878727263
C  C93  1  0.85630000  0.15310000  0.40140000  1.0 -0.0899914676
C  C94  1  0.92520000  0.10690000  0.40710000  1.0 -0.1003944711
C  C95  1  0.72970000  0.09150000  0.02360000  1.0 0.5957569903
C  C96  1  0.87010000  0.10610000  0.37050000  1.0 -0.0355663494
C  C97  1  0.87940000  0.24930000  0.50710000  1.0 0.5878727263
C  C98  1  0.95360000  0.20310000  0.50090000  1.0 -0.1003944711
C  C99  1  0.70650000  0.12630000  0.95390000  1.0 -0.0238393825
C  C100  1  0.89830000  0.20180000  0.46810000  1.0 -0.0279795266
C  C101  1  0.96750000  0.15580000  0.47290000  1.0 -0.0238393825
C  C102  1  0.64390000  0.11610000  0.96330000  1.0 -0.0783286888
C  C103  1  0.66460000  0.19070000  0.82400000  1.0 -0.1003944711
C  C104  1  0.62380000  0.15010000  0.90100000  1.0 -0.0117048469
C  C105  1  0.77030000  0.24520000  0.73180000  1.0 0.5825482285
C  C106  1  0.74680000  0.16820000  0.88060000  1.0 -0.1003944711
C  C107  1  0.72490000  0.19880000  0.81320000  1.0 -0.0238393825
C  C108  1  0.55770000  0.14380000  0.90990000  1.0 0.5825482285
C  C109  1  0.00000000  0.47070000  0.83333000  1.0 -0.3762132499
C  C110  1  0.00000000  0.40410000  0.83333000  1.0 0.2991354492
C  C111  1  0.47070000  0.00000000  0.16667000  1.0 -0.3762132499
C  C112  1  0.40410000  0.00000000  0.16667000  1.0 0.2991354492
C  C113  1  0.52930000  0.52930000  0.50000000  1.0 -0.3762132499
C  C114  1  0.59590000  0.59590000  0.50000000  1.0 0.2991354492
N  N1  1  0.03460000  0.39590000  0.89607000  1.0 -0.2717379802
N  N2  1  0.02610000  0.33890000  0.87416000  1.0 -0.0516518521
N  N3  1  0.36130000  0.96540000  0.22940000  1.0 -0.2717379802
N  N4  1  0.31280000  0.97390000  0.20750000  1.0 -0.0516518521
N  N5  1  0.60410000  0.63870000  0.56273000  1.0 -0.2717379802
N  N6  1  0.66110000  0.68720000  0.54083000  1.0 -0.0516518521
N  N7  1  0.63870000  0.60410000  0.43727000  1.0 -0.2717379802
N  N8  1  0.68720000  0.66110000  0.45917000  1.0 -0.0516518521
N  N9  1  0.39590000  0.03460000  0.10393000  1.0 -0.2717379802
N  N10  1  0.33890000  0.02610000  0.12584000  1.0 -0.0516518521
N  N11  1  0.96540000  0.36130000  0.77060000  1.0 -0.2717379802
N  N12  1  0.97390000  0.31280000  0.79250000  1.0 -0.0516518521
O  O1  1  0.31260000  0.36370000  0.58147000  1.0 -0.5008664254
O  O2  1  0.21800000  0.27980000  0.40726000  1.0 -0.5111557716
O  O3  1  0.16766000  0.17344000  0.38347000  1.0 -0.7221570784
O  O4  1  0.07850000  0.37381000  0.10436000  1.0 -0.5282511884
O  O5  1  0.21420000  0.31640000  0.65026000  1.0 -0.5899446779
O  O6  1  0.92840000  0.13850000  0.11617000  1.0 -0.6498881751
O  O7  1  0.17470000  0.41600000  0.18107000  1.0 -0.5779674822
O  O8  1  0.96626000  0.07496000  0.17167000  1.0 -0.6090649937
O  O9  1  0.47830000  0.58460000  0.68507000  1.0 -0.5434555584
O  O10  1  0.45780000  0.63100000  0.81406000  1.0 -0.5475142175
O  O11  1  0.17140000  0.43980000  0.92017000  1.0 -0.5008664254
O  O12  1  0.25740000  0.51090000  0.00907000  1.0 -0.5707478696
O  O13  1  0.05110000  0.68740000  0.91480000  1.0 -0.5008664254
O  O14  1  0.06180000  0.78200000  0.74060000  1.0 -0.5111557716
O  O15  1  0.00578000  0.83234000  0.71680000  1.0 -0.7221570784
O  O16  1  0.29531000  0.92150000  0.43770000  1.0 -0.5282511884
O  O17  1  0.10220000  0.78580000  0.98360000  1.0 -0.5899446779
O  O18  1  0.21010000  0.07160000  0.44950000  1.0 -0.6498881751
O  O19  1  0.24130000  0.82530000  0.51440000  1.0 -0.5779674822
O  O20  1  0.10870000  0.03374000  0.50500000  1.0 -0.6090649937
O  O21  1  0.10630000  0.52170000  0.01840000  1.0 -0.5434555584
O  O22  1  0.17320000  0.54220000  0.14740000  1.0 -0.5475142175
O  O23  1  0.26840000  0.82860000  0.25350000  1.0 -0.5008664254
O  O24  1  0.25350000  0.74260000  0.34240000  1.0 -0.5707478696
O  O25  1  0.63630000  0.94890000  0.24813000  1.0 -0.5008664254
O  O26  1  0.72020000  0.93820000  0.07393000  1.0 -0.5111557716
O  O27  1  0.82656000  0.99422000  0.05013000  1.0 -0.7221570784
O  O28  1  0.62619000  0.70469000  0.77103000  1.0 -0.5282511884
O  O29  1  0.68360000  0.89780000  0.31693000  1.0 -0.5899446779
O  O30  1  0.86150000  0.78990000  0.78283000  1.0 -0.6498881751
O  O31  1  0.58400000  0.75870000  0.84773000  1.0 -0.5779674822
O  O32  1  0.92504000  0.89130000  0.83833000  1.0 -0.6090649937
O  O33  1  0.41540000  0.89370000  0.35173000  1.0 -0.5434555584
O  O34  1  0.36900000  0.82680000  0.48073000  1.0 -0.5475142175
O  O35  1  0.56020000  0.73160000  0.58683000  1.0 -0.5008664254
O  O36  1  0.48910000  0.74650000  0.67573000  1.0 -0.5707478696
O  O37  1  0.94890000  0.63630000  0.75187000  1.0 -0.5008664254
O  O38  1  0.93820000  0.72020000  0.92607000  1.0 -0.5111557716
O  O39  1  0.99422000  0.82656000  0.94987000  1.0 -0.7221570784
O  O40  1  0.70469000  0.62619000  0.22897000  1.0 -0.5282511884
O  O41  1  0.89780000  0.68360000  0.68307000  1.0 -0.5899446779
O  O42  1  0.78990000  0.86150000  0.21717000  1.0 -0.6498881751
O  O43  1  0.75870000  0.58400000  0.15227000  1.0 -0.5779674822
O  O44  1  0.89130000  0.92504000  0.16167000  1.0 -0.6090649937
O  O45  1  0.89370000  0.41540000  0.64827000  1.0 -0.5434555584
O  O46  1  0.82680000  0.36900000  0.51927000  1.0 -0.5475142175
O  O47  1  0.73160000  0.56020000  0.41317000  1.0 -0.5008664254
O  O48  1  0.74650000  0.48910000  0.32427000  1.0 -0.5707478696
O  O49  1  0.36370000  0.31260000  0.41853000  1.0 -0.5008664254
O  O50  1  0.27980000  0.21800000  0.59274000  1.0 -0.5111557716
O  O51  1  0.17344000  0.16766000  0.61653000  1.0 -0.7221570784
O  O52  1  0.37381000  0.07850000  0.89563000  1.0 -0.5282511884
O  O53  1  0.31640000  0.21420000  0.34974000  1.0 -0.5899446779
O  O54  1  0.13850000  0.92840000  0.88383000  1.0 -0.6498881751
O  O55  1  0.41600000  0.17470000  0.81893000  1.0 -0.5779674822
O  O56  1  0.07496000  0.96626000  0.82834000  1.0 -0.6090649937
O  O57  1  0.58460000  0.47830000  0.31494000  1.0 -0.5434555584
O  O58  1  0.63100000  0.45780000  0.18593000  1.0 -0.5475142175
O  O59  1  0.43980000  0.17140000  0.07983000  1.0 -0.5008664254
O  O60  1  0.51090000  0.25740000  0.99094000  1.0 -0.5707478696
O  O61  1  0.68740000  0.05110000  0.08520000  1.0 -0.5008664254
O  O62  1  0.78200000  0.06180000  0.25940000  1.0 -0.5111557716
O  O63  1  0.83234000  0.00578000  0.28320000  1.0 -0.7221570784
O  O64  1  0.92150000  0.29531000  0.56230000  1.0 -0.5282511884
O  O65  1  0.78580000  0.10220000  0.01640000  1.0 -0.5899446779
O  O66  1  0.07160000  0.21010000  0.55050000  1.0 -0.6498881751
O  O67  1  0.82530000  0.24130000  0.48560000  1.0 -0.5779674822
O  O68  1  0.03374000  0.10870000  0.49500000  1.0 -0.6090649937
O  O69  1  0.52170000  0.10630000  0.98160000  1.0 -0.5434555584
O  O70  1  0.54220000  0.17320000  0.85260000  1.0 -0.5475142175
O  O71  1  0.82860000  0.26840000  0.74650000  1.0 -0.5008664254
O  O72  1  0.74260000  0.25350000  0.65760000  1.0 -0.5707478696
