# DDEC6 charges by PACMAN v1.1 (https://github.com/mtap-research/PACMAN-charge/)
data_BEPVOJ_ion_pacman
_symmetry_space_group_name_H-M   'P 1'
_cell_length_a   11.31200000
_cell_length_b   11.51520000
_cell_length_c   12.69530000
_cell_angle_alpha   88.50300000
_cell_angle_beta   114.17100000
_cell_angle_gamma   111.65300000
_symmetry_Int_Tables_number   1
_chemical_formula_structural   Cu3H26C22N8O
_chemical_formula_sum   'Cu6 H52 C44 N16 O2'
_cell_volume   1386.93498282
_cell_formula_units_Z   2
loop_
 _symmetry_equiv_pos_site_id
 _symmetry_equiv_pos_as_xyz
  1  'x, y, z'
loop_
 _atom_site_type_symbol
 _atom_site_label
 _atom_site_symmetry_multiplicity
 _atom_site_fract_x
 _atom_site_fract_y
 _atom_site_fract_z
 _atom_site_occupancy
 _atom_site_charge
Cu  Cu1  1  0.82860000  0.88051000  0.59397000  1.0 0.2637548675
Cu  Cu2  1  0.17140000  0.11949000  0.40603000  1.0 0.2637548675
Cu  Cu3  1  0.13464000  0.05819000  0.00869000  1.0 0.2979474644
Cu  Cu4  1  0.86536000  0.94181000  0.99131000  1.0 0.2979474644
Cu  Cu5  1  0.36024000  0.81806000  0.28921000  1.0 0.2979474644
Cu  Cu6  1  0.63976000  0.18194000  0.71079000  1.0 0.2979474644
H  H1  1  0.52390000  0.34650000  0.43110000  1.0 0.1595076096
H  H2  1  0.47610000  0.65350000  0.56890000  1.0 0.1595076096
H  H3  1  0.54670000  0.48970000  0.41220000  1.0 0.1595076096
H  H4  1  0.45330000  0.51030000  0.58780000  1.0 0.1595076096
H  H5  1  0.61600000  0.41860000  0.36370000  1.0 0.1595076096
H  H6  1  0.38400000  0.58140000  0.63630000  1.0 0.1595076096
H  H7  1  0.39970000  0.19650000  0.22290000  1.0 0.2895652433
H  H8  1  0.60030000  0.80350000  0.77710000  1.0 0.2895652433
H  H9  1  0.13280000  0.89220000  0.70450000  1.0 0.2979474644
H  H10  1  0.86720000  0.10780000  0.29550000  1.0 0.2979474644
H  H11  1  0.03750000  0.26440000  0.94640000  1.0 0.1595076096
H  H12  1  0.96250000  0.73560000  0.05360000  1.0 0.1595076096
H  H13  1  0.11600000  0.41510000  0.96890000  1.0 0.1514133071
H  H14  1  0.88400000  0.58490000  0.03110000  1.0 0.1514133071
H  H15  1  0.02210000  0.34670000  0.03600000  1.0 0.1595076096
H  H16  1  0.97790000  0.65330000  0.96400000  1.0 0.1595076096
H  H17  1  0.29820000  0.58800000  0.16600000  1.0 0.1298484826
H  H18  1  0.70180000  0.41200000  0.83400000  1.0 0.1298484826
H  H19  1  0.41360000  0.59610000  0.29450000  1.0 0.1392163397
H  H20  1  0.58640000  0.40390000  0.70550000  1.0 0.1392163397
H  H21  1  0.12630000  0.35410000  0.28990000  1.0 0.1392163397
H  H22  1  0.87370000  0.64590000  0.71010000  1.0 0.1392163397
H  H23  1  0.98290000  0.37080000  0.37320000  1.0 0.1154142176
H  H24  1  0.01710000  0.62920000  0.62680000  1.0 0.1154142176
H  H25  1  0.98020000  0.56990000  0.40590000  1.0 0.1392163397
H  H26  1  0.01980000  0.43010000  0.59410000  1.0 0.1392163397
H  H27  1  0.23360000  0.85850000  0.39010000  1.0 0.1298484826
H  H28  1  0.76640000  0.14150000  0.60990000  1.0 0.1298484826
H  H29  1  0.07460000  0.81540000  0.29380000  1.0 0.1514133071
H  H30  1  0.92540000  0.18460000  0.70620000  1.0 0.1514133071
H  H31  1  0.38200000  0.94720000  0.70460000  1.0 0.1595076096
H  H32  1  0.61800000  0.05280000  0.29540000  1.0 0.1595076096
H  H33  1  0.37290000  0.86910000  0.59720000  1.0 0.1595076096
H  H34  1  0.62710000  0.13090000  0.40280000  1.0 0.1595076096
H  H35  1  0.33080000  0.79680000  0.69390000  1.0 0.1514133071
H  H36  1  0.66920000  0.20320000  0.30610000  1.0 0.1514133071
H  H37  1  0.79210000  0.70000000  0.30510000  1.0 0.1595076096
H  H38  1  0.20790000  0.30000000  0.69490000  1.0 0.1595076096
H  H39  1  0.85340000  0.84120000  0.27910000  1.0 0.1595076096
H  H40  1  0.14660000  0.15880000  0.72090000  1.0 0.1595076096
H  H41  1  0.76200000  0.80860000  0.35240000  1.0 0.1514133071
H  H42  1  0.23800000  0.19140000  0.64760000  1.0 0.1514133071
H  H43  1  0.40770000  0.57320000  0.89790000  1.0 0.1298484826
H  H44  1  0.33500000  0.54610000  0.98580000  1.0 0.1298484826
H  H45  1  0.29930000  0.63540000  0.88920000  1.0 0.1392163397
H  H46  1  0.59820000  0.73170000  0.05290000  1.0 0.0767829237
H  H47  1  0.49780000  0.74140000  0.11030000  1.0 0.0767829237
H  H48  1  0.59230000  0.42680000  0.10210000  1.0 0.1298484826
H  H49  1  0.66500000  0.45390000  0.01420000  1.0 0.1298484826
H  H50  1  0.70070000  0.36460000  0.11080000  1.0 0.1392163397
H  H51  1  0.40180000  0.26830000  0.94710000  1.0 0.0767829237
H  H52  1  0.50220000  0.25860000  0.88970000  1.0 0.0767829237
C  C1  1  0.53390000  0.40840000  0.37760000  1.0 -0.4967453847
C  C2  1  0.46610000  0.59160000  0.62240000  1.0 -0.4967453847
C  C3  1  0.40550000  0.36370000  0.26550000  1.0 0.2014677362
C  C4  1  0.59450000  0.63630000  0.73450000  1.0 0.2014677362
C  C5  1  0.31200000  0.41818000  0.20220000  1.0 -0.1004699825
C  C6  1  0.68800000  0.58182000  0.79780000  1.0 -0.1004699825
C  C7  1  0.21160000  0.33120000  0.10160000  1.0 0.2014677362
C  C8  1  0.78840000  0.66880000  0.89840000  1.0 0.2014677362
C  C9  1  0.08610000  0.34010000  0.00500000  1.0 -0.4820133815
C  C10  1  0.91390000  0.65990000  0.99500000  1.0 -0.4820133815
C  C11  1  0.31680000  0.54470000  0.23580000  1.0 -0.296683229
C  C12  1  0.68320000  0.45530000  0.76420000  1.0 -0.296683229
C  C13  1  0.21480000  0.54187000  0.28490000  1.0 0.2658097972
C  C14  1  0.78520000  0.45813000  0.71510000  1.0 0.2658097972
C  C15  1  0.12710000  0.43420000  0.30730000  1.0 -0.1849789391
C  C16  1  0.87290000  0.56580000  0.69270000  1.0 -0.1849789391
C  C17  1  0.04120000  0.44360000  0.35460000  1.0 -0.0155972275
C  C18  1  0.95880000  0.55640000  0.64540000  1.0 -0.0155972275
C  C19  1  0.04080000  0.56150000  0.37510000  1.0 -0.1948262821
C  C20  1  0.95920000  0.43850000  0.62490000  1.0 -0.1948262821
C  C21  1  0.12870000  0.66530000  0.35030000  1.0 0.2637548675
C  C22  1  0.87130000  0.33470000  0.64970000  1.0 0.2637548675
C  C23  1  0.13580000  0.79780000  0.36870000  1.0 -0.2884280155
C  C24  1  0.86420000  0.20220000  0.63130000  1.0 -0.2884280155
C  C25  1  0.32940000  0.86800000  0.65010000  1.0 -0.4872183571
C  C26  1  0.67060000  0.13200000  0.34990000  1.0 -0.4872183571
C  C27  1  0.17790000  0.85381000  0.57970000  1.0 0.2014677362
C  C28  1  0.82210000  0.14619000  0.42030000  1.0 0.2014677362
C  C29  1  0.09240000  0.82150000  0.46080000  1.0 -0.1061100135
C  C30  1  0.90760000  0.17850000  0.53920000  1.0 -0.1061100135
C  C31  1  0.96230000  0.81908000  0.44675000  1.0 0.2014677362
C  C32  1  0.03770000  0.18092000  0.55325000  1.0 0.2014677362
C  C33  1  0.83120000  0.78970000  0.33640000  1.0 -0.4820133815
C  C34  1  0.16880000  0.21030000  0.66360000  1.0 -0.4820133815
C  C35  1  0.00700000  0.98898000  0.85376000  1.0 -0.1061100135
C  C36  1  0.99300000  0.01102000  0.14624000  1.0 -0.1004699825
C  C37  1  0.30210000  0.91348000  0.17254000  1.0 -0.1004699825
C  C38  1  0.69790000  0.08652000  0.82746000  1.0 -0.1004699825
C  C39  1  0.64360000  0.85018000  0.48843000  1.0 -0.1004699825
C  C40  1  0.35640000  0.14982000  0.51157000  1.0 -0.1004699825
C  C41  1  0.37340000  0.60940000  0.94270000  1.0 -0.4389528404
C  C42  1  0.50580000  0.73440000  0.03610000  1.0 0.0395784979
C  C43  1  0.62660000  0.39060000  0.05730000  1.0 -0.4389528404
C  C44  1  0.49420000  0.26560000  0.96390000  1.0 0.0395784979
N  N1  1  0.23978000  0.22851000  0.10213000  1.0 -0.2027771095
N  N2  1  0.76022000  0.77149000  0.89787000  1.0 -0.2027771095
N  N3  1  0.35833000  0.25016000  0.20196000  1.0 -0.1326728086
N  N4  1  0.64167000  0.74984000  0.79804000  1.0 -0.1326728086
N  N5  1  0.21531000  0.65572000  0.30700000  1.0 -0.2884280155
N  N6  1  0.78469000  0.34428000  0.69300000  1.0 -0.2884280155
N  N7  1  0.10101000  0.87036000  0.62906000  1.0 -0.141086034
N  N8  1  0.89899000  0.12964000  0.37094000  1.0 -0.141086034
N  N9  1  0.96688000  0.84961000  0.54947000  1.0 -0.2269303868
N  N10  1  0.03312000  0.15039000  0.45053000  1.0 -0.2269303868
N  N11  1  0.94040000  0.94587000  0.75692000  1.0 -0.3280021394
N  N12  1  0.05960000  0.05413000  0.24308000  1.0 -0.3280021394
N  N13  1  0.25937000  0.97398000  0.10563000  1.0 -0.2636486958
N  N14  1  0.74063000  0.02602000  0.89437000  1.0 -0.2636486958
N  N15  1  0.53390000  0.83611000  0.41813000  1.0 -0.3280021394
N  N16  1  0.46610000  0.16389000  0.58187000  1.0 -0.3280021394
O  O1  1  0.48490000  0.83830000  0.96990000  1.0 -0.4188233535
O  O2  1  0.51510000  0.16170000  0.03010000  1.0 -0.4188233535
