# DDEC6 charges by PACMAN v1.1 (https://github.com/mtap-research/PACMAN-charge/)
data_BEPVOJ01_ion_pacman
_symmetry_space_group_name_H-M   'P 1'
_cell_length_a   11.35710000
_cell_length_b   11.49640000
_cell_length_c   12.93520000
_cell_angle_alpha   88.86700000
_cell_angle_beta   115.38600000
_cell_angle_gamma   110.69500000
_symmetry_Int_Tables_number   1
_chemical_formula_structural   Cu3H26C22N8O
_chemical_formula_sum   'Cu6 H52 C44 N16 O2'
_cell_volume   1409.91592991
_cell_formula_units_Z   2
loop_
 _symmetry_equiv_pos_site_id
 _symmetry_equiv_pos_as_xyz
  1  'x, y, z'
loop_
 _atom_site_type_symbol
 _atom_site_label
 _atom_site_symmetry_multiplicity
 _atom_site_fract_x
 _atom_site_fract_y
 _atom_site_fract_z
 _atom_site_occupancy
 _atom_site_charge
Cu  Cu1  1  0.13681000  0.05879000  0.00615000  1.0 0.2821732984
Cu  Cu2  1  0.86319000  0.94121000  0.99385000  1.0 0.2821732984
Cu  Cu3  1  0.82972000  0.87794000  0.59423000  1.0 0.249957873
Cu  Cu4  1  0.17028000  0.12206000  0.40577000  1.0 0.249957873
Cu  Cu5  1  0.35734000  0.81923000  0.29311000  1.0 0.2821732984
Cu  Cu6  1  0.64266000  0.18077000  0.70689000  1.0 0.2821732984
H  H1  1  0.13290000  0.88810000  0.70510000  1.0 0.2908450053
H  H2  1  0.86710000  0.11190000  0.29490000  1.0 0.2908450053
H  H3  1  0.38800000  0.19800000  0.22540000  1.0 0.2908450053
H  H4  1  0.61200000  0.80200000  0.77460000  1.0 0.2821732984
H  H5  1  0.08240000  0.82100000  0.30520000  1.0 0.1407968127
H  H6  1  0.91760000  0.17900000  0.69480000  1.0 0.1407968127
H  H7  1  0.23730000  0.85780000  0.40180000  1.0 0.1298821455
H  H8  1  0.76270000  0.14220000  0.59820000  1.0 0.1298821455
H  H9  1  0.77820000  0.70200000  0.32530000  1.0 0.1525222539
H  H10  1  0.22180000  0.29800000  0.67470000  1.0 0.1525222539
H  H11  1  0.85780000  0.81240000  0.27710000  1.0 0.1567139711
H  H12  1  0.14220000  0.18760000  0.72290000  1.0 0.1567139711
H  H13  1  0.78120000  0.83720000  0.34530000  1.0 0.1525222539
H  H14  1  0.21880000  0.16280000  0.65470000  1.0 0.1525222539
H  H15  1  0.27650000  0.58300000  0.15770000  1.0 0.1298821455
H  H16  1  0.72350000  0.41700000  0.84230000  1.0 0.1298821455
H  H17  1  0.39870000  0.59800000  0.28110000  1.0 0.1407968127
H  H18  1  0.60130000  0.40200000  0.71890000  1.0 0.1407968127
H  H19  1  0.11990000  0.35850000  0.28210000  1.0 0.1407968127
H  H20  1  0.88010000  0.64150000  0.71790000  1.0 0.1407968127
H  H21  1  0.98870000  0.57250000  0.41090000  1.0 0.1407968127
H  H22  1  0.01130000  0.42750000  0.58910000  1.0 0.1407968127
H  H23  1  0.10980000  0.40910000  0.95850000  1.0 0.1525222539
H  H24  1  0.89020000  0.59090000  0.04150000  1.0 0.1525222539
H  H25  1  0.01490000  0.34990000  0.02020000  1.0 0.1567139711
H  H26  1  0.98510000  0.65010000  0.97980000  1.0 0.1567139711
H  H27  1  0.03110000  0.26270000  0.93970000  1.0 0.1567139711
H  H28  1  0.96890000  0.73730000  0.06030000  1.0 0.1567139711
H  H29  1  0.38800000  0.95260000  0.69800000  1.0 0.1654172824
H  H30  1  0.61200000  0.04740000  0.30200000  1.0 0.1567139711
H  H31  1  0.37010000  0.85060000  0.60780000  1.0 0.1525222539
H  H32  1  0.62990000  0.14940000  0.39220000  1.0 0.1525222539
H  H33  1  0.33790000  0.81020000  0.71230000  1.0 0.1525222539
H  H34  1  0.66210000  0.18980000  0.28770000  1.0 0.1525222539
H  H35  1  0.54770000  0.34140000  0.40690000  1.0 0.1567139711
H  H36  1  0.45230000  0.65860000  0.59310000  1.0 0.1525222539
H  H37  1  0.49870000  0.44450000  0.43200000  1.0 0.1525222539
H  H38  1  0.50130000  0.55550000  0.56800000  1.0 0.1525222539
H  H39  1  0.59640000  0.47430000  0.37060000  1.0 0.1567139711
H  H40  1  0.40360000  0.52570000  0.62940000  1.0 0.1525222539
H  H41  1  0.98370000  0.37770000  0.36600000  1.0 0.1187776201
H  H42  1  0.01630000  0.62230000  0.63400000  1.0 0.1187776201
H  H43  1  0.38870000  0.71870000  0.05980000  1.0 0.0710932263
H  H44  1  0.30150000  0.71670000  0.92720000  1.0 0.0710932263
H  H45  1  0.40450000  0.59890000  0.87850000  1.0 0.1187776201
H  H46  1  0.52000000  0.62120000  0.00690000  1.0 0.1298821455
H  H47  1  0.36320000  0.53280000  0.97190000  1.0 0.1187776201
H  H48  1  0.61130000  0.28130000  0.94020000  1.0 0.0710932263
H  H49  1  0.69850000  0.28330000  0.07280000  1.0 0.0710932263
H  H50  1  0.59550000  0.40110000  0.12150000  1.0 0.1187776201
H  H51  1  0.48000000  0.37880000  0.99310000  1.0 0.1298821455
H  H52  1  0.63680000  0.46720000  0.02810000  1.0 0.1187776201
C  C1  1  0.96584000  0.82102000  0.45036000  1.0 0.1889026126
C  C2  1  0.03416000  0.17898000  0.54964000  1.0 0.1889026126
C  C3  1  0.01223000  0.98815000  0.85227000  1.0 -0.0885396658
C  C4  1  0.98777000  0.01185000  0.14773000  1.0 -0.0885396658
C  C5  1  0.20258000  0.33014000  0.09580000  1.0 0.204039155
C  C6  1  0.79742000  0.66986000  0.90420000  1.0 0.204039155
C  C7  1  0.30210000  0.91674000  0.17761000  1.0 -0.0840580403
C  C8  1  0.69790000  0.08326000  0.82239000  1.0 -0.0885396658
C  C9  1  0.09634000  0.82207000  0.46723000  1.0 -0.1059915624
C  C10  1  0.90366000  0.17793000  0.53277000  1.0 -0.1059915624
C  C11  1  0.39330000  0.36428000  0.26323000  1.0 0.1889026126
C  C12  1  0.60670000  0.63572000  0.73677000  1.0 0.1889026126
C  C13  1  0.18048000  0.85270000  0.58481000  1.0 0.1889026126
C  C14  1  0.81952000  0.14730000  0.41519000  1.0 0.1889026126
C  C15  1  0.14064000  0.80019000  0.37740000  1.0 -0.2830313756
C  C16  1  0.85936000  0.19981000  0.62260000  1.0 -0.2830313756
C  C17  1  0.30073000  0.41862000  0.19656000  1.0 -0.1036494686
C  C18  1  0.69927000  0.58138000  0.80344000  1.0 -0.1036494686
C  C19  1  0.13112000  0.66896000  0.35466000  1.0 0.2665394829
C  C20  1  0.86888000  0.33104000  0.64534000  1.0 0.2665394829
C  C21  1  0.83400000  0.79040000  0.33965000  1.0 -0.4689891054
C  C22  1  0.16600000  0.20960000  0.66035000  1.0 -0.4689891054
C  C23  1  0.20777000  0.54434000  0.28082000  1.0 0.2626433061
C  C24  1  0.79223000  0.45566000  0.71918000  1.0 0.2626433061
C  C25  1  0.30280000  0.54479000  0.22744000  1.0 -0.2851322009
C  C26  1  0.69720000  0.45521000  0.77256000  1.0 -0.2851322009
C  C27  1  0.12240000  0.43714000  0.30130000  1.0 -0.1902207101
C  C28  1  0.87760000  0.56286000  0.69870000  1.0 -0.1902207101
C  C29  1  0.04410000  0.56442000  0.37770000  1.0 -0.1902207101
C  C30  1  0.95590000  0.43558000  0.62230000  1.0 -0.1902207101
C  C31  1  0.07860000  0.33870000  0.99450000  1.0 -0.4792243107
C  C32  1  0.92140000  0.66130000  0.00550000  1.0 -0.4792243107
C  C33  1  0.33320000  0.86790000  0.65740000  1.0 -0.4792243107
C  C34  1  0.66680000  0.13210000  0.34260000  1.0 -0.4792243107
C  C35  1  0.52040000  0.41020000  0.37850000  1.0 -0.4904016568
C  C36  1  0.47960000  0.58980000  0.62150000  1.0 -0.4904016568
C  C37  1  0.04130000  0.44900000  0.35070000  1.0 -0.0173795721
C  C38  1  0.95870000  0.55100000  0.64930000  1.0 -0.0173795721
C  C39  1  0.64370000  0.84809000  0.48951000  1.0 -0.0885396658
C  C40  1  0.35630000  0.15191000  0.51049000  1.0 -0.0885396658
C  C41  1  0.39320000  0.72310000  0.98650000  1.0 0.0644877296
C  C42  1  0.42310000  0.60790000  0.95820000  1.0 -0.4126730724
C  C43  1  0.60680000  0.27690000  0.01350000  1.0 0.0644877296
C  C44  1  0.57690000  0.39210000  0.04180000  1.0 -0.4126730724
N  N1  1  0.23323000  0.22866000  0.10060000  1.0 -0.1902207101
N  N2  1  0.76677000  0.77134000  0.89940000  1.0 -0.1902207101
N  N3  1  0.21218000  0.65779000  0.30773000  1.0 -0.2830313756
N  N4  1  0.78782000  0.34221000  0.69227000  1.0 -0.2830313756
N  N5  1  0.10228000  0.86786000  0.63194000  1.0 -0.135700108
N  N6  1  0.89772000  0.13214000  0.36806000  1.0 -0.135700108
N  N7  1  0.96885000  0.84788000  0.55187000  1.0 -0.2198360353
N  N8  1  0.03115000  0.15212000  0.44813000  1.0 -0.2198360353
N  N9  1  0.26293000  0.97692000  0.11123000  1.0 -0.2665436282
N  N10  1  0.73707000  0.02308000  0.88877000  1.0 -0.2665436282
N  N11  1  0.34773000  0.25085000  0.20193000  1.0 -0.1232285514
N  N12  1  0.65227000  0.74915000  0.79807000  1.0 -0.1232285514
N  N13  1  0.94385000  0.94303000  0.75739000  1.0 -0.3204129948
N  N14  1  0.05615000  0.05697000  0.24261000  1.0 -0.3204129948
N  N15  1  0.53290000  0.83539000  0.42002000  1.0 -0.3204129948
N  N16  1  0.46710000  0.16461000  0.57998000  1.0 -0.3204129948
O  O1  1  0.49610000  0.84350000  0.99350000  1.0 -0.4341037883
O  O2  1  0.50390000  0.15650000  0.00650000  1.0 -0.4341037883
