# DDEC6 charges by PACMAN v1.1 (https://github.com/mtap-research/PACMAN-charge/)
data_BEPVAV_ASR_pacman
_symmetry_space_group_name_H-M   'P 1'
_cell_length_a   11.37000000
_cell_length_b   11.42740000
_cell_length_c   12.19120000
_cell_angle_alpha   112.04800000
_cell_angle_beta   87.74300000
_cell_angle_gamma   110.19700000
_symmetry_Int_Tables_number   1
_chemical_formula_structural   Cu3H21(C5N2)4
_chemical_formula_sum   'Cu6 H42 C40 N16'
_cell_volume   1370.45258302
_cell_formula_units_Z   2
loop_
 _symmetry_equiv_pos_site_id
 _symmetry_equiv_pos_as_xyz
  1  'x, y, z'
loop_
 _atom_site_type_symbol
 _atom_site_label
 _atom_site_symmetry_multiplicity
 _atom_site_fract_x
 _atom_site_fract_y
 _atom_site_fract_z
 _atom_site_occupancy
 _atom_site_charge
Cu  Cu1  1  0.31511000  0.36753000  0.27502000  1.0 0.2621812489
Cu  Cu2  1  0.68489000  0.63247000  0.72498000  1.0 0.2621812489
Cu  Cu3  1  0.37101000  0.81610000  0.58052000  1.0 0.2403425864
Cu  Cu4  1  0.62899000  0.18390000  0.41948000  1.0 0.2403425864
Cu  Cu5  1  0.54820000  0.12349000  0.98994000  1.0 0.2621812489
Cu  Cu6  1  0.45180000  0.87651000  0.01006000  1.0 0.2621812489
H  H1  1  0.91420000  0.58550000  0.33170000  1.0 0.1515061441
H  H2  1  0.08580000  0.41450000  0.66830000  1.0 0.1515061441
H  H3  1  0.96620000  0.50700000  0.39100000  1.0 0.1515061441
H  H4  1  0.03380000  0.49300000  0.60900000  1.0 0.1515061441
H  H5  1  0.82310000  0.49960000  0.39960000  1.0 0.1515061441
H  H6  1  0.17690000  0.50040000  0.60040000  1.0 0.1515061441
H  H7  1  0.68300000  0.37810000  0.19530000  1.0 0.2807208465
H  H8  1  0.31700000  0.62190000  0.80470000  1.0 0.2807208465
H  H9  1  0.39080000  0.10940000  0.71610000  1.0 0.2807208465
H  H10  1  0.60920000  0.89060000  0.28390000  1.0 0.2807208465
H  H11  1  0.76900000  0.03950000  0.91180000  1.0 0.1515061441
H  H12  1  0.23100000  0.96050000  0.08820000  1.0 0.1515061441
H  H13  1  0.85140000  0.02000000  0.00250000  1.0 0.1515061441
H  H14  1  0.14860000  0.98000000  0.99750000  1.0 0.1515061441
H  H15  1  0.91840000  0.11650000  0.93390000  1.0 0.1515061441
H  H16  1  0.08160000  0.88350000  0.06610000  1.0 0.1515061441
H  H17  1  0.09060000  0.39400000  0.25250000  1.0 0.1389616813
H  H18  1  0.90940000  0.60600000  0.74750000  1.0 0.1389616813
H  H19  1  0.08110000  0.27320000  0.12850000  1.0 0.1339858141
H  H20  1  0.91890000  0.72680000  0.87150000  1.0 0.1339858141
H  H21  1  0.85350000  0.11190000  0.26070000  1.0 0.1389616813
H  H22  1  0.14650000  0.88810000  0.73930000  1.0 0.1389616813
H  H23  1  0.87910000  0.97790000  0.35620000  1.0 0.112262196
H  H24  1  0.12090000  0.02210000  0.64380000  1.0 0.112262196
H  H25  1  0.07910000  0.00400000  0.41900000  1.0 0.1339858141
H  H26  1  0.92090000  0.99600000  0.58100000  1.0 0.1339858141
H  H27  1  0.34880000  0.14320000  0.32310000  1.0 0.1389616813
H  H28  1  0.65120000  0.85680000  0.67690000  1.0 0.1389616813
H  H29  1  0.35370000  0.27690000  0.43330000  1.0 0.1339858141
H  H30  1  0.64630000  0.72310000  0.56670000  1.0 0.1339858141
H  H31  1  0.29080000  0.32070000  0.71580000  1.0 0.1389616813
H  H32  1  0.70920000  0.67930000  0.28420000  1.0 0.1389616813
H  H33  1  0.39510000  0.38180000  0.64050000  1.0 0.1515061441
H  H34  1  0.60490000  0.61820000  0.35950000  1.0 0.1515061441
H  H35  1  0.43620000  0.34960000  0.74690000  1.0 0.1585430222
H  H36  1  0.56380000  0.65040000  0.25310000  1.0 0.1585430222
H  H37  1  0.30650000  0.79500000  0.34200000  1.0 0.1585430222
H  H38  1  0.69350000  0.20500000  0.65800000  1.0 0.1585430222
H  H39  1  0.33770000  0.89960000  0.27760000  1.0 0.1515061441
H  H40  1  0.66230000  0.10040000  0.72240000  1.0 0.1515061441
H  H41  1  0.19810000  0.84080000  0.31130000  1.0 0.1515061441
H  H42  1  0.80190000  0.15920000  0.68870000  1.0 0.1515061441
C  C1  1  0.89260000  0.50400000  0.34930000  1.0 -0.4901664042
C  C2  1  0.10740000  0.49600000  0.65070000  1.0 -0.4901664042
C  C3  1  0.85320000  0.38160000  0.23530000  1.0 0.1893663137
C  C4  1  0.14680000  0.61840000  0.76470000  1.0 0.1893663137
C  C5  1  0.91340000  0.29430000  0.16930000  1.0 -0.0832688295
C  C6  1  0.08660000  0.70570000  0.83070000  1.0 -0.0832688295
C  C7  1  0.82650000  0.19940000  0.06880000  1.0 0.2118540174
C  C8  1  0.17350000  0.80060000  0.93120000  1.0 0.2118540174
C  C9  1  0.84270000  0.08430000  0.97110000  1.0 -0.4767455392
C  C10  1  0.15730000  0.91570000  0.02890000  1.0 -0.4767455392
C  C11  1  0.03970000  0.29920000  0.20220000  1.0 -0.289637549
C  C12  1  0.96030000  0.70080000  0.79780000  1.0 -0.289637549
C  C13  1  0.04270000  0.21220000  0.26650000  1.0 0.2621812489
C  C14  1  0.95730000  0.78780000  0.73350000  1.0 0.2621812489
C  C15  1  0.93510000  0.12040000  0.28590000  1.0 -0.1894622752
C  C16  1  0.06490000  0.87960000  0.71410000  1.0 -0.1894622752
C  C17  1  0.95070000  0.04260000  0.34260000  1.0 -0.0237493877
C  C18  1  0.04930000  0.95740000  0.65740000  1.0 -0.0237493877
C  C19  1  0.06830000  0.05770000  0.37940000  1.0 -0.2012292416
C  C20  1  0.93170000  0.94230000  0.62060000  1.0 -0.2012292416
C  C21  1  0.17210000  0.15160000  0.35880000  1.0 0.2807208465
C  C22  1  0.82790000  0.84840000  0.64120000  1.0 0.2807208465
C  C23  1  0.30860000  0.17800000  0.39570000  1.0 -0.289637549
C  C24  1  0.69140000  0.82200000  0.60430000  1.0 -0.289637549
C  C25  1  0.37060000  0.32010000  0.68250000  1.0 -0.4705449277
C  C26  1  0.62940000  0.67990000  0.31750000  1.0 -0.4705449277
C  C27  1  0.35460000  0.17870000  0.59640000  1.0 0.1585430222
C  C28  1  0.64540000  0.82130000  0.40360000  1.0 0.1585430222
C  C29  1  0.32570000  0.11640000  0.47930000  1.0 -0.0864535802
C  C30  1  0.67430000  0.88360000  0.52070000  1.0 -0.0864535802
C  C31  1  0.32060000  0.98360000  0.45310000  1.0 0.1893663137
C  C32  1  0.67940000  0.01640000  0.54690000  1.0 0.1893663137
C  C33  1  0.28800000  0.87030000  0.33620000  1.0 -0.4705449277
C  C34  1  0.71200000  0.12970000  0.66380000  1.0 -0.4705449277
C  C35  1  0.47730000  0.98560000  0.84150000  1.0 -0.0974016291
C  C36  1  0.52270000  0.01440000  0.15850000  1.0 -0.0974016291
C  C37  1  0.41100000  0.30520000  0.15440000  1.0 -0.1304664322
C  C38  1  0.58900000  0.69480000  0.84560000  1.0 -0.1304664322
C  C39  1  0.34040000  0.64160000  0.46710000  1.0 -0.0974016291
C  C40  1  0.65960000  0.35840000  0.53290000  1.0 -0.0974016291
N  N1  1  0.72220000  0.22650000  0.07250000  1.0 -0.2012292416
N  N2  1  0.27780000  0.77350000  0.92750000  1.0 -0.2012292416
N  N3  1  0.73880000  0.33850000  0.17310000  1.0 -0.1484559596
N  N4  1  0.26120000  0.66150000  0.82690000  1.0 -0.1484559596
N  N5  1  0.15920000  0.22730000  0.30360000  1.0 -0.289637549
N  N6  1  0.84080000  0.77270000  0.69640000  1.0 -0.289637549
N  N7  1  0.36960000  0.09010000  0.64100000  1.0 -0.1484559596
N  N8  1  0.63040000  0.90990000  0.35900000  1.0 -0.1484559596
N  N9  1  0.34630000  0.96820000  0.55060000  1.0 -0.2123737642
N  N10  1  0.65370000  0.03180000  0.44940000  1.0 -0.2123737642
N  N11  1  0.43500000  0.91300000  0.74720000  1.0 -0.3287141704
N  N12  1  0.56500000  0.08700000  0.25280000  1.0 -0.3287141704
N  N13  1  0.46870000  0.25470000  0.08430000  1.0 -0.3079948359
N  N14  1  0.53130000  0.74530000  0.91570000  1.0 -0.3079948359
N  N15  1  0.32650000  0.53800000  0.39370000  1.0 -0.3353148633
N  N16  1  0.67350000  0.46200000  0.60630000  1.0 -0.3353148633
