# DDEC6 charges by PACMAN v1.1 (https://github.com/mtap-research/PACMAN-charge/)
data_BEQJUF_ASR_pacman
_symmetry_space_group_name_H-M   'P 1'
_cell_length_a   13.34030000
_cell_length_b   13.34030000
_cell_length_c   17.08390000
_cell_angle_alpha   77.80230000
_cell_angle_beta   102.19800000
_cell_angle_gamma   74.37370000
_symmetry_Int_Tables_number   1
_chemical_formula_structural   Tb3H14C36(N3O8)2
_chemical_formula_sum   'Tb6 H28 C72 N12 O32'
_cell_volume   2743.21234263
_cell_formula_units_Z   2
loop_
 _symmetry_equiv_pos_site_id
 _symmetry_equiv_pos_as_xyz
  1  'x, y, z'
loop_
 _atom_site_type_symbol
 _atom_site_label
 _atom_site_symmetry_multiplicity
 _atom_site_fract_x
 _atom_site_fract_y
 _atom_site_fract_z
 _atom_site_occupancy
 _atom_site_charge
Tb  Tb1  1  0.49939000  0.12809000  0.40761000  1.0 2.0515802787
Tb  Tb2  1  0.12809000  0.49939000  0.59239000  1.0 2.0515802787
Tb  Tb3  1  0.50061000  0.87191000  0.59239000  1.0 2.0515802787
Tb  Tb4  1  0.87191000  0.50061000  0.40761000  1.0 2.0515802787
Tb  Tb5  1  0.62381000  0.37619000  0.18182000  1.0 2.1137914346
Tb  Tb6  1  0.37619000  0.62381000  0.81818000  1.0 2.1137914346
H  H1  1  0.12040000  0.57020000  0.03020000  1.0 0.2855906771
H  H2  1  0.33080000  0.39240000  0.40250000  1.0 0.1288969549
H  H3  1  0.02220000  0.56700000  0.26830000  1.0 0.1288969549
H  H4  1  0.25270000  0.49450000  0.15050000  1.0 0.1114470796
H  H5  1  0.89740000  0.73580000  0.66430000  1.0 0.1288969549
H  H6  1  0.78630000  0.76570000  0.86220000  1.0 0.1288969549
H  H7  1  0.10310000  0.62150000  0.89660000  1.0 0.1049675406
H  H8  1  0.57020000  0.12040000  0.96980000  1.0 0.2855906771
H  H9  1  0.39240000  0.33080000  0.59750000  1.0 0.1288969549
H  H10  1  0.56700000  0.02220000  0.73170000  1.0 0.1288969549
H  H11  1  0.49450000  0.25270000  0.84950000  1.0 0.1114470796
H  H12  1  0.73580000  0.89740000  0.33570000  1.0 0.1288969549
H  H13  1  0.76570000  0.78630000  0.13780000  1.0 0.1288969549
H  H14  1  0.62150000  0.10310000  0.10340000  1.0 0.1049675406
H  H15  1  0.87960000  0.42980000  0.96980000  1.0 0.2848050282
H  H16  1  0.66920000  0.60760000  0.59750000  1.0 0.1288969549
H  H17  1  0.97780000  0.43300000  0.73170000  1.0 0.1288969549
H  H18  1  0.74730000  0.50550000  0.84950000  1.0 0.1114470796
H  H19  1  0.10260000  0.26420000  0.33570000  1.0 0.1288969549
H  H20  1  0.21370000  0.23430000  0.13780000  1.0 0.1288969549
H  H21  1  0.89690000  0.37850000  0.10340000  1.0 0.1049675406
H  H22  1  0.42980000  0.87960000  0.03020000  1.0 0.2848050282
H  H23  1  0.60760000  0.66920000  0.40250000  1.0 0.1288969549
H  H24  1  0.43300000  0.97780000  0.26830000  1.0 0.1288969549
H  H25  1  0.50550000  0.74730000  0.15050000  1.0 0.1114470796
H  H26  1  0.26420000  0.10260000  0.66430000  1.0 0.1288969549
H  H27  1  0.23430000  0.21370000  0.86220000  1.0 0.1288969549
H  H28  1  0.37850000  0.89690000  0.89660000  1.0 0.1049675406
C  C1  1  0.31050000  0.43190000  0.27650000  1.0 -0.047111467
C  C2  1  0.27940000  0.42880000  0.35100000  1.0 -0.10495034
C  C3  1  0.17170000  0.48030000  0.34710000  1.0 -0.0335347858
C  C4  1  0.09400000  0.53400000  0.27050000  1.0 -0.1198006361
C  C5  1  0.12450000  0.53830000  0.19690000  1.0 0.0054777754
C  C6  1  0.23260000  0.48920000  0.19980000  1.0 -0.1563827446
C  C7  1  0.04380000  0.59680000  0.11490000  1.0 0.2420965419
C  C8  1  0.97020000  0.66220000  0.98590000  1.0 0.2677552314
C  C9  1  0.01580000  0.67340000  0.77430000  1.0 -0.0406724033
C  C10  1  0.91020000  0.72440000  0.72160000  1.0 -0.108297152
C  C11  1  0.82420000  0.75820000  0.75380000  1.0 -0.017481698
C  C12  1  0.84360000  0.74180000  0.84040000  1.0 -0.1257819473
C  C13  1  0.94760000  0.69040000  0.89320000  1.0 -0.0042308434
C  C14  1  0.03320000  0.65620000  0.86080000  1.0 -0.1779946215
C  C15  1  0.42480000  0.37940000  0.28000000  1.0 0.6487808512
C  C16  1  0.14500000  0.47980000  0.42750000  1.0 0.6225940571
C  C17  1  0.10790000  0.63310000  0.74030000  1.0 0.6713370667
C  C18  1  0.71040000  0.81160000  0.69730000  1.0 0.5502019808
C  C19  1  0.43190000  0.31050000  0.72350000  1.0 -0.047111467
C  C20  1  0.42880000  0.27940000  0.64900000  1.0 -0.10495034
C  C21  1  0.48030000  0.17170000  0.65290000  1.0 -0.0335347858
C  C22  1  0.53400000  0.09400000  0.72950000  1.0 -0.1198006361
C  C23  1  0.53830000  0.12450000  0.80310000  1.0 0.0047879373
C  C24  1  0.48920000  0.23260000  0.80020000  1.0 -0.1563827446
C  C25  1  0.59680000  0.04380000  0.88510000  1.0 0.2420965419
C  C26  1  0.66220000  0.97020000  0.01410000  1.0 0.2677552314
C  C27  1  0.67340000  0.01580000  0.22570000  1.0 -0.0406724033
C  C28  1  0.72440000  0.91020000  0.27840000  1.0 -0.108297152
C  C29  1  0.75820000  0.82420000  0.24620000  1.0 -0.017481698
C  C30  1  0.74180000  0.84360000  0.15960000  1.0 -0.1257819473
C  C31  1  0.69040000  0.94760000  0.10680000  1.0 -0.0042308434
C  C32  1  0.65620000  0.03320000  0.13920000  1.0 -0.1779946215
C  C33  1  0.37940000  0.42480000  0.72000000  1.0 0.6487808512
C  C34  1  0.47980000  0.14500000  0.57250000  1.0 0.6225940571
C  C35  1  0.63310000  0.10790000  0.25970000  1.0 0.6713370667
C  C36  1  0.81160000  0.71040000  0.30270000  1.0 0.5502019808
C  C37  1  0.68950000  0.56810000  0.72350000  1.0 -0.047111467
C  C38  1  0.72060000  0.57120000  0.64900000  1.0 -0.10495034
C  C39  1  0.82830000  0.51970000  0.65290000  1.0 -0.0335347858
C  C40  1  0.90600000  0.46600000  0.72950000  1.0 -0.1198006361
C  C41  1  0.87550000  0.46170000  0.80310000  1.0 0.0047879373
C  C42  1  0.76740000  0.51080000  0.80020000  1.0 -0.1563827446
C  C43  1  0.95620000  0.40320000  0.88510000  1.0 0.2420965419
C  C44  1  0.02980000  0.33780000  0.01410000  1.0 0.2677552314
C  C45  1  0.98420000  0.32660000  0.22570000  1.0 -0.0406724033
C  C46  1  0.08980000  0.27560000  0.27840000  1.0 -0.108297152
C  C47  1  0.17580000  0.24180000  0.24620000  1.0 -0.017481698
C  C48  1  0.15640000  0.25820000  0.15960000  1.0 -0.1257819473
C  C49  1  0.05240000  0.30960000  0.10680000  1.0 -0.0042308434
C  C50  1  0.96680000  0.34380000  0.13920000  1.0 -0.1779946215
C  C51  1  0.57520000  0.62060000  0.72000000  1.0 0.6487808512
C  C52  1  0.85500000  0.52020000  0.57250000  1.0 0.6225940571
C  C53  1  0.89210000  0.36690000  0.25970000  1.0 0.6713370667
C  C54  1  0.28960000  0.18840000  0.30270000  1.0 0.5502019808
C  C55  1  0.56810000  0.68950000  0.27650000  1.0 -0.047111467
C  C56  1  0.57120000  0.72060000  0.35100000  1.0 -0.10495034
C  C57  1  0.51970000  0.82830000  0.34710000  1.0 -0.0335347858
C  C58  1  0.46600000  0.90600000  0.27050000  1.0 -0.1198006361
C  C59  1  0.46170000  0.87550000  0.19690000  1.0 0.0047879373
C  C60  1  0.51080000  0.76740000  0.19980000  1.0 -0.1563827446
C  C61  1  0.40320000  0.95620000  0.11490000  1.0 0.2420965419
C  C62  1  0.33780000  0.02980000  0.98590000  1.0 0.2677552314
C  C63  1  0.32660000  0.98420000  0.77430000  1.0 -0.0406724033
C  C64  1  0.27560000  0.08980000  0.72160000  1.0 -0.108297152
C  C65  1  0.24180000  0.17580000  0.75380000  1.0 -0.017481698
C  C66  1  0.25820000  0.15640000  0.84040000  1.0 -0.1257819473
C  C67  1  0.30960000  0.05240000  0.89320000  1.0 -0.0042308434
C  C68  1  0.34380000  0.96680000  0.86080000  1.0 -0.1779946215
C  C69  1  0.62060000  0.57520000  0.28000000  1.0 0.6487808512
C  C70  1  0.52020000  0.85500000  0.42750000  1.0 0.6225940571
C  C71  1  0.36690000  0.89210000  0.74030000  1.0 0.6713370667
C  C72  1  0.18840000  0.28960000  0.69730000  1.0 0.5502019808
N  N1  1  0.94470000  0.65210000  0.10990000  1.0 -0.2443254902
N  N2  1  0.89560000  0.69360000  0.02090000  1.0 -0.2612082078
N  N3  1  0.06100000  0.60140000  0.04010000  1.0 -0.2842098489
N  N4  1  0.65210000  0.94470000  0.89010000  1.0 -0.2443254902
N  N5  1  0.69360000  0.89560000  0.97910000  1.0 -0.2612082078
N  N6  1  0.60140000  0.06100000  0.95990000  1.0 -0.2842098489
N  N7  1  0.05530000  0.34790000  0.89010000  1.0 -0.2443254902
N  N8  1  0.10440000  0.30640000  0.97910000  1.0 -0.2612082078
N  N9  1  0.93900000  0.39860000  0.95990000  1.0 -0.2842098489
N  N10  1  0.34790000  0.05530000  0.10990000  1.0 -0.2443254902
N  N11  1  0.30640000  0.10440000  0.02090000  1.0 -0.2612082078
N  N12  1  0.39860000  0.93900000  0.04010000  1.0 -0.2842098489
O  O1  1  0.45810000  0.41210000  0.22020000  1.0 -0.6485923755
O  O2  1  0.48490000  0.30450000  0.34650000  1.0 -0.6933600469
O  O3  1  0.22120000  0.46120000  0.49200000  1.0 -0.6242675869
O  O4  1  0.04880000  0.49880000  0.43260000  1.0 -0.7642803504
O  O5  1  0.20120000  0.62240000  0.78090000  1.0 -0.7235501124
O  O6  1  0.08510000  0.61250000  0.67190000  1.0 -0.6788537367
O  O7  1  0.69320000  0.82700000  0.61880000  1.0 -0.6485923755
O  O8  1  0.63180000  0.83520000  0.72660000  1.0 -0.6242675869
O  O9  1  0.41210000  0.45810000  0.77980000  1.0 -0.6485923755
O  O10  1  0.30450000  0.48490000  0.65350000  1.0 -0.6933600469
O  O11  1  0.46120000  0.22120000  0.50800000  1.0 -0.6242675869
O  O12  1  0.49880000  0.04880000  0.56740000  1.0 -0.7642803504
O  O13  1  0.62240000  0.20120000  0.21910000  1.0 -0.7235501124
O  O14  1  0.61250000  0.08510000  0.32810000  1.0 -0.6788537367
O  O15  1  0.82700000  0.69320000  0.38120000  1.0 -0.6485923755
O  O16  1  0.83520000  0.63180000  0.27340000  1.0 -0.6242675869
O  O17  1  0.54190000  0.58790000  0.77980000  1.0 -0.6485923755
O  O18  1  0.51510000  0.69550000  0.65350000  1.0 -0.6933600469
O  O19  1  0.77880000  0.53880000  0.50800000  1.0 -0.6242675869
O  O20  1  0.95120000  0.50120000  0.56740000  1.0 -0.7642803504
O  O21  1  0.79880000  0.37760000  0.21910000  1.0 -0.7235501124
O  O22  1  0.91490000  0.38750000  0.32810000  1.0 -0.6788537367
O  O23  1  0.30680000  0.17300000  0.38120000  1.0 -0.6485923755
O  O24  1  0.36820000  0.16480000  0.27340000  1.0 -0.6242675869
O  O25  1  0.58790000  0.54190000  0.22020000  1.0 -0.6552166059
O  O26  1  0.69550000  0.51510000  0.34650000  1.0 -0.6933600469
O  O27  1  0.53880000  0.77880000  0.49200000  1.0 -0.6242675869
O  O28  1  0.50120000  0.95120000  0.43260000  1.0 -0.7642803504
O  O29  1  0.37760000  0.79880000  0.78090000  1.0 -0.7235501124
O  O30  1  0.38750000  0.91490000  0.67190000  1.0 -0.6788537367
O  O31  1  0.17300000  0.30680000  0.61880000  1.0 -0.6485923755
O  O32  1  0.16480000  0.36820000  0.72660000  1.0 -0.6242675869
