# DDEC6 charges by PACMAN v1.1 (https://github.com/mtap-research/PACMAN-charge/)
data_BEQKAM_ASR_pacman
_symmetry_space_group_name_H-M   'P 1'
_cell_length_a   18.54760000
_cell_length_b   18.54760000
_cell_length_c   18.54760000
_cell_angle_alpha   100.59900000
_cell_angle_beta   100.59900000
_cell_angle_gamma   100.59900000
_symmetry_Int_Tables_number   1
_chemical_formula_structural   Zn7H11C33O25
_chemical_formula_sum   'Zn21 H33 C99 O75'
_cell_volume   6006.12659700
_cell_formula_units_Z   3
loop_
 _symmetry_equiv_pos_site_id
 _symmetry_equiv_pos_as_xyz
  1  'x, y, z'
loop_
 _atom_site_type_symbol
 _atom_site_label
 _atom_site_symmetry_multiplicity
 _atom_site_fract_x
 _atom_site_fract_y
 _atom_site_fract_z
 _atom_site_occupancy
 _atom_site_charge
Zn  Zn1  1  0.61117000  0.43556000  0.82646000  1.0 0.9332349753
Zn  Zn2  1  0.73557000  0.39916000  0.74404000  1.0 0.9389990226
Zn  Zn3  1  0.69201000  0.30763000  0.86464000  1.0 0.9628440793
Zn  Zn4  1  0.78276000  0.48389000  0.92187000  1.0 1.0207449055
Zn  Zn5  1  0.28526000  0.45253000  0.06328000  1.0 0.9628440793
Zn  Zn6  1  0.15431000  0.48906000  0.13790000  1.0 0.9734620905
Zn  Zn7  1  0.33676000  0.61148000  0.20083000  1.0 0.9628440793
Zn  Zn8  1  0.43556000  0.82646000  0.61117000  1.0 0.9332349753
Zn  Zn9  1  0.39916000  0.74404000  0.73557000  1.0 0.9389990226
Zn  Zn10  1  0.30763000  0.86464000  0.69201000  1.0 0.9628440793
Zn  Zn11  1  0.48389000  0.92187000  0.78276000  1.0 1.0207449055
Zn  Zn12  1  0.45253000  0.06328000  0.28526000  1.0 0.9628440793
Zn  Zn13  1  0.48906000  0.13790000  0.15431000  1.0 0.9734620905
Zn  Zn14  1  0.61148000  0.20083000  0.33676000  1.0 0.9628440793
Zn  Zn15  1  0.82646000  0.61117000  0.43556000  1.0 0.9332349753
Zn  Zn16  1  0.74404000  0.73557000  0.39916000  1.0 0.9389990226
Zn  Zn17  1  0.86464000  0.69201000  0.30763000  1.0 0.9628440793
Zn  Zn18  1  0.92187000  0.78276000  0.48389000  1.0 1.0207449055
Zn  Zn19  1  0.06328000  0.28526000  0.45253000  1.0 0.9628440793
Zn  Zn20  1  0.13790000  0.15431000  0.48906000  1.0 0.9734620905
Zn  Zn21  1  0.20083000  0.33676000  0.61148000  1.0 0.9628440793
H  H1  1  0.18282000  0.34255000  0.28843000  1.0 0.1220012462
H  H2  1  0.54914000  0.59876000  0.70942000  1.0 0.1290689542
H  H3  1  0.79894000  0.48862000  0.14196000  1.0 0.1290689542
H  H4  1  0.65130000  0.29093000  0.08090000  1.0 0.1290689542
H  H5  1  0.71533000  0.61023000  0.10103000  1.0 0.1220012462
H  H6  1  0.70865000  0.39717000  0.29378000  1.0 0.1290689542
H  H7  1  0.55486000  0.61715000  0.21814000  1.0 0.1290689542
H  H8  1  0.50179000  0.50449000  0.00274000  1.0 0.1290689542
H  H9  1  0.00090000  0.44129000  0.93836000  1.0 0.1220012462
H  H10  1  0.94800000  0.35433000  0.71365000  1.0 0.1220012462
H  H11  1  0.15808000  0.37851000  0.83305000  1.0 0.1290689542
H  H12  1  0.34255000  0.28843000  0.18282000  1.0 0.1220012462
H  H13  1  0.59876000  0.70942000  0.54914000  1.0 0.1290689542
H  H14  1  0.48862000  0.14196000  0.79894000  1.0 0.1290689542
H  H15  1  0.29093000  0.08090000  0.65130000  1.0 0.1290689542
H  H16  1  0.61023000  0.10103000  0.71533000  1.0 0.1220012462
H  H17  1  0.39717000  0.29378000  0.70865000  1.0 0.1290689542
H  H18  1  0.61715000  0.21814000  0.55486000  1.0 0.1290689542
H  H19  1  0.50449000  0.00274000  0.50179000  1.0 0.1290689542
H  H20  1  0.44129000  0.93836000  0.00090000  1.0 0.1220012462
H  H21  1  0.35433000  0.71365000  0.94800000  1.0 0.1220012462
H  H22  1  0.37851000  0.83305000  0.15808000  1.0 0.1290689542
H  H23  1  0.28843000  0.18282000  0.34255000  1.0 0.1220012462
H  H24  1  0.70942000  0.54914000  0.59876000  1.0 0.1290689542
H  H25  1  0.14196000  0.79894000  0.48862000  1.0 0.1290689542
H  H26  1  0.08090000  0.65130000  0.29093000  1.0 0.1290689542
H  H27  1  0.10103000  0.71533000  0.61023000  1.0 0.1220012462
H  H28  1  0.29378000  0.70865000  0.39717000  1.0 0.1290689542
H  H29  1  0.21814000  0.55486000  0.61715000  1.0 0.1290689542
H  H30  1  0.00274000  0.50179000  0.50449000  1.0 0.1290689542
H  H31  1  0.93836000  0.00090000  0.44129000  1.0 0.1220012462
H  H32  1  0.71365000  0.94800000  0.35433000  1.0 0.1220012462
H  H33  1  0.83305000  0.15808000  0.37851000  1.0 0.1290689542
C  C1  1  0.21640000  0.31210000  0.27950000  1.0 -0.0690923451
C  C2  1  0.57640000  0.60670000  0.67320000  1.0 -0.1072580436
C  C3  1  0.76840000  0.44900000  0.15400000  1.0 -0.0882507801
C  C4  1  0.63120000  0.56510000  0.65910000  1.0 -0.0210890054
C  C5  1  0.64480000  0.50370000  0.70300000  1.0 0.5913122416
C  C6  1  0.24140000  0.37380000  0.17720000  1.0 0.5913122416
C  C7  1  0.72970000  0.38360000  0.09760000  1.0 -0.0496408834
C  C8  1  0.61220000  0.55110000  0.04370000  1.0 -0.0496408834
C  C9  1  0.68160000  0.33080000  0.11870000  1.0 -0.1015114356
C  C10  1  0.64550000  0.61830000  0.17360000  1.0 -0.0627276736
C  C11  1  0.66580000  0.59550000  0.10500000  1.0 -0.0801212358
C  C12  1  0.96080000  0.40040000  0.82480000  1.0 -0.0690923451
C  C13  1  0.63540000  0.52600000  0.97240000  1.0 0.5913122416
C  C14  1  0.71290000  0.39310000  0.24410000  1.0 -0.1015114356
C  C15  1  0.70070000  0.66490000  0.24040000  1.0 0.5913122416
C  C16  1  0.56990000  0.59970000  0.17420000  1.0 -0.0801212358
C  C17  1  0.53750000  0.53260000  0.04540000  1.0 -0.0882507801
C  C18  1  0.76020000  0.45260000  0.22460000  1.0 -0.0210890054
C  C19  1  0.51650000  0.55690000  0.11290000  1.0 -0.041850014
C  C20  1  0.73750000  0.37950000  0.01920000  1.0 0.5913122416
C  C21  1  0.43590000  0.53830000  0.11670000  1.0 0.6000373936
C  C22  1  0.01380000  0.41960000  0.89450000  1.0 -0.0801212358
C  C23  1  0.98240000  0.36810000  0.75990000  1.0 -0.0801212358
C  C24  1  0.61640000  0.27290000  0.21060000  1.0 0.5913122416
C  C25  1  0.05460000  0.35620000  0.76410000  1.0 -0.0210890054
C  C26  1  0.08600000  0.40570000  0.89710000  1.0 -0.0801212358
C  C27  1  0.79630000  0.52210000  0.29060000  1.0 0.5788062072
C  C28  1  0.67390000  0.33130000  0.19190000  1.0 -0.041850014
C  C29  1  0.88760000  0.42020000  0.81940000  1.0 0.5913122416
C  C30  1  0.13960000  0.41740000  0.96860000  1.0 0.5913122416
C  C31  1  0.07990000  0.31870000  0.69470000  1.0 0.5557164606
C  C32  1  0.10800000  0.38000000  0.83180000  1.0 -0.0882507801
C  C33  1  0.25730000  0.32100000  0.22550000  1.0 -0.0627276736
C  C34  1  0.31210000  0.27950000  0.21640000  1.0 -0.0690923451
C  C35  1  0.60670000  0.67320000  0.57640000  1.0 -0.1072580436
C  C36  1  0.44900000  0.15400000  0.76840000  1.0 -0.0882507801
C  C37  1  0.56510000  0.65910000  0.63120000  1.0 -0.0210890054
C  C38  1  0.50370000  0.70300000  0.64480000  1.0 0.5913122416
C  C39  1  0.37380000  0.17720000  0.24140000  1.0 0.5913122416
C  C40  1  0.38360000  0.09760000  0.72970000  1.0 -0.0496408834
C  C41  1  0.55110000  0.04370000  0.61220000  1.0 -0.0496408834
C  C42  1  0.33080000  0.11870000  0.68160000  1.0 -0.1015114356
C  C43  1  0.61830000  0.17360000  0.64550000  1.0 -0.0627276736
C  C44  1  0.59550000  0.10500000  0.66580000  1.0 -0.0801212358
C  C45  1  0.40040000  0.82480000  0.96080000  1.0 -0.0690923451
C  C46  1  0.52600000  0.97240000  0.63540000  1.0 0.5913122416
C  C47  1  0.39310000  0.24410000  0.71290000  1.0 -0.1015114356
C  C48  1  0.66490000  0.24040000  0.70070000  1.0 0.5913122416
C  C49  1  0.59970000  0.17420000  0.56990000  1.0 -0.0801212358
C  C50  1  0.53260000  0.04540000  0.53750000  1.0 -0.0882507801
C  C51  1  0.45260000  0.22460000  0.76020000  1.0 -0.0210890054
C  C52  1  0.55690000  0.11290000  0.51650000  1.0 -0.041850014
C  C53  1  0.37950000  0.01920000  0.73750000  1.0 0.5913122416
C  C54  1  0.53830000  0.11670000  0.43590000  1.0 0.6000373936
C  C55  1  0.41960000  0.89450000  0.01380000  1.0 -0.0801212358
C  C56  1  0.36810000  0.75990000  0.98240000  1.0 -0.0882507801
C  C57  1  0.27290000  0.21060000  0.61640000  1.0 0.5913122416
C  C58  1  0.35620000  0.76410000  0.05460000  1.0 -0.0210890054
C  C59  1  0.40570000  0.89710000  0.08600000  1.0 -0.0801212358
C  C60  1  0.52210000  0.29060000  0.79630000  1.0 0.5788062072
C  C61  1  0.33130000  0.19190000  0.67390000  1.0 -0.041850014
C  C62  1  0.42020000  0.81940000  0.88760000  1.0 0.5913122416
C  C63  1  0.41740000  0.96860000  0.13960000  1.0 0.6000373936
C  C64  1  0.31870000  0.69470000  0.07990000  1.0 0.5557164606
C  C65  1  0.38000000  0.83180000  0.10800000  1.0 -0.0882507801
C  C66  1  0.32100000  0.22550000  0.25730000  1.0 -0.0627276736
C  C67  1  0.27950000  0.21640000  0.31210000  1.0 -0.0690923451
C  C68  1  0.67320000  0.57640000  0.60670000  1.0 -0.1072580436
C  C69  1  0.15400000  0.76840000  0.44900000  1.0 -0.0882507801
C  C70  1  0.65910000  0.63120000  0.56510000  1.0 -0.0210890054
C  C71  1  0.70300000  0.64480000  0.50370000  1.0 0.5913122416
C  C72  1  0.17720000  0.24140000  0.37380000  1.0 0.6000373936
C  C73  1  0.09760000  0.72970000  0.38360000  1.0 -0.0496408834
C  C74  1  0.04370000  0.61220000  0.55110000  1.0 -0.0496408834
C  C75  1  0.11870000  0.68160000  0.33080000  1.0 -0.1015114356
C  C76  1  0.17360000  0.64550000  0.61830000  1.0 -0.0627276736
C  C77  1  0.10500000  0.66580000  0.59550000  1.0 -0.0801212358
C  C78  1  0.82480000  0.96080000  0.40040000  1.0 -0.0690923451
C  C79  1  0.97240000  0.63540000  0.52600000  1.0 0.5913122416
C  C80  1  0.24410000  0.71290000  0.39310000  1.0 -0.1015114356
C  C81  1  0.24040000  0.70070000  0.66490000  1.0 0.5913122416
C  C82  1  0.17420000  0.56990000  0.59970000  1.0 -0.0801212358
C  C83  1  0.04540000  0.53750000  0.53260000  1.0 -0.0882507801
C  C84  1  0.22460000  0.76020000  0.45260000  1.0 -0.0210890054
C  C85  1  0.11290000  0.51650000  0.55690000  1.0 -0.041850014
C  C86  1  0.01920000  0.73750000  0.37950000  1.0 0.5913122416
C  C87  1  0.11670000  0.43590000  0.53830000  1.0 0.6000373936
C  C88  1  0.89450000  0.01380000  0.41960000  1.0 -0.0801212358
C  C89  1  0.75990000  0.98240000  0.36810000  1.0 -0.0882507801
C  C90  1  0.21060000  0.61640000  0.27290000  1.0 0.5913122416
C  C91  1  0.76410000  0.05460000  0.35620000  1.0 -0.0210890054
C  C92  1  0.89710000  0.08600000  0.40570000  1.0 -0.0801212358
C  C93  1  0.29060000  0.79630000  0.52210000  1.0 0.5788062072
C  C94  1  0.19190000  0.67390000  0.33130000  1.0 -0.041850014
C  C95  1  0.81940000  0.88760000  0.42020000  1.0 0.5913122416
C  C96  1  0.96860000  0.13960000  0.41740000  1.0 0.5913122416
C  C97  1  0.69470000  0.07990000  0.31870000  1.0 0.5557164606
C  C98  1  0.83180000  0.10800000  0.38000000  1.0 -0.0882507801
C  C99  1  0.22550000  0.25730000  0.32100000  1.0 -0.0627276736
O  O1  1  0.70790000  0.40820000  0.83950000  1.0 -1.0362378105
O  O2  1  0.69400000  0.47040000  0.68980000  1.0 -0.517258718
O  O3  1  0.60540000  0.49900000  0.75370000  1.0 -0.5510947318
O  O4  1  0.41720000  0.56180000  0.17820000  1.0 -0.5599758371
O  O5  1  0.84080000  0.39550000  0.75650000  1.0 -0.537428943
O  O6  1  0.19440000  0.41290000  0.18750000  1.0 -0.5510947318
O  O7  1  0.28460000  0.38210000  0.12930000  1.0 -0.5699377799
O  O8  1  0.77800000  0.52700000  0.35110000  1.0 -0.509117265
O  O9  1  0.68090000  0.67660000  0.30190000  1.0 -0.5322634522
O  O10  1  0.58480000  0.48380000  0.91550000  1.0 -0.537428943
O  O11  1  0.70360000  0.54000000  0.96760000  1.0 -0.5823541228
O  O12  1  0.38820000  0.49390000  0.05820000  1.0 -0.5322634522
O  O13  1  0.76750000  0.68580000  0.23310000  1.0 -0.5599758371
O  O14  1  0.78880000  0.42840000  0.00540000  1.0 -0.5699377799
O  O15  1  0.19400000  0.60080000  0.10230000  1.0 0.5913122416
O  O16  1  0.20730000  0.42170000  0.97070000  1.0 -0.5010344132
O  O17  1  0.25160000  0.53360000  0.11730000  1.0 -0.7270895584
O  O18  1  0.84300000  0.57130000  0.27330000  1.0 -0.5510947318
O  O19  1  0.62410000  0.27250000  0.27740000  1.0 -0.509117265
O  O20  1  0.69650000  0.32630000  0.97270000  1.0 -0.5010344132
O  O21  1  0.57620000  0.22240000  0.16030000  1.0 -0.5322634522
O  O22  1  0.14760000  0.34100000  0.69710000  1.0 -0.5599758371
O  O23  1  0.87250000  0.44590000  0.88260000  1.0 -0.5823541228
O  O24  1  0.11670000  0.43890000  0.02760000  1.0 -0.5699377799
O  O25  1  0.03310000  0.27270000  0.64440000  1.0 -0.537428943
O  O26  1  0.40820000  0.83950000  0.70790000  1.0 -1.0362378105
O  O27  1  0.47040000  0.68980000  0.69400000  1.0 -0.517258718
O  O28  1  0.49900000  0.75370000  0.60540000  1.0 -0.5510947318
O  O29  1  0.56180000  0.17820000  0.41720000  1.0 -0.5599758371
O  O30  1  0.39550000  0.75650000  0.84080000  1.0 -0.537428943
O  O31  1  0.41290000  0.18750000  0.19440000  1.0 -0.5510947318
O  O32  1  0.38210000  0.12930000  0.28460000  1.0 -0.5699377799
O  O33  1  0.52700000  0.35110000  0.77800000  1.0 -0.509117265
O  O34  1  0.67660000  0.30190000  0.68090000  1.0 -0.5322634522
O  O35  1  0.48380000  0.91550000  0.58480000  1.0 -0.537428943
O  O36  1  0.54000000  0.96760000  0.70360000  1.0 -0.5823541228
O  O37  1  0.49390000  0.05820000  0.38820000  1.0 -0.5322634522
O  O38  1  0.68580000  0.23310000  0.76750000  1.0 -0.5599758371
O  O39  1  0.42840000  0.00540000  0.78880000  1.0 -0.5699377799
O  O40  1  0.60080000  0.10230000  0.19400000  1.0 0.5913122416
O  O41  1  0.42170000  0.97070000  0.20730000  1.0 -0.5010344132
O  O42  1  0.53360000  0.11730000  0.25160000  1.0 -0.7270895584
O  O43  1  0.57130000  0.27330000  0.84300000  1.0 -0.5510947318
O  O44  1  0.27250000  0.27740000  0.62410000  1.0 -0.509117265
O  O45  1  0.32630000  0.97270000  0.69650000  1.0 -0.5010344132
O  O46  1  0.22240000  0.16030000  0.57620000  1.0 -0.5322634522
O  O47  1  0.34100000  0.69710000  0.14760000  1.0 -0.5599758371
O  O48  1  0.44590000  0.88260000  0.87250000  1.0 -0.5823541228
O  O49  1  0.43890000  0.02760000  0.11670000  1.0 -0.5699377799
O  O50  1  0.27270000  0.64440000  0.03310000  1.0 -0.537428943
O  O51  1  0.83950000  0.70790000  0.40820000  1.0 -1.0362378105
O  O52  1  0.68980000  0.69400000  0.47040000  1.0 -0.517258718
O  O53  1  0.75370000  0.60540000  0.49900000  1.0 -0.5510947318
O  O54  1  0.17820000  0.41720000  0.56180000  1.0 -0.5599758371
O  O55  1  0.75650000  0.84080000  0.39550000  1.0 -0.537428943
O  O56  1  0.18750000  0.19440000  0.41290000  1.0 -0.5510947318
O  O57  1  0.12930000  0.28460000  0.38210000  1.0 -0.5699377799
O  O58  1  0.35110000  0.77800000  0.52700000  1.0 -0.509117265
O  O59  1  0.30190000  0.68090000  0.67660000  1.0 -0.5322634522
O  O60  1  0.91550000  0.58480000  0.48380000  1.0 -0.537428943
O  O61  1  0.96760000  0.70360000  0.54000000  1.0 -0.5823541228
O  O62  1  0.05820000  0.38820000  0.49390000  1.0 -0.5322634522
O  O63  1  0.23310000  0.76750000  0.68580000  1.0 -0.5599758371
O  O64  1  0.00540000  0.78880000  0.42840000  1.0 -0.5699377799
O  O65  1  0.10230000  0.19400000  0.60080000  1.0 0.5913122416
O  O66  1  0.97070000  0.20730000  0.42170000  1.0 -0.5010344132
O  O67  1  0.11730000  0.25160000  0.53360000  1.0 -0.7270895584
O  O68  1  0.27330000  0.84300000  0.57130000  1.0 -0.5510947318
O  O69  1  0.27740000  0.62410000  0.27250000  1.0 -0.509117265
O  O70  1  0.97270000  0.69650000  0.32630000  1.0 -0.5010344132
O  O71  1  0.16030000  0.57620000  0.22240000  1.0 -0.5322634522
O  O72  1  0.69710000  0.14760000  0.34100000  1.0 -0.5599758371
O  O73  1  0.88260000  0.87250000  0.44590000  1.0 -0.5823541228
O  O74  1  0.02760000  0.11670000  0.43890000  1.0 -0.5699377799
O  O75  1  0.64440000  0.03310000  0.27270000  1.0 -0.537428943
