# DDEC6 charges by PACMAN v1.1 (https://github.com/mtap-research/PACMAN-charge/)
data_BERGAI_FSR_pacman
_symmetry_space_group_name_H-M   'P 1'
_cell_length_a   12.70000000
_cell_length_b   12.70000000
_cell_length_c   25.36400000
_cell_angle_alpha   90.00000000
_cell_angle_beta   90.00000000
_cell_angle_gamma   90.00000000
_symmetry_Int_Tables_number   1
_chemical_formula_structural   ZnH5C6(N2O)2
_chemical_formula_sum   'Zn16 H80 C96 N64 O32'
_cell_volume   4090.95956000
_cell_formula_units_Z   16
loop_
 _symmetry_equiv_pos_site_id
 _symmetry_equiv_pos_as_xyz
  1  'x, y, z'
loop_
 _atom_site_type_symbol
 _atom_site_label
 _atom_site_symmetry_multiplicity
 _atom_site_fract_x
 _atom_site_fract_y
 _atom_site_fract_z
 _atom_site_occupancy
 _atom_site_charge
Zn  Zn1  1  0.71145000  0.81926000  0.31247000  1.0 0.6970883759
Zn  Zn2  1  0.28855000  0.18074000  0.31247000  1.0 0.6970883759
Zn  Zn3  1  0.18074000  0.71145000  0.31247000  1.0 0.6970883759
Zn  Zn4  1  0.81926000  0.28855000  0.31247000  1.0 0.6970883759
Zn  Zn5  1  0.28855000  0.81926000  0.68753000  1.0 0.6970883759
Zn  Zn6  1  0.71145000  0.18074000  0.68753000  1.0 0.6970883759
Zn  Zn7  1  0.81926000  0.71145000  0.68753000  1.0 0.6970883759
Zn  Zn8  1  0.18074000  0.28855000  0.68753000  1.0 0.6970883759
Zn  Zn9  1  0.78855000  0.68074000  0.18753000  1.0 0.6970883759
Zn  Zn10  1  0.21145000  0.31926000  0.18753000  1.0 0.6970883759
Zn  Zn11  1  0.31926000  0.78855000  0.18753000  1.0 0.6970883759
Zn  Zn12  1  0.68074000  0.21145000  0.18753000  1.0 0.6970883759
Zn  Zn13  1  0.21145000  0.68074000  0.81247000  1.0 0.6970883759
Zn  Zn14  1  0.78855000  0.31926000  0.81247000  1.0 0.6970883759
Zn  Zn15  1  0.68074000  0.78855000  0.81247000  1.0 0.6970883759
Zn  Zn16  1  0.31926000  0.21145000  0.81247000  1.0 0.6970883759
H  H1  1  0.47330000  0.81030000  0.28130000  1.0 0.1219681206
H  H2  1  0.52670000  0.18970000  0.28130000  1.0 0.1219681206
H  H3  1  0.18970000  0.47330000  0.28130000  1.0 0.1219681206
H  H4  1  0.81030000  0.52670000  0.28130000  1.0 0.1219681206
H  H5  1  0.52670000  0.81030000  0.71870000  1.0 0.1219681206
H  H6  1  0.47330000  0.18970000  0.71870000  1.0 0.1219681206
H  H7  1  0.81030000  0.47330000  0.71870000  1.0 0.1219681206
H  H8  1  0.18970000  0.52670000  0.71870000  1.0 0.1219681206
H  H9  1  0.02670000  0.68970000  0.21870000  1.0 0.1219681206
H  H10  1  0.97330000  0.31030000  0.21870000  1.0 0.1219681206
H  H11  1  0.31030000  0.02670000  0.21870000  1.0 0.1219681206
H  H12  1  0.68970000  0.97330000  0.21870000  1.0 0.1219681206
H  H13  1  0.97330000  0.68970000  0.78130000  1.0 0.1219681206
H  H14  1  0.02670000  0.31030000  0.78130000  1.0 0.1219681206
H  H15  1  0.68970000  0.02670000  0.78130000  1.0 0.1219681206
H  H16  1  0.31030000  0.97330000  0.78130000  1.0 0.1219681206
H  H17  1  0.67870000  0.82300000  0.51260000  1.0 0.1219681206
H  H18  1  0.32130000  0.17700000  0.51260000  1.0 0.1219681206
H  H19  1  0.17700000  0.67870000  0.51260000  1.0 0.1219681206
H  H20  1  0.82300000  0.32130000  0.51260000  1.0 0.1219681206
H  H21  1  0.32130000  0.82300000  0.48740000  1.0 0.1219681206
H  H22  1  0.67870000  0.17700000  0.48740000  1.0 0.1219681206
H  H23  1  0.82300000  0.67870000  0.48740000  1.0 0.1219681206
H  H24  1  0.17700000  0.32130000  0.48740000  1.0 0.1219681206
H  H25  1  0.82130000  0.67700000  0.98740000  1.0 0.1219681206
H  H26  1  0.17870000  0.32300000  0.98740000  1.0 0.1219681206
H  H27  1  0.32300000  0.82130000  0.98740000  1.0 0.1219681206
H  H28  1  0.67700000  0.17870000  0.98740000  1.0 0.1219681206
H  H29  1  0.17870000  0.67700000  0.01260000  1.0 0.1219681206
H  H30  1  0.82130000  0.32300000  0.01260000  1.0 0.1219681206
H  H31  1  0.67700000  0.82130000  0.01260000  1.0 0.1219681206
H  H32  1  0.32300000  0.17870000  0.01260000  1.0 0.1219681206
H  H33  1  0.56640000  0.81830000  0.58440000  1.0 0.1219681206
H  H34  1  0.43360000  0.18170000  0.58440000  1.0 0.1219681206
H  H35  1  0.18170000  0.56640000  0.58440000  1.0 0.1219681206
H  H36  1  0.81830000  0.43360000  0.58440000  1.0 0.1219681206
H  H37  1  0.43360000  0.81830000  0.41560000  1.0 0.1219681206
H  H38  1  0.56640000  0.18170000  0.41560000  1.0 0.1219681206
H  H39  1  0.81830000  0.56640000  0.41560000  1.0 0.1219681206
H  H40  1  0.18170000  0.43360000  0.41560000  1.0 0.1219681206
H  H41  1  0.93360000  0.68170000  0.91560000  1.0 0.1219681206
H  H42  1  0.06640000  0.31830000  0.91560000  1.0 0.1219681206
H  H43  1  0.31830000  0.93360000  0.91560000  1.0 0.1219681206
H  H44  1  0.68170000  0.06640000  0.91560000  1.0 0.1219681206
H  H45  1  0.06640000  0.68170000  0.08440000  1.0 0.1219681206
H  H46  1  0.93360000  0.31830000  0.08440000  1.0 0.1219681206
H  H47  1  0.68170000  0.93360000  0.08440000  1.0 0.1219681206
H  H48  1  0.31830000  0.06640000  0.08440000  1.0 0.1219681206
H  H49  1  0.49400000  0.71770000  0.10430000  1.0 0.3302181486
H  H50  1  0.50600000  0.28230000  0.10430000  1.0 0.3302181486
H  H51  1  0.28230000  0.49400000  0.10430000  1.0 0.3302181486
H  H52  1  0.71770000  0.50600000  0.10430000  1.0 0.3302181486
H  H53  1  0.50600000  0.71770000  0.89570000  1.0 0.3302181486
H  H54  1  0.49400000  0.28230000  0.89570000  1.0 0.3302181486
H  H55  1  0.71770000  0.49400000  0.89570000  1.0 0.3302181486
H  H56  1  0.28230000  0.50600000  0.89570000  1.0 0.3302181486
H  H57  1  0.00600000  0.78230000  0.39570000  1.0 0.3302181486
H  H58  1  0.99400000  0.21770000  0.39570000  1.0 0.3302181486
H  H59  1  0.21770000  0.00600000  0.39570000  1.0 0.3302181486
H  H60  1  0.78230000  0.99400000  0.39570000  1.0 0.3302181486
H  H61  1  0.99400000  0.78230000  0.60430000  1.0 0.3302181486
H  H62  1  0.00600000  0.21770000  0.60430000  1.0 0.3302181486
H  H63  1  0.78230000  0.00600000  0.60430000  1.0 0.3302181486
H  H64  1  0.21770000  0.99400000  0.60430000  1.0 0.3302181486
H  H65  1  0.61050000  0.70510000  0.10260000  1.0 0.3302181486
H  H66  1  0.38950000  0.29490000  0.10260000  1.0 0.3302181486
H  H67  1  0.29490000  0.61050000  0.10260000  1.0 0.3302181486
H  H68  1  0.70510000  0.38950000  0.10260000  1.0 0.3302181486
H  H69  1  0.38950000  0.70510000  0.89740000  1.0 0.3302181486
H  H70  1  0.61050000  0.29490000  0.89740000  1.0 0.3302181486
H  H71  1  0.70510000  0.61050000  0.89740000  1.0 0.3302181486
H  H72  1  0.29490000  0.38950000  0.89740000  1.0 0.3302181486
H  H73  1  0.88950000  0.79490000  0.39740000  1.0 0.3302181486
H  H74  1  0.11050000  0.20510000  0.39740000  1.0 0.3302181486
H  H75  1  0.20510000  0.88950000  0.39740000  1.0 0.3302181486
H  H76  1  0.79490000  0.11050000  0.39740000  1.0 0.3302181486
H  H77  1  0.11050000  0.79490000  0.60260000  1.0 0.3302181486
H  H78  1  0.88950000  0.20510000  0.60260000  1.0 0.3302181486
H  H79  1  0.79490000  0.88950000  0.60260000  1.0 0.3302181486
H  H80  1  0.20510000  0.11050000  0.60260000  1.0 0.3302181486
C  C1  1  0.55960000  0.74540000  0.16755000  1.0 0.5300175103
C  C2  1  0.44040000  0.25460000  0.16755000  1.0 0.5300175103
C  C3  1  0.25460000  0.55960000  0.16755000  1.0 0.5300175103
C  C4  1  0.74540000  0.44040000  0.16755000  1.0 0.5300175103
C  C5  1  0.44040000  0.74540000  0.83245000  1.0 0.5300175103
C  C6  1  0.55960000  0.25460000  0.83245000  1.0 0.5300175103
C  C7  1  0.74540000  0.55960000  0.83245000  1.0 0.5300175103
C  C8  1  0.25460000  0.44040000  0.83245000  1.0 0.5300175103
C  C9  1  0.94040000  0.75460000  0.33245000  1.0 0.5300175103
C  C10  1  0.05960000  0.24540000  0.33245000  1.0 0.5300175103
C  C11  1  0.24540000  0.94040000  0.33245000  1.0 0.5300175103
C  C12  1  0.75460000  0.05960000  0.33245000  1.0 0.5300175103
C  C13  1  0.05960000  0.75460000  0.66755000  1.0 0.5300175103
C  C14  1  0.94040000  0.24540000  0.66755000  1.0 0.5300175103
C  C15  1  0.75460000  0.94040000  0.66755000  1.0 0.5300175103
C  C16  1  0.24540000  0.05960000  0.66755000  1.0 0.5300175103
C  C17  1  0.51300000  0.79140000  0.25199000  1.0 0.1272486451
C  C18  1  0.48700000  0.20860000  0.25199000  1.0 0.1272486451
C  C19  1  0.20860000  0.51300000  0.25199000  1.0 0.1272486451
C  C20  1  0.79140000  0.48700000  0.25199000  1.0 0.1272486451
C  C21  1  0.48700000  0.79140000  0.74801000  1.0 0.1272486451
C  C22  1  0.51300000  0.20860000  0.74801000  1.0 0.1272486451
C  C23  1  0.79140000  0.51300000  0.74801000  1.0 0.1272486451
C  C24  1  0.20860000  0.48700000  0.74801000  1.0 0.1272486451
C  C25  1  0.98700000  0.70860000  0.24801000  1.0 0.1272486451
C  C26  1  0.01300000  0.29140000  0.24801000  1.0 0.1272486451
C  C27  1  0.29140000  0.98700000  0.24801000  1.0 0.1272486451
C  C28  1  0.70860000  0.01300000  0.24801000  1.0 0.1272486451
C  C29  1  0.01300000  0.70860000  0.75199000  1.0 0.1272486451
C  C30  1  0.98700000  0.29140000  0.75199000  1.0 0.1272486451
C  C31  1  0.70860000  0.98700000  0.75199000  1.0 0.1272486451
C  C32  1  0.29140000  0.01300000  0.75199000  1.0 0.1272486451
C  C33  1  0.56800000  0.81940000  0.45730000  1.0 -0.0121766602
C  C34  1  0.43200000  0.18060000  0.45730000  1.0 -0.0121766602
C  C35  1  0.18060000  0.56800000  0.45730000  1.0 -0.0121766602
C  C36  1  0.81940000  0.43200000  0.45730000  1.0 -0.0121766602
C  C37  1  0.43200000  0.81940000  0.54270000  1.0 -0.0121766602
C  C38  1  0.56800000  0.18060000  0.54270000  1.0 -0.0121766602
C  C39  1  0.81940000  0.56800000  0.54270000  1.0 -0.0121766602
C  C40  1  0.18060000  0.43200000  0.54270000  1.0 -0.0121766602
C  C41  1  0.93200000  0.68060000  0.04270000  1.0 -0.0121766602
C  C42  1  0.06800000  0.31940000  0.04270000  1.0 -0.0121766602
C  C43  1  0.31940000  0.93200000  0.04270000  1.0 -0.0121766602
C  C44  1  0.68060000  0.06800000  0.04270000  1.0 -0.0121766602
C  C45  1  0.06800000  0.68060000  0.95730000  1.0 -0.0121766602
C  C46  1  0.93200000  0.31940000  0.95730000  1.0 -0.0121766602
C  C47  1  0.68060000  0.93200000  0.95730000  1.0 -0.0121766602
C  C48  1  0.31940000  0.06800000  0.95730000  1.0 -0.0121766602
C  C49  1  0.60630000  0.82090000  0.50720000  1.0 -0.1017983372
C  C50  1  0.39370000  0.17910000  0.50720000  1.0 -0.1017983372
C  C51  1  0.17910000  0.60630000  0.50720000  1.0 -0.1017983372
C  C52  1  0.82090000  0.39370000  0.50720000  1.0 -0.1017983372
C  C53  1  0.39370000  0.82090000  0.49280000  1.0 -0.1017983372
C  C54  1  0.60630000  0.17910000  0.49280000  1.0 -0.1017983372
C  C55  1  0.82090000  0.60630000  0.49280000  1.0 -0.1017983372
C  C56  1  0.17910000  0.39370000  0.49280000  1.0 -0.1017983372
C  C57  1  0.89370000  0.67910000  0.99280000  1.0 -0.1017983372
C  C58  1  0.10630000  0.32090000  0.99280000  1.0 -0.1017983372
C  C59  1  0.32090000  0.89370000  0.99280000  1.0 -0.1017983372
C  C60  1  0.67910000  0.10630000  0.99280000  1.0 -0.1017983372
C  C61  1  0.10630000  0.67910000  0.00720000  1.0 -0.1017983372
C  C62  1  0.89370000  0.32090000  0.00720000  1.0 -0.1017983372
C  C63  1  0.67910000  0.89370000  0.00720000  1.0 -0.1017983372
C  C64  1  0.32090000  0.10630000  0.00720000  1.0 -0.1017983372
C  C65  1  0.53900000  0.81930000  0.55040000  1.0 -0.1017983372
C  C66  1  0.46100000  0.18070000  0.55040000  1.0 -0.1017983372
C  C67  1  0.18070000  0.53900000  0.55040000  1.0 -0.1017983372
C  C68  1  0.81930000  0.46100000  0.55040000  1.0 -0.1017983372
C  C69  1  0.46100000  0.81930000  0.44960000  1.0 -0.1017983372
C  C70  1  0.53900000  0.18070000  0.44960000  1.0 -0.1017983372
C  C71  1  0.81930000  0.53900000  0.44960000  1.0 -0.1017983372
C  C72  1  0.18070000  0.46100000  0.44960000  1.0 -0.1017983372
C  C73  1  0.96100000  0.68070000  0.94960000  1.0 -0.1017983372
C  C74  1  0.03900000  0.31930000  0.94960000  1.0 -0.1017983372
C  C75  1  0.31930000  0.96100000  0.94960000  1.0 -0.1017983372
C  C76  1  0.68070000  0.03900000  0.94960000  1.0 -0.1017983372
C  C77  1  0.03900000  0.68070000  0.05040000  1.0 -0.1017983372
C  C78  1  0.96100000  0.31930000  0.05040000  1.0 -0.1017983372
C  C79  1  0.68070000  0.96100000  0.05040000  1.0 -0.1017983372
C  C80  1  0.31930000  0.03900000  0.05040000  1.0 -0.1017983372
C  C81  1  0.64250000  0.81890000  0.41120000  1.0 0.5584240111
C  C82  1  0.35750000  0.18110000  0.41120000  1.0 0.5584240111
C  C83  1  0.18110000  0.64250000  0.41120000  1.0 0.5584240111
C  C84  1  0.81890000  0.35750000  0.41120000  1.0 0.5584240111
C  C85  1  0.35750000  0.81890000  0.58880000  1.0 0.5584240111
C  C86  1  0.64250000  0.18110000  0.58880000  1.0 0.5584240111
C  C87  1  0.81890000  0.64250000  0.58880000  1.0 0.5584240111
C  C88  1  0.18110000  0.35750000  0.58880000  1.0 0.5584240111
C  C89  1  0.85750000  0.68110000  0.08880000  1.0 0.5584240111
C  C90  1  0.14250000  0.31890000  0.08880000  1.0 0.5584240111
C  C91  1  0.31890000  0.85750000  0.08880000  1.0 0.5584240111
C  C92  1  0.68110000  0.14250000  0.08880000  1.0 0.5584240111
C  C93  1  0.14250000  0.68110000  0.91120000  1.0 0.5584240111
C  C94  1  0.85750000  0.31890000  0.91120000  1.0 0.5584240111
C  C95  1  0.68110000  0.85750000  0.91120000  1.0 0.5584240111
C  C96  1  0.31890000  0.14250000  0.91120000  1.0 0.5584240111
N  N1  1  0.65260000  0.74840000  0.19860000  1.0 -0.3609643352
N  N2  1  0.34740000  0.25160000  0.19860000  1.0 -0.3609643352
N  N3  1  0.25160000  0.65260000  0.19860000  1.0 -0.3609643352
N  N4  1  0.74840000  0.34740000  0.19860000  1.0 -0.3609643352
N  N5  1  0.34740000  0.74840000  0.80140000  1.0 -0.3609643352
N  N6  1  0.65260000  0.25160000  0.80140000  1.0 -0.3609643352
N  N7  1  0.74840000  0.65260000  0.80140000  1.0 -0.3609643352
N  N8  1  0.25160000  0.34740000  0.80140000  1.0 -0.3609643352
N  N9  1  0.84740000  0.75160000  0.30140000  1.0 -0.3609643352
N  N10  1  0.15260000  0.24840000  0.30140000  1.0 -0.3609643352
N  N11  1  0.24840000  0.84740000  0.30140000  1.0 -0.3609643352
N  N12  1  0.75160000  0.15260000  0.30140000  1.0 -0.3609643352
N  N13  1  0.15260000  0.75160000  0.69860000  1.0 -0.3609643352
N  N14  1  0.84740000  0.24840000  0.69860000  1.0 -0.3609643352
N  N15  1  0.75160000  0.84740000  0.69860000  1.0 -0.3609643352
N  N16  1  0.24840000  0.15260000  0.69860000  1.0 -0.3609643352
N  N17  1  0.62380000  0.77680000  0.25079000  1.0 -0.2248067406
N  N18  1  0.37620000  0.22320000  0.25079000  1.0 -0.2248067406
N  N19  1  0.22320000  0.62380000  0.25079000  1.0 -0.2248067406
N  N20  1  0.77680000  0.37620000  0.25079000  1.0 -0.2248067406
N  N21  1  0.37620000  0.77680000  0.74921000  1.0 -0.2248067406
N  N22  1  0.62380000  0.22320000  0.74921000  1.0 -0.2248067406
N  N23  1  0.77680000  0.62380000  0.74921000  1.0 -0.2248067406
N  N24  1  0.22320000  0.37620000  0.74921000  1.0 -0.2248067406
N  N25  1  0.87620000  0.72320000  0.24921000  1.0 -0.2248067406
N  N26  1  0.12380000  0.27680000  0.24921000  1.0 -0.2248067406
N  N27  1  0.27680000  0.87620000  0.24921000  1.0 -0.2248067406
N  N28  1  0.72320000  0.12380000  0.24921000  1.0 -0.2248067406
N  N29  1  0.12380000  0.72320000  0.75079000  1.0 -0.2248067406
N  N30  1  0.87620000  0.27680000  0.75079000  1.0 -0.2248067406
N  N31  1  0.72320000  0.87620000  0.75079000  1.0 -0.2248067406
N  N32  1  0.27680000  0.12380000  0.75079000  1.0 -0.2248067406
N  N33  1  0.47330000  0.77200000  0.20055000  1.0 -0.4866877792
N  N34  1  0.52670000  0.22800000  0.20055000  1.0 -0.4866877792
N  N35  1  0.22800000  0.47330000  0.20055000  1.0 -0.4866877792
N  N36  1  0.77200000  0.52670000  0.20055000  1.0 -0.4866877792
N  N37  1  0.52670000  0.77200000  0.79945000  1.0 -0.4866877792
N  N38  1  0.47330000  0.22800000  0.79945000  1.0 -0.4866877792
N  N39  1  0.77200000  0.47330000  0.79945000  1.0 -0.4866877792
N  N40  1  0.22800000  0.52670000  0.79945000  1.0 -0.4866877792
N  N41  1  0.02670000  0.72800000  0.29945000  1.0 -0.4866877792
N  N42  1  0.97330000  0.27200000  0.29945000  1.0 -0.4866877792
N  N43  1  0.27200000  0.02670000  0.29945000  1.0 -0.4866877792
N  N44  1  0.72800000  0.97330000  0.29945000  1.0 -0.4866877792
N  N45  1  0.97330000  0.72800000  0.70055000  1.0 -0.4866877792
N  N46  1  0.02670000  0.27200000  0.70055000  1.0 -0.4866877792
N  N47  1  0.72800000  0.02670000  0.70055000  1.0 -0.4866877792
N  N48  1  0.27200000  0.97330000  0.70055000  1.0 -0.4866877792
N  N49  1  0.55410000  0.72010000  0.11980000  1.0 -0.5439810825
N  N50  1  0.44590000  0.27990000  0.11980000  1.0 -0.5439810825
N  N51  1  0.27990000  0.55410000  0.11980000  1.0 -0.5439810825
N  N52  1  0.72010000  0.44590000  0.11980000  1.0 -0.5439810825
N  N53  1  0.44590000  0.72010000  0.88020000  1.0 -0.5439810825
N  N54  1  0.55410000  0.27990000  0.88020000  1.0 -0.5439810825
N  N55  1  0.72010000  0.55410000  0.88020000  1.0 -0.5439810825
N  N56  1  0.27990000  0.44590000  0.88020000  1.0 -0.5439810825
N  N57  1  0.94590000  0.77990000  0.38020000  1.0 -0.5439810825
N  N58  1  0.05410000  0.22010000  0.38020000  1.0 -0.5439810825
N  N59  1  0.22010000  0.94590000  0.38020000  1.0 -0.5439810825
N  N60  1  0.77990000  0.05410000  0.38020000  1.0 -0.5439810825
N  N61  1  0.05410000  0.77990000  0.61980000  1.0 -0.5439810825
N  N62  1  0.94590000  0.22010000  0.61980000  1.0 -0.5439810825
N  N63  1  0.77990000  0.94590000  0.61980000  1.0 -0.5439810825
N  N64  1  0.22010000  0.05410000  0.61980000  1.0 -0.5439810825
O  O1  1  0.60360000  0.80050000  0.36620000  1.0 -0.5248223392
O  O2  1  0.39640000  0.19950000  0.36620000  1.0 -0.5248223392
O  O3  1  0.19950000  0.60360000  0.36620000  1.0 -0.5248223392
O  O4  1  0.80050000  0.39640000  0.36620000  1.0 -0.5248223392
O  O5  1  0.39640000  0.80050000  0.63380000  1.0 -0.5248223392
O  O6  1  0.60360000  0.19950000  0.63380000  1.0 -0.5248223392
O  O7  1  0.80050000  0.60360000  0.63380000  1.0 -0.5248223392
O  O8  1  0.19950000  0.39640000  0.63380000  1.0 -0.5248223392
O  O9  1  0.89640000  0.69950000  0.13380000  1.0 -0.5248223392
O  O10  1  0.10360000  0.30050000  0.13380000  1.0 -0.5248223392
O  O11  1  0.30050000  0.89640000  0.13380000  1.0 -0.5248223392
O  O12  1  0.69950000  0.10360000  0.13380000  1.0 -0.5248223392
O  O13  1  0.10360000  0.69950000  0.86620000  1.0 -0.5252454129
O  O14  1  0.89640000  0.30050000  0.86620000  1.0 -0.5248223392
O  O15  1  0.69950000  0.89640000  0.86620000  1.0 -0.5248223392
O  O16  1  0.30050000  0.10360000  0.86620000  1.0 -0.5248223392
O  O17  1  0.73750000  0.83810000  0.41710000  1.0 -0.582057148
O  O18  1  0.26250000  0.16190000  0.41710000  1.0 -0.582057148
O  O19  1  0.16190000  0.73750000  0.41710000  1.0 -0.582057148
O  O20  1  0.83810000  0.26250000  0.41710000  1.0 -0.582057148
O  O21  1  0.26250000  0.83810000  0.58290000  1.0 -0.582057148
O  O22  1  0.73750000  0.16190000  0.58290000  1.0 -0.582057148
O  O23  1  0.83810000  0.73750000  0.58290000  1.0 -0.582057148
O  O24  1  0.16190000  0.26250000  0.58290000  1.0 -0.582057148
O  O25  1  0.76250000  0.66190000  0.08290000  1.0 -0.582057148
O  O26  1  0.23750000  0.33810000  0.08290000  1.0 -0.582057148
O  O27  1  0.33810000  0.76250000  0.08290000  1.0 -0.582057148
O  O28  1  0.66190000  0.23750000  0.08290000  1.0 -0.582057148
O  O29  1  0.23750000  0.66190000  0.91710000  1.0 -0.582057148
O  O30  1  0.76250000  0.33810000  0.91710000  1.0 -0.582057148
O  O31  1  0.66190000  0.76250000  0.91710000  1.0 -0.582057148
O  O32  1  0.33810000  0.23750000  0.91710000  1.0 -0.582057148
