# DDEC6 charges by PACMAN v1.1 (https://github.com/mtap-research/PACMAN-charge/)
data_BERQIA_FSR_pacman
_symmetry_space_group_name_H-M   'P 1'
_cell_length_a   20.04250000
_cell_length_b   18.48190000
_cell_length_c   17.06660000
_cell_angle_alpha   68.50570000
_cell_angle_beta   59.09320000
_cell_angle_gamma   52.40100000
_symmetry_Int_Tables_number   1
_chemical_formula_structural   Cd3H42C48(N5O12)2
_chemical_formula_sum   'Cd6 H84 C96 N20 O48'
_cell_volume   4284.49583723
_cell_formula_units_Z   2
loop_
 _symmetry_equiv_pos_site_id
 _symmetry_equiv_pos_as_xyz
  1  'x, y, z'
loop_
 _atom_site_type_symbol
 _atom_site_label
 _atom_site_symmetry_multiplicity
 _atom_site_fract_x
 _atom_site_fract_y
 _atom_site_fract_z
 _atom_site_occupancy
 _atom_site_charge
Cd  Cd1  1  0.00222000  0.00222000  0.99778000  1.0 0.9008761837
Cd  Cd2  1  0.25222000  0.25222000  0.24778000  1.0 0.9008761837
Cd  Cd3  1  0.80775000  0.47745000  0.69347000  1.0 0.92638648
Cd  Cd4  1  0.55653000  0.22867000  0.44225000  1.0 0.92638648
Cd  Cd5  1  0.47745000  0.80775000  0.02133000  1.0 0.92638648
Cd  Cd6  1  0.22867000  0.55653000  0.77255000  1.0 0.92638648
H  H1  1  0.04090000  0.27170000  0.56650000  1.0 0.1478290023
H  H2  1  0.27170000  0.04090000  0.12090000  1.0 0.1478290023
H  H3  1  0.12910000  0.68350000  0.97830000  1.0 0.1478290023
H  H4  1  0.68350000  0.12910000  0.20910000  1.0 0.1478290023
H  H5  1  0.98690000  0.22550000  0.72310000  1.0 0.1478290023
H  H6  1  0.22550000  0.98690000  0.06450000  1.0 0.1478290023
H  H7  1  0.18550000  0.52690000  0.02450000  1.0 0.1478290023
H  H8  1  0.52690000  0.18550000  0.26310000  1.0 0.1478290023
H  H9  1  0.30520000  0.89900000  0.63560000  1.0 0.2380998278
H  H10  1  0.89900000  0.30520000  0.16020000  1.0 0.2343556329
H  H11  1  0.08980000  0.61440000  0.35100000  1.0 0.2343556329
H  H12  1  0.61440000  0.08980000  0.94480000  1.0 0.2380998278
H  H13  1  0.23540000  0.90860000  0.73720000  1.0 0.2380998278
H  H14  1  0.90860000  0.23540000  0.11880000  1.0 0.2380998278
H  H15  1  0.13120000  0.51280000  0.34140000  1.0 0.2380998278
H  H16  1  0.51280000  0.13120000  0.01460000  1.0 0.2380998278
H  H17  1  0.28010000  0.01050000  0.51990000  1.0 -0.0200585143
H  H18  1  0.01050000  0.28010000  0.18950000  1.0 -0.0200585143
H  H19  1  0.06050000  0.73010000  0.23950000  1.0 -0.0200585143
H  H20  1  0.73010000  0.06050000  0.96990000  1.0 -0.0200585143
H  H21  1  0.31030000  0.93330000  0.54270000  1.0 0.1577616175
H  H22  1  0.93330000  0.31030000  0.21370000  1.0 0.1577616175
H  H23  1  0.03630000  0.70730000  0.31670000  1.0 0.1478290023
H  H24  1  0.70730000  0.03630000  0.93970000  1.0 0.1577616175
H  H25  1  0.31770000  0.99570000  0.45150000  1.0 0.2462680086
H  H26  1  0.99570000  0.31770000  0.23510000  1.0 0.2462680086
H  H27  1  0.01490000  0.79850000  0.25430000  1.0 0.2462680086
H  H28  1  0.79850000  0.01490000  0.93230000  1.0 0.2462680086
H  H29  1  0.21160000  0.96620000  0.67580000  1.0 0.0969792546
H  H30  1  0.96620000  0.21160000  0.14640000  1.0 0.0969792546
H  H31  1  0.10360000  0.57420000  0.28380000  1.0 0.0969792546
H  H32  1  0.57420000  0.10360000  0.03840000  1.0 0.0969792546
H  H33  1  0.58520000  0.44820000  0.67580000  1.0 0.1395463839
H  H34  1  0.57420000  0.95920000  0.66480000  1.0 0.1395463839
H  H35  1  0.80880000  0.21660000  0.47840000  1.0 0.1283869453
H  H36  1  0.77160000  0.75380000  0.44120000  1.0 0.1283869453
H  H37  1  0.84690000  0.27010000  0.54330000  1.0 0.1395463839
H  H38  1  0.70670000  0.91030000  0.40310000  1.0 0.1395463839
H  H39  1  0.55780000  0.47040000  0.17160000  1.0 0.1395463839
H  H40  1  0.07840000  0.44980000  0.69220000  1.0 0.1395463839
H  H41  1  0.77870000  0.21090000  0.12890000  1.0 0.1395463839
H  H42  1  0.12110000  0.36850000  0.47130000  1.0 0.1395463839
H  H43  1  0.49530000  0.36730000  0.62750000  1.0 0.3084578757
H  H44  1  0.62250000  0.74010000  0.75470000  1.0 0.3084578757
H  H45  1  0.46930000  0.43910000  0.67550000  1.0 0.3084578757
H  H46  1  0.57450000  0.83390000  0.78070000  1.0 0.3084578757
H  H47  1  0.52470000  0.59290000  0.05290000  1.0 0.2620672107
H  H48  1  0.19710000  0.42050000  0.72530000  1.0 0.2620672107
H  H49  1  0.59820000  0.57540000  0.95280000  1.0 0.1577616175
H  H50  1  0.29720000  0.37640000  0.65180000  1.0 0.1577616175
H  H51  1  0.81800000  0.26840000  0.97560000  1.0 0.1127859808
H  H52  1  0.27440000  0.31200000  0.43200000  1.0 0.1127859808
H  H53  1  0.87380000  0.27020000  0.90200000  1.0 0.2890212431
H  H54  1  0.34800000  0.29600000  0.37620000  1.0 0.2890212431
H  H55  1  0.89740000  0.17780000  0.96240000  1.0 0.3084578757
H  H56  1  0.28760000  0.28760000  0.35260000  1.0 0.3084578757
H  H57  1  0.60340000  0.51320000  0.01480000  1.0 0.0512387201
H  H58  1  0.23520000  0.38140000  0.64660000  1.0 0.0512387201
H  H59  1  0.44820000  0.58520000  0.29080000  1.0 0.1395463839
H  H60  1  0.95920000  0.57420000  0.80180000  1.0 0.1395463839
H  H61  1  0.21660000  0.80880000  0.49620000  1.0 0.1283869453
H  H62  1  0.75380000  0.77160000  0.03340000  1.0 0.1283869453
H  H63  1  0.27010000  0.84690000  0.33970000  1.0 0.1395463839
H  H64  1  0.91030000  0.70670000  0.97990000  1.0 0.1395463839
H  H65  1  0.47040000  0.55780000  0.80020000  1.0 0.1395463839
H  H66  1  0.44980000  0.07840000  0.77960000  1.0 0.1395463839
H  H67  1  0.21090000  0.77870000  0.88150000  1.0 0.1395463839
H  H68  1  0.36850000  0.12110000  0.03910000  1.0 0.1395463839
H  H69  1  0.36730000  0.49530000  0.50990000  1.0 0.3084578757
H  H70  1  0.74010000  0.62250000  0.88270000  1.0 0.3084578757
H  H71  1  0.43910000  0.46930000  0.41610000  1.0 0.3084578757
H  H72  1  0.83390000  0.57450000  0.81090000  1.0 0.3084578757
H  H73  1  0.59290000  0.52470000  0.82950000  1.0 0.2620672107
H  H74  1  0.42050000  0.19710000  0.65710000  1.0 0.2620672107
H  H75  1  0.57540000  0.59820000  0.87360000  1.0 0.1577616175
H  H76  1  0.37640000  0.29720000  0.67460000  1.0 0.1577616175
H  H77  1  0.26840000  0.81800000  0.93800000  1.0 0.1127859808
H  H78  1  0.31200000  0.27440000  0.98160000  1.0 0.1127859808
H  H79  1  0.27020000  0.87380000  0.95400000  1.0 0.2890212431
H  H80  1  0.29600000  0.34800000  0.97980000  1.0 0.2890212431
H  H81  1  0.17780000  0.89740000  0.96240000  1.0 0.3084578757
H  H82  1  0.28760000  0.28760000  0.07220000  1.0 0.3084578757
H  H83  1  0.51320000  0.60340000  0.86860000  1.0 0.0512387201
H  H84  1  0.38140000  0.23520000  0.73680000  1.0 0.0512387201
C  C1  1  0.09600000  0.09500000  0.71540000  1.0 -0.0573648319
C  C2  1  0.09500000  0.09600000  0.09360000  1.0 -0.0573648319
C  C3  1  0.15640000  0.53460000  0.15500000  1.0 -0.0573648319
C  C4  1  0.53460000  0.15640000  0.15400000  1.0 -0.0573648319
C  C5  1  0.17640000  0.03380000  0.65660000  1.0 0.0688430115
C  C6  1  0.03380000  0.17640000  0.13320000  1.0 0.0688430115
C  C7  1  0.11680000  0.59340000  0.21620000  1.0 0.0688430115
C  C8  1  0.59340000  0.11680000  0.07360000  1.0 0.0688430115
C  C9  1  0.21060000  0.06300000  0.56180000  1.0 0.1221144802
C  C10  1  0.06300000  0.21060000  0.16460000  1.0 0.1221144802
C  C11  1  0.08540000  0.68820000  0.18700000  1.0 0.1221144802
C  C12  1  0.68820000  0.08540000  0.03940000  1.0 0.1221144802
C  C13  1  0.16040000  0.14820000  0.52980000  1.0 -0.0691028119
C  C14  1  0.14820000  0.16040000  0.16160000  1.0 -0.0691028119
C  C15  1  0.08840000  0.72020000  0.10180000  1.0 -0.0691028119
C  C16  1  0.72020000  0.08840000  0.08960000  1.0 -0.0691028119
C  C17  1  0.07630000  0.21110000  0.58890000  1.0 -0.0808693629
C  C18  1  0.21110000  0.07630000  0.12370000  1.0 -0.0808693629
C  C19  1  0.12630000  0.66110000  0.03890000  1.0 -0.0808693629
C  C20  1  0.66110000  0.12630000  0.17370000  1.0 -0.0808693629
C  C21  1  0.04450000  0.18330000  0.68210000  1.0 -0.1011277207
C  C22  1  0.18330000  0.04450000  0.09010000  1.0 -0.1011277207
C  C23  1  0.15990000  0.56790000  0.06670000  1.0 -0.1011277207
C  C24  1  0.56790000  0.15990000  0.20550000  1.0 -0.1011277207
C  C25  1  0.05120000  0.07860000  0.81940000  1.0 0.5502660647
C  C26  1  0.07860000  0.05120000  0.05080000  1.0 0.5502660647
C  C27  1  0.19920000  0.43060000  0.17140000  1.0 0.5502660647
C  C28  1  0.43060000  0.19920000  0.19880000  1.0 0.5502660647
C  C29  1  0.18930000  0.18410000  0.43250000  1.0 0.5502660647
C  C30  1  0.18410000  0.18930000  0.19410000  1.0 0.5502660647
C  C31  1  0.05590000  0.81750000  0.06590000  1.0 0.5502660647
C  C32  1  0.81750000  0.05590000  0.06070000  1.0 0.5502660647
C  C33  1  0.71950000  0.36590000  0.61250000  1.0 0.0163997198
C  C34  1  0.63750000  0.94790000  0.53050000  1.0 0.0163997198
C  C35  1  0.63090000  0.39890000  0.63730000  1.0 -0.1613324066
C  C36  1  0.61270000  0.91710000  0.61910000  1.0 -0.1613324066
C  C37  1  0.60370000  0.36110000  0.60670000  1.0 0.2343556329
C  C38  1  0.64330000  0.82150000  0.64630000  1.0 0.2343556329
C  C39  1  0.66820000  0.29380000  0.55180000  1.0 -0.0808693629
C  C40  1  0.69820000  0.76380000  0.58180000  1.0 -0.0808693629
C  C41  1  0.76240000  0.26120000  0.52200000  1.0 -0.0808693629
C  C42  1  0.72800000  0.79560000  0.48760000  1.0 -0.0808693629
C  C43  1  0.78420000  0.29600000  0.55760000  1.0 -0.1096264303
C  C44  1  0.69240000  0.88780000  0.46580000  1.0 -0.1096264303
C  C45  1  0.74780000  0.40660000  0.64420000  1.0 0.5502660647
C  C46  1  0.60580000  0.04860000  0.50220000  1.0 0.5502660647
C  C47  1  0.64450000  0.25450000  0.50970000  1.0 0.5502660647
C  C48  1  0.74030000  0.65870000  0.60550000  1.0 0.5502660647
C  C49  1  0.72700000  0.38680000  0.97860000  1.0 -0.1613324066
C  C50  1  0.27140000  0.34240000  0.52300000  1.0 -0.1613324066
C  C51  1  0.64460000  0.45240000  0.03900000  1.0 0.1577616175
C  C52  1  0.21100000  0.38600000  0.60540000  1.0 0.1577616175
C  C53  1  0.61320000  0.42580000  0.13120000  1.0 -0.1613324066
C  C54  1  0.11880000  0.42020000  0.63680000  1.0 -0.1613324066
C  C55  1  0.65760000  0.33920000  0.16640000  1.0 0.0163997198
C  C56  1  0.08360000  0.41320000  0.59240000  1.0 0.0163997198
C  C57  1  0.74410000  0.27170000  0.10590000  1.0 -0.1985912055
C  C58  1  0.14410000  0.37170000  0.50590000  1.0 -0.1985912055
C  C59  1  0.77400000  0.29740000  0.01640000  1.0 0.0969792546
C  C60  1  0.23360000  0.33780000  0.47600000  1.0 0.0969792546
C  C61  1  0.76340000  0.41020000  0.87820000  1.0 0.5502660647
C  C62  1  0.37180000  0.30180000  0.48660000  1.0 0.5502660647
C  C63  1  0.61150000  0.31270000  0.26450000  1.0 0.5189347163
C  C64  1  0.98550000  0.43870000  0.63850000  1.0 0.5189347163
C  C65  1  0.36590000  0.71950000  0.30210000  1.0 0.0163997198
C  C66  1  0.94790000  0.63750000  0.88410000  1.0 0.0146596197
C  C67  1  0.39890000  0.63090000  0.33290000  1.0 -0.1613324066
C  C68  1  0.91710000  0.61270000  0.85110000  1.0 -0.1613324066
C  C69  1  0.36110000  0.60370000  0.42850000  1.0 0.2343556329
C  C70  1  0.82150000  0.64330000  0.88890000  1.0 0.2343556329
C  C71  1  0.29380000  0.66820000  0.48620000  1.0 -0.0808693629
C  C72  1  0.76380000  0.69820000  0.95620000  1.0 -0.0808693629
C  C73  1  0.26120000  0.76240000  0.45440000  1.0 -0.0808693629
C  C74  1  0.79560000  0.72800000  0.98880000  1.0 -0.0808693629
C  C75  1  0.29600000  0.78420000  0.36220000  1.0 -0.1096264303
C  C76  1  0.88780000  0.69240000  0.95400000  1.0 -0.1096264303
C  C77  1  0.40660000  0.74780000  0.20140000  1.0 0.5502660647
C  C78  1  0.04860000  0.60580000  0.84340000  1.0 0.5502660647
C  C79  1  0.25450000  0.64450000  0.59130000  1.0 0.5502660647
C  C80  1  0.65870000  0.74030000  0.99550000  1.0 0.5502660647
C  C81  1  0.38680000  0.72700000  0.90760000  1.0 -0.1613324066
C  C82  1  0.34240000  0.27140000  0.86320000  1.0 -0.1613324066
C  C83  1  0.45240000  0.64460000  0.86400000  1.0 0.1577616175
C  C84  1  0.38600000  0.21100000  0.79760000  1.0 0.1577616175
C  C85  1  0.42580000  0.61320000  0.82980000  1.0 -0.1613324066
C  C86  1  0.42020000  0.11880000  0.82420000  1.0 -0.1613324066
C  C87  1  0.33920000  0.65760000  0.83680000  1.0 0.0163997198
C  C88  1  0.41320000  0.08360000  0.91080000  1.0 0.0163997198
C  C89  1  0.27170000  0.74410000  0.87830000  1.0 -0.1985912055
C  C90  1  0.37170000  0.14410000  0.97830000  1.0 -0.1985912055
C  C91  1  0.29740000  0.77400000  0.91220000  1.0 0.0969792546
C  C92  1  0.33780000  0.23360000  0.95260000  1.0 0.0969792546
C  C93  1  0.41020000  0.76340000  0.94820000  1.0 0.5502660647
C  C94  1  0.30180000  0.37180000  0.83980000  1.0 0.5502660647
C  C95  1  0.31270000  0.61150000  0.81130000  1.0 0.5189347163
C  C96  1  0.43870000  0.98550000  0.93730000  1.0 0.5189347163
N  N1  1  0.23820000  0.94500000  0.67840000  1.0 -0.4135849394
N  N2  1  0.94500000  0.23820000  0.13840000  1.0 -0.4135849394
N  N3  1  0.11160000  0.57160000  0.30500000  1.0 -0.4135849394
N  N4  1  0.57160000  0.11160000  0.01180000  1.0 -0.4135849394
N  N5  1  0.28840000  0.98900000  0.51240000  1.0 -0.4274473593
N  N6  1  0.98900000  0.28840000  0.21020000  1.0 -0.4274473593
N  N7  1  0.03980000  0.73760000  0.26100000  1.0 -0.4274473593
N  N8  1  0.73760000  0.03980000  0.96160000  1.0 -0.424548845
N  N9  1  0.51060000  0.39440000  0.64080000  1.0 -0.5364594564
N  N10  1  0.60920000  0.79580000  0.73940000  1.0 -0.5364594564
N  N11  1  0.59020000  0.54000000  0.01200000  1.0 -0.4135849394
N  N12  1  0.23800000  0.39220000  0.65980000  1.0 -0.4135849394
N  N13  1  0.85560000  0.23460000  0.94860000  1.0 -0.4023242995
N  N14  1  0.30140000  0.28880000  0.39440000  1.0 -0.4023242995
N  N15  1  0.39440000  0.51060000  0.45420000  1.0 -0.5364594564
N  N16  1  0.79580000  0.60920000  0.85560000  1.0 -0.5364594564
N  N17  1  0.54000000  0.59020000  0.85780000  1.0 -0.4135849394
N  N18  1  0.39220000  0.23800000  0.71000000  1.0 -0.4135849394
N  N19  1  0.23460000  0.85560000  0.96120000  1.0 -0.4023242995
N  N20  1  0.28880000  0.30140000  0.01540000  1.0 -0.4023242995
O  O1  1  0.09240000  0.99420000  0.84460000  1.0 -0.5169196681
O  O2  1  0.99420000  0.09240000  0.06880000  1.0 -0.5169196681
O  O3  1  0.18120000  0.40540000  0.25580000  1.0 -0.5169196681
O  O4  1  0.40540000  0.18120000  0.15760000  1.0 -0.5169196681
O  O5  1  0.98960000  0.13520000  0.86880000  1.0 -0.4023242995
O  O6  1  0.13520000  0.98960000  0.00640000  1.0 -0.4023242995
O  O7  1  0.24360000  0.38120000  0.11480000  1.0 -0.4023242995
O  O8  1  0.38120000  0.24360000  0.26040000  1.0 -0.4023242995
O  O9  1  0.13890000  0.25250000  0.39690000  1.0 -0.4612036303
O  O10  1  0.25250000  0.13890000  0.21170000  1.0 -0.4612036303
O  O11  1  0.03830000  0.85310000  0.99750000  1.0 -0.4612036303
O  O12  1  0.85310000  0.03830000  0.11110000  1.0 -0.4612036303
O  O13  1  0.27620000  0.14000000  0.38260000  1.0 -0.5012069926
O  O14  1  0.14000000  0.27620000  0.20120000  1.0 -0.5012069926
O  O15  1  0.04880000  0.86740000  0.11000000  1.0 -0.5012069926
O  O16  1  0.86740000  0.04880000  0.97380000  1.0 -0.5012069926
O  O17  1  0.82780000  0.38480000  0.61080000  1.0 -0.4612036303
O  O18  1  0.63920000  0.07340000  0.42220000  1.0 -0.4612036303
O  O19  1  0.68700000  0.45540000  0.71100000  1.0 -0.52676038
O  O20  1  0.53900000  0.10340000  0.56300000  1.0 -0.52676038
O  O21  1  0.70920000  0.17640000  0.47420000  1.0 -0.5012069926
O  O22  1  0.77580000  0.60980000  0.54080000  1.0 -0.506704937
O  O23  1  0.56840000  0.29440000  0.51700000  1.0 -0.452201973
O  O24  1  0.73300000  0.62980000  0.68160000  1.0 -0.452201973
O  O25  1  0.82940000  0.34700000  0.82500000  1.0 -0.4778206304
O  O26  1  0.42500000  0.25140000  0.42060000  1.0 -0.4778206304
O  O27  1  0.72990000  0.49370000  0.84770000  1.0 -0.4778206304
O  O28  1  0.40230000  0.32130000  0.52010000  1.0 -0.4778206304
O  O29  1  0.65780000  0.23540000  0.29600000  1.0 -0.4274473593
O  O30  1  0.95400000  0.43920000  0.59220000  1.0 -0.4274473593
O  O31  1  0.53690000  0.36350000  0.30770000  1.0 -0.4274473593
O  O32  1  0.94230000  0.45810000  0.71310000  1.0 -0.4274473593
O  O33  1  0.38480000  0.82780000  0.17660000  1.0 -0.4612036303
O  O34  1  0.07340000  0.63920000  0.86520000  1.0 -0.4612036303
O  O35  1  0.45540000  0.68700000  0.14660000  1.0 -0.52676038
O  O36  1  0.10340000  0.53900000  0.79460000  1.0 -0.52676038
O  O37  1  0.17640000  0.70920000  0.64020000  1.0 -0.506704937
O  O38  1  0.60980000  0.77580000  0.07360000  1.0 -0.506704937
O  O39  1  0.29440000  0.56840000  0.62020000  1.0 -0.452201973
O  O40  1  0.62980000  0.73300000  0.95560000  1.0 -0.452201973
O  O41  1  0.34700000  0.82940000  0.99860000  1.0 -0.4778206304
O  O42  1  0.25140000  0.42500000  0.90300000  1.0 -0.4778206304
O  O43  1  0.49370000  0.72990000  0.92870000  1.0 -0.4778206304
O  O44  1  0.32130000  0.40230000  0.75630000  1.0 -0.4778206304
O  O45  1  0.23540000  0.65780000  0.81080000  1.0 -0.4274473593
O  O46  1  0.43920000  0.95400000  0.01460000  1.0 -0.4274473593
O  O47  1  0.36350000  0.53690000  0.79190000  1.0 -0.4274473593
O  O48  1  0.45810000  0.94230000  0.88650000  1.0 -0.4274473593
