# DDEC6 charges by PACMAN v1.1 (https://github.com/mtap-research/PACMAN-charge/)
data_BETDIP_ASR_pacman
_symmetry_space_group_name_H-M   'P 1'
_cell_length_a   15.98040000
_cell_length_b   15.98040000
_cell_length_c   13.95330000
_cell_angle_alpha   83.09200000
_cell_angle_beta   96.90800000
_cell_angle_gamma   131.64400000
_symmetry_Int_Tables_number   1
_chemical_formula_structural   TbH8C16NO6
_chemical_formula_sum   'Tb4 H32 C64 N4 O24'
_cell_volume   2639.56640786
_cell_formula_units_Z   4
loop_
 _symmetry_equiv_pos_site_id
 _symmetry_equiv_pos_as_xyz
  1  'x, y, z'
loop_
 _atom_site_type_symbol
 _atom_site_label
 _atom_site_symmetry_multiplicity
 _atom_site_fract_x
 _atom_site_fract_y
 _atom_site_fract_z
 _atom_site_occupancy
 _atom_site_charge
Tb  Tb1  1  0.88783000  0.51675000  0.45895000  1.0 2.0574765613
Tb  Tb2  1  0.51675000  0.88783000  0.04105000  1.0 2.0574765613
Tb  Tb3  1  0.11217000  0.48325000  0.54105000  1.0 2.0574765613
Tb  Tb4  1  0.48325000  0.11217000  0.95895000  1.0 2.0574765613
H  H1  1  0.97090000  0.86090000  0.54240000  1.0 0.1188951552
H  H2  1  0.86090000  0.97090000  0.95760000  1.0 0.1188951552
H  H3  1  0.02910000  0.13910000  0.45760000  1.0 0.1188951552
H  H4  1  0.13910000  0.02910000  0.04240000  1.0 0.1188951552
H  H5  1  0.93150000  0.96210000  0.59480000  1.0 0.1188951552
H  H6  1  0.96210000  0.93150000  0.90520000  1.0 0.1188951552
H  H7  1  0.06850000  0.03790000  0.40520000  1.0 0.1188951552
H  H8  1  0.03790000  0.06850000  0.09480000  1.0 0.1188951552
H  H9  1  0.62280000  0.68080000  0.64850000  1.0 0.1188951552
H  H10  1  0.68080000  0.62280000  0.85150000  1.0 0.1188951552
H  H11  1  0.37720000  0.31920000  0.35150000  1.0 0.1188951552
H  H12  1  0.31920000  0.37720000  0.14850000  1.0 0.1188951552
H  H13  1  0.66760000  0.57860000  0.60300000  1.0 0.1289147844
H  H14  1  0.57860000  0.66760000  0.89700000  1.0 0.1289147844
H  H15  1  0.33240000  0.42140000  0.39700000  1.0 0.1289147844
H  H16  1  0.42140000  0.33240000  0.10300000  1.0 0.1289147844
H  H17  1  0.87060000  0.18300000  0.57130000  1.0 0.1386892905
H  H18  1  0.18300000  0.87060000  0.92870000  1.0 0.1386892905
H  H19  1  0.12940000  0.81700000  0.42870000  1.0 0.1386892905
H  H20  1  0.81700000  0.12940000  0.07130000  1.0 0.1386892905
H  H21  1  0.66970000  0.95190000  0.77450000  1.0 0.1188951552
H  H22  1  0.95190000  0.66970000  0.72550000  1.0 0.1188951552
H  H23  1  0.33030000  0.04810000  0.22550000  1.0 0.1188951552
H  H24  1  0.04810000  0.33030000  0.27450000  1.0 0.1188951552
H  H25  1  0.67250000  0.20430000  0.69730000  1.0 0.1289147844
H  H26  1  0.20430000  0.67250000  0.80270000  1.0 0.1289147844
H  H27  1  0.32750000  0.79570000  0.30270000  1.0 0.1289147844
H  H28  1  0.79570000  0.32750000  0.19730000  1.0 0.1289147844
H  H29  1  0.67100000  0.83700000  0.69100000  1.0 0.0711484549
H  H30  1  0.83700000  0.67100000  0.80900000  1.0 0.0711484549
H  H31  1  0.32900000  0.16300000  0.30900000  1.0 0.0711484549
H  H32  1  0.16300000  0.32900000  0.19100000  1.0 0.0711484549
C  C1  1  0.84750000  0.64510000  0.52680000  1.0 0.5666960438
C  C2  1  0.64510000  0.84750000  0.97320000  1.0 0.5666960438
C  C3  1  0.15250000  0.35490000  0.47320000  1.0 0.5666960438
C  C4  1  0.35490000  0.15250000  0.02680000  1.0 0.5666960438
C  C5  1  0.82120000  0.71000000  0.56440000  1.0 -0.0095986547
C  C6  1  0.71000000  0.82120000  0.93560000  1.0 -0.0095986547
C  C7  1  0.17880000  0.29000000  0.43560000  1.0 -0.0095986547
C  C8  1  0.29000000  0.17880000  0.06440000  1.0 -0.0095986547
C  C9  1  0.90030000  0.82370000  0.56380000  1.0 -0.1033231507
C  C10  1  0.82370000  0.90030000  0.93620000  1.0 -0.1033231507
C  C11  1  0.09970000  0.17630000  0.43620000  1.0 -0.1033231507
C  C12  1  0.17630000  0.09970000  0.06380000  1.0 -0.1033231507
C  C13  1  0.87630000  0.88430000  0.59470000  1.0 -0.1309332068
C  C14  1  0.88430000  0.87630000  0.90530000  1.0 -0.1309332068
C  C15  1  0.12370000  0.11570000  0.40530000  1.0 -0.1309332068
C  C16  1  0.11570000  0.12370000  0.09470000  1.0 -0.1309332068
C  C17  1  0.77410000  0.83230000  0.62490000  1.0 0.0711484549
C  C18  1  0.83230000  0.77410000  0.87510000  1.0 0.0711484549
C  C19  1  0.22590000  0.16770000  0.37510000  1.0 0.0711484549
C  C20  1  0.16770000  0.22590000  0.12490000  1.0 0.0711484549
C  C21  1  0.69370000  0.71770000  0.62770000  1.0 -0.160301585
C  C22  1  0.71770000  0.69370000  0.87230000  1.0 -0.160301585
C  C23  1  0.30630000  0.28230000  0.37230000  1.0 -0.160301585
C  C24  1  0.28230000  0.30630000  0.12770000  1.0 -0.160301585
C  C25  1  0.72020000  0.65660000  0.59860000  1.0 -0.1033231507
C  C26  1  0.65660000  0.72020000  0.90140000  1.0 -0.1033231507
C  C27  1  0.27980000  0.34340000  0.40140000  1.0 -0.1033231507
C  C28  1  0.34340000  0.27980000  0.09860000  1.0 -0.1033231507
C  C29  1  0.74060000  0.89380000  0.65260000  1.0 0.0595799477
C  C30  1  0.89380000  0.74060000  0.84740000  1.0 0.0595799477
C  C31  1  0.25940000  0.10620000  0.34740000  1.0 0.0595799477
C  C32  1  0.10620000  0.25940000  0.15260000  1.0 0.0595799477
C  C33  1  0.82120000  0.31380000  0.56500000  1.0 0.6261030843
C  C34  1  0.31380000  0.82120000  0.93500000  1.0 0.6261030843
C  C35  1  0.17880000  0.68620000  0.43500000  1.0 0.6261030843
C  C36  1  0.68620000  0.17880000  0.06500000  1.0 0.6261030843
C  C37  1  0.77920000  0.21060000  0.62510000  1.0 -0.0191958051
C  C38  1  0.21060000  0.77920000  0.87490000  1.0 -0.0191958051
C  C39  1  0.22080000  0.78940000  0.37490000  1.0 -0.0191958051
C  C40  1  0.78940000  0.22080000  0.12510000  1.0 -0.0191958051
C  C41  1  0.81610000  0.15390000  0.61480000  1.0 -0.160301585
C  C42  1  0.15390000  0.81610000  0.88520000  1.0 -0.160301585
C  C43  1  0.18390000  0.84610000  0.38520000  1.0 -0.160301585
C  C44  1  0.84610000  0.18390000  0.11480000  1.0 -0.160301585
C  C45  1  0.77360000  0.05680000  0.66740000  1.0 0.1974824255
C  C46  1  0.05680000  0.77360000  0.83260000  1.0 0.1974824255
C  C47  1  0.22640000  0.94320000  0.33260000  1.0 0.1974824255
C  C48  1  0.94320000  0.22640000  0.16740000  1.0 0.1974824255
C  C49  1  0.69700000  0.01680000  0.73680000  1.0 -0.1715727451
C  C50  1  0.01680000  0.69700000  0.76320000  1.0 -0.1715727451
C  C51  1  0.30300000  0.98320000  0.26320000  1.0 -0.1715727451
C  C52  1  0.98320000  0.30300000  0.23680000  1.0 -0.1715727451
C  C53  1  0.66140000  0.07420000  0.74980000  1.0 -0.0191958051
C  C54  1  0.07420000  0.66140000  0.75020000  1.0 -0.0191958051
C  C55  1  0.33860000  0.92580000  0.25020000  1.0 -0.0191958051
C  C56  1  0.92580000  0.33860000  0.24980000  1.0 -0.0191958051
C  C57  1  0.69970000  0.16870000  0.69180000  1.0 -0.1033231507
C  C58  1  0.16870000  0.69970000  0.80820000  1.0 -0.1033231507
C  C59  1  0.30030000  0.83130000  0.30820000  1.0 -0.1033231507
C  C60  1  0.83130000  0.30030000  0.19180000  1.0 -0.1033231507
C  C61  1  0.58330000  0.03470000  0.82760000  1.0 0.6415910532
C  C62  1  0.03470000  0.58330000  0.67240000  1.0 0.6415910532
C  C63  1  0.41670000  0.96530000  0.17240000  1.0 0.6415910532
C  C64  1  0.96530000  0.41670000  0.32760000  1.0 0.6415910532
N  N1  1  0.81056000  0.00164000  0.64730000  1.0 -0.2783994565
N  N2  1  0.00164000  0.81056000  0.85270000  1.0 -0.2783994565
N  N3  1  0.18944000  0.99836000  0.35270000  1.0 -0.2783994565
N  N4  1  0.99836000  0.18944000  0.14730000  1.0 -0.2783994565
O  O1  1  0.94321000  0.69539000  0.49990000  1.0 -0.6172407756
O  O2  1  0.69539000  0.94321000  0.00010000  1.0 -0.6172407756
O  O3  1  0.05679000  0.30461000  0.50010000  1.0 -0.6172407756
O  O4  1  0.30461000  0.05679000  0.99990000  1.0 -0.6172407756
O  O5  1  0.76961000  0.53979000  0.52430000  1.0 -0.6395987461
O  O6  1  0.53979000  0.76961000  0.97570000  1.0 -0.6395987461
O  O7  1  0.23039000  0.46021000  0.47570000  1.0 -0.6395987461
O  O8  1  0.46021000  0.23039000  0.02430000  1.0 -0.6395987461
O  O9  1  0.91938000  0.37762000  0.53250000  1.0 -0.7670924852
O  O10  1  0.37762000  0.91938000  0.96750000  1.0 -0.7670924852
O  O11  1  0.08062000  0.62238000  0.46750000  1.0 -0.7670924852
O  O12  1  0.62238000  0.08062000  0.03250000  1.0 -0.7670924852
O  O13  1  0.76049000  0.33791000  0.54560000  1.0 -0.5979501868
O  O14  1  0.33791000  0.76049000  0.95440000  1.0 -0.5979501868
O  O15  1  0.23951000  0.66209000  0.45440000  1.0 -0.5979501868
O  O16  1  0.66209000  0.23951000  0.04560000  1.0 -0.5979501868
O  O17  1  0.54647000  0.94653000  0.87450000  1.0 -0.5979501868
O  O18  1  0.94653000  0.54647000  0.62550000  1.0 -0.5979501868
O  O19  1  0.45353000  0.05347000  0.12550000  1.0 -0.5979501868
O  O20  1  0.05347000  0.45353000  0.37450000  1.0 -0.5979501868
O  O21  1  0.56155000  0.09585000  0.83890000  1.0 -0.6840248297
O  O22  1  0.09585000  0.56155000  0.66110000  1.0 -0.6840248297
O  O23  1  0.43845000  0.90415000  0.16110000  1.0 -0.6840248297
O  O24  1  0.90415000  0.43845000  0.33890000  1.0 -0.6840248297
