# DDEC6 charges by PACMAN v1.1 (https://github.com/mtap-research/PACMAN-charge/)
data_BETDUB_ASR_pacman
_symmetry_space_group_name_H-M   'P 1'
_cell_length_a   15.94620000
_cell_length_b   15.94620000
_cell_length_c   14.26020000
_cell_angle_alpha   83.10320000
_cell_angle_beta   96.89680000
_cell_angle_gamma   133.07100000
_symmetry_Int_Tables_number   1
_chemical_formula_structural   EuH8C16NO6
_chemical_formula_sum   'Eu4 H32 C64 N4 O24'
_cell_volume   2626.10219116
_cell_formula_units_Z   4
loop_
 _symmetry_equiv_pos_site_id
 _symmetry_equiv_pos_as_xyz
  1  'x, y, z'
loop_
 _atom_site_type_symbol
 _atom_site_label
 _atom_site_symmetry_multiplicity
 _atom_site_fract_x
 _atom_site_fract_y
 _atom_site_fract_z
 _atom_site_occupancy
 _atom_site_charge
Eu  Eu1  1  0.98616000  0.61512000  0.45756000  1.0 2.0771584305
Eu  Eu2  1  0.61512000  0.98616000  0.04244000  1.0 2.0771584305
Eu  Eu3  1  0.01384000  0.38488000  0.54244000  1.0 2.0771584305
Eu  Eu4  1  0.38488000  0.01384000  0.95756000  1.0 2.0771584305
H  H1  1  0.93230000  0.84870000  0.59330000  1.0 0.1286317923
H  H2  1  0.84870000  0.93230000  0.90670000  1.0 0.1286317923
H  H3  1  0.06770000  0.15130000  0.40670000  1.0 0.1286317923
H  H4  1  0.15130000  0.06770000  0.09330000  1.0 0.1286317923
H  H5  1  0.83170000  0.88930000  0.64230000  1.0 0.1216867559
H  H6  1  0.88930000  0.83170000  0.85770000  1.0 0.1216867559
H  H7  1  0.16830000  0.11070000  0.35770000  1.0 0.1216867559
H  H8  1  0.11070000  0.16830000  0.14230000  1.0 0.1216867559
H  H9  1  0.53830000  0.56770000  0.59850000  1.0 0.1216867559
H  H10  1  0.56770000  0.53830000  0.90150000  1.0 0.1216867559
H  H11  1  0.46170000  0.43230000  0.40150000  1.0 0.1216867559
H  H12  1  0.43230000  0.46170000  0.09850000  1.0 0.1216867559
H  H13  1  0.63850000  0.52970000  0.54290000  1.0 0.1286317923
H  H14  1  0.52970000  0.63850000  0.95710000  1.0 0.1286317923
H  H15  1  0.36150000  0.47030000  0.45710000  1.0 0.1286317923
H  H16  1  0.47030000  0.36150000  0.04290000  1.0 0.1286317923
H  H17  1  0.66700000  0.84300000  0.66400000  1.0 0.0910914931
H  H18  1  0.84300000  0.66700000  0.83600000  1.0 0.0910914931
H  H19  1  0.33300000  0.15700000  0.33600000  1.0 0.0910914931
H  H20  1  0.15700000  0.33300000  0.16400000  1.0 0.0910914931
H  H21  1  0.31850000  0.63230000  0.57260000  1.0 0.139873201
H  H22  1  0.63230000  0.31850000  0.92740000  1.0 0.139873201
H  H23  1  0.68150000  0.36770000  0.42740000  1.0 0.139873201
H  H24  1  0.36770000  0.68150000  0.07260000  1.0 0.139873201
H  H25  1  0.55710000  0.83910000  0.77480000  1.0 0.1216867559
H  H26  1  0.83910000  0.55710000  0.72520000  1.0 0.1216867559
H  H27  1  0.44290000  0.16090000  0.22520000  1.0 0.1216867559
H  H28  1  0.16090000  0.44290000  0.27480000  1.0 0.1216867559
H  H29  1  0.30050000  0.83130000  0.69890000  1.0 0.1286317923
H  H30  1  0.83130000  0.30050000  0.80110000  1.0 0.1286317923
H  H31  1  0.69950000  0.16870000  0.30110000  1.0 0.1286317923
H  H32  1  0.16870000  0.69950000  0.19890000  1.0 0.1286317923
C  C1  1  0.85590000  0.65570000  0.52390000  1.0 0.5617309007
C  C2  1  0.65570000  0.85590000  0.97610000  1.0 0.5617309007
C  C3  1  0.14410000  0.34430000  0.47610000  1.0 0.5617309007
C  C4  1  0.34430000  0.14410000  0.02390000  1.0 0.5617309007
C  C5  1  0.79400000  0.68300000  0.56480000  1.0 -0.018268799
C  C6  1  0.68300000  0.79400000  0.93520000  1.0 -0.018268799
C  C7  1  0.20600000  0.31700000  0.43520000  1.0 -0.018268799
C  C8  1  0.31700000  0.20600000  0.06480000  1.0 -0.018268799
C  C9  1  0.85270000  0.79210000  0.59390000  1.0 -0.0933881905
C  C10  1  0.79210000  0.85270000  0.90610000  1.0 -0.0933881905
C  C11  1  0.14730000  0.20790000  0.40610000  1.0 -0.0933881905
C  C12  1  0.20790000  0.14730000  0.09390000  1.0 -0.0933881905
C  C13  1  0.79210000  0.81590000  0.62350000  1.0 -0.1685255003
C  C14  1  0.81590000  0.79210000  0.87650000  1.0 -0.1685255003
C  C15  1  0.20790000  0.18410000  0.37650000  1.0 -0.1685255003
C  C16  1  0.18410000  0.20790000  0.12350000  1.0 -0.1685255003
C  C17  1  0.67510000  0.73430000  0.62610000  1.0 0.0678542619
C  C18  1  0.73430000  0.67510000  0.87390000  1.0 0.0678542619
C  C19  1  0.32490000  0.26570000  0.37390000  1.0 0.0678542619
C  C20  1  0.26570000  0.32490000  0.12610000  1.0 0.0678542619
C  C21  1  0.61790000  0.62510000  0.59660000  1.0 -0.1498519909
C  C22  1  0.62510000  0.61790000  0.90340000  1.0 -0.1498519909
C  C23  1  0.38210000  0.37490000  0.40340000  1.0 -0.1498519909
C  C24  1  0.37490000  0.38210000  0.09660000  1.0 -0.1498519909
C  C25  1  0.67800000  0.60180000  0.56470000  1.0 -0.0995419929
C  C26  1  0.60180000  0.67800000  0.93530000  1.0 -0.0995419929
C  C27  1  0.32200000  0.39820000  0.43530000  1.0 -0.0995419929
C  C28  1  0.39820000  0.32200000  0.06470000  1.0 -0.0995419929
C  C29  1  0.61100000  0.76380000  0.65400000  1.0 0.0678542619
C  C30  1  0.76380000  0.61100000  0.84600000  1.0 0.0678542619
C  C31  1  0.38900000  0.23620000  0.34600000  1.0 0.0678542619
C  C32  1  0.23620000  0.38900000  0.15400000  1.0 0.0678542619
C  C33  1  0.19190000  0.68410000  0.56490000  1.0 0.6188879553
C  C34  1  0.68410000  0.19190000  0.93510000  1.0 0.6188879553
C  C35  1  0.80810000  0.31590000  0.43510000  1.0 0.6188879553
C  C36  1  0.31590000  0.80810000  0.06490000  1.0 0.6188879553
C  C37  1  0.29400000  0.72560000  0.62510000  1.0 -0.0327287098
C  C38  1  0.72560000  0.29400000  0.87490000  1.0 -0.0327287098
C  C39  1  0.70600000  0.27440000  0.37490000  1.0 -0.0327287098
C  C40  1  0.27440000  0.70600000  0.12510000  1.0 -0.0327287098
C  C41  1  0.34900000  0.68780000  0.61550000  1.0 -0.1685255003
C  C42  1  0.68780000  0.34900000  0.88450000  1.0 -0.1685255003
C  C43  1  0.65100000  0.31220000  0.38450000  1.0 -0.1685255003
C  C44  1  0.31220000  0.65100000  0.11550000  1.0 -0.1685255003
C  C45  1  0.44870000  0.73150000  0.66890000  1.0 0.1990178171
C  C46  1  0.73150000  0.44870000  0.83110000  1.0 0.1990178171
C  C47  1  0.55130000  0.26850000  0.33110000  1.0 0.1990178171
C  C48  1  0.26850000  0.55130000  0.16890000  1.0 0.1990178171
C  C49  1  0.49040000  0.80900000  0.73830000  1.0 -0.1833266337
C  C50  1  0.80900000  0.49040000  0.76170000  1.0 -0.1833266337
C  C51  1  0.50960000  0.19100000  0.26170000  1.0 -0.1833266337
C  C52  1  0.19100000  0.50960000  0.23830000  1.0 -0.1833266337
C  C53  1  0.42900000  0.84060000  0.75150000  1.0 -0.010847623
C  C54  1  0.84060000  0.42900000  0.74850000  1.0 -0.010847623
C  C55  1  0.57100000  0.15940000  0.24850000  1.0 -0.010847623
C  C56  1  0.15940000  0.57100000  0.25150000  1.0 -0.010847623
C  C57  1  0.33570000  0.80410000  0.69320000  1.0 -0.0995419929
C  C58  1  0.80410000  0.33570000  0.80680000  1.0 -0.0995419929
C  C59  1  0.66430000  0.19590000  0.30680000  1.0 -0.0995419929
C  C60  1  0.19590000  0.66430000  0.19320000  1.0 -0.0995419929
C  C61  1  0.46890000  0.92010000  0.82790000  1.0 0.6461550984
C  C62  1  0.92010000  0.46890000  0.67210000  1.0 0.6461550984
C  C63  1  0.53110000  0.07990000  0.17210000  1.0 0.6461550984
C  C64  1  0.07990000  0.53110000  0.32790000  1.0 0.6461550984
N  N1  1  0.50570000  0.69630000  0.65010000  1.0 -0.261872789
N  N2  1  0.69630000  0.50570000  0.84990000  1.0 -0.261872789
N  N3  1  0.49430000  0.30370000  0.34990000  1.0 -0.261872789
N  N4  1  0.30370000  0.49430000  0.15010000  1.0 -0.261872789
O  O1  1  0.96560000  0.73720000  0.52000000  1.0 -0.6623152551
O  O2  1  0.73720000  0.96560000  0.98000000  1.0 -0.6623152551
O  O3  1  0.03440000  0.26280000  0.48000000  1.0 -0.6623152551
O  O4  1  0.26280000  0.03440000  0.02000000  1.0 -0.6623152551
O  O5  1  0.80520000  0.55860000  0.50040000  1.0 -0.6084926781
O  O6  1  0.55860000  0.80520000  0.99960000  1.0 -0.6084926781
O  O7  1  0.19480000  0.44140000  0.49960000  1.0 -0.6084926781
O  O8  1  0.44140000  0.19480000  0.00040000  1.0 -0.6084926781
O  O9  1  0.12620000  0.58580000  0.52900000  1.0 -0.7644565509
O  O10  1  0.58580000  0.12620000  0.97100000  1.0 -0.7674160805
O  O11  1  0.87380000  0.41420000  0.47100000  1.0 -0.7644565509
O  O12  1  0.41420000  0.87380000  0.02900000  1.0 -0.7644565509
O  O13  1  0.17070000  0.74670000  0.54490000  1.0 -0.5891241041
O  O14  1  0.74670000  0.17070000  0.95510000  1.0 -0.5891241041
O  O15  1  0.82930000  0.25330000  0.45510000  1.0 -0.5891241041
O  O16  1  0.25330000  0.82930000  0.04490000  1.0 -0.5891241041
O  O17  1  0.41110000  0.94390000  0.83790000  1.0 -0.6665229704
O  O18  1  0.94390000  0.41110000  0.66210000  1.0 -0.6665229704
O  O19  1  0.58890000  0.05610000  0.16210000  1.0 -0.6665229704
O  O20  1  0.05610000  0.58890000  0.33790000  1.0 -0.6665229704
O  O21  1  0.55870000  0.95590000  0.87690000  1.0 -0.6425079015
O  O22  1  0.95590000  0.55870000  0.62310000  1.0 -0.6425079015
O  O23  1  0.44130000  0.04410000  0.12310000  1.0 -0.6425079015
O  O24  1  0.04410000  0.44130000  0.37690000  1.0 -0.6425079015
