# DDEC6 charges by PACMAN v1.1 (https://github.com/mtap-research/PACMAN-charge/)
data_BETFOX_FSR_pacman
_symmetry_space_group_name_H-M   'P 1'
_cell_length_a   16.03640000
_cell_length_b   16.03640000
_cell_length_c   12.83040000
_cell_angle_alpha   77.71910000
_cell_angle_beta   102.28100000
_cell_angle_gamma   127.07900000
_symmetry_Int_Tables_number   1
_chemical_formula_structural   CeH14C19NO9
_chemical_formula_sum   'Ce4 H56 C76 N4 O36'
_cell_volume   2557.01198437
_cell_formula_units_Z   4
loop_
 _symmetry_equiv_pos_site_id
 _symmetry_equiv_pos_as_xyz
  1  'x, y, z'
loop_
 _atom_site_type_symbol
 _atom_site_label
 _atom_site_symmetry_multiplicity
 _atom_site_fract_x
 _atom_site_fract_y
 _atom_site_fract_z
 _atom_site_occupancy
 _atom_site_charge
Ce  Ce1  1  0.10819000  0.46805000  0.56254000  1.0 1.9517756416
Ce  Ce2  1  0.46805000  0.10819000  0.93746000  1.0 1.9517756416
Ce  Ce3  1  0.89181000  0.53195000  0.43746000  1.0 1.9517756416
Ce  Ce4  1  0.53195000  0.89181000  0.06254000  1.0 1.9517756416
H  H1  1  0.02960000  0.14060000  0.45840000  1.0 0.1285502589
H  H2  1  0.14060000  0.02960000  0.04160000  1.0 0.1285502589
H  H3  1  0.97040000  0.85940000  0.54160000  1.0 0.1285502589
H  H4  1  0.85940000  0.97040000  0.95840000  1.0 0.1285502589
H  H5  1  0.06350000  0.03730000  0.40070000  1.0 0.1219461015
H  H6  1  0.03730000  0.06350000  0.09930000  1.0 0.1219461015
H  H7  1  0.93650000  0.96270000  0.59930000  1.0 0.1219461015
H  H8  1  0.96270000  0.93650000  0.90070000  1.0 0.1219461015
H  H9  1  0.36260000  0.28720000  0.37780000  1.0 0.1285502589
H  H10  1  0.28720000  0.36260000  0.12220000  1.0 0.1285502589
H  H11  1  0.63740000  0.71280000  0.62220000  1.0 0.1285502589
H  H12  1  0.71280000  0.63740000  0.87780000  1.0 0.1285502589
H  H13  1  0.32550000  0.39130000  0.42390000  1.0 0.1285502589
H  H14  1  0.39130000  0.32550000  0.07610000  1.0 0.1285502589
H  H15  1  0.67450000  0.60870000  0.57610000  1.0 0.1285502589
H  H16  1  0.60870000  0.67450000  0.92390000  1.0 0.1285502589
H  H17  1  0.12010000  0.80510000  0.42460000  1.0 0.1433519139
H  H18  1  0.80510000  0.12010000  0.07540000  1.0 0.1433519139
H  H19  1  0.87990000  0.19490000  0.57540000  1.0 0.1433519139
H  H20  1  0.19490000  0.87990000  0.92460000  1.0 0.1433519139
H  H21  1  0.32560000  0.04420000  0.22710000  1.0 0.1285502589
H  H22  1  0.04420000  0.32560000  0.27290000  1.0 0.1285502589
H  H23  1  0.67440000  0.95580000  0.77290000  1.0 0.1285502589
H  H24  1  0.95580000  0.67440000  0.72710000  1.0 0.1285502589
H  H25  1  0.32480000  0.78940000  0.31320000  1.0 0.1433519139
H  H26  1  0.78940000  0.32480000  0.18680000  1.0 0.1433519139
H  H27  1  0.67520000  0.21060000  0.68680000  1.0 0.1433519139
H  H28  1  0.21060000  0.67520000  0.81320000  1.0 0.1433519139
H  H29  1  0.98910000  0.21390000  0.95050000  1.0 0.1433519139
H  H30  1  0.21390000  0.98910000  0.54950000  1.0 0.1433519139
H  H31  1  0.01090000  0.78610000  0.04950000  1.0 0.1433519139
H  H32  1  0.78610000  0.01090000  0.45050000  1.0 0.1433519139
H  H33  1  0.90960000  0.21620000  0.85690000  1.0 0.1600839807
H  H34  1  0.21620000  0.90960000  0.64310000  1.0 0.1600839807
H  H35  1  0.09040000  0.78380000  0.14310000  1.0 0.1600839807
H  H36  1  0.78380000  0.09040000  0.35690000  1.0 0.1600839807
H  H37  1  0.94410000  0.14310000  0.85750000  1.0 0.1486853623
H  H38  1  0.14310000  0.94410000  0.64250000  1.0 0.1486853623
H  H39  1  0.05590000  0.85690000  0.14250000  1.0 0.1486853623
H  H40  1  0.85690000  0.05590000  0.35750000  1.0 0.1486853623
H  H41  1  0.14180000  0.25920000  0.92800000  1.0 0.1219461015
H  H42  1  0.25920000  0.14180000  0.57200000  1.0 0.1219461015
H  H43  1  0.85820000  0.74080000  0.07200000  1.0 0.1219461015
H  H44  1  0.74080000  0.85820000  0.42800000  1.0 0.1219461015
H  H45  1  0.15870000  0.26090000  0.81140000  1.0 0.1486853623
H  H46  1  0.26090000  0.15870000  0.68860000  1.0 0.1486853623
H  H47  1  0.84130000  0.73910000  0.18860000  1.0 0.1486853623
H  H48  1  0.73910000  0.84130000  0.31140000  1.0 0.1486853623
H  H49  1  0.21300000  0.36680000  0.85950000  1.0 0.1486853623
H  H50  1  0.36680000  0.21300000  0.64050000  1.0 0.1486853623
H  H51  1  0.78700000  0.63320000  0.14050000  1.0 0.1486853623
H  H52  1  0.63320000  0.78700000  0.35950000  1.0 0.1486853623
H  H53  1  0.31400000  0.13000000  0.33800000  1.0 0.099387729
H  H54  1  0.13000000  0.31400000  0.16200000  1.0 0.099387729
H  H55  1  0.68600000  0.87000000  0.66200000  1.0 0.099387729
H  H56  1  0.87000000  0.68600000  0.83800000  1.0 0.099387729
C  C1  1  0.15637000  0.34043000  0.49724000  1.0 0.5458309366
C  C2  1  0.34043000  0.15637000  0.00276000  1.0 0.5458309366
C  C3  1  0.84363000  0.65957000  0.50276000  1.0 0.5458309366
C  C4  1  0.65957000  0.84363000  0.99724000  1.0 0.5458309366
C  C5  1  0.17525000  0.27475000  0.45330000  1.0 -0.0180783165
C  C6  1  0.27475000  0.17525000  0.04670000  1.0 -0.0180783165
C  C7  1  0.82475000  0.72525000  0.54670000  1.0 -0.0180783165
C  C8  1  0.72525000  0.82475000  0.95330000  1.0 -0.0180783165
C  C9  1  0.09684000  0.16996000  0.44258000  1.0 -0.1086833911
C  C10  1  0.16996000  0.09684000  0.05742000  1.0 -0.1086833911
C  C11  1  0.90316000  0.83004000  0.55742000  1.0 -0.1086833911
C  C12  1  0.83004000  0.90316000  0.94258000  1.0 -0.1086833911
C  C13  1  0.11700000  0.10780000  0.40840000  1.0 -0.1325351582
C  C14  1  0.10780000  0.11700000  0.09160000  1.0 -0.1325351582
C  C15  1  0.88300000  0.89220000  0.59160000  1.0 -0.1325351582
C  C16  1  0.89220000  0.88300000  0.90840000  1.0 -0.1325351582
C  C17  1  0.21829000  0.15211000  0.38548000  1.0 0.0590518945
C  C18  1  0.15211000  0.21829000  0.11452000  1.0 0.0590518945
C  C19  1  0.78171000  0.84789000  0.61452000  1.0 0.0590518945
C  C20  1  0.84789000  0.78171000  0.88548000  1.0 0.0590518945
C  C21  1  0.29510000  0.25750000  0.39320000  1.0 -0.1529901163
C  C22  1  0.25750000  0.29510000  0.10680000  1.0 -0.1529901163
C  C23  1  0.70490000  0.74250000  0.60680000  1.0 -0.1529901163
C  C24  1  0.74250000  0.70490000  0.89320000  1.0 -0.1529901163
C  C25  1  0.27400000  0.31940000  0.42350000  1.0 -0.0921945894
C  C26  1  0.31940000  0.27400000  0.07650000  1.0 -0.0921945894
C  C27  1  0.72600000  0.68060000  0.57650000  1.0 -0.0921945894
C  C28  1  0.68060000  0.72600000  0.92350000  1.0 -0.0921945894
C  C29  1  0.24491000  0.08869000  0.35652000  1.0 0.0590518945
C  C30  1  0.08869000  0.24491000  0.14348000  1.0 0.0590518945
C  C31  1  0.75509000  0.91131000  0.64348000  1.0 0.0590518945
C  C32  1  0.91131000  0.75509000  0.85652000  1.0 0.0590518945
C  C33  1  0.17507000  0.67613000  0.43984000  1.0 0.6027720733
C  C34  1  0.67613000  0.17507000  0.06016000  1.0 0.6027720733
C  C35  1  0.82493000  0.32387000  0.56016000  1.0 0.6027720733
C  C36  1  0.32387000  0.82493000  0.93984000  1.0 0.6027720733
C  C37  1  0.21701000  0.78199000  0.37842000  1.0 -0.0180783165
C  C38  1  0.78199000  0.21701000  0.12158000  1.0 -0.0180783165
C  C39  1  0.78299000  0.21801000  0.62158000  1.0 -0.0180783165
C  C40  1  0.21801000  0.78299000  0.87842000  1.0 -0.0180783165
C  C41  1  0.17637000  0.83583000  0.38514000  1.0 -0.1739002751
C  C42  1  0.83583000  0.17637000  0.11486000  1.0 -0.1739002751
C  C43  1  0.82363000  0.16417000  0.61486000  1.0 -0.1739002751
C  C44  1  0.16417000  0.82363000  0.88514000  1.0 -0.1739002751
C  C45  1  0.22077000  0.93663000  0.33214000  1.0 0.192607799
C  C46  1  0.93663000  0.22077000  0.16786000  1.0 0.192607799
C  C47  1  0.77923000  0.06337000  0.66786000  1.0 0.192607799
C  C48  1  0.06337000  0.77923000  0.83214000  1.0 0.192607799
C  C49  1  0.29894000  0.97866000  0.26618000  1.0 -0.1908454285
C  C50  1  0.97866000  0.29894000  0.23382000  1.0 -0.1908454285
C  C51  1  0.70106000  0.02134000  0.73382000  1.0 -0.1908454285
C  C52  1  0.02134000  0.70106000  0.76618000  1.0 -0.1908454285
C  C53  1  0.33722000  0.92218000  0.25914000  1.0 0.0018891226
C  C54  1  0.92218000  0.33722000  0.24086000  1.0 0.0018891226
C  C55  1  0.66278000  0.07782000  0.74086000  1.0 0.0018891226
C  C56  1  0.07782000  0.66278000  0.75914000  1.0 0.0018891226
C  C57  1  0.29742000  0.82598000  0.31624000  1.0 -0.1086833911
C  C58  1  0.82598000  0.29742000  0.18376000  1.0 -0.1086833911
C  C59  1  0.70258000  0.17402000  0.68376000  1.0 -0.1086833911
C  C60  1  0.17402000  0.70258000  0.81624000  1.0 -0.1086833911
C  C61  1  0.42206000  0.96714000  0.18682000  1.0 0.6146401478
C  C62  1  0.96714000  0.42206000  0.31318000  1.0 0.6146401478
C  C63  1  0.57794000  0.03286000  0.81318000  1.0 0.6146401478
C  C64  1  0.03286000  0.57794000  0.68682000  1.0 0.6146401478
C  C65  1  0.05670000  0.29670000  0.81300000  1.0 0.506298454
C  C66  1  0.29670000  0.05670000  0.68700000  1.0 0.506298454
C  C67  1  0.94330000  0.70330000  0.18700000  1.0 0.506298454
C  C68  1  0.70330000  0.94330000  0.31300000  1.0 0.506298454
C  C69  1  0.96680000  0.20960000  0.87510000  1.0 -0.5662781285
C  C70  1  0.20960000  0.96680000  0.62490000  1.0 -0.5662781285
C  C71  1  0.03320000  0.79040000  0.12490000  1.0 -0.5662781285
C  C72  1  0.79040000  0.03320000  0.37510000  1.0 -0.5662781285
C  C73  1  0.15110000  0.29590000  0.85680000  1.0 -0.5013109432
C  C74  1  0.29590000  0.15110000  0.64320000  1.0 -0.5013109432
C  C75  1  0.84890000  0.70410000  0.14320000  1.0 -0.5013109432
C  C76  1  0.70410000  0.84890000  0.35680000  1.0 -0.5013109432
N  N1  1  0.18081000  0.99199000  0.34822000  1.0 -0.2546940432
N  N2  1  0.99199000  0.18081000  0.15178000  1.0 -0.2546940432
N  N3  1  0.81919000  0.00801000  0.65178000  1.0 -0.2546940432
N  N4  1  0.00801000  0.81919000  0.84822000  1.0 -0.2546940432
O  O1  1  0.22582000  0.43618000  0.49934000  1.0 -0.5316568301
O  O2  1  0.43618000  0.22582000  0.00066000  1.0 -0.5316568301
O  O3  1  0.77418000  0.56382000  0.50066000  1.0 -0.5316568301
O  O4  1  0.56382000  0.77418000  0.99934000  1.0 -0.5316568301
O  O5  1  0.06734000  0.29606000  0.53028000  1.0 -0.6250878261
O  O6  1  0.29606000  0.06734000  0.96972000  1.0 -0.6250878261
O  O7  1  0.93266000  0.70394000  0.46972000  1.0 -0.6250878261
O  O8  1  0.70394000  0.93266000  0.03028000  1.0 -0.6250878261
O  O9  1  0.08242000  0.62018000  0.46724000  1.0 -0.6961566494
O  O10  1  0.62018000  0.08242000  0.03276000  1.0 -0.6961566494
O  O11  1  0.91758000  0.37982000  0.53276000  1.0 -0.6961566494
O  O12  1  0.37982000  0.91758000  0.96724000  1.0 -0.6961566494
O  O13  1  0.23243000  0.64517000  0.46456000  1.0 -0.5125646727
O  O14  1  0.64517000  0.23243000  0.03544000  1.0 -0.5125646727
O  O15  1  0.76757000  0.35483000  0.53544000  1.0 -0.5125646727
O  O16  1  0.35483000  0.76757000  0.96456000  1.0 -0.5125646727
O  O17  1  0.45755000  0.91625000  0.18980000  1.0 -0.5875095413
O  O18  1  0.91625000  0.45755000  0.31020000  1.0 -0.5875095413
O  O19  1  0.54245000  0.08375000  0.81020000  1.0 -0.5875095413
O  O20  1  0.08375000  0.54245000  0.68980000  1.0 -0.5875095413
O  O21  1  0.44926000  0.05254000  0.12972000  1.0 -0.6106781648
O  O22  1  0.05254000  0.44926000  0.37028000  1.0 -0.6106781648
O  O23  1  0.55074000  0.94746000  0.87028000  1.0 -0.6106781648
O  O24  1  0.94746000  0.55074000  0.62972000  1.0 -0.6106781648
O  O25  1  0.27800000  0.55720000  0.68440000  1.0 -0.3917660923
O  O26  1  0.55720000  0.27800000  0.81560000  1.0 -0.3917660923
O  O27  1  0.72200000  0.44280000  0.31560000  1.0 -0.3917660923
O  O28  1  0.44280000  0.72200000  0.18440000  1.0 -0.3917660923
O  O29  1  0.04190000  0.34030000  0.73210000  1.0 -0.0617082776
O  O30  1  0.34030000  0.04190000  0.76790000  1.0 -0.0617082776
O  O31  1  0.95810000  0.65970000  0.26790000  1.0 -0.0617082776
O  O32  1  0.65970000  0.95810000  0.23210000  1.0 -0.0617082776
O  O33  1  0.09420000  0.35260000  0.72830000  1.0 -0.0921945894
O  O34  1  0.35260000  0.09420000  0.77170000  1.0 -0.0921945894
O  O35  1  0.90580000  0.64740000  0.27170000  1.0 -0.0921945894
O  O36  1  0.64740000  0.90580000  0.22830000  1.0 -0.0921945894
