# DDEC6 charges by PACMAN v1.1 (https://github.com/mtap-research/PACMAN-charge/)
data_BETFEN_ASR_pacman
_symmetry_space_group_name_H-M   'P 1'
_cell_length_a   16.11510000
_cell_length_b   16.11510000
_cell_length_c   13.63470000
_cell_angle_alpha   81.36750000
_cell_angle_beta   98.63250000
_cell_angle_gamma   127.26400000
_symmetry_Int_Tables_number   1
_chemical_formula_structural   PrH8C16NO6
_chemical_formula_sum   'Pr4 H32 C64 N4 O24'
_cell_volume   2778.20121051
_cell_formula_units_Z   4
loop_
 _symmetry_equiv_pos_site_id
 _symmetry_equiv_pos_as_xyz
  1  'x, y, z'
loop_
 _atom_site_type_symbol
 _atom_site_label
 _atom_site_symmetry_multiplicity
 _atom_site_fract_x
 _atom_site_fract_y
 _atom_site_fract_z
 _atom_site_occupancy
 _atom_site_charge
Pr  Pr1  1  0.60559000  0.96905000  0.04320000  1.0 2.0958048012
Pr  Pr2  1  0.96905000  0.60559000  0.45680000  1.0 2.0958048012
Pr  Pr3  1  0.39441000  0.03095000  0.95680000  1.0 2.0958048012
Pr  Pr4  1  0.03095000  0.39441000  0.54320000  1.0 2.0958048012
H  H1  1  0.81770000  0.88030000  0.92050000  1.0 0.1289787572
H  H2  1  0.88030000  0.81770000  0.57950000  1.0 0.1289787572
H  H3  1  0.18230000  0.11970000  0.07950000  1.0 0.1289787572
H  H4  1  0.11970000  0.18230000  0.42050000  1.0 0.1289787572
H  H5  1  0.86110000  0.77650000  0.88660000  1.0 0.1289787572
H  H6  1  0.77650000  0.86110000  0.61340000  1.0 0.1289787572
H  H7  1  0.13890000  0.22350000  0.11340000  1.0 0.1289787572
H  H8  1  0.22350000  0.13890000  0.38660000  1.0 0.1289787572
H  H9  1  0.56150000  0.52810000  0.89890000  1.0 0.1220939737
H  H10  1  0.52810000  0.56150000  0.60110000  1.0 0.1220939737
H  H11  1  0.43850000  0.47190000  0.10110000  1.0 0.1220939737
H  H12  1  0.47190000  0.43850000  0.39890000  1.0 0.1220939737
H  H13  1  0.52270000  0.63330000  0.94760000  1.0 0.1289787572
H  H14  1  0.63330000  0.52270000  0.55240000  1.0 0.1289787572
H  H15  1  0.47730000  0.36670000  0.05240000  1.0 0.1289787572
H  H16  1  0.36670000  0.47730000  0.44760000  1.0 0.1289787572
H  H17  1  0.81400000  0.61400000  0.88200000  1.0 0.0962682795
H  H18  1  0.61400000  0.81400000  0.61800000  1.0 0.0962682795
H  H19  1  0.18600000  0.38600000  0.11800000  1.0 0.0962682795
H  H20  1  0.38600000  0.18600000  0.38200000  1.0 0.0962682795
H  H21  1  0.81870000  0.27830000  0.79970000  1.0 0.1289787572
H  H22  1  0.27830000  0.81870000  0.70030000  1.0 0.1289787572
H  H23  1  0.18130000  0.72170000  0.20030000  1.0 0.1289787572
H  H24  1  0.72170000  0.18130000  0.29970000  1.0 0.1289787572
H  H25  1  0.81610000  0.52830000  0.72420000  1.0 0.1220939737
H  H26  1  0.52830000  0.81610000  0.77580000  1.0 0.1220939737
H  H27  1  0.18390000  0.47170000  0.27580000  1.0 0.1220939737
H  H28  1  0.47170000  0.18390000  0.22420000  1.0 0.1220939737
H  H29  1  0.62020000  0.30100000  0.91980000  1.0 0.1384920683
H  H30  1  0.30100000  0.62020000  0.58020000  1.0 0.1384920683
H  H31  1  0.37980000  0.69900000  0.08020000  1.0 0.1384920683
H  H32  1  0.69900000  0.37980000  0.41980000  1.0 0.1384920683
C  C1  1  0.64260000  0.83260000  0.97860000  1.0 0.5597303268
C  C2  1  0.83260000  0.64260000  0.52140000  1.0 0.5597303268
C  C3  1  0.35740000  0.16740000  0.02140000  1.0 0.5597303268
C  C4  1  0.16740000  0.35740000  0.47860000  1.0 0.5597303268
C  C5  1  0.66610000  0.76630000  0.94290000  1.0 -0.0275077913
C  C6  1  0.76630000  0.66610000  0.55710000  1.0 -0.0275077913
C  C7  1  0.33390000  0.23370000  0.05710000  1.0 -0.0275077913
C  C8  1  0.23370000  0.33390000  0.44290000  1.0 -0.0275077913
C  C9  1  0.76640000  0.80860000  0.91920000  1.0 -0.092709491
C  C10  1  0.80860000  0.76640000  0.58080000  1.0 -0.092709491
C  C11  1  0.23360000  0.19140000  0.08080000  1.0 -0.092709491
C  C12  1  0.19140000  0.23360000  0.41920000  1.0 -0.092709491
C  C13  1  0.79200000  0.74800000  0.89410000  1.0 -0.1695228759
C  C14  1  0.74800000  0.79200000  0.60590000  1.0 -0.1695228759
C  C15  1  0.20800000  0.25200000  0.10590000  1.0 -0.1695228759
C  C16  1  0.25200000  0.20800000  0.39410000  1.0 -0.1695228759
C  C17  1  0.71320000  0.64340000  0.88020000  1.0 0.0598356481
C  C18  1  0.64340000  0.71320000  0.61980000  1.0 0.0598356481
C  C19  1  0.28680000  0.35660000  0.11980000  1.0 0.0598356481
C  C20  1  0.35660000  0.28680000  0.38020000  1.0 0.0598356481
C  C21  1  0.61360000  0.59940000  0.90330000  1.0 -0.13856926
C  C22  1  0.59940000  0.61360000  0.59670000  1.0 -0.13856926
C  C23  1  0.38640000  0.40060000  0.09670000  1.0 -0.13856926
C  C24  1  0.40060000  0.38640000  0.40330000  1.0 -0.13856926
C  C25  1  0.59060000  0.66280000  0.93370000  1.0 -0.0989739541
C  C26  1  0.66280000  0.59060000  0.56630000  1.0 -0.0989739541
C  C27  1  0.40940000  0.33720000  0.06630000  1.0 -0.0989739541
C  C28  1  0.33720000  0.40940000  0.43370000  1.0 -0.0989739541
C  C29  1  0.74290000  0.57950000  0.85540000  1.0 0.0598356481
C  C30  1  0.57950000  0.74290000  0.64460000  1.0 0.0598356481
C  C31  1  0.25710000  0.42050000  0.14460000  1.0 0.0598356481
C  C32  1  0.42050000  0.25710000  0.35540000  1.0 0.0598356481
C  C33  1  0.67230000  0.17030000  0.93000000  1.0 0.6164896395
C  C34  1  0.17030000  0.67230000  0.57000000  1.0 0.6164896395
C  C35  1  0.32770000  0.82970000  0.07000000  1.0 0.6164896395
C  C36  1  0.82970000  0.32770000  0.43000000  1.0 0.6164896395
C  C37  1  0.71490000  0.27510000  0.87200000  1.0 -0.0078320295
C  C38  1  0.27510000  0.71490000  0.62800000  1.0 -0.0078320295
C  C39  1  0.28510000  0.72490000  0.12800000  1.0 -0.0078320295
C  C40  1  0.72490000  0.28510000  0.37200000  1.0 -0.0078320295
C  C41  1  0.79300000  0.31540000  0.80680000  1.0 -0.0989739541
C  C42  1  0.31540000  0.79300000  0.69320000  1.0 -0.0989739541
C  C43  1  0.20700000  0.68460000  0.19320000  1.0 -0.0989739541
C  C44  1  0.68460000  0.20700000  0.30680000  1.0 -0.0989739541
C  C45  1  0.83200000  0.41100000  0.75270000  1.0 -0.039655989
C  C46  1  0.41100000  0.83200000  0.74730000  1.0 -0.039655989
C  C47  1  0.16800000  0.58900000  0.24730000  1.0 -0.039655989
C  C48  1  0.58900000  0.16800000  0.25270000  1.0 -0.039655989
C  C49  1  0.79320000  0.46640000  0.76310000  1.0 -0.177694507
C  C50  1  0.46640000  0.79320000  0.73690000  1.0 -0.177694507
C  C51  1  0.20680000  0.53360000  0.23690000  1.0 -0.177694507
C  C52  1  0.53360000  0.20680000  0.26310000  1.0 -0.177694507
C  C53  1  0.71950000  0.42790000  0.83280000  1.0 0.1893930938
C  C54  1  0.42790000  0.71950000  0.66720000  1.0 0.1893930938
C  C55  1  0.28050000  0.57210000  0.16720000  1.0 0.1893930938
C  C56  1  0.57210000  0.28050000  0.33280000  1.0 0.1893930938
C  C57  1  0.67600000  0.33020000  0.88100000  1.0 -0.177694507
C  C58  1  0.33020000  0.67600000  0.61900000  1.0 -0.177694507
C  C59  1  0.32400000  0.66980000  0.11900000  1.0 -0.177694507
C  C60  1  0.66980000  0.32400000  0.38100000  1.0 -0.177694507
C  C61  1  0.90750000  0.44970000  0.67850000  1.0 0.6429861989
C  C62  1  0.44970000  0.90750000  0.82150000  1.0 0.6429861989
C  C63  1  0.09250000  0.55030000  0.32150000  1.0 0.6429861989
C  C64  1  0.55030000  0.09250000  0.17850000  1.0 0.6429861989
N  N1  1  0.68140000  0.48440000  0.85070000  1.0 -0.2581931148
N  N2  1  0.48440000  0.68140000  0.64930000  1.0 -0.2581931148
N  N3  1  0.31860000  0.51560000  0.14930000  1.0 -0.2581931148
N  N4  1  0.51560000  0.31860000  0.35070000  1.0 -0.2581931148
O  O1  1  0.55350000  0.79130000  0.00590000  1.0 -0.6211769078
O  O2  1  0.79130000  0.55350000  0.49410000  1.0 -0.6211769078
O  O3  1  0.44650000  0.20870000  0.99410000  1.0 -0.6211769078
O  O4  1  0.20870000  0.44650000  0.50590000  1.0 -0.6211769078
O  O5  1  0.71290000  0.92630000  0.98230000  1.0 -0.6014267597
O  O6  1  0.92630000  0.71290000  0.51770000  1.0 -0.6014267597
O  O7  1  0.28710000  0.07370000  0.01770000  1.0 -0.6014267597
O  O8  1  0.07370000  0.28710000  0.48230000  1.0 -0.6014267597
O  O9  1  0.58162000  0.11698000  0.96140000  1.0 -0.7609482054
O  O10  1  0.11698000  0.58162000  0.53860000  1.0 -0.7609482054
O  O11  1  0.41838000  0.88302000  0.03860000  1.0 -0.7609482054
O  O12  1  0.88302000  0.41838000  0.46140000  1.0 -0.7609482054
O  O13  1  0.72820000  0.13940000  0.94630000  1.0 -0.6014267597
O  O14  1  0.13940000  0.72820000  0.55370000  1.0 -0.6014267597
O  O15  1  0.27180000  0.86060000  0.05370000  1.0 -0.6014267597
O  O16  1  0.86060000  0.27180000  0.44630000  1.0 -0.6014267597
O  O17  1  0.93990000  0.39690000  0.66900000  1.0 -0.6831630115
O  O18  1  0.39690000  0.93990000  0.83100000  1.0 -0.6831630115
O  O19  1  0.06010000  0.60310000  0.33100000  1.0 -0.6831630115
O  O20  1  0.60310000  0.06010000  0.16900000  1.0 -0.6831630115
O  O21  1  0.93900000  0.53700000  0.62990000  1.0 -0.6634695623
O  O22  1  0.53700000  0.93900000  0.87010000  1.0 -0.6634695623
O  O23  1  0.06100000  0.46300000  0.37010000  1.0 -0.6634695623
O  O24  1  0.46300000  0.06100000  0.12990000  1.0 -0.6634695623
