# DDEC6 charges by PACMAN v1.1 (https://github.com/mtap-research/PACMAN-charge/)
data_BETFIR_ASR_pacman
_symmetry_space_group_name_H-M   'P 1'
_cell_length_a   16.15640000
_cell_length_b   16.15640000
_cell_length_c   12.01300000
_cell_angle_alpha   75.60460000
_cell_angle_beta   104.39500000
_cell_angle_gamma   125.04000000
_symmetry_Int_Tables_number   1
_chemical_formula_structural   CeH11C17NO8
_chemical_formula_sum   'Ce4 H44 C68 N4 O32'
_cell_volume   2464.53005259
_cell_formula_units_Z   4
loop_
 _symmetry_equiv_pos_site_id
 _symmetry_equiv_pos_as_xyz
  1  'x, y, z'
loop_
 _atom_site_type_symbol
 _atom_site_label
 _atom_site_symmetry_multiplicity
 _atom_site_fract_x
 _atom_site_fract_y
 _atom_site_fract_z
 _atom_site_occupancy
 _atom_site_charge
Ce  Ce1  1  0.45679000  0.10153000  0.43058000  1.0 1.8780123169
Ce  Ce2  1  0.10153000  0.45679000  0.06942000  1.0 1.87378901
Ce  Ce3  1  0.54321000  0.89847000  0.56942000  1.0 1.8780123169
Ce  Ce4  1  0.89847000  0.54321000  0.93058000  1.0 1.8780123169
H  H1  1  0.37790000  0.31890000  0.56570000  1.0 0.1101932985
H  H2  1  0.31890000  0.37790000  0.93430000  1.0 0.1101932985
H  H3  1  0.62210000  0.68110000  0.43430000  1.0 0.1101932985
H  H4  1  0.68110000  0.62210000  0.06570000  1.0 0.1101932985
H  H5  1  0.27430000  0.35750000  0.61290000  1.0 0.103184176
H  H6  1  0.35750000  0.27430000  0.88710000  1.0 0.103184176
H  H7  1  0.72570000  0.64250000  0.38710000  1.0 0.103184176
H  H8  1  0.64250000  0.72570000  0.11290000  1.0 0.103184176
H  H9  1  0.03810000  0.06530000  0.60100000  1.0 0.1101932985
H  H10  1  0.06530000  0.03810000  0.89900000  1.0 0.1101932985
H  H11  1  0.96190000  0.93470000  0.39900000  1.0 0.1101932985
H  H12  1  0.93470000  0.96190000  0.10100000  1.0 0.1101932985
H  H13  1  0.14080000  0.03140000  0.54110000  1.0 0.1185293094
H  H14  1  0.03140000  0.14080000  0.95890000  1.0 0.1185293094
H  H15  1  0.85920000  0.96860000  0.45890000  1.0 0.1185293094
H  H16  1  0.96860000  0.85920000  0.04110000  1.0 0.1185293094
H  H17  1  0.80100000  0.12360000  0.56330000  1.0 0.1388849256
H  H18  1  0.12360000  0.80100000  0.93670000  1.0 0.1388849256
H  H19  1  0.19900000  0.87640000  0.43670000  1.0 0.1388849256
H  H20  1  0.87640000  0.19900000  0.06330000  1.0 0.1388849256
H  H21  1  0.03870000  0.32750000  0.76410000  1.0 0.1185293094
H  H22  1  0.32750000  0.03870000  0.73590000  1.0 0.1185293094
H  H23  1  0.96130000  0.67250000  0.23590000  1.0 0.1185293094
H  H24  1  0.67250000  0.96130000  0.26410000  1.0 0.1185293094
H  H25  1  0.78350000  0.32870000  0.67040000  1.0 0.1185293094
H  H26  1  0.32870000  0.78350000  0.82960000  1.0 0.1185293094
H  H27  1  0.21650000  0.67130000  0.32960000  1.0 0.1185293094
H  H28  1  0.67130000  0.21650000  0.17040000  1.0 0.1185293094
H  H29  1  0.12400000  0.31400000  0.65100000  1.0 0.0754081508
H  H30  1  0.31400000  0.12400000  0.84900000  1.0 0.0754081508
H  H31  1  0.87600000  0.68600000  0.34900000  1.0 0.0754081508
H  H32  1  0.68600000  0.87600000  0.15100000  1.0 0.0754081508
H  H33  1  0.52950000  0.33250000  0.13740000  1.0 0.1263415555
H  H34  1  0.33250000  0.52950000  0.36260000  1.0 0.1263415555
H  H35  1  0.47050000  0.66750000  0.86260000  1.0 0.1263415555
H  H36  1  0.66750000  0.47050000  0.63740000  1.0 0.1263415555
H  H37  1  0.50980000  0.22300000  0.16290000  1.0 0.1263415555
H  H38  1  0.22300000  0.50980000  0.33710000  1.0 0.1263415555
H  H39  1  0.49020000  0.77700000  0.83710000  1.0 0.1185293094
H  H40  1  0.77700000  0.49020000  0.66290000  1.0 0.1263415555
H  H41  1  0.42800000  0.23920000  0.18300000  1.0 0.1185293094
H  H42  1  0.23920000  0.42800000  0.31700000  1.0 0.1185293094
H  H43  1  0.57200000  0.76080000  0.81700000  1.0 0.1185293094
H  H44  1  0.76080000  0.57200000  0.68300000  1.0 0.1185293094
C  C1  1  0.33340000  0.14980000  0.50490000  1.0 0.5424325293
C  C2  1  0.14980000  0.33340000  0.99510000  1.0 0.5424325293
C  C3  1  0.66666667  0.85020000  0.49510000  1.0 0.5424325293
C  C4  1  0.85020000  0.66666667  0.00490000  1.0 0.5424325293
C  C5  1  0.26850000  0.17170000  0.54740000  1.0 -0.0276798956
C  C6  1  0.17170000  0.26850000  0.95260000  1.0 -0.0276798956
C  C7  1  0.73150000  0.82830000  0.45260000  1.0 -0.0276798956
C  C8  1  0.82830000  0.73150000  0.04740000  1.0 -0.0276798956
C  C9  1  0.30920000  0.26900000  0.57010000  1.0 -0.1145467931
C  C10  1  0.26900000  0.30920000  0.92990000  1.0 -0.1145467931
C  C11  1  0.69080000  0.73100000  0.42990000  1.0 -0.1145467931
C  C12  1  0.73100000  0.69080000  0.07010000  1.0 -0.1145467931
C  C13  1  0.24730000  0.29170000  0.59940000  1.0 -0.1717505182
C  C14  1  0.29170000  0.24730000  0.90060000  1.0 -0.1717505182
C  C15  1  0.75270000  0.70830000  0.40060000  1.0 -0.1717505182
C  C16  1  0.70830000  0.75270000  0.09940000  1.0 -0.1717505182
C  C17  1  0.14570000  0.21690000  0.60870000  1.0 0.0629207914
C  C18  1  0.21690000  0.14570000  0.89130000  1.0 0.0629207914
C  C19  1  0.85430000  0.78310000  0.39130000  1.0 0.0629207914
C  C20  1  0.78310000  0.85430000  0.10870000  1.0 0.0629207914
C  C21  1  0.10530000  0.11690000  0.59070000  1.0 -0.1404493755
C  C22  1  0.11690000  0.10530000  0.90930000  1.0 -0.1404493755
C  C23  1  0.89470000  0.88310000  0.40930000  1.0 -0.1404493755
C  C24  1  0.88310000  0.89470000  0.09070000  1.0 -0.1404493755
C  C25  1  0.16750000  0.09630000  0.55710000  1.0 -0.1028967673
C  C26  1  0.09630000  0.16750000  0.94290000  1.0 -0.1028967673
C  C27  1  0.83250000  0.90370000  0.44290000  1.0 -0.1028967673
C  C28  1  0.90370000  0.83250000  0.05710000  1.0 -0.1028967673
C  C29  1  0.08070000  0.24590000  0.63180000  1.0 0.0475398039
C  C30  1  0.24590000  0.08070000  0.86820000  1.0 0.0475398039
C  C31  1  0.91930000  0.75410000  0.36820000  1.0 0.0475398039
C  C32  1  0.75410000  0.91930000  0.13180000  1.0 0.0475398039
C  C33  1  0.66960000  0.17500000  0.54950000  1.0 0.5893319225
C  C34  1  0.17500000  0.66960000  0.95050000  1.0 0.5893319225
C  C35  1  0.33040000  0.82500000  0.45050000  1.0 0.5893319225
C  C36  1  0.82500000  0.33040000  0.04950000  1.0 0.5893319225
C  C37  1  0.77650000  0.22010000  0.60720000  1.0 -0.0276798956
C  C38  1  0.22010000  0.77650000  0.89280000  1.0 -0.0276798956
C  C39  1  0.22350000  0.77990000  0.39280000  1.0 -0.0276798956
C  C40  1  0.77990000  0.22350000  0.10720000  1.0 -0.0276798956
C  C41  1  0.83110000  0.17950000  0.60240000  1.0 -0.1822480435
C  C42  1  0.17950000  0.83110000  0.89760000  1.0 -0.1822480435
C  C43  1  0.16890000  0.82050000  0.39760000  1.0 -0.1822480435
C  C44  1  0.82050000  0.16890000  0.10240000  1.0 -0.1822480435
C  C45  1  0.93270000  0.22350000  0.65740000  1.0 0.2046607224
C  C46  1  0.22350000  0.93270000  0.84260000  1.0 0.2046607224
C  C47  1  0.06730000  0.77650000  0.34260000  1.0 0.2046607224
C  C48  1  0.77650000  0.06730000  0.15740000  1.0 0.2046607224
C  C49  1  0.97360000  0.30160000  0.72280000  1.0 -0.1822480435
C  C50  1  0.30160000  0.97360000  0.77720000  1.0 -0.1822480435
C  C51  1  0.02640000  0.69840000  0.27720000  1.0 -0.1822480435
C  C52  1  0.69840000  0.02640000  0.22280000  1.0 -0.1822480435
C  C53  1  0.91770000  0.34130000  0.72710000  1.0 -0.0276798956
C  C54  1  0.34130000  0.91770000  0.77290000  1.0 -0.0276798956
C  C55  1  0.08230000  0.65870000  0.27290000  1.0 -0.0276798956
C  C56  1  0.65870000  0.08230000  0.22710000  1.0 -0.0276798956
C  C57  1  0.82020000  0.30120000  0.66860000  1.0 -0.1404493755
C  C58  1  0.30120000  0.82020000  0.83140000  1.0 -0.1404493755
C  C59  1  0.17980000  0.69880000  0.33140000  1.0 -0.1404493755
C  C60  1  0.69880000  0.17980000  0.16860000  1.0 -0.1404493755
C  C61  1  0.96200000  0.42600000  0.79810000  1.0 0.6196801042
C  C62  1  0.42600000  0.96200000  0.70190000  1.0 0.6196801042
C  C63  1  0.03800000  0.57400000  0.20190000  1.0 0.6196801042
C  C64  1  0.57400000  0.03800000  0.29810000  1.0 0.6196801042
C  C65  1  0.49960000  0.26840000  0.18700000  1.0 -0.0384687401
C  C66  1  0.26840000  0.49960000  0.31300000  1.0 -0.0384687401
C  C67  1  0.50040000  0.73160000  0.81300000  1.0 -0.0384687401
C  C68  1  0.73160000  0.50040000  0.68700000  1.0 -0.0384687401
N  N1  1  0.98680000  0.18280000  0.64310000  1.0 -0.2820310617
N  N2  1  0.18280000  0.98680000  0.85690000  1.0 -0.2820310617
N  N3  1  0.01320000  0.81720000  0.35690000  1.0 -0.2820310617
N  N4  1  0.81720000  0.01320000  0.14310000  1.0 -0.2820310617
O  O1  1  0.42747000  0.21673000  0.50490000  1.0 -0.6108153561
O  O2  1  0.21673000  0.42747000  0.99510000  1.0 -0.6108153561
O  O3  1  0.57253000  0.78327000  0.49510000  1.0 -0.6108153561
O  O4  1  0.78327000  0.57253000  0.00490000  1.0 -0.6108153561
O  O5  1  0.29062000  0.06638000  0.46680000  1.0 -0.6108153561
O  O6  1  0.06638000  0.29062000  0.03320000  1.0 -0.6108153561
O  O7  1  0.70938000  0.93362000  0.53320000  1.0 -0.6108153561
O  O8  1  0.93362000  0.70938000  0.96680000  1.0 -0.6108153561
O  O9  1  0.61585000  0.08195000  0.53090000  1.0 -0.7028786415
O  O10  1  0.08195000  0.61585000  0.96910000  1.0 -0.7028786415
O  O11  1  0.38415000  0.91805000  0.46910000  1.0 -0.7028786415
O  O12  1  0.91805000  0.38415000  0.03090000  1.0 -0.7028786415
O  O13  1  0.63300000  0.22940000  0.51820000  1.0 -0.5856654073
O  O14  1  0.22940000  0.63300000  0.98180000  1.0 -0.5856654073
O  O15  1  0.36700000  0.77060000  0.48180000  1.0 -0.5856654073
O  O16  1  0.77060000  0.36700000  0.01820000  1.0 -0.5856654073
O  O17  1  0.91192000  0.46568000  0.79190000  1.0 -0.6572970176
O  O18  1  0.46568000  0.91192000  0.70810000  1.0 -0.6572970176
O  O19  1  0.08808000  0.53432000  0.20810000  1.0 -0.6572970176
O  O20  1  0.53432000  0.08808000  0.29190000  1.0 -0.6572970176
O  O21  1  0.04743000  0.45277000  0.86060000  1.0 -0.6294218624
O  O22  1  0.45277000  0.04743000  0.63940000  1.0 -0.6294218624
O  O23  1  0.95257000  0.54723000  0.13940000  1.0 -0.6294218624
O  O24  1  0.54723000  0.95257000  0.36060000  1.0 -0.6294218624
O  O25  1  0.50690000  0.25950000  0.28250000  1.0 0.0445921521
O  O26  1  0.25950000  0.50690000  0.21750000  1.0 0.0475398039
O  O27  1  0.49310000  0.74050000  0.71750000  1.0 0.0445921521
O  O28  1  0.74050000  0.49310000  0.78250000  1.0 0.0445921521
O  O29  1  0.54690000  0.28510000  0.30200000  1.0 -0.0143185175
O  O30  1  0.28510000  0.54690000  0.19800000  1.0 -0.0172811861
O  O31  1  0.45310000  0.71490000  0.69800000  1.0 -0.0172811861
O  O32  1  0.71490000  0.45310000  0.80200000  1.0 -0.0172811861
