# DDEC6 charges by PACMAN v1.1 (https://github.com/mtap-research/PACMAN-charge/)
data_BETFUD_ASR_pacman
_symmetry_space_group_name_H-M   'P 1'
_cell_length_a   16.24870000
_cell_length_b   16.24870000
_cell_length_c   13.50970000
_cell_angle_alpha   80.96430000
_cell_angle_beta   99.03570000
_cell_angle_gamma   126.73100000
_symmetry_Int_Tables_number   1
_chemical_formula_structural   CeH8C16NO6
_chemical_formula_sum   'Ce4 H32 C64 N4 O24'
_cell_volume   2814.18061853
_cell_formula_units_Z   4
loop_
 _symmetry_equiv_pos_site_id
 _symmetry_equiv_pos_as_xyz
  1  'x, y, z'
loop_
 _atom_site_type_symbol
 _atom_site_label
 _atom_site_symmetry_multiplicity
 _atom_site_fract_x
 _atom_site_fract_y
 _atom_site_fract_z
 _atom_site_occupancy
 _atom_site_charge
Ce  Ce1  1  0.46729000  0.10465000  0.95721000  1.0 1.9934477374
Ce  Ce2  1  0.10465000  0.46729000  0.54279000  1.0 1.9934477374
Ce  Ce3  1  0.53271000  0.89535000  0.04279000  1.0 1.9934477374
Ce  Ce4  1  0.89535000  0.53271000  0.45721000  1.0 1.9960743154
H  H1  1  0.37440000  0.31580000  0.06810000  1.0 0.1213021572
H  H2  1  0.31580000  0.37440000  0.43190000  1.0 0.1213021572
H  H3  1  0.62560000  0.68420000  0.93190000  1.0 0.1213021572
H  H4  1  0.68420000  0.62560000  0.56810000  1.0 0.1213021572
H  H5  1  0.27380000  0.35740000  0.11740000  1.0 0.1213021572
H  H6  1  0.35740000  0.27380000  0.38260000  1.0 0.1213021572
H  H7  1  0.72620000  0.64260000  0.88260000  1.0 0.1213021572
H  H8  1  0.64260000  0.72620000  0.61740000  1.0 0.1213021572
H  H9  1  0.02840000  0.06140000  0.10920000  1.0 0.1213021572
H  H10  1  0.06140000  0.02840000  0.39080000  1.0 0.1213021572
H  H11  1  0.97160000  0.93860000  0.89080000  1.0 0.1213021572
H  H12  1  0.93860000  0.97160000  0.60920000  1.0 0.1213021572
H  H13  1  0.13190000  0.02250000  0.05550000  1.0 0.1213021572
H  H14  1  0.02250000  0.13190000  0.44450000  1.0 0.1213021572
H  H15  1  0.86810000  0.97750000  0.94450000  1.0 0.1213021572
H  H16  1  0.97750000  0.86810000  0.55550000  1.0 0.1213021572
H  H17  1  0.03030000  0.32270000  0.26840000  1.0 0.1213021572
H  H18  1  0.32270000  0.03030000  0.23160000  1.0 0.1213021572
H  H19  1  0.96970000  0.67730000  0.73160000  1.0 0.1213021572
H  H20  1  0.67730000  0.96970000  0.76840000  1.0 0.1213021572
H  H21  1  0.80110000  0.12250000  0.07590000  1.0 0.1392561759
H  H22  1  0.12250000  0.80110000  0.42410000  1.0 0.1392561759
H  H23  1  0.19890000  0.87750000  0.92410000  1.0 0.1392561759
H  H24  1  0.87750000  0.19890000  0.57590000  1.0 0.1392561759
H  H25  1  0.77890000  0.32010000  0.19580000  1.0 0.1321267153
H  H26  1  0.32010000  0.77890000  0.30420000  1.0 0.1321267153
H  H27  1  0.22110000  0.67990000  0.80420000  1.0 0.1321267153
H  H28  1  0.67990000  0.22110000  0.69580000  1.0 0.1321267153
H  H29  1  0.13400000  0.31800000  0.15100000  1.0 0.0789440091
H  H30  1  0.31800000  0.13400000  0.34900000  1.0 0.0789440091
H  H31  1  0.86600000  0.68200000  0.84900000  1.0 0.0789440091
H  H32  1  0.68200000  0.86600000  0.65100000  1.0 0.0789440091
C  C1  1  0.32710000  0.13910000  0.01920000  1.0 0.5591098781
C  C2  1  0.13910000  0.32710000  0.48080000  1.0 0.5591098781
C  C3  1  0.67290000  0.86090000  0.98080000  1.0 0.5591098781
C  C4  1  0.86090000  0.67290000  0.51920000  1.0 0.5591098781
C  C5  1  0.26210000  0.16550000  0.05410000  1.0 -0.0292527822
C  C6  1  0.16550000  0.26210000  0.44590000  1.0 -0.0292527822
C  C7  1  0.73790000  0.83450000  0.94590000  1.0 -0.0292527822
C  C8  1  0.83450000  0.73790000  0.55410000  1.0 -0.0292527822
C  C9  1  0.30460000  0.26480000  0.07460000  1.0 -0.091437984
C  C10  1  0.26480000  0.30460000  0.42540000  1.0 -0.091437984
C  C11  1  0.69540000  0.73520000  0.92540000  1.0 -0.091437984
C  C12  1  0.73520000  0.69540000  0.57460000  1.0 -0.091437984
C  C13  1  0.24430000  0.28990000  0.10490000  1.0 -0.1635851299
C  C14  1  0.28990000  0.24430000  0.39510000  1.0 -0.1635851299
C  C15  1  0.75570000  0.71010000  0.89510000  1.0 -0.1635851299
C  C16  1  0.71010000  0.75570000  0.60490000  1.0 -0.1635851299
C  C17  1  0.14190000  0.21530000  0.11640000  1.0 0.0628157521
C  C18  1  0.21530000  0.14190000  0.38360000  1.0 0.0628157521
C  C19  1  0.85810000  0.78470000  0.88360000  1.0 0.0628157521
C  C20  1  0.78470000  0.85810000  0.61640000  1.0 0.0628157521
C  C21  1  0.09750000  0.11290000  0.09960000  1.0 -0.1353064289
C  C22  1  0.11290000  0.09750000  0.40040000  1.0 -0.1353064289
C  C23  1  0.90250000  0.88710000  0.90040000  1.0 -0.1353064289
C  C24  1  0.88710000  0.90250000  0.59960000  1.0 -0.1353064289
C  C25  1  0.16030000  0.08990000  0.06750000  1.0 -0.0998936572
C  C26  1  0.08990000  0.16030000  0.43250000  1.0 -0.0998936572
C  C27  1  0.83970000  0.91010000  0.93250000  1.0 -0.0998936572
C  C28  1  0.91010000  0.83970000  0.56750000  1.0 -0.0998936572
C  C29  1  0.07760000  0.24320000  0.14560000  1.0 0.0628157521
C  C30  1  0.24320000  0.07760000  0.35440000  1.0 0.0628157521
C  C31  1  0.92240000  0.75680000  0.85440000  1.0 0.0628157521
C  C32  1  0.75680000  0.92240000  0.64560000  1.0 0.0628157521
C  C33  1  0.95120000  0.41220000  0.31660000  1.0 0.6210320557
C  C34  1  0.41220000  0.95120000  0.18340000  1.0 0.6210320557
C  C35  1  0.04880000  0.58780000  0.68340000  1.0 0.6210320557
C  C36  1  0.58780000  0.04880000  0.81660000  1.0 0.6210320557
C  C37  1  0.90990000  0.33270000  0.24460000  1.0 -0.0242027959
C  C38  1  0.33270000  0.90990000  0.25540000  1.0 -0.0242027959
C  C39  1  0.09010000  0.66730000  0.75540000  1.0 -0.0242027959
C  C40  1  0.66730000  0.09010000  0.74460000  1.0 -0.0242027959
C  C41  1  0.96660000  0.29620000  0.23280000  1.0 -0.1873209958
C  C42  1  0.29620000  0.96660000  0.26720000  1.0 -0.1873209958
C  C43  1  0.03340000  0.70380000  0.76720000  1.0 -0.1873209958
C  C44  1  0.70380000  0.03340000  0.73280000  1.0 -0.1873209958
C  C45  1  0.92700000  0.21960000  0.16730000  1.0 0.2059699188
C  C46  1  0.21960000  0.92700000  0.33270000  1.0 0.2059699188
C  C47  1  0.07300000  0.78040000  0.83270000  1.0 0.2059699188
C  C48  1  0.78040000  0.07300000  0.66730000  1.0 0.2059699188
C  C49  1  0.82880000  0.17620000  0.11630000  1.0 -0.180965617
C  C50  1  0.17620000  0.82880000  0.38370000  1.0 -0.180965617
C  C51  1  0.17120000  0.82380000  0.88370000  1.0 -0.180965617
C  C52  1  0.82380000  0.17120000  0.61630000  1.0 -0.180965617
C  C53  1  0.77360000  0.21420000  0.12700000  1.0 -0.0242027959
C  C54  1  0.21420000  0.77360000  0.37300000  1.0 -0.0242027959
C  C55  1  0.22640000  0.78580000  0.87300000  1.0 -0.0242027959
C  C56  1  0.78580000  0.22640000  0.62700000  1.0 -0.0242027959
C  C57  1  0.81510000  0.29350000  0.19020000  1.0 -0.0998936572
C  C58  1  0.29350000  0.81510000  0.30980000  1.0 -0.0998936572
C  C59  1  0.18490000  0.70650000  0.80980000  1.0 -0.0998936572
C  C60  1  0.70650000  0.18490000  0.69020000  1.0 -0.0998936572
C  C61  1  0.67080000  0.17240000  0.07100000  1.0 0.6026673878
C  C62  1  0.17240000  0.67080000  0.42900000  1.0 0.6026673878
C  C63  1  0.32920000  0.82760000  0.92900000  1.0 0.6026673878
C  C64  1  0.82760000  0.32920000  0.57100000  1.0 0.6026673878
N  N1  1  0.98230000  0.18070000  0.15010000  1.0 -0.2726669644
N  N2  1  0.18070000  0.98230000  0.34990000  1.0 -0.2726669644
N  N3  1  0.01770000  0.81930000  0.84990000  1.0 -0.2726669644
N  N4  1  0.81930000  0.01770000  0.65010000  1.0 -0.2726669644
O  O1  1  0.28783000  0.05037000  0.99820000  1.0 -0.579992186
O  O2  1  0.05037000  0.28783000  0.50180000  1.0 -0.579992186
O  O3  1  0.71217000  0.94963000  0.00180000  1.0 -0.579992186
O  O4  1  0.94963000  0.71217000  0.49820000  1.0 -0.579992186
O  O5  1  0.42107000  0.21133000  0.01220000  1.0 -0.6060814445
O  O6  1  0.21133000  0.42107000  0.48780000  1.0 -0.6060814445
O  O7  1  0.57893000  0.78867000  0.98780000  1.0 -0.6060814445
O  O8  1  0.78867000  0.57893000  0.51220000  1.0 -0.6060814445
O  O9  1  0.90050000  0.44630000  0.32560000  1.0 -0.6476379817
O  O10  1  0.44630000  0.90050000  0.17440000  1.0 -0.6476379817
O  O11  1  0.09950000  0.55370000  0.67440000  1.0 -0.6476379817
O  O12  1  0.55370000  0.09950000  0.82560000  1.0 -0.6476379817
O  O13  1  0.03698000  0.44202000  0.36550000  1.0 -0.6274656092
O  O14  1  0.44202000  0.03698000  0.13450000  1.0 -0.6274656092
O  O15  1  0.96302000  0.55798000  0.63450000  1.0 -0.6274656092
O  O16  1  0.55798000  0.96302000  0.86550000  1.0 -0.6274656092
O  O17  1  0.63748000  0.22632000  0.05470000  1.0 -0.579992186
O  O18  1  0.22632000  0.63748000  0.44530000  1.0 -0.579992186
O  O19  1  0.36252000  0.77368000  0.94530000  1.0 -0.579992186
O  O20  1  0.77368000  0.36252000  0.55470000  1.0 -0.579992186
O  O21  1  0.61987000  0.08313000  0.03720000  1.0 -0.7157803809
O  O22  1  0.08313000  0.61987000  0.46280000  1.0 -0.7157803809
O  O23  1  0.38013000  0.91687000  0.96280000  1.0 -0.7157803809
O  O24  1  0.91687000  0.38013000  0.53720000  1.0 -0.7144772445
