# DDEC6 charges by PACMAN v1.1 (https://github.com/mtap-research/PACMAN-charge/)
data_BETGAK_ASR_pacman
_symmetry_space_group_name_H-M   'P 1'
_cell_length_a   16.25250000
_cell_length_b   16.25250000
_cell_length_c   13.50950000
_cell_angle_alpha   80.97820000
_cell_angle_beta   99.02180000
_cell_angle_gamma   126.87400000
_symmetry_Int_Tables_number   1
_chemical_formula_structural   LaH8C16NO6
_chemical_formula_sum   'La4 H32 C64 N4 O24'
_cell_volume   2810.39518871
_cell_formula_units_Z   4
loop_
 _symmetry_equiv_pos_site_id
 _symmetry_equiv_pos_as_xyz
  1  'x, y, z'
loop_
 _atom_site_type_symbol
 _atom_site_label
 _atom_site_symmetry_multiplicity
 _atom_site_fract_x
 _atom_site_fract_y
 _atom_site_fract_z
 _atom_site_occupancy
 _atom_site_charge
La  La1  1  0.46646000  0.10484000  0.45671000  1.0 1.8635972739
La  La2  1  0.10484000  0.46646000  0.04329000  1.0 1.8635972739
La  La3  1  0.53354000  0.89516000  0.54329000  1.0 1.8635972739
La  La4  1  0.89516000  0.53354000  0.95671000  1.0 1.8635972739
H  H1  1  0.37280000  0.31860000  0.56410000  1.0 0.1228834928
H  H2  1  0.31860000  0.37280000  0.93590000  1.0 0.1228834928
H  H3  1  0.62720000  0.68140000  0.43590000  1.0 0.1228834928
H  H4  1  0.68140000  0.62720000  0.06410000  1.0 0.1228834928
H  H5  1  0.27320000  0.35600000  0.62160000  1.0 0.1228834928
H  H6  1  0.35600000  0.27320000  0.87840000  1.0 0.1228834928
H  H7  1  0.72680000  0.64400000  0.37840000  1.0 0.1228834928
H  H8  1  0.64400000  0.72680000  0.12160000  1.0 0.1228834928
H  H9  1  0.02770000  0.06250000  0.60650000  1.0 0.1228834928
H  H10  1  0.06250000  0.02770000  0.89350000  1.0 0.1228834928
H  H11  1  0.97230000  0.93750000  0.39350000  1.0 0.1228834928
H  H12  1  0.93750000  0.97230000  0.10650000  1.0 0.1228834928
H  H13  1  0.12920000  0.02340000  0.55440000  1.0 0.1228834928
H  H14  1  0.02340000  0.12920000  0.94560000  1.0 0.1228834928
H  H15  1  0.87080000  0.97660000  0.44560000  1.0 0.1228834928
H  H16  1  0.97660000  0.87080000  0.05440000  1.0 0.1228834928
H  H17  1  0.10500000  0.31500000  0.64900000  1.0 0.0974491761
H  H18  1  0.31500000  0.10500000  0.85100000  1.0 0.0974491761
H  H19  1  0.89500000  0.68500000  0.35100000  1.0 0.0974491761
H  H20  1  0.68500000  0.89500000  0.14900000  1.0 0.0974491761
H  H21  1  0.80050000  0.12170000  0.57770000  1.0 0.1377488599
H  H22  1  0.12170000  0.80050000  0.92230000  1.0 0.1377488599
H  H23  1  0.19950000  0.87830000  0.42230000  1.0 0.1377488599
H  H24  1  0.87830000  0.19950000  0.07770000  1.0 0.1377488599
H  H25  1  0.02940000  0.32120000  0.76890000  1.0 0.1228834928
H  H26  1  0.32120000  0.02940000  0.73110000  1.0 0.1228834928
H  H27  1  0.97060000  0.67880000  0.23110000  1.0 0.1228834928
H  H28  1  0.67880000  0.97060000  0.26890000  1.0 0.1228834928
H  H29  1  0.77880000  0.32080000  0.69400000  1.0 0.1305366606
H  H30  1  0.32080000  0.77880000  0.80600000  1.0 0.1305366606
H  H31  1  0.22120000  0.67920000  0.30600000  1.0 0.1305366606
H  H32  1  0.67920000  0.22120000  0.19400000  1.0 0.1305366606
C  C1  1  0.32619000  0.14021000  0.51940000  1.0 0.5557411016
C  C2  1  0.14021000  0.32619000  0.98060000  1.0 0.5557411016
C  C3  1  0.67381000  0.85979000  0.48060000  1.0 0.5557411016
C  C4  1  0.85979000  0.67381000  0.01940000  1.0 0.5557411016
C  C5  1  0.26140000  0.16560000  0.55530000  1.0 -0.0290809162
C  C6  1  0.16560000  0.26140000  0.94470000  1.0 -0.0290809162
C  C7  1  0.73860000  0.83440000  0.44470000  1.0 -0.0290809162
C  C8  1  0.83440000  0.73860000  0.05530000  1.0 -0.0290809162
C  C9  1  0.30380000  0.26640000  0.57400000  1.0 -0.0928105562
C  C10  1  0.26640000  0.30380000  0.92600000  1.0 -0.0928105562
C  C11  1  0.69620000  0.73360000  0.42600000  1.0 -0.0928105562
C  C12  1  0.73360000  0.69620000  0.07400000  1.0 -0.0928105562
C  C13  1  0.24380000  0.28900000  0.60720000  1.0 -0.156849727
C  C14  1  0.28900000  0.24380000  0.89280000  1.0 -0.156849727
C  C15  1  0.75620000  0.71100000  0.39280000  1.0 -0.156849727
C  C16  1  0.71100000  0.75620000  0.10720000  1.0 -0.156849727
C  C17  1  0.14080000  0.21300000  0.61910000  1.0 0.0653405488
C  C18  1  0.21300000  0.14080000  0.88090000  1.0 0.0647535772
C  C19  1  0.85920000  0.78700000  0.38090000  1.0 0.0647535772
C  C20  1  0.78700000  0.85920000  0.11910000  1.0 0.0647535772
C  C21  1  0.09730000  0.11390000  0.59910000  1.0 -0.1313893422
C  C22  1  0.11390000  0.09730000  0.90090000  1.0 -0.1313893422
C  C23  1  0.90270000  0.88610000  0.40090000  1.0 -0.1313893422
C  C24  1  0.88610000  0.90270000  0.09910000  1.0 -0.1313893422
C  C25  1  0.15850000  0.09070000  0.56750000  1.0 -0.1007148939
C  C26  1  0.09070000  0.15850000  0.93250000  1.0 -0.1007148939
C  C27  1  0.84150000  0.90930000  0.43250000  1.0 -0.1007148939
C  C28  1  0.90930000  0.84150000  0.06750000  1.0 -0.1007148939
C  C29  1  0.07770000  0.24370000  0.64380000  1.0 0.0653405488
C  C30  1  0.24370000  0.07770000  0.85620000  1.0 0.0653405488
C  C31  1  0.92230000  0.75630000  0.35620000  1.0 0.0653405488
C  C32  1  0.75630000  0.92230000  0.14380000  1.0 0.0653405488
C  C33  1  0.67191000  0.17429000  0.56940000  1.0 0.6019174457
C  C34  1  0.17429000  0.67191000  0.93060000  1.0 0.6019174457
C  C35  1  0.32809000  0.82571000  0.43060000  1.0 0.6019174457
C  C36  1  0.82571000  0.32809000  0.06940000  1.0 0.6019174457
C  C37  1  0.77466000  0.21574000  0.62640000  1.0 -0.0188634444
C  C38  1  0.21574000  0.77466000  0.87360000  1.0 -0.0188634444
C  C39  1  0.22534000  0.78426000  0.37360000  1.0 -0.0188634444
C  C40  1  0.78426000  0.22534000  0.12640000  1.0 -0.0188634444
C  C41  1  0.82917000  0.17663000  0.61680000  1.0 -0.1692737229
C  C42  1  0.17663000  0.82917000  0.88320000  1.0 -0.1692737229
C  C43  1  0.17083000  0.82337000  0.38320000  1.0 -0.1692737229
C  C44  1  0.82337000  0.17083000  0.11680000  1.0 -0.1692737229
C  C45  1  0.92769000  0.22091000  0.66700000  1.0 0.1975071282
C  C46  1  0.22091000  0.92769000  0.83300000  1.0 0.1975071282
C  C47  1  0.07231000  0.77909000  0.33300000  1.0 0.1975071282
C  C48  1  0.77909000  0.07231000  0.16700000  1.0 0.1975071282
C  C49  1  0.96624000  0.29576000  0.73240000  1.0 -0.1888829097
C  C50  1  0.29576000  0.96624000  0.76760000  1.0 -0.1888829097
C  C51  1  0.03376000  0.70424000  0.26760000  1.0 -0.1888829097
C  C52  1  0.70424000  0.03376000  0.23240000  1.0 -0.1888829097
C  C53  1  0.91019000  0.33361000  0.74410000  1.0 -0.0188634444
C  C54  1  0.33361000  0.91019000  0.75590000  1.0 -0.0188634444
C  C55  1  0.08981000  0.66639000  0.25590000  1.0 -0.0188634444
C  C56  1  0.66639000  0.08981000  0.24410000  1.0 -0.0188634444
C  C57  1  0.81508000  0.29432000  0.68890000  1.0 -0.1007148939
C  C58  1  0.29432000  0.81508000  0.81110000  1.0 -0.1007148939
C  C59  1  0.18492000  0.70568000  0.31110000  1.0 -0.1007148939
C  C60  1  0.70568000  0.18492000  0.18890000  1.0 -0.1007148939
C  C61  1  0.95274000  0.41386000  0.81570000  1.0 0.6172106416
C  C62  1  0.41386000  0.95274000  0.68430000  1.0 0.6172106416
C  C63  1  0.04726000  0.58614000  0.18430000  1.0 0.6172106416
C  C64  1  0.58614000  0.04726000  0.31570000  1.0 0.6172106416
N  N1  1  0.98188000  0.18172000  0.64870000  1.0 -0.261911787
N  N2  1  0.18172000  0.98188000  0.85130000  1.0 -0.261911787
N  N3  1  0.01812000  0.81828000  0.35130000  1.0 -0.261911787
N  N4  1  0.81828000  0.01812000  0.14870000  1.0 -0.261911787
O  O1  1  0.42043000  0.21277000  0.51200000  1.0 -0.6000865846
O  O2  1  0.21277000  0.42043000  0.98800000  1.0 -0.6000865846
O  O3  1  0.57957000  0.78723000  0.48800000  1.0 -0.6000865846
O  O4  1  0.78723000  0.57957000  0.01200000  1.0 -0.6000865846
O  O5  1  0.28685000  0.05115000  0.49850000  1.0 -0.5855904072
O  O6  1  0.05115000  0.28685000  0.00150000  1.0 -0.5855904072
O  O7  1  0.71315000  0.94885000  0.50150000  1.0 -0.5855904072
O  O8  1  0.94885000  0.71315000  0.99850000  1.0 -0.5855904072
O  O9  1  0.63909000  0.22751000  0.55380000  1.0 -0.5504344701
O  O10  1  0.22751000  0.63909000  0.94620000  1.0 -0.5504344701
O  O11  1  0.36091000  0.77249000  0.44620000  1.0 -0.5504344701
O  O12  1  0.77249000  0.36091000  0.05380000  1.0 -0.5504344701
O  O13  1  0.62010000  0.08370000  0.53730000  1.0 -0.7018927037
O  O14  1  0.08370000  0.62010000  0.96270000  1.0 -0.7018927037
O  O15  1  0.37990000  0.91630000  0.46270000  1.0 -0.7018927037
O  O16  1  0.91630000  0.37990000  0.03730000  1.0 -0.7018927037
O  O17  1  0.03700000  0.44280000  0.86520000  1.0 -0.610106945
O  O18  1  0.44280000  0.03700000  0.63480000  1.0 -0.610106945
O  O19  1  0.96300000  0.55720000  0.13480000  1.0 -0.610106945
O  O20  1  0.55720000  0.96300000  0.36520000  1.0 -0.610106945
O  O21  1  0.90162000  0.44718000  0.82320000  1.0 -0.6288998723
O  O22  1  0.44718000  0.90162000  0.67680000  1.0 -0.6288998723
O  O23  1  0.09838000  0.55282000  0.17680000  1.0 -0.6288998723
O  O24  1  0.55282000  0.09838000  0.32320000  1.0 -0.6288998723
