# DDEC6 charges by PACMAN v1.1 (https://github.com/mtap-research/PACMAN-charge/)
data_BETYOR_ASR_pacman
_symmetry_space_group_name_H-M   'P 1'
_cell_length_a   5.91650000
_cell_length_b   18.28130000
_cell_length_c   31.25690000
_cell_angle_alpha   90.00000000
_cell_angle_beta   99.49780000
_cell_angle_gamma   90.00000000
_symmetry_Int_Tables_number   1
_chemical_formula_structural   ErH3C12(ClO2)3
_chemical_formula_sum   'Er8 H24 C96 Cl24 O48'
_cell_volume   3334.44325462
_cell_formula_units_Z   8
loop_
 _symmetry_equiv_pos_site_id
 _symmetry_equiv_pos_as_xyz
  1  'x, y, z'
loop_
 _atom_site_type_symbol
 _atom_site_label
 _atom_site_symmetry_multiplicity
 _atom_site_fract_x
 _atom_site_fract_y
 _atom_site_fract_z
 _atom_site_occupancy
 _atom_site_charge
Er  Er1  1  0.53472000  0.86453000  0.76032000  1.0 2.0084630975
Er  Er2  1  0.54194000  0.61090000  0.70242000  1.0 2.0311599502
Er  Er3  1  0.46528000  0.36453000  0.73968000  1.0 2.0084630975
Er  Er4  1  0.45806000  0.11090000  0.79758000  1.0 2.0311599502
Er  Er5  1  0.46528000  0.13547000  0.23968000  1.0 2.0084630975
Er  Er6  1  0.45806000  0.38910000  0.29758000  1.0 2.0311599502
Er  Er7  1  0.53472000  0.63547000  0.26032000  1.0 2.0084630975
Er  Er8  1  0.54194000  0.88910000  0.20242000  1.0 2.0311599502
H  H1  1  0.06320000  0.15900000  0.64820000  1.0 0.1406332308
H  H2  1  0.47670000  0.78760000  0.61500000  1.0 0.1471025029
H  H3  1  0.10770000  0.93770000  0.61900000  1.0 0.1298668737
H  H4  1  0.11250000  0.71800000  0.57190000  1.0 0.1298668737
H  H5  1  0.43000000  0.01500000  0.65840000  1.0 0.1471025029
H  H6  1  0.48760000  0.56560000  0.55730000  1.0 0.1406332308
H  H7  1  0.93680000  0.65900000  0.85180000  1.0 0.1406332308
H  H8  1  0.52330000  0.28760000  0.88500000  1.0 0.1471025029
H  H9  1  0.89230000  0.43770000  0.88100000  1.0 0.1298668737
H  H10  1  0.88750000  0.21800000  0.92810000  1.0 0.1298668737
H  H11  1  0.57000000  0.51500000  0.84160000  1.0 0.1471025029
H  H12  1  0.51240000  0.06560000  0.94270000  1.0 0.1406332308
H  H13  1  0.93680000  0.84100000  0.35180000  1.0 0.1406332308
H  H14  1  0.52330000  0.21240000  0.38500000  1.0 0.1471025029
H  H15  1  0.89230000  0.06230000  0.38100000  1.0 0.1298668737
H  H16  1  0.88750000  0.28200000  0.42810000  1.0 0.1298668737
H  H17  1  0.57000000  0.98500000  0.34160000  1.0 0.1471025029
H  H18  1  0.51240000  0.43440000  0.44270000  1.0 0.1406332308
H  H19  1  0.06320000  0.34100000  0.14820000  1.0 0.1406332308
H  H20  1  0.47670000  0.71240000  0.11500000  1.0 0.1471025029
H  H21  1  0.10770000  0.56230000  0.11900000  1.0 0.1298668737
H  H22  1  0.11250000  0.78200000  0.07190000  1.0 0.1298668737
H  H23  1  0.43000000  0.48500000  0.15840000  1.0 0.1471025029
H  H24  1  0.48760000  0.93440000  0.05730000  1.0 0.1406332308
C  C1  1  0.71450000  0.99920000  0.72950000  1.0 0.660503594
C  C2  1  0.93000000  0.08940000  0.68800000  1.0 -0.0418500725
C  C3  1  0.15890000  0.86060000  0.69090000  1.0 0.5897720584
C  C4  1  0.73640000  0.75960000  0.68440000  1.0 0.6682393084
C  C5  1  0.93890000  0.12890000  0.64990000  1.0 -0.1518216117
C  C6  1  0.80470000  0.91000000  0.58270000  1.0 0.0634522492
C  C7  1  0.60330000  0.81820000  0.61630000  1.0 -0.1430278851
C  C8  1  0.96550000  0.85840000  0.65250000  1.0 -0.0064203487
C  C9  1  0.76460000  0.52070000  0.62260000  1.0 0.6333332935
C  C10  1  0.98100000  0.90750000  0.61800000  1.0 -0.169477445
C  C11  1  0.57280000  0.08260000  0.61980000  1.0 0.0770858347
C  C12  1  0.77380000  0.81400000  0.65080000  1.0 -0.0282522721
C  C13  1  0.98120000  0.63090000  0.59820000  1.0 -0.0181527042
C  C14  1  0.76630000  0.12330000  0.61530000  1.0 0.0634522492
C  C15  1  0.18310000  0.62150000  0.63410000  1.0 0.5698607394
C  C16  1  0.81650000  0.69690000  0.53450000  1.0 0.067292665
C  C17  1  0.98740000  0.68670000  0.56840000  1.0 -0.1518216117
C  C18  1  0.11560000  0.09910000  0.72560000  1.0 0.5698607394
C  C19  1  0.62100000  0.65310000  0.53000000  1.0 0.0770858347
C  C20  1  0.61240000  0.86780000  0.58240000  1.0 0.067292665
C  C21  1  0.55860000  0.04350000  0.65660000  1.0 -0.1588718142
C  C22  1  0.79330000  0.58570000  0.59330000  1.0 -0.0181527042
C  C23  1  0.61400000  0.59630000  0.56000000  1.0 -0.1588718142
C  C24  1  0.73580000  0.04720000  0.69080000  1.0 -0.0009115396
C  C25  1  0.28550000  0.49920000  0.77050000  1.0 0.660503594
C  C26  1  0.07000000  0.58940000  0.81200000  1.0 -0.0418500725
C  C27  1  0.84110000  0.36060000  0.80910000  1.0 0.5897720584
C  C28  1  0.26360000  0.25960000  0.81560000  1.0 0.6682393084
C  C29  1  0.06110000  0.62890000  0.85010000  1.0 -0.1518216117
C  C30  1  0.19530000  0.41000000  0.91730000  1.0 0.0634522492
C  C31  1  0.39670000  0.31820000  0.88370000  1.0 -0.1430278851
C  C32  1  0.03450000  0.35840000  0.84750000  1.0 -0.0064203487
C  C33  1  0.23540000  0.02070000  0.87740000  1.0 0.6333332935
C  C34  1  0.01900000  0.40750000  0.88200000  1.0 -0.169477445
C  C35  1  0.42720000  0.58260000  0.88020000  1.0 0.0770858347
C  C36  1  0.22620000  0.31400000  0.84920000  1.0 -0.0282522721
C  C37  1  0.01880000  0.13090000  0.90180000  1.0 -0.0181527042
C  C38  1  0.23370000  0.62330000  0.88470000  1.0 0.0634522492
C  C39  1  0.81690000  0.12150000  0.86590000  1.0 0.5698607394
C  C40  1  0.18350000  0.19690000  0.96550000  1.0 0.067292665
C  C41  1  0.01260000  0.18670000  0.93160000  1.0 -0.1518216117
C  C42  1  0.88440000  0.59910000  0.77440000  1.0 0.5698607394
C  C43  1  0.37900000  0.15310000  0.97000000  1.0 0.0770858347
C  C44  1  0.38760000  0.36780000  0.91760000  1.0 0.067292665
C  C45  1  0.44140000  0.54350000  0.84340000  1.0 -0.1588718142
C  C46  1  0.20670000  0.08570000  0.90670000  1.0 -0.0181527042
C  C47  1  0.38600000  0.09630000  0.94000000  1.0 -0.1588718142
C  C48  1  0.26420000  0.54720000  0.80920000  1.0 -0.0009115396
C  C49  1  0.28550000  0.00080000  0.27050000  1.0 0.660503594
C  C50  1  0.07000000  0.91060000  0.31200000  1.0 -0.0418500725
C  C51  1  0.84110000  0.13940000  0.30910000  1.0 0.5897720584
C  C52  1  0.26360000  0.24040000  0.31560000  1.0 0.6682393084
C  C53  1  0.06110000  0.87110000  0.35010000  1.0 -0.1518216117
C  C54  1  0.19530000  0.09000000  0.41730000  1.0 0.0634522492
C  C55  1  0.39670000  0.18180000  0.38370000  1.0 -0.1430278851
C  C56  1  0.03450000  0.14160000  0.34750000  1.0 -0.0064203487
C  C57  1  0.23540000  0.47930000  0.37740000  1.0 0.6333332935
C  C58  1  0.01900000  0.09250000  0.38200000  1.0 -0.169477445
C  C59  1  0.42720000  0.91740000  0.38020000  1.0 0.0770858347
C  C60  1  0.22620000  0.18600000  0.34920000  1.0 -0.0282522721
C  C61  1  0.01880000  0.36910000  0.40180000  1.0 -0.0181527042
C  C62  1  0.23370000  0.87670000  0.38470000  1.0 0.0634522492
C  C63  1  0.81690000  0.37850000  0.36590000  1.0 0.5698607394
C  C64  1  0.18350000  0.30310000  0.46550000  1.0 0.067292665
C  C65  1  0.01260000  0.31330000  0.43160000  1.0 -0.1518216117
C  C66  1  0.88440000  0.90090000  0.27440000  1.0 0.5698607394
C  C67  1  0.37900000  0.34690000  0.47000000  1.0 0.0770858347
C  C68  1  0.38760000  0.13220000  0.41760000  1.0 0.067292665
C  C69  1  0.44140000  0.95650000  0.34340000  1.0 -0.1588718142
C  C70  1  0.20670000  0.41430000  0.40670000  1.0 -0.0181527042
C  C71  1  0.38600000  0.40370000  0.44000000  1.0 -0.169477445
C  C72  1  0.26420000  0.95280000  0.30920000  1.0 -0.0009115396
C  C73  1  0.71450000  0.50080000  0.22950000  1.0 0.660503594
C  C74  1  0.93000000  0.41060000  0.18800000  1.0 -0.0418500725
C  C75  1  0.15890000  0.63940000  0.19090000  1.0 0.5897720584
C  C76  1  0.73640000  0.74040000  0.18440000  1.0 0.6682393084
C  C77  1  0.93890000  0.37110000  0.14990000  1.0 -0.1518216117
C  C78  1  0.80470000  0.59000000  0.08270000  1.0 0.0634522492
C  C79  1  0.60330000  0.68180000  0.11630000  1.0 -0.1430278851
C  C80  1  0.96550000  0.64160000  0.15250000  1.0 -0.0064203487
C  C81  1  0.76460000  0.97930000  0.12260000  1.0 0.6333332935
C  C82  1  0.98100000  0.59250000  0.11800000  1.0 -0.169477445
C  C83  1  0.57280000  0.41740000  0.11980000  1.0 0.0770858347
C  C84  1  0.77380000  0.68600000  0.15080000  1.0 -0.0282522721
C  C85  1  0.98120000  0.86910000  0.09820000  1.0 -0.0181527042
C  C86  1  0.76630000  0.37670000  0.11530000  1.0 0.0634522492
C  C87  1  0.18310000  0.87850000  0.13410000  1.0 0.5698607394
C  C88  1  0.81650000  0.80310000  0.03450000  1.0 0.067292665
C  C89  1  0.98740000  0.81330000  0.06840000  1.0 -0.1518216117
C  C90  1  0.11560000  0.40090000  0.22560000  1.0 0.5698607394
C  C91  1  0.62100000  0.84690000  0.03000000  1.0 0.0770858347
C  C92  1  0.61240000  0.63220000  0.08240000  1.0 0.067292665
C  C93  1  0.55860000  0.45650000  0.15660000  1.0 -0.1588718142
C  C94  1  0.79330000  0.91430000  0.09330000  1.0 -0.0181527042
C  C95  1  0.61400000  0.90370000  0.06000000  1.0 -0.169477445
C  C96  1  0.73580000  0.45280000  0.19080000  1.0 -0.0009115396
Cl  Cl1  1  0.83010000  0.76730000  0.49810000  1.0 -0.0853409639
Cl  Cl2  1  0.82874000  0.96960000  0.54094000  1.0 -0.0588849121
Cl  Cl3  1  0.78094000  0.17060000  0.56794000  1.0 -0.0797074094
Cl  Cl4  1  0.38754000  0.87180000  0.54014000  1.0 -0.0588849121
Cl  Cl5  1  0.34359000  0.07580000  0.57689000  1.0 -0.0797074094
Cl  Cl6  1  0.39410000  0.66460000  0.48860000  1.0 -0.0588849121
Cl  Cl7  1  0.16990000  0.26730000  0.00190000  1.0 -0.0797074094
Cl  Cl8  1  0.17126000  0.46960000  0.95906000  1.0 -0.0588849121
Cl  Cl9  1  0.21906000  0.67060000  0.93206000  1.0 -0.0797074094
Cl  Cl10  1  0.61246000  0.37180000  0.95986000  1.0 -0.0588849121
Cl  Cl11  1  0.65641000  0.57580000  0.92311000  1.0 -0.0797074094
Cl  Cl12  1  0.60590000  0.16460000  0.01140000  1.0 -0.0588849121
Cl  Cl13  1  0.16990000  0.23270000  0.50190000  1.0 -0.0853409639
Cl  Cl14  1  0.17126000  0.03040000  0.45906000  1.0 -0.0588849121
Cl  Cl15  1  0.21906000  0.82940000  0.43206000  1.0 -0.0797074094
Cl  Cl16  1  0.61246000  0.12820000  0.45986000  1.0 -0.0588849121
Cl  Cl17  1  0.65641000  0.92420000  0.42311000  1.0 -0.0797074094
Cl  Cl18  1  0.60590000  0.33540000  0.51140000  1.0 -0.0588849121
Cl  Cl19  1  0.83010000  0.73270000  0.99810000  1.0 -0.0853409639
Cl  Cl20  1  0.82874000  0.53040000  0.04094000  1.0 -0.0588849121
Cl  Cl21  1  0.78094000  0.32940000  0.06794000  1.0 -0.0797074094
Cl  Cl22  1  0.38754000  0.62820000  0.04014000  1.0 -0.0588849121
Cl  Cl23  1  0.34359000  0.42420000  0.07689000  1.0 -0.0797074094
Cl  Cl24  1  0.39410000  0.83540000  0.98860000  1.0 -0.0588849121
O  O1  1  0.80200000  0.69420000  0.68150000  1.0 -0.6114764458
O  O2  1  0.19190000  0.56500000  0.65910000  1.0 -0.6114764458
O  O3  1  0.58310000  0.01740000  0.75590000  1.0 -0.7141438445
O  O4  1  0.79960000  0.93580000  0.73130000  1.0 -0.6291196516
O  O5  1  0.67280000  0.53160000  0.65590000  1.0 -0.6712092927
O  O6  1  0.10780000  0.06490000  0.76020000  1.0 -0.568118917
O  O7  1  0.15890000  0.81340000  0.72150000  1.0 -0.6291196516
O  O8  1  0.33750000  0.66850000  0.63980000  1.0 -0.6291196516
O  O9  1  0.81970000  0.45940000  0.61070000  1.0 -0.4602438083
O  O10  1  0.27820000  0.14350000  0.72400000  1.0 -0.6291196516
O  O11  1  0.60920000  0.77770000  0.71180000  1.0 -0.7268557122
O  O12  1  0.31010000  0.90920000  0.69510000  1.0 -0.6291196516
O  O13  1  0.19800000  0.19420000  0.81850000  1.0 -0.6114764458
O  O14  1  0.80810000  0.06500000  0.84090000  1.0 -0.6114764458
O  O15  1  0.41690000  0.51740000  0.74410000  1.0 -0.7141438445
O  O16  1  0.20040000  0.43580000  0.76870000  1.0 -0.6291196516
O  O17  1  0.32720000  0.03160000  0.84410000  1.0 -0.6712092927
O  O18  1  0.89220000  0.56490000  0.73980000  1.0 -0.568118917
O  O19  1  0.84110000  0.31340000  0.77850000  1.0 -0.6291196516
O  O20  1  0.66250000  0.16850000  0.86020000  1.0 -0.6291196516
O  O21  1  0.18030000  0.95940000  0.88930000  1.0 -0.4602438083
O  O22  1  0.72180000  0.64350000  0.77600000  1.0 -0.6291196516
O  O23  1  0.39080000  0.27770000  0.78820000  1.0 -0.7268557122
O  O24  1  0.68990000  0.40920000  0.80490000  1.0 -0.6291196516
O  O25  1  0.19800000  0.30580000  0.31850000  1.0 -0.6114764458
O  O26  1  0.80810000  0.43500000  0.34090000  1.0 -0.6114764458
O  O27  1  0.41690000  0.98260000  0.24410000  1.0 -0.7141438445
O  O28  1  0.20040000  0.06420000  0.26870000  1.0 -0.6291196516
O  O29  1  0.32720000  0.46840000  0.34410000  1.0 -0.6712092927
O  O30  1  0.89220000  0.93510000  0.23980000  1.0 -0.568118917
O  O31  1  0.84110000  0.18660000  0.27850000  1.0 -0.6291196516
O  O32  1  0.66250000  0.33150000  0.36020000  1.0 -0.6291196516
O  O33  1  0.18030000  0.54060000  0.38930000  1.0 -0.4602438083
O  O34  1  0.72180000  0.85650000  0.27600000  1.0 -0.6291196516
O  O35  1  0.39080000  0.22230000  0.28820000  1.0 -0.7268557122
O  O36  1  0.68990000  0.09080000  0.30490000  1.0 -0.6291196516
O  O37  1  0.80200000  0.80580000  0.18150000  1.0 -0.6114764458
O  O38  1  0.19190000  0.93500000  0.15910000  1.0 -0.6114764458
O  O39  1  0.58310000  0.48260000  0.25590000  1.0 -0.7141438445
O  O40  1  0.79960000  0.56420000  0.23130000  1.0 -0.6291196516
O  O41  1  0.67280000  0.96840000  0.15590000  1.0 -0.6712092927
O  O42  1  0.10780000  0.43510000  0.26020000  1.0 -0.568118917
O  O43  1  0.15890000  0.68660000  0.22150000  1.0 -0.6291196516
O  O44  1  0.33750000  0.83150000  0.13980000  1.0 -0.6291196516
O  O45  1  0.81970000  0.04060000  0.11070000  1.0 -0.4602438083
O  O46  1  0.27820000  0.35650000  0.22400000  1.0 -0.6291196516
O  O47  1  0.60920000  0.72230000  0.21180000  1.0 -0.7268557122
O  O48  1  0.31010000  0.59080000  0.19510000  1.0 -0.6291196516
