# DDEC6 charges by PACMAN v1.1 (https://github.com/mtap-research/PACMAN-charge/)
data_BEVKEW_ASR_pacman
_symmetry_space_group_name_H-M   'P 1'
_cell_length_a   10.93590000
_cell_length_b   10.93590000
_cell_length_c   13.47170000
_cell_angle_alpha   76.76960000
_cell_angle_beta   103.23000000
_cell_angle_gamma   65.39900000
_symmetry_Int_Tables_number   1
_chemical_formula_structural   Cu3H12(C11N4)2
_chemical_formula_sum   'Cu6 H24 C44 N16'
_cell_volume   1326.94156609
_cell_formula_units_Z   2
loop_
 _symmetry_equiv_pos_site_id
 _symmetry_equiv_pos_as_xyz
  1  'x, y, z'
loop_
 _atom_site_type_symbol
 _atom_site_label
 _atom_site_symmetry_multiplicity
 _atom_site_fract_x
 _atom_site_fract_y
 _atom_site_fract_z
 _atom_site_occupancy
 _atom_site_charge
Cu  Cu1  1  0.71362000  0.53398000  0.53741000  1.0 0.2738797829
Cu  Cu2  1  0.53398000  0.71362000  0.96259000  1.0 0.2738797829
Cu  Cu3  1  0.28638000  0.46602000  0.46259000  1.0 0.2738797829
Cu  Cu4  1  0.46602000  0.28638000  0.03741000  1.0 0.2738797829
Cu  Cu5  1  0.23363000  0.23363000  0.75000000  1.0 0.3985701069
Cu  Cu6  1  0.76637000  0.76637000  0.25000000  1.0 0.3985701069
H  H1  1  0.42815000  0.78991000  0.40566000  1.0 0.112595243
H  H2  1  0.31421000  0.03610000  0.31297000  1.0 0.1321419045
H  H3  1  0.70293000  0.01537000  0.42020000  1.0 0.1388009057
H  H4  1  0.80646000  0.76902000  0.50749000  1.0 0.112595243
H  H5  1  0.70602000  0.32828000  0.32574000  1.0 0.1388009057
H  H6  1  0.82622000  0.45946000  0.32912000  1.0 0.1048105374
H  H7  1  0.78991000  0.42815000  0.09434000  1.0 0.112595243
H  H8  1  0.03610000  0.31421000  0.18703000  1.0 0.1321419045
H  H9  1  0.01537000  0.70293000  0.07980000  1.0 0.1388009057
H  H10  1  0.76902000  0.80646000  0.99251000  1.0 0.112595243
H  H11  1  0.32828000  0.70602000  0.17426000  1.0 0.1388009057
H  H12  1  0.45946000  0.82622000  0.17088000  1.0 0.1048105374
H  H13  1  0.57185000  0.21009000  0.59434000  1.0 0.112595243
H  H14  1  0.68580000  0.96391000  0.68703000  1.0 0.1321419045
H  H15  1  0.29707000  0.98463000  0.57980000  1.0 0.1388009057
H  H16  1  0.19354000  0.23098000  0.49251000  1.0 0.112595243
H  H17  1  0.29398000  0.67172000  0.67426000  1.0 0.1388009057
H  H18  1  0.17378000  0.54054000  0.67088000  1.0 0.1048105374
H  H19  1  0.21009000  0.57185000  0.90566000  1.0 0.112595243
H  H20  1  0.96390000  0.68580000  0.81297000  1.0 0.1321419045
H  H21  1  0.98463000  0.29707000  0.92020000  1.0 0.1388009057
H  H22  1  0.23098000  0.19354000  0.00749000  1.0 0.112595243
H  H23  1  0.67172000  0.29398000  0.82574000  1.0 0.1388009057
H  H24  1  0.54054000  0.17378000  0.82912000  1.0 0.1048105374
C  C1  1  0.48437000  0.83677000  0.40830000  1.0 0.0812523827
C  C2  1  0.41544000  0.98344000  0.35320000  1.0 -0.163335754
C  C3  1  0.49584000  0.05364000  0.35690000  1.0 0.0664597951
C  C4  1  0.64451000  0.97091000  0.41610000  1.0 -0.1534018353
C  C5  1  0.70506000  0.82446000  0.46820000  1.0 0.0616998017
C  C6  1  0.42111000  0.21311000  0.29980000  1.0 0.3619876867
C  C7  1  0.65288000  0.43088000  0.29520000  1.0 -0.126186429
C  C8  1  0.72386000  0.50986000  0.29540000  1.0 0.0664597951
C  C9  1  0.91415000  0.43115000  0.60970000  1.0 -0.0916608296
C  C10  1  0.55284000  0.50544000  0.50980000  1.0 -0.2868103072
C  C11  1  0.83677000  0.48437000  0.09170000  1.0 0.0812523827
C  C12  1  0.98344000  0.41544000  0.14680000  1.0 -0.163335754
C  C13  1  0.05364000  0.49584000  0.14310000  1.0 0.0664597951
C  C14  1  0.97091000  0.64451000  0.08390000  1.0 -0.1534018353
C  C15  1  0.82446000  0.70506000  0.03180000  1.0 0.0616998017
C  C16  1  0.21311000  0.42111000  0.20020000  1.0 0.3619876867
C  C17  1  0.43088000  0.65288000  0.20480000  1.0 -0.126186429
C  C18  1  0.50986000  0.72386000  0.20460000  1.0 0.0664597951
C  C19  1  0.43115000  0.91415000  0.89030000  1.0 -0.0916608296
C  C20  1  0.50544000  0.55284000  0.99020000  1.0 -0.2868103072
C  C21  1  0.51563000  0.16323000  0.59170000  1.0 0.0812523827
C  C22  1  0.58456000  0.01656000  0.64680000  1.0 -0.163335754
C  C23  1  0.50416000  0.94636000  0.64310000  1.0 0.0664597951
C  C24  1  0.35549000  0.02909000  0.58390000  1.0 -0.1534018353
C  C25  1  0.29494000  0.17554000  0.53180000  1.0 0.0616998017
C  C26  1  0.57889000  0.78689000  0.70020000  1.0 0.3619876867
C  C27  1  0.34712000  0.56912000  0.70480000  1.0 -0.126186429
C  C28  1  0.27614000  0.49014000  0.70460000  1.0 0.0664597951
C  C29  1  0.08585000  0.56885000  0.39030000  1.0 -0.0916608296
C  C30  1  0.44716000  0.49456000  0.49020000  1.0 -0.2868103072
C  C31  1  0.16323000  0.51563000  0.90830000  1.0 0.0812523827
C  C32  1  0.01656000  0.58456000  0.85320000  1.0 -0.163335754
C  C33  1  0.94636000  0.50416000  0.85690000  1.0 0.0664597951
C  C34  1  0.02909000  0.35549000  0.91610000  1.0 -0.1534018353
C  C35  1  0.17554000  0.29494000  0.96820000  1.0 0.0616998017
C  C36  1  0.78689000  0.57889000  0.79980000  1.0 0.3619876867
C  C37  1  0.56912000  0.34712000  0.79520000  1.0 -0.126186429
C  C38  1  0.49014000  0.27614000  0.79540000  1.0 0.0664597951
C  C39  1  0.56885000  0.08585000  0.10970000  1.0 -0.0916608296
C  C40  1  0.49456000  0.44716000  0.00980000  1.0 -0.2868103072
C  C41  1  0.42290000  0.42290000  0.25000000  1.0 0.3619876867
C  C42  1  0.50310000  0.50310000  0.25000000  1.0 0.0812523827
C  C43  1  0.57710000  0.57710000  0.75000000  1.0 0.3619876867
C  C44  1  0.49690000  0.49690000  0.75000000  1.0 0.0812523827
N  N1  1  0.62772000  0.75592000  0.46617000  1.0 -0.1837315247
N  N2  1  0.49906000  0.27946000  0.30349000  1.0 -0.3961853817
N  N3  1  0.03748000  0.35908000  0.65980000  1.0 -0.3546002119
N  N4  1  0.75592000  0.62772000  0.03383000  1.0 -0.1837315247
N  N5  1  0.27946000  0.49906000  0.19651000  1.0 -0.3961853817
N  N6  1  0.35908000  0.03748000  0.84020000  1.0 -0.3546002119
N  N7  1  0.37228000  0.24408000  0.53383000  1.0 -0.1837315247
N  N8  1  0.50094000  0.72054000  0.69651000  1.0 -0.3961853817
N  N9  1  0.96252000  0.64092000  0.34020000  1.0 -0.3546002119
N  N10  1  0.24408000  0.37228000  0.96617000  1.0 -0.1837315247
N  N11  1  0.72054000  0.50094000  0.80349000  1.0 -0.3961853817
N  N12  1  0.64092000  0.96252000  0.15980000  1.0 -0.3546002119
N  N13  1  0.27830000  0.27830000  0.25000000  1.0 -0.4210206106
N  N14  1  0.65468000  0.65468000  0.25000000  1.0 -0.2119329855
N  N15  1  0.72170000  0.72170000  0.75000000  1.0 -0.4210206106
N  N16  1  0.34532000  0.34532000  0.75000000  1.0 -0.2119329855
