# DDEC6 charges by PACMAN v1.1 (https://github.com/mtap-research/PACMAN-charge/)
data_BEVQID_FSR_pacman
_symmetry_space_group_name_H-M   'P 1'
_cell_length_a   9.03616000
_cell_length_b   9.03616000
_cell_length_c   9.03616000
_cell_angle_alpha   103.11400000
_cell_angle_beta   103.11400000
_cell_angle_gamma   123.10800000
_symmetry_Int_Tables_number   1
_chemical_formula_structural   SrZrCdH8(C2O5)4
_chemical_formula_sum   'Sr1 Zr1 Cd1 H8 C8 O20'
_cell_volume   543.41499218
_cell_formula_units_Z   1
loop_
 _symmetry_equiv_pos_site_id
 _symmetry_equiv_pos_as_xyz
  1  'x, y, z'
loop_
 _atom_site_type_symbol
 _atom_site_label
 _atom_site_symmetry_multiplicity
 _atom_site_fract_x
 _atom_site_fract_y
 _atom_site_fract_z
 _atom_site_occupancy
 _atom_site_charge
Sr  Sr1  1  0.50000000  0.50000000  0.00000000  1.0 1.5211088451
Zr  Zr1  1  0.75000000  0.25000000  0.50000000  1.0 2.0237531456
Cd  Cd1  1  0.00000000  0.00000000  0.00000000  1.0 1.0203934702
H  H1  1  0.29600000  0.59100000  0.70500000  1.0 0.4115784856
H  H2  1  0.40900000  0.70400000  0.29500000  1.0 0.4115784856
H  H3  1  0.88600000  0.59100000  0.29500000  1.0 0.4115784856
H  H4  1  0.40900000  0.11400000  0.70500000  1.0 0.4115784856
H  H5  1  0.51200000  0.71600000  0.79600000  1.0 0.3882063644
H  H6  1  0.28400000  0.48800000  0.20400000  1.0 0.3882063644
H  H7  1  0.92000000  0.71600000  0.20400000  1.0 0.3882063644
H  H8  1  0.28400000  0.08000000  0.79600000  1.0 0.3882063644
C  C1  1  0.95340000  0.67670000  0.72330000  1.0 0.4997574779
C  C2  1  0.76990000  0.04660000  0.72330000  1.0 0.4997574779
C  C3  1  0.95340000  0.23010000  0.27670000  1.0 0.4997574779
C  C4  1  0.32330000  0.04660000  0.27670000  1.0 0.4997574779
C  C5  1  0.78600000  0.55470000  0.76870000  1.0 0.4997574779
C  C6  1  0.98270000  0.21400000  0.76870000  1.0 0.4997574779
C  C7  1  0.78600000  0.01730000  0.23130000  1.0 0.4997574779
C  C8  1  0.44530000  0.21400000  0.23130000  1.0 0.4997574779
O  O1  1  0.75600000  0.63310000  0.87710000  1.0 -0.522116473
O  O2  1  0.12110000  0.24400000  0.87710000  1.0 -0.522116473
O  O3  1  0.75600000  0.87890000  0.12290000  1.0 -0.522116473
O  O4  1  0.36690000  0.24400000  0.12290000  1.0 -0.522116473
O  O5  1  0.68480000  0.37050000  0.68570000  1.0 -0.5677129237
O  O6  1  0.00090000  0.31520000  0.68570000  1.0 -0.5677129237
O  O7  1  0.68480000  0.99910000  0.31430000  1.0 -0.5677129237
O  O8  1  0.62950000  0.31520000  0.31430000  1.0 -0.5677129237
O  O9  1  0.06220000  0.85900000  0.79680000  1.0 -0.5093051849
O  O10  1  0.73460000  0.93780000  0.79680000  1.0 -0.5093051849
O  O11  1  0.06220000  0.26540000  0.20320000  1.0 -0.5093051849
O  O12  1  0.14100000  0.93780000  0.20320000  1.0 -0.5093051849
O  O13  1  0.96290000  0.57460000  0.61170000  1.0 -0.5437783656
O  O14  1  0.64880000  0.03710000  0.61170000  1.0 -0.5437783656
O  O15  1  0.96290000  0.35120000  0.38830000  1.0 -0.5437783656
O  O16  1  0.42540000  0.03710000  0.38830000  1.0 -0.5437783656
O  O17  1  0.39390000  0.60500000  0.78890000  1.0 -0.7977007238
O  O18  1  0.39500000  0.60610000  0.21110000  1.0 -0.7977007238
O  O19  1  0.81610000  0.60500000  0.21110000  1.0 -0.7977007238
O  O20  1  0.39500000  0.18390000  0.78890000  1.0 -0.7977007238
