# DDEC6 charges by PACMAN v1.1 (https://github.com/mtap-research/PACMAN-charge/)
data_BEVRAW_FSR_pacman
_symmetry_space_group_name_H-M   'P 1'
_cell_length_a   9.00598000
_cell_length_b   9.00598000
_cell_length_c   9.00598000
_cell_angle_alpha   102.64900000
_cell_angle_beta   102.64900000
_cell_angle_gamma   124.19700000
_symmetry_Int_Tables_number   1
_chemical_formula_structural   Ca2Zr(C2O5)4
_chemical_formula_sum   'Ca2 Zr1 C8 O20'
_cell_volume   533.93514985
_cell_formula_units_Z   1
loop_
 _symmetry_equiv_pos_site_id
 _symmetry_equiv_pos_as_xyz
  1  'x, y, z'
loop_
 _atom_site_type_symbol
 _atom_site_label
 _atom_site_symmetry_multiplicity
 _atom_site_fract_x
 _atom_site_fract_y
 _atom_site_fract_z
 _atom_site_occupancy
 _atom_site_charge
Ca  Ca1  1  0.00000000  0.00000000  0.00000000  1.0 1.0746995862
Ca  Ca2  1  0.50000000  0.50000000  0.00000000  1.0 1.1706656869
Zr  Zr1  1  0.75000000  0.25000000  0.50000000  1.0 1.8278201278
C  C1  1  0.79560000  0.56400000  0.76840000  1.0 0.4488581586
C  C2  1  0.97280000  0.20440000  0.76840000  1.0 0.4488581586
C  C3  1  0.79560000  0.02720000  0.23160000  1.0 0.4488581586
C  C4  1  0.43600000  0.20440000  0.23160000  1.0 0.4488581586
C  C5  1  0.97140000  0.70550000  0.73410000  1.0 0.4488581586
C  C6  1  0.76270000  0.02860000  0.73410000  1.0 0.4488581586
C  C7  1  0.97140000  0.23730000  0.26590000  1.0 0.4488581586
C  C8  1  0.29450000  0.02860000  0.26590000  1.0 0.4488581586
O  O1  1  0.73800000  0.61100000  0.87300000  1.0 -0.5025669355
O  O2  1  0.13500000  0.26200000  0.87300000  1.0 -0.5025669355
O  O3  1  0.73800000  0.86500000  0.12700000  1.0 -0.5025669355
O  O4  1  0.38900000  0.26200000  0.12700000  1.0 -0.5025669355
O  O5  1  0.68590000  0.37840000  0.69250000  1.0 -0.5202159826
O  O6  1  0.00660000  0.31410000  0.69250000  1.0 -0.5202159826
O  O7  1  0.68590000  0.99340000  0.30750000  1.0 -0.5202159826
O  O8  1  0.62160000  0.31410000  0.30750000  1.0 -0.5202159826
O  O9  1  0.10920000  0.89940000  0.79020000  1.0 -0.4703544323
O  O10  1  0.68100000  0.89080000  0.79020000  1.0 -0.4703544323
O  O11  1  0.10920000  0.31900000  0.20980000  1.0 -0.4703544323
O  O12  1  0.10060000  0.89080000  0.20980000  1.0 -0.4703544323
O  O13  1  0.98500000  0.60730000  0.62230000  1.0 -0.5140283649
O  O14  1  0.63730000  0.01500000  0.62230000  1.0 -0.5140283649
O  O15  1  0.98500000  0.36270000  0.37770000  1.0 -0.5140283649
O  O16  1  0.39270000  0.01500000  0.37770000  1.0 -0.5140283649
O  O17  1  0.43100000  0.23700000  0.80600000  1.0 0.0911530479
O  O18  1  0.37500000  0.56900000  0.80600000  1.0 0.0911530479
O  O19  1  0.43100000  0.62500000  0.19400000  1.0 0.0911530479
O  O20  1  0.76300000  0.56900000  0.19400000  1.0 0.0911530479
