# DDEC6 charges by PACMAN v1.1 (https://github.com/mtap-research/PACMAN-charge/)
data_BEVWAB_FSR_pacman
_symmetry_space_group_name_H-M   'P 1'
_cell_length_a   19.30280000
_cell_length_b   19.30280000
_cell_length_c   6.10100000
_cell_angle_alpha   86.40990000
_cell_angle_beta   93.59010000
_cell_angle_gamma   92.81280000
_symmetry_Int_Tables_number   1
_chemical_formula_structural   Zn3Cu4H40C60(N4O7)2
_chemical_formula_sum   'Zn3 Cu4 H40 C60 N8 O14'
_cell_volume   2261.98006561
_cell_formula_units_Z   1
loop_
 _symmetry_equiv_pos_site_id
 _symmetry_equiv_pos_as_xyz
  1  'x, y, z'
loop_
 _atom_site_type_symbol
 _atom_site_label
 _atom_site_symmetry_multiplicity
 _atom_site_fract_x
 _atom_site_fract_y
 _atom_site_fract_z
 _atom_site_occupancy
 _atom_site_charge
Zn  Zn1  1  0.00000000  0.00000000  0.50000000  1.0 1.1396600273
Zn  Zn2  1  0.94540000  0.94540000  0.00000000  1.0 0.996967223
Zn  Zn3  1  0.05460000  0.05460000  0.00000000  1.0 0.996967223
Cu  Cu1  1  0.51510000  0.02110000  0.63880000  1.0 0.4019165602
Cu  Cu2  1  0.97890000  0.48490000  0.63880000  1.0 0.4019165602
Cu  Cu3  1  0.48490000  0.97890000  0.36120000  1.0 0.4019165602
Cu  Cu4  1  0.02110000  0.51510000  0.36120000  1.0 0.4019165602
H  H1  1  0.68710000  0.10930000  0.09640000  1.0 0.1326994242
H  H2  1  0.89070000  0.31290000  0.09640000  1.0 0.1326994242
H  H3  1  0.31290000  0.89070000  0.90360000  1.0 0.1326994242
H  H4  1  0.10930000  0.68710000  0.90360000  1.0 0.1326994242
H  H5  1  0.65500000  0.16560000  0.40160000  1.0 0.1233931449
H  H6  1  0.83440000  0.34500000  0.40160000  1.0 0.1233931449
H  H7  1  0.34500000  0.83440000  0.59840000  1.0 0.1233931449
H  H8  1  0.16560000  0.65500000  0.59840000  1.0 0.1233931449
H  H9  1  0.53710000  0.17670000  0.45880000  1.0 0.1326994242
H  H10  1  0.82330000  0.46290000  0.45880000  1.0 0.1326994242
H  H11  1  0.46290000  0.82330000  0.54120000  1.0 0.1326994242
H  H12  1  0.17670000  0.53710000  0.54120000  1.0 0.1326994242
H  H13  1  0.45130000  0.13130000  0.21070000  1.0 0.1392489639
H  H14  1  0.86870000  0.54870000  0.21070000  1.0 0.1392489639
H  H15  1  0.54870000  0.86870000  0.78930000  1.0 0.1392489639
H  H16  1  0.13130000  0.45130000  0.78930000  1.0 0.1392489639
H  H17  1  0.39770000  0.07350000  0.03780000  1.0 0.1076911152
H  H18  1  0.92650000  0.60230000  0.03780000  1.0 0.1076911152
H  H19  1  0.60230000  0.92650000  0.96220000  1.0 0.1076911152
H  H20  1  0.07350000  0.39770000  0.96220000  1.0 0.1076911152
H  H21  1  0.38690000  0.06870000  0.82640000  1.0 0.1076911152
H  H22  1  0.93130000  0.61310000  0.82640000  1.0 0.1076911152
H  H23  1  0.61310000  0.93130000  0.17360000  1.0 0.1076911152
H  H24  1  0.06870000  0.38690000  0.17360000  1.0 0.1076911152
H  H25  1  0.70450000  0.05990000  0.83840000  1.0 0.0640299436
H  H26  1  0.94010000  0.29550000  0.83840000  1.0 0.0640299436
H  H27  1  0.29550000  0.94010000  0.16160000  1.0 0.0640299436
H  H28  1  0.05990000  0.70450000  0.16160000  1.0 0.0640299436
H  H29  1  0.26980000  0.06680000  0.92290000  1.0 0.1326994242
H  H30  1  0.93320000  0.73020000  0.92290000  1.0 0.1326994242
H  H31  1  0.73020000  0.93320000  0.07710000  1.0 0.1326994242
H  H32  1  0.06680000  0.26980000  0.07710000  1.0 0.1326994242
H  H33  1  0.20840000  0.98100000  0.36090000  1.0 0.1326994242
H  H34  1  0.01900000  0.79160000  0.36090000  1.0 0.1326994242
H  H35  1  0.79160000  0.01900000  0.63910000  1.0 0.1326994242
H  H36  1  0.98100000  0.20840000  0.63910000  1.0 0.1326994242
H  H37  1  0.32740000  0.96840000  0.28890000  1.0 0.1392489639
H  H38  1  0.03160000  0.67260000  0.28890000  1.0 0.1392489639
H  H39  1  0.67260000  0.03160000  0.71110000  1.0 0.1392489639
H  H40  1  0.96840000  0.32740000  0.71110000  1.0 0.1392489639
C  C1  1  0.58850000  0.08690000  0.97200000  1.0 0.1076911152
C  C2  1  0.91310000  0.41150000  0.97200000  1.0 0.1076911152
C  C3  1  0.41150000  0.91310000  0.02800000  1.0 0.1076911152
C  C4  1  0.08690000  0.58850000  0.02800000  1.0 0.1076911152
C  C5  1  0.63940000  0.11380000  0.11960000  1.0 -0.183147959
C  C6  1  0.88620000  0.36060000  0.11960000  1.0 -0.183147959
C  C7  1  0.36060000  0.88620000  0.88040000  1.0 -0.183147959
C  C8  1  0.11380000  0.63940000  0.88040000  1.0 -0.183147959
C  C9  1  0.62030000  0.14730000  0.30110000  1.0 -0.0845647711
C  C10  1  0.85270000  0.37970000  0.30110000  1.0 -0.0845647711
C  C11  1  0.37970000  0.85270000  0.69890000  1.0 -0.0845647711
C  C12  1  0.14730000  0.62030000  0.69890000  1.0 -0.0845647711
C  C13  1  0.55010000  0.15390000  0.33520000  1.0 -0.1000352311
C  C14  1  0.84610000  0.44990000  0.33520000  1.0 -0.1000352311
C  C15  1  0.44990000  0.84610000  0.66480000  1.0 -0.1000352311
C  C16  1  0.15390000  0.55010000  0.66480000  1.0 -0.1000352311
C  C17  1  0.49910000  0.12690000  0.18760000  1.0 -0.2266745153
C  C18  1  0.87310000  0.50090000  0.18760000  1.0 -0.2266745153
C  C19  1  0.50090000  0.87310000  0.81240000  1.0 -0.2266745153
C  C20  1  0.12690000  0.49910000  0.81240000  1.0 -0.2266745153
C  C21  1  0.51840000  0.09340000  0.00600000  1.0 0.1326994242
C  C22  1  0.90660000  0.48160000  0.00600000  1.0 0.1326994242
C  C23  1  0.48160000  0.90660000  0.99400000  1.0 0.1326994242
C  C24  1  0.09340000  0.51840000  0.99400000  1.0 0.1326994242
C  C25  1  0.40700000  0.06100000  0.89500000  1.0 -0.0024399302
C  C26  1  0.93900000  0.59300000  0.89500000  1.0 -0.0024399302
C  C27  1  0.59300000  0.93900000  0.10500000  1.0 -0.0024399302
C  C28  1  0.06100000  0.40700000  0.10500000  1.0 -0.0024399302
C  C29  1  0.66900000  0.03900000  0.74400000  1.0 0.1326994242
C  C30  1  0.96100000  0.33100000  0.74400000  1.0 0.1326994242
C  C31  1  0.33100000  0.96100000  0.25600000  1.0 0.1326994242
C  C32  1  0.03900000  0.66900000  0.25600000  1.0 0.1326994242
C  C33  1  0.68300000  0.00900000  0.58200000  1.0 -0.1536646109
C  C34  1  0.99100000  0.31700000  0.58200000  1.0 -0.1536646109
C  C35  1  0.31700000  0.99100000  0.41800000  1.0 -0.1536646109
C  C36  1  0.00900000  0.68300000  0.41800000  1.0 -0.1536646109
C  C37  1  0.36800000  0.01800000  0.56000000  1.0 0.0975921829
C  C38  1  0.98200000  0.63200000  0.56000000  1.0 0.0975921829
C  C39  1  0.63200000  0.98200000  0.44000000  1.0 0.0975921829
C  C40  1  0.01800000  0.36800000  0.44000000  1.0 0.0975921829
C  C41  1  0.34990000  0.04790000  0.74200000  1.0 -0.1000352311
C  C42  1  0.95210000  0.65010000  0.74200000  1.0 -0.1000352311
C  C43  1  0.65010000  0.95210000  0.25800000  1.0 -0.1000352311
C  C44  1  0.04790000  0.34990000  0.25800000  1.0 -0.1000352311
C  C45  1  0.27950000  0.04770000  0.79100000  1.0 -0.1262814994
C  C46  1  0.95230000  0.72050000  0.79100000  1.0 -0.1262814994
C  C47  1  0.72050000  0.95230000  0.20900000  1.0 -0.1262814994
C  C48  1  0.04770000  0.27950000  0.20900000  1.0 -0.1262814994
C  C49  1  0.22770000  0.02130000  0.65500000  1.0 -0.054834168
C  C50  1  0.97870000  0.77230000  0.65500000  1.0 -0.054834168
C  C51  1  0.77230000  0.97870000  0.34500000  1.0 -0.054834168
C  C52  1  0.02130000  0.22770000  0.34500000  1.0 -0.054834168
C  C53  1  0.24620000  0.99580000  0.46300000  1.0 -0.1366248015
C  C54  1  0.00420000  0.75380000  0.46300000  1.0 -0.1366248015
C  C55  1  0.75380000  0.00420000  0.53700000  1.0 -0.1366248015
C  C56  1  0.99580000  0.24620000  0.53700000  1.0 -0.1366248015
C  C57  1  0.15550000  0.02510000  0.70300000  1.0 0.5823379424
C  C58  1  0.97490000  0.84450000  0.70300000  1.0 0.5823379424
C  C59  1  0.84450000  0.97490000  0.29700000  1.0 0.5823379424
C  C60  1  0.02510000  0.15550000  0.29700000  1.0 0.5823379424
N  N1  1  0.60800000  0.04400000  0.79400000  1.0 -0.2846301827
N  N2  1  0.95600000  0.39200000  0.79400000  1.0 -0.2846301827
N  N3  1  0.39200000  0.95600000  0.20600000  1.0 -0.2846301827
N  N4  1  0.04400000  0.60800000  0.20600000  1.0 -0.2846301827
N  N5  1  0.47100000  0.06100000  0.86400000  1.0 -0.2239560071
N  N6  1  0.93900000  0.52900000  0.86400000  1.0 -0.2239560071
N  N7  1  0.52900000  0.93900000  0.13600000  1.0 -0.2239560071
N  N8  1  0.06100000  0.47100000  0.13600000  1.0 -0.2239560071
O  O1  1  0.43330000  0.01350000  0.51900000  1.0 -0.3390956405
O  O2  1  0.98650000  0.56670000  0.51900000  1.0 -0.3390956405
O  O3  1  0.56670000  0.98650000  0.48100000  1.0 -0.3390956405
O  O4  1  0.01350000  0.43330000  0.48100000  1.0 -0.3390956405
O  O5  1  0.10750000  0.00490000  0.57800000  1.0 -0.4855881962
O  O6  1  0.99510000  0.89250000  0.57800000  1.0 -0.4855881962
O  O7  1  0.89250000  0.99510000  0.42200000  1.0 -0.4855881962
O  O8  1  0.00490000  0.10750000  0.42200000  1.0 -0.4855881962
O  O9  1  0.97290000  0.02710000  0.80200000  1.0 -0.8603433105
O  O10  1  0.02710000  0.97290000  0.19800000  1.0 -0.8603433105
O  O11  1  0.94810000  0.85510000  0.88400000  1.0 -0.5186918113
O  O12  1  0.14490000  0.05190000  0.88400000  1.0 -0.5186918113
O  O13  1  0.05190000  0.14490000  0.11600000  1.0 -0.5186918113
O  O14  1  0.85510000  0.94810000  0.11600000  1.0 -0.5186918113
