# DDEC6 charges by PACMAN v1.1 (https://github.com/mtap-research/PACMAN-charge/)
data_BEXQUR_ASR_pacman
_symmetry_space_group_name_H-M   'P 1'
_cell_length_a   13.80390000
_cell_length_b   16.86790000
_cell_length_c   20.76390000
_cell_angle_alpha   90.00000000
_cell_angle_beta   90.00000000
_cell_angle_gamma   90.00000000
_symmetry_Int_Tables_number   1
_chemical_formula_structural   Ni(C2N3)3
_chemical_formula_sum   'Ni8 C48 N72'
_cell_volume   4834.72471479
_cell_formula_units_Z   8
loop_
 _symmetry_equiv_pos_site_id
 _symmetry_equiv_pos_as_xyz
  1  'x, y, z'
loop_
 _atom_site_type_symbol
 _atom_site_label
 _atom_site_symmetry_multiplicity
 _atom_site_fract_x
 _atom_site_fract_y
 _atom_site_fract_z
 _atom_site_occupancy
 _atom_site_charge
Ni  Ni1  1  0.88000000  0.20366000  0.07707000  1.0 0.9440322002
Ni  Ni2  1  0.62000000  0.79634000  0.57707000  1.0 0.9440322002
Ni  Ni3  1  0.12000000  0.70366000  0.42293000  1.0 0.9440322002
Ni  Ni4  1  0.38000000  0.29634000  0.92293000  1.0 0.9440322002
Ni  Ni5  1  0.03669000  0.20287000  0.41362000  1.0 0.9226144035
Ni  Ni6  1  0.46331000  0.79713000  0.91362000  1.0 0.9303885778
Ni  Ni7  1  0.96331000  0.70287000  0.08638000  1.0 0.9303885778
Ni  Ni8  1  0.53669000  0.29713000  0.58638000  1.0 0.9226144035
C  C1  1  0.81010000  0.21249000  0.22406000  1.0 0.4206762327
C  C2  1  0.68990000  0.78751000  0.72406000  1.0 0.4206762327
C  C3  1  0.18990000  0.71249000  0.27594000  1.0 0.4206762327
C  C4  1  0.31010000  0.28751000  0.77594000  1.0 0.4206762327
C  C5  1  0.84720000  0.21475000  0.32899000  1.0 0.4133109604
C  C6  1  0.65280000  0.78525000  0.82899000  1.0 0.4133109604
C  C7  1  0.15280000  0.71475000  0.17101000  1.0 0.4133109604
C  C8  1  0.34720000  0.28525000  0.67101000  1.0 0.4133109604
C  C9  1  0.07050000  0.18631000  0.16083000  1.0 0.4206762327
C  C10  1  0.42950000  0.81369000  0.66083000  1.0 0.4206762327
C  C11  1  0.92950000  0.68631000  0.33917000  1.0 0.4206762327
C  C12  1  0.57050000  0.31369000  0.83917000  1.0 0.4206762327
C  C13  1  0.11020000  0.18910000  0.26666000  1.0 0.4206762327
C  C14  1  0.38980000  0.81090000  0.76666000  1.0 0.4288214985
C  C15  1  0.88980000  0.68910000  0.23334000  1.0 0.4288214985
C  C16  1  0.61020000  0.31090000  0.73334000  1.0 0.4288214985
C  C17  1  0.99750000  0.23723000  0.95700000  1.0 0.447603025
C  C18  1  0.50250000  0.76277000  0.45700000  1.0 0.447603025
C  C19  1  0.00250000  0.73723000  0.54300000  1.0 0.447603025
C  C20  1  0.49750000  0.26277000  0.04300000  1.0 0.447603025
C  C21  1  0.15190000  0.27914000  0.93853000  1.0 0.4288214985
C  C22  1  0.34810000  0.72086000  0.43853000  1.0 0.4288214985
C  C23  1  0.84810000  0.77914000  0.56147000  1.0 0.4288214985
C  C24  1  0.65190000  0.22086000  0.06147000  1.0 0.4288214985
C  C25  1  0.94070000  0.38342000  0.06327000  1.0 0.4408644338
C  C26  1  0.55930000  0.61658000  0.56327000  1.0 0.4408644338
C  C27  1  0.05930000  0.88342000  0.43673000  1.0 0.4408644338
C  C28  1  0.44070000  0.11658000  0.93673000  1.0 0.4408644338
C  C29  1  0.98070000  0.51636000  0.06723000  1.0 0.4552950267
C  C30  1  0.51930000  0.48364000  0.56723000  1.0 0.4552950267
C  C31  1  0.01930000  0.01636000  0.43277000  1.0 0.4552950267
C  C32  1  0.48070000  0.98364000  0.93277000  1.0 0.4552950267
C  C33  1  0.25700000  0.19064000  0.45697000  1.0 0.4408644338
C  C34  1  0.24300000  0.80936000  0.95697000  1.0 0.4408644338
C  C35  1  0.74300000  0.69064000  0.04303000  1.0 0.4408644338
C  C36  1  0.75700000  0.30936000  0.54303000  1.0 0.4408644338
C  C37  1  0.40880000  0.23985000  0.47890000  1.0 0.4288214985
C  C38  1  0.09120000  0.76015000  0.97890000  1.0 0.4288214985
C  C39  1  0.59120000  0.73985000  0.02110000  1.0 0.4288214985
C  C40  1  0.90880000  0.26015000  0.52110000  1.0 0.4288214985
C  C41  1  0.89820000  0.88191000  0.09151000  1.0 0.447603025
C  C42  1  0.60180000  0.11809000  0.59151000  1.0 0.447603025
C  C43  1  0.10180000  0.38191000  0.40849000  1.0 0.4408644338
C  C44  1  0.39820000  0.61809000  0.90849000  1.0 0.4408644338
C  C45  1  0.86230000  0.01541000  0.08300000  1.0 0.447603025
C  C46  1  0.63770000  0.98459000  0.58300000  1.0 0.447603025
C  C47  1  0.13770000  0.51541000  0.41700000  1.0 0.447603025
C  C48  1  0.36230000  0.48459000  0.91700000  1.0 0.447603025
N  N1  1  0.82975000  0.20902000  0.17056000  1.0 -0.4022385182
N  N2  1  0.67025000  0.79098000  0.67056000  1.0 -0.4022385182
N  N3  1  0.17025000  0.70902000  0.32944000  1.0 -0.4022385182
N  N4  1  0.32975000  0.29098000  0.82944000  1.0 -0.4022385182
N  N5  1  0.90130000  0.21513000  0.37065000  1.0 -0.4022385182
N  N6  1  0.59870000  0.78487000  0.87065000  1.0 -0.4022385182
N  N7  1  0.09870000  0.71513000  0.12935000  1.0 -0.4022385182
N  N8  1  0.40130000  0.28487000  0.62935000  1.0 -0.4022385182
N  N9  1  0.77980000  0.21490000  0.28413000  1.0 -0.3382283147
N  N10  1  0.72020000  0.78510000  0.78413000  1.0 -0.3382283147
N  N11  1  0.22020000  0.71490000  0.21587000  1.0 -0.3382283147
N  N12  1  0.27980000  0.28510000  0.71587000  1.0 -0.3382283147
N  N13  1  0.01937000  0.19252000  0.11780000  1.0 -0.4115212629
N  N14  1  0.48063000  0.80748000  0.61780000  1.0 -0.4115212629
N  N15  1  0.98063000  0.69252000  0.38220000  1.0 -0.4115212629
N  N16  1  0.51937000  0.30748000  0.88220000  1.0 -0.4115212629
N  N17  1  0.09432000  0.19501000  0.32062000  1.0 -0.4189468473
N  N18  1  0.40568000  0.80499000  0.82062000  1.0 -0.4189468473
N  N19  1  0.90568000  0.69501000  0.17938000  1.0 -0.4189468473
N  N20  1  0.59432000  0.30499000  0.67938000  1.0 -0.4189468473
N  N21  1  0.13690000  0.18000000  0.20623000  1.0 -0.3382283147
N  N22  1  0.36310000  0.82000000  0.70623000  1.0 -0.3382283147
N  N23  1  0.86310000  0.68000000  0.29377000  1.0 -0.3347872118
N  N24  1  0.63690000  0.32000000  0.79377000  1.0 -0.3382283147
N  N25  1  0.93595000  0.20419000  0.98276000  1.0 -0.4189468473
N  N26  1  0.56405000  0.79581000  0.48276000  1.0 -0.4189468473
N  N27  1  0.06405000  0.70419000  0.51724000  1.0 -0.4189468473
N  N28  1  0.43595000  0.29581000  0.01724000  1.0 -0.4189468473
N  N29  1  0.23384000  0.28460000  0.94791000  1.0 -0.4115212629
N  N30  1  0.26616000  0.71540000  0.44791000  1.0 -0.4189468473
N  N31  1  0.76616000  0.78460000  0.55209000  1.0 -0.4115212629
N  N32  1  0.73384000  0.21540000  0.05209000  1.0 -0.4115212629
N  N33  1  0.06011000  0.27730000  0.92273000  1.0 -0.3382283147
N  N34  1  0.43989000  0.72270000  0.42273000  1.0 -0.3468052027
N  N35  1  0.93989000  0.77730000  0.57727000  1.0 -0.3468052027
N  N36  1  0.56011000  0.22270000  0.07727000  1.0 -0.3468052027
N  N37  1  0.90103000  0.32539000  0.07437000  1.0 -0.4189468473
N  N38  1  0.59897000  0.67461000  0.57437000  1.0 -0.4189468473
N  N39  1  0.09897000  0.82539000  0.42563000  1.0 -0.4189468473
N  N40  1  0.40103000  0.17461000  0.92563000  1.0 -0.4189468473
N  N41  1  0.97955000  0.58229000  0.08092000  1.0 -0.4189468473
N  N42  1  0.52045000  0.41771000  0.58092000  1.0 -0.4189468473
N  N43  1  0.02045000  0.08229000  0.41908000  1.0 -0.4189468473
N  N44  1  0.47955000  0.91771000  0.91908000  1.0 -0.4189468473
N  N45  1  0.99380000  0.44429000  0.04606000  1.0 -0.3803365449
N  N46  1  0.50620000  0.55571000  0.54606000  1.0 -0.3729175548
N  N47  1  0.00620000  0.94429000  0.45394000  1.0 -0.3803365449
N  N48  1  0.49380000  0.05571000  0.95394000  1.0 -0.3729175548
N  N49  1  0.17380000  0.19125000  0.45429000  1.0 -0.4115212629
N  N50  1  0.32620000  0.80875000  0.95429000  1.0 -0.4115212629
N  N51  1  0.82620000  0.69125000  0.04571000  1.0 -0.4115212629
N  N52  1  0.67380000  0.30875000  0.54571000  1.0 -0.4115212629
N  N53  1  0.46693000  0.28415000  0.49491000  1.0 -0.4022385182
N  N54  1  0.03307000  0.71585000  0.99491000  1.0 -0.4022385182
N  N55  1  0.53307000  0.78415000  0.00509000  1.0 -0.4022385182
N  N56  1  0.96693000  0.21585000  0.50509000  1.0 -0.4115212629
N  N57  1  0.35210000  0.18295000  0.45775000  1.0 -0.3468052027
N  N58  1  0.14790000  0.81705000  0.95775000  1.0 -0.3468052027
N  N59  1  0.64790000  0.68295000  0.04225000  1.0 -0.3468052027
N  N60  1  0.85210000  0.31705000  0.54225000  1.0 -0.3468052027
N  N61  1  0.94120000  0.82375000  0.08913000  1.0 -0.4302222053
N  N62  1  0.55880000  0.17625000  0.58913000  1.0 -0.4302222053
N  N63  1  0.05880000  0.32375000  0.41087000  1.0 -0.4302222053
N  N64  1  0.44120000  0.67625000  0.91087000  1.0 -0.4302222053
N  N65  1  0.86916000  0.08224000  0.07311000  1.0 -0.4302222053
N  N66  1  0.63084000  0.91776000  0.57311000  1.0 -0.4302222053
N  N67  1  0.13084000  0.58224000  0.42689000  1.0 -0.4302222053
N  N68  1  0.36916000  0.41776000  0.92689000  1.0 -0.4302222053
N  N69  1  0.83901000  0.94188000  0.09644000  1.0 -0.3607111568
N  N70  1  0.66099000  0.05812000  0.59644000  1.0 -0.3607111568
N  N71  1  0.16099000  0.44188000  0.40356000  1.0 -0.3607111568
N  N72  1  0.33901000  0.55812000  0.90356000  1.0 -0.3607111568
