# DDEC6 charges by PACMAN v1.1 (https://github.com/mtap-research/PACMAN-charge/)
data_BEXRAY_ASR_pacman
_symmetry_space_group_name_H-M   'P 1'
_cell_length_a   14.37590000
_cell_length_b   16.90550000
_cell_length_c   21.63450000
_cell_angle_alpha   90.00000000
_cell_angle_beta   90.00000000
_cell_angle_gamma   90.00000000
_symmetry_Int_Tables_number   1
_chemical_formula_structural   Mn(C2N3)3
_chemical_formula_sum   'Mn8 C48 N72'
_cell_volume   5257.87098924
_cell_formula_units_Z   8
loop_
 _symmetry_equiv_pos_site_id
 _symmetry_equiv_pos_as_xyz
  1  'x, y, z'
loop_
 _atom_site_type_symbol
 _atom_site_label
 _atom_site_symmetry_multiplicity
 _atom_site_fract_x
 _atom_site_fract_y
 _atom_site_fract_z
 _atom_site_occupancy
 _atom_site_charge
Mn  Mn1  1  0.86564000  0.26698000  0.92976000  1.0 0.9814563128
Mn  Mn2  1  0.63436000  0.73302000  0.42976000  1.0 0.9814563128
Mn  Mn3  1  0.36564000  0.23302000  0.07024000  1.0 0.9814563128
Mn  Mn4  1  0.13436000  0.76698000  0.57024000  1.0 0.9814563128
Mn  Mn5  1  0.02926000  0.26813000  0.59713000  1.0 0.9593024882
Mn  Mn6  1  0.47074000  0.73187000  0.09713000  1.0 0.9593024882
Mn  Mn7  1  0.52926000  0.23187000  0.40287000  1.0 0.9593024882
Mn  Mn8  1  0.97074000  0.76813000  0.90287000  1.0 0.9593024882
C  C1  1  0.80738000  0.24739000  0.78137000  1.0 0.4136905286
C  C2  1  0.69262000  0.75261000  0.28137000  1.0 0.4136905286
C  C3  1  0.30738000  0.25261000  0.21863000  1.0 0.4203508052
C  C4  1  0.19262000  0.74739000  0.71863000  1.0 0.4203508052
C  C5  1  0.84101000  0.25229000  0.68033000  1.0 0.4203508052
C  C6  1  0.65899000  0.74771000  0.18033000  1.0 0.4203508052
C  C7  1  0.34101000  0.24771000  0.31967000  1.0 0.4203508052
C  C8  1  0.15899000  0.75229000  0.81967000  1.0 0.4203508052
C  C9  1  0.05678000  0.29346000  0.84729000  1.0 0.4136905286
C  C10  1  0.44322000  0.70654000  0.34729000  1.0 0.4203508052
C  C11  1  0.55678000  0.20654000  0.15271000  1.0 0.4136905286
C  C12  1  0.94322000  0.79346000  0.65271000  1.0 0.4136905286
C  C13  1  0.09436000  0.29050000  0.74561000  1.0 0.4203508052
C  C14  1  0.40564000  0.70950000  0.24561000  1.0 0.4203508052
C  C15  1  0.59436000  0.20950000  0.25439000  1.0 0.4203508052
C  C16  1  0.90564000  0.79050000  0.75439000  1.0 0.4203508052
C  C17  1  0.98263000  0.28141000  0.05249000  1.0 0.4494849476
C  C18  1  0.51737000  0.71859000  0.55249000  1.0 0.4398382551
C  C19  1  0.48263000  0.21859000  0.94751000  1.0 0.4494849476
C  C20  1  0.01737000  0.78141000  0.44751000  1.0 0.4494849476
C  C21  1  0.13827000  0.26413000  0.06499000  1.0 0.4203508052
C  C22  1  0.36173000  0.73587000  0.56499000  1.0 0.4203508052
C  C23  1  0.63827000  0.23587000  0.93501000  1.0 0.4203508052
C  C24  1  0.86173000  0.76413000  0.43501000  1.0 0.4203508052
C  C25  1  0.83611000  0.46166000  0.91466000  1.0 0.4494849476
C  C26  1  0.66389000  0.53834000  0.41466000  1.0 0.4494849476
C  C27  1  0.33611000  0.03834000  0.08534000  1.0 0.4494849476
C  C28  1  0.16389000  0.96166000  0.58534000  1.0 0.4494849476
C  C29  1  0.88283000  0.58903000  0.90223000  1.0 0.4398382551
C  C30  1  0.61717000  0.41097000  0.40223000  1.0 0.4398382551
C  C31  1  0.38283000  0.91097000  0.09777000  1.0 0.4398382551
C  C32  1  0.11717000  0.08903000  0.59777000  1.0 0.4398382551
C  C33  1  0.24724000  0.29819000  0.55070000  1.0 0.4309840682
C  C34  1  0.25276000  0.70181000  0.05070000  1.0 0.4309840682
C  C35  1  0.74724000  0.20181000  0.44930000  1.0 0.4309840682
C  C36  1  0.75276000  0.79819000  0.94930000  1.0 0.4309840682
C  C37  1  0.39621000  0.27885000  0.51765000  1.0 0.4494849476
C  C38  1  0.10379000  0.72115000  0.01765000  1.0 0.4398382551
C  C39  1  0.89621000  0.22115000  0.48235000  1.0 0.4494849476
C  C40  1  0.60379000  0.77885000  0.98235000  1.0 0.4494849476
C  C41  1  0.96242000  0.95097000  0.94299000  1.0 0.4398382551
C  C42  1  0.53758000  0.04903000  0.44299000  1.0 0.4398382551
C  C43  1  0.46242000  0.54903000  0.05701000  1.0 0.4398382551
C  C44  1  0.03758000  0.45097000  0.55701000  1.0 0.4398382551
C  C45  1  0.91087000  0.07662000  0.95801000  1.0 0.4398382551
C  C46  1  0.58913000  0.92338000  0.45801000  1.0 0.4398382551
C  C47  1  0.41087000  0.42338000  0.04199000  1.0 0.4398382551
C  C48  1  0.08913000  0.57662000  0.54199000  1.0 0.4398382551
N  N1  1  0.82460000  0.24525000  0.83291000  1.0 -0.4114242414
N  N2  1  0.67540000  0.75475000  0.33291000  1.0 -0.4114242414
N  N3  1  0.32460000  0.25475000  0.16709000  1.0 -0.4114242414
N  N4  1  0.17540000  0.74525000  0.66709000  1.0 -0.4114242414
N  N5  1  0.88957000  0.25275000  0.63893000  1.0 -0.4114242414
N  N6  1  0.61043000  0.74725000  0.13893000  1.0 -0.4114242414
N  N7  1  0.38957000  0.24725000  0.36107000  1.0 -0.4114242414
N  N8  1  0.11043000  0.75275000  0.86107000  1.0 -0.4114242414
N  N9  1  0.77825000  0.25231000  0.72431000  1.0 -0.3493109984
N  N10  1  0.72175000  0.74769000  0.22431000  1.0 -0.3493109984
N  N11  1  0.27825000  0.24769000  0.27569000  1.0 -0.3493109984
N  N12  1  0.22175000  0.75231000  0.77569000  1.0 -0.3493109984
N  N13  1  0.00937000  0.28571000  0.89030000  1.0 -0.4114242414
N  N14  1  0.49063000  0.71429000  0.39030000  1.0 -0.4179977928
N  N15  1  0.50937000  0.21429000  0.10970000  1.0 -0.4114242414
N  N16  1  0.99063000  0.78571000  0.60970000  1.0 -0.4179977928
N  N17  1  0.08225000  0.28250000  0.69329000  1.0 -0.4179977928
N  N18  1  0.41775000  0.71750000  0.19329000  1.0 -0.4179977928
N  N19  1  0.58225000  0.21750000  0.30671000  1.0 -0.4114242414
N  N20  1  0.91775000  0.78250000  0.80671000  1.0 -0.4114242414
N  N21  1  0.11792000  0.30235000  0.80356000  1.0 -0.3317334768
N  N22  1  0.38208000  0.69765000  0.30356000  1.0 -0.3317334768
N  N23  1  0.61792000  0.19765000  0.19644000  1.0 -0.3317334768
N  N24  1  0.88208000  0.80235000  0.69644000  1.0 -0.3317334768
N  N25  1  0.91182000  0.28122000  0.02794000  1.0 -0.4179977928
N  N26  1  0.58818000  0.71878000  0.52794000  1.0 -0.4179977928
N  N27  1  0.41182000  0.21878000  0.97206000  1.0 -0.4179977928
N  N28  1  0.08818000  0.78122000  0.47206000  1.0 -0.4179977928
N  N29  1  0.21323000  0.24893000  0.05106000  1.0 -0.3816031781
N  N30  1  0.28677000  0.75107000  0.55106000  1.0 -0.3864300318
N  N31  1  0.71323000  0.25107000  0.94894000  1.0 -0.3816031781
N  N32  1  0.78677000  0.74893000  0.44894000  1.0 -0.3864300318
N  N33  1  0.05678000  0.28472000  0.08638000  1.0 -0.3612260407
N  N34  1  0.44322000  0.71528000  0.58638000  1.0 -0.3612260407
N  N35  1  0.55678000  0.21528000  0.91362000  1.0 -0.3612260407
N  N36  1  0.94322000  0.78472000  0.41362000  1.0 -0.3612260407
N  N37  1  0.84272000  0.39457000  0.92332000  1.0 -0.4287315234
N  N38  1  0.65728000  0.60543000  0.42332000  1.0 -0.4372496275
N  N39  1  0.34272000  0.10543000  0.07668000  1.0 -0.4287315234
N  N40  1  0.15728000  0.89457000  0.57668000  1.0 -0.4372496275
N  N41  1  0.93347000  0.64142000  0.89921000  1.0 -0.4287315234
N  N42  1  0.56653000  0.35858000  0.39921000  1.0 -0.4179977928
N  N43  1  0.43347000  0.85858000  0.10079000  1.0 -0.4287315234
N  N44  1  0.06653000  0.14142000  0.60079000  1.0 -0.4287315234
N  N45  1  0.81725000  0.53544000  0.90398000  1.0 -0.3816031781
N  N46  1  0.68275000  0.46456000  0.40398000  1.0 -0.3816031781
N  N47  1  0.31725000  0.96456000  0.09602000  1.0 -0.3816031781
N  N48  1  0.18275000  0.03544000  0.59602000  1.0 -0.3864300318
N  N49  1  0.16888000  0.28722000  0.55574000  1.0 -0.4179977928
N  N50  1  0.33112000  0.71278000  0.05574000  1.0 -0.4179977928
N  N51  1  0.66888000  0.21278000  0.44426000  1.0 -0.4179977928
N  N52  1  0.83112000  0.78722000  0.94426000  1.0 -0.4114242414
N  N53  1  0.45769000  0.25093000  0.49248000  1.0 -0.4114242414
N  N54  1  0.04231000  0.74907000  0.99248000  1.0 -0.4114242414
N  N55  1  0.95769000  0.24907000  0.50752000  1.0 -0.4179977928
N  N56  1  0.54231000  0.75093000  0.00752000  1.0 -0.4114242414
N  N57  1  0.33529000  0.31750000  0.55019000  1.0 -0.3612260407
N  N58  1  0.16471000  0.68250000  0.05019000  1.0 -0.3612260407
N  N59  1  0.83529000  0.18250000  0.44981000  1.0 -0.3612260407
N  N60  1  0.66471000  0.81750000  0.94981000  1.0 -0.3612260407
N  N61  1  0.99230000  0.89773000  0.91553000  1.0 -0.4287315234
N  N62  1  0.50770000  0.10227000  0.41553000  1.0 -0.4179977928
N  N63  1  0.49230000  0.60227000  0.08447000  1.0 -0.4287315234
N  N64  1  0.00770000  0.39773000  0.58447000  1.0 -0.4179977928
N  N65  1  0.89219000  0.14049000  0.94461000  1.0 -0.4114242414
N  N66  1  0.60781000  0.85951000  0.44461000  1.0 -0.4114242414
N  N67  1  0.39219000  0.35951000  0.05539000  1.0 -0.4114242414
N  N68  1  0.10781000  0.64049000  0.55539000  1.0 -0.4179977928
N  N69  1  0.93048000  0.00589000  0.97957000  1.0 -0.367655721
N  N70  1  0.56952000  0.99411000  0.47957000  1.0 -0.3612260407
N  N71  1  0.43048000  0.49411000  0.02043000  1.0 -0.3612260407
N  N72  1  0.06952000  0.50589000  0.52043000  1.0 -0.3612260407
