# DDEC6 charges by PACMAN v1.1 (https://github.com/mtap-research/PACMAN-charge/)
data_BEXRIG_ASR_pacman
_symmetry_space_group_name_H-M   'P 1'
_cell_length_a   14.11920000
_cell_length_b   16.65450000
_cell_length_c   21.58330000
_cell_angle_alpha   90.00000000
_cell_angle_beta   90.00000000
_cell_angle_gamma   90.00000000
_symmetry_Int_Tables_number   1
_chemical_formula_structural   Ni(C2N3)3
_chemical_formula_sum   'Ni8 C48 N72'
_cell_volume   5075.27449903
_cell_formula_units_Z   8
loop_
 _symmetry_equiv_pos_site_id
 _symmetry_equiv_pos_as_xyz
  1  'x, y, z'
loop_
 _atom_site_type_symbol
 _atom_site_label
 _atom_site_symmetry_multiplicity
 _atom_site_fract_x
 _atom_site_fract_y
 _atom_site_fract_z
 _atom_site_occupancy
 _atom_site_charge
Ni  Ni1  1  0.87412000  0.26898000  0.92333000  1.0 0.9626875581
Ni  Ni2  1  0.62588000  0.73102000  0.42333000  1.0 0.9678088169
Ni  Ni3  1  0.37412000  0.23102000  0.07667000  1.0 0.9678088169
Ni  Ni4  1  0.12588000  0.76898000  0.57667000  1.0 0.9678088169
Ni  Ni5  1  0.03689000  0.27003000  0.59868000  1.0 0.9626875581
Ni  Ni6  1  0.46311000  0.72997000  0.09868000  1.0 0.9626875581
Ni  Ni7  1  0.53689000  0.22997000  0.40132000  1.0 0.9626875581
Ni  Ni8  1  0.96311000  0.77003000  0.90132000  1.0 0.9626875581
C  C1  1  0.81292000  0.24443000  0.78232000  1.0 0.4228145869
C  C2  1  0.68708000  0.75557000  0.28232000  1.0 0.4228145869
C  C3  1  0.31292000  0.25557000  0.21768000  1.0 0.4228145869
C  C4  1  0.18708000  0.74443000  0.71768000  1.0 0.4228145869
C  C5  1  0.85480000  0.25198000  0.68262000  1.0 0.4228145869
C  C6  1  0.64520000  0.74802000  0.18262000  1.0 0.4268939467
C  C7  1  0.35480000  0.24802000  0.31738000  1.0 0.4268939467
C  C8  1  0.14520000  0.75198000  0.81738000  1.0 0.4228145869
C  C9  1  0.06061000  0.29096000  0.84102000  1.0 0.4268939467
C  C10  1  0.43939000  0.70904000  0.34102000  1.0 0.4268939467
C  C11  1  0.56061000  0.20904000  0.15898000  1.0 0.4268939467
C  C12  1  0.93939000  0.79096000  0.65898000  1.0 0.4268939467
C  C13  1  0.10436000  0.29129000  0.73988000  1.0 0.4268939467
C  C14  1  0.39564000  0.70871000  0.23988000  1.0 0.4268939467
C  C15  1  0.60436000  0.20871000  0.26012000  1.0 0.4268939467
C  C16  1  0.89564000  0.79129000  0.76012000  1.0 0.4268939467
C  C17  1  0.99610000  0.27688000  0.04147000  1.0 0.4572653787
C  C18  1  0.50390000  0.72312000  0.54147000  1.0 0.4572653787
C  C19  1  0.49610000  0.22312000  0.95853000  1.0 0.4572653787
C  C20  1  0.00390000  0.77688000  0.45853000  1.0 0.4572653787
C  C21  1  0.15260000  0.25339000  0.06152000  1.0 0.4401669792
C  C22  1  0.34740000  0.74661000  0.56152000  1.0 0.4401669792
C  C23  1  0.65260000  0.24661000  0.93848000  1.0 0.4401669792
C  C24  1  0.84740000  0.75339000  0.43848000  1.0 0.4401669792
C  C25  1  0.84548000  0.45899000  0.90747000  1.0 0.4572653787
C  C26  1  0.65452000  0.54101000  0.40747000  1.0 0.4572653787
C  C27  1  0.34548000  0.04101000  0.09253000  1.0 0.4572653787
C  C28  1  0.15452000  0.95899000  0.59253000  1.0 0.4572653787
C  C29  1  0.88600000  0.59187000  0.89712000  1.0 0.4496631341
C  C30  1  0.61400000  0.40813000  0.39712000  1.0 0.4496631341
C  C31  1  0.38600000  0.90813000  0.10288000  1.0 0.4401669792
C  C32  1  0.11400000  0.09187000  0.60288000  1.0 0.4496631341
C  C33  1  0.25000000  0.29044000  0.55047000  1.0 0.4401669792
C  C34  1  0.25000000  0.70956000  0.05047000  1.0 0.4401669792
C  C35  1  0.75000000  0.20956000  0.44953000  1.0 0.4401669792
C  C36  1  0.75000000  0.79044000  0.94953000  1.0 0.4401669792
C  C37  1  0.40050000  0.27342000  0.51205000  1.0 0.4496631341
C  C38  1  0.09950000  0.72658000  0.01205000  1.0 0.4496631341
C  C39  1  0.90050000  0.22658000  0.48795000  1.0 0.4496631341
C  C40  1  0.59950000  0.77342000  0.98795000  1.0 0.4496631341
C  C41  1  0.95240000  0.95099000  0.94128000  1.0 0.4496631341
C  C42  1  0.54760000  0.04901000  0.44128000  1.0 0.4496631341
C  C43  1  0.45240000  0.54901000  0.05872000  1.0 0.4496631341
C  C44  1  0.04760000  0.45099000  0.55872000  1.0 0.4496631341
C  C45  1  0.90974000  0.08249000  0.95352000  1.0 0.4401669792
C  C46  1  0.59026000  0.91751000  0.45352000  1.0 0.4401669792
C  C47  1  0.40974000  0.41751000  0.04648000  1.0 0.4401669792
C  C48  1  0.09026000  0.58249000  0.54648000  1.0 0.4496631341
N  N1  1  0.82828000  0.24661000  0.83444000  1.0 -0.4092027305
N  N2  1  0.67172000  0.75339000  0.33444000  1.0 -0.4092027305
N  N3  1  0.32828000  0.25339000  0.16556000  1.0 -0.4092027305
N  N4  1  0.17172000  0.74661000  0.66556000  1.0 -0.4092027305
N  N5  1  0.90876000  0.26021000  0.64386000  1.0 -0.4092027305
N  N6  1  0.59124000  0.73979000  0.14386000  1.0 -0.4092027305
N  N7  1  0.40876000  0.23979000  0.35614000  1.0 -0.4092027305
N  N8  1  0.09124000  0.76021000  0.85614000  1.0 -0.4092027305
N  N9  1  0.78759000  0.24196000  0.72372000  1.0 -0.3400060742
N  N10  1  0.71241000  0.75804000  0.22372000  1.0 -0.3400060742
N  N11  1  0.28759000  0.25804000  0.27628000  1.0 -0.3400060742
N  N12  1  0.21241000  0.74196000  0.77628000  1.0 -0.3400060742
N  N13  1  0.00951000  0.28265000  0.88231000  1.0 -0.428489503
N  N14  1  0.49049000  0.71735000  0.38231000  1.0 -0.428489503
N  N15  1  0.50951000  0.21735000  0.11769000  1.0 -0.428489503
N  N16  1  0.99049000  0.78265000  0.61769000  1.0 -0.428489503
N  N17  1  0.09470000  0.28591000  0.68718000  1.0 -0.428489503
N  N18  1  0.40530000  0.71409000  0.18718000  1.0 -0.4236482217
N  N19  1  0.59470000  0.21409000  0.31282000  1.0 -0.4236482217
N  N20  1  0.90530000  0.78591000  0.81282000  1.0 -0.428489503
N  N21  1  0.12621000  0.30044000  0.79905000  1.0 -0.3339649721
N  N22  1  0.37379000  0.69956000  0.29905000  1.0 -0.3339649721
N  N23  1  0.62621000  0.19956000  0.20095000  1.0 -0.3339649721
N  N24  1  0.87379000  0.80044000  0.70095000  1.0 -0.3339649721
N  N25  1  0.92965000  0.28747000  0.01218000  1.0 -0.428489503
N  N26  1  0.57035000  0.71253000  0.51218000  1.0 -0.4236482217
N  N27  1  0.42965000  0.21253000  0.98782000  1.0 -0.428489503
N  N28  1  0.07035000  0.78747000  0.48782000  1.0 -0.4236482217
N  N29  1  0.23122000  0.24300000  0.05110000  1.0 -0.4092027305
N  N30  1  0.26878000  0.75700000  0.55110000  1.0 -0.4092027305
N  N31  1  0.73122000  0.25700000  0.94890000  1.0 -0.4092027305
N  N32  1  0.76878000  0.74300000  0.44890000  1.0 -0.4092027305
N  N33  1  0.06498000  0.26501000  0.08064000  1.0 -0.3572813405
N  N34  1  0.43502000  0.73499000  0.58064000  1.0 -0.3572813405
N  N35  1  0.56498000  0.23499000  0.91936000  1.0 -0.3572813405
N  N36  1  0.93502000  0.76501000  0.41936000  1.0 -0.3572813405
N  N37  1  0.85386000  0.39063000  0.91399000  1.0 -0.4393996357
N  N38  1  0.64614000  0.60937000  0.41399000  1.0 -0.4393996357
N  N39  1  0.35386000  0.10937000  0.08601000  1.0 -0.4393996357
N  N40  1  0.14614000  0.89063000  0.58601000  1.0 -0.4393996357
N  N41  1  0.93269000  0.64787000  0.89451000  1.0 -0.428489503
N  N42  1  0.56731000  0.35213000  0.39451000  1.0 -0.428489503
N  N43  1  0.43269000  0.85213000  0.10549000  1.0 -0.428489503
N  N44  1  0.06731000  0.14787000  0.60549000  1.0 -0.428489503
N  N45  1  0.82277000  0.53420000  0.89886000  1.0 -0.3697390689
N  N46  1  0.67723000  0.46580000  0.39886000  1.0 -0.3697390689
N  N47  1  0.32277000  0.96580000  0.10114000  1.0 -0.3697390689
N  N48  1  0.17723000  0.03420000  0.60114000  1.0 -0.3697390689
N  N49  1  0.16972000  0.28185000  0.55690000  1.0 -0.428489503
N  N50  1  0.33028000  0.71815000  0.05690000  1.0 -0.428489503
N  N51  1  0.66972000  0.21815000  0.44310000  1.0 -0.428489503
N  N52  1  0.83028000  0.78185000  0.94310000  1.0 -0.428489503
N  N53  1  0.46217000  0.24945000  0.48260000  1.0 -0.428489503
N  N54  1  0.03783000  0.75055000  0.98260000  1.0 -0.428489503
N  N55  1  0.96217000  0.25055000  0.51740000  1.0 -0.428489503
N  N56  1  0.53783000  0.74945000  0.01740000  1.0 -0.428489503
N  N57  1  0.34070000  0.30698000  0.55055000  1.0 -0.3527008726
N  N58  1  0.15930000  0.69302000  0.05055000  1.0 -0.3527008726
N  N59  1  0.84070000  0.19302000  0.44945000  1.0 -0.3527008726
N  N60  1  0.65930000  0.80698000  0.94945000  1.0 -0.3527008726
N  N61  1  0.97840000  0.89321000  0.91585000  1.0 -0.4393996357
N  N62  1  0.52160000  0.10679000  0.41585000  1.0 -0.4393996357
N  N63  1  0.47840000  0.60679000  0.08415000  1.0 -0.4393996357
N  N64  1  0.02160000  0.39321000  0.58415000  1.0 -0.4393996357
N  N65  1  0.89536000  0.14770000  0.93890000  1.0 -0.428489503
N  N66  1  0.60464000  0.85230000  0.43890000  1.0 -0.428489503
N  N67  1  0.39536000  0.35230000  0.06110000  1.0 -0.428489503
N  N68  1  0.10464000  0.64770000  0.56110000  1.0 -0.4393996357
N  N69  1  0.92532000  0.01057000  0.97607000  1.0 -0.3572813405
N  N70  1  0.57468000  0.98943000  0.47607000  1.0 -0.3572813405
N  N71  1  0.42532000  0.48943000  0.02393000  1.0 -0.3572813405
N  N72  1  0.07468000  0.51057000  0.52393000  1.0 -0.3572813405
