# DDEC6 charges by PACMAN v1.1 (https://github.com/mtap-research/PACMAN-charge/)
data_BEXSII_ASR_pacman
_symmetry_space_group_name_H-M   'P 1'
_cell_length_a   11.64160000
_cell_length_b   14.95170000
_cell_length_c   19.62620000
_cell_angle_alpha   90.00000000
_cell_angle_beta   122.39200000
_cell_angle_gamma   90.00000000
_symmetry_Int_Tables_number   1
_chemical_formula_structural   Cu3H16C30(NO7)2
_chemical_formula_sum   'Cu6 H32 C60 N4 O28'
_cell_volume   2884.62323892
_cell_formula_units_Z   2
loop_
 _symmetry_equiv_pos_site_id
 _symmetry_equiv_pos_as_xyz
  1  'x, y, z'
loop_
 _atom_site_type_symbol
 _atom_site_label
 _atom_site_symmetry_multiplicity
 _atom_site_fract_x
 _atom_site_fract_y
 _atom_site_fract_z
 _atom_site_occupancy
 _atom_site_charge
Cu  Cu1  1  0.50000000  0.50000000  0.00000000  1.0 0.7390625281
Cu  Cu2  1  0.50000000  0.00000000  0.50000000  1.0 0.7390625281
Cu  Cu3  1  0.38812000  0.96370000  0.99135000  1.0 0.8564224941
Cu  Cu4  1  0.61188000  0.46370000  0.50865000  1.0 0.8564224941
Cu  Cu5  1  0.61188000  0.03630000  0.00865000  1.0 0.8564224941
Cu  Cu6  1  0.38812000  0.53630000  0.49135000  1.0 0.8564224941
H  H1  1  0.51860000  0.50530000  0.26400000  1.0 0.1354994354
H  H2  1  0.48140000  0.00530000  0.23600000  1.0 0.1354994354
H  H3  1  0.48140000  0.49470000  0.73600000  1.0 0.1354994354
H  H4  1  0.51860000  0.99470000  0.76400000  1.0 0.1354994354
H  H5  1  0.20790000  0.63770000  0.25570000  1.0 0.1314668956
H  H6  1  0.79210000  0.13770000  0.24430000  1.0 0.1314668956
H  H7  1  0.79210000  0.36230000  0.74430000  1.0 0.1314668956
H  H8  1  0.20790000  0.86230000  0.75570000  1.0 0.1314668956
H  H9  1  0.24600000  0.64320000  0.06270000  1.0 0.1314668956
H  H10  1  0.75400000  0.14320000  0.43730000  1.0 0.1314668956
H  H11  1  0.75400000  0.35680000  0.93730000  1.0 0.1314668956
H  H12  1  0.24600000  0.85680000  0.56270000  1.0 0.1314668956
H  H13  1  0.06930000  0.73210000  0.06130000  1.0 0.1198814986
H  H14  1  0.93070000  0.23210000  0.43870000  1.0 0.1198814986
H  H15  1  0.93070000  0.26790000  0.93870000  1.0 0.1198814986
H  H16  1  0.06930000  0.76790000  0.56130000  1.0 0.1198814986
H  H17  1  0.07360000  0.74590000  0.14410000  1.0 0.1122389911
H  H18  1  0.92640000  0.24590000  0.35590000  1.0 0.1122389911
H  H19  1  0.92640000  0.25410000  0.85590000  1.0 0.1122389911
H  H20  1  0.07360000  0.75410000  0.64410000  1.0 0.1122389911
H  H21  1  0.86280000  0.79600000  0.07010000  1.0 0.1354994354
H  H22  1  0.13720000  0.29600000  0.42990000  1.0 0.1354994354
H  H23  1  0.13720000  0.20400000  0.92990000  1.0 0.1354994354
H  H24  1  0.86280000  0.70400000  0.57010000  1.0 0.1354994354
H  H25  1  0.50050000  0.69590000  0.01760000  1.0 0.1314668956
H  H26  1  0.49950000  0.19590000  0.48240000  1.0 0.1314668956
H  H27  1  0.49950000  0.30410000  0.98240000  1.0 0.1314668956
H  H28  1  0.50050000  0.80410000  0.51760000  1.0 0.1314668956
H  H29  1  0.78760000  0.52880000  0.05030000  1.0 0.1354994354
H  H30  1  0.21240000  0.02880000  0.44970000  1.0 0.1354994354
H  H31  1  0.21240000  0.47120000  0.94970000  1.0 0.1354994354
H  H32  1  0.78760000  0.97120000  0.55030000  1.0 0.1354994354
C  C1  1  0.46060000  0.53673000  0.11540000  1.0 0.5445182128
C  C2  1  0.53940000  0.03673000  0.38460000  1.0 0.5445182128
C  C3  1  0.53940000  0.46327000  0.88460000  1.0 0.5445182128
C  C4  1  0.46060000  0.96327000  0.61540000  1.0 0.5445182128
C  C5  1  0.39147000  0.56932000  0.15697000  1.0 -0.0055171524
C  C6  1  0.60853000  0.06932000  0.34303000  1.0 -0.0055171524
C  C7  1  0.60853000  0.43068000  0.84303000  1.0 -0.0055171524
C  C8  1  0.39147000  0.93068000  0.65697000  1.0 -0.0055171524
C  C9  1  0.43921000  0.54130000  0.23561000  1.0 -0.1139316233
C  C10  1  0.56079000  0.04130000  0.26439000  1.0 -0.1139316233
C  C11  1  0.56079000  0.45870000  0.76439000  1.0 -0.1139316233
C  C12  1  0.43921000  0.95870000  0.73561000  1.0 -0.1139316233
C  C13  1  0.36955000  0.56667000  0.27215000  1.0 -0.0189444374
C  C14  1  0.63045000  0.06667000  0.22785000  1.0 -0.0189444374
C  C15  1  0.63045000  0.43333000  0.72785000  1.0 -0.0189444374
C  C16  1  0.36955000  0.93333000  0.77215000  1.0 -0.0189444374
C  C17  1  0.25499000  0.62052000  0.23039000  1.0 -0.1458574878
C  C18  1  0.74501000  0.12052000  0.26961000  1.0 -0.1458574878
C  C19  1  0.74501000  0.37948000  0.76961000  1.0 -0.1458574878
C  C20  1  0.25499000  0.87948000  0.73039000  1.0 -0.1458574878
C  C21  1  0.20786000  0.64973000  0.15296000  1.0 0.0693174368
C  C22  1  0.79214000  0.14973000  0.34704000  1.0 0.0693174368
C  C23  1  0.79214000  0.35027000  0.84704000  1.0 0.0693174368
C  C24  1  0.20786000  0.85027000  0.65296000  1.0 0.0693174368
C  C25  1  0.27714000  0.62371000  0.11594000  1.0 -0.164451574
C  C26  1  0.72286000  0.12371000  0.38406000  1.0 -0.164451574
C  C27  1  0.72286000  0.37629000  0.88406000  1.0 -0.164451574
C  C28  1  0.27714000  0.87629000  0.61594000  1.0 -0.164451574
C  C29  1  0.41784000  0.53833000  0.35644000  1.0 0.5841393722
C  C30  1  0.58216000  0.03833000  0.14356000  1.0 0.5841393722
C  C31  1  0.58216000  0.46167000  0.64356000  1.0 0.5841393722
C  C32  1  0.41784000  0.96167000  0.85644000  1.0 0.5841393722
C  C33  1  0.07830000  0.70108000  0.10850000  1.0 -0.0913997563
C  C34  1  0.92170000  0.20108000  0.39150000  1.0 -0.0913997563
C  C35  1  0.92170000  0.29892000  0.89150000  1.0 -0.0913997563
C  C36  1  0.07830000  0.79892000  0.60850000  1.0 -0.0913997563
C  C37  1  0.84840000  0.65903000  0.06480000  1.0 0.2257514065
C  C38  1  0.15160000  0.15903000  0.43520000  1.0 0.2257514065
C  C39  1  0.15160000  0.34097000  0.93520000  1.0 0.2257514065
C  C40  1  0.84840000  0.84097000  0.56480000  1.0 0.2257514065
C  C41  1  0.80487000  0.74663000  0.06087000  1.0 -0.1979006538
C  C42  1  0.19513000  0.24663000  0.43913000  1.0 -0.1979006538
C  C43  1  0.19513000  0.25337000  0.93913000  1.0 -0.1979006538
C  C44  1  0.80487000  0.75337000  0.56087000  1.0 -0.1979006538
C  C45  1  0.67205000  0.75891000  0.04275000  1.0 -0.0301017929
C  C46  1  0.32795000  0.25891000  0.45725000  1.0 -0.0301017929
C  C47  1  0.32795000  0.24109000  0.95725000  1.0 -0.0301017929
C  C48  1  0.67205000  0.74109000  0.54275000  1.0 -0.0301017929
C  C49  1  0.58970000  0.68623000  0.02880000  1.0 0.0525707444
C  C50  1  0.41030000  0.18623000  0.47120000  1.0 0.0525707444
C  C51  1  0.41030000  0.31377000  0.97120000  1.0 0.0525707444
C  C52  1  0.58970000  0.81377000  0.52880000  1.0 0.0525707444
C  C53  1  0.75778000  0.58841000  0.04848000  1.0 -0.0189444374
C  C54  1  0.24222000  0.08841000  0.45152000  1.0 -0.0189444374
C  C55  1  0.24222000  0.41159000  0.95152000  1.0 -0.0189444374
C  C56  1  0.75778000  0.91159000  0.54848000  1.0 -0.0189444374
C  C57  1  0.61658000  0.85112000  0.03448000  1.0 0.5841393722
C  C58  1  0.38342000  0.35112000  0.46552000  1.0 0.5841393722
C  C59  1  0.38342000  0.14888000  0.96552000  1.0 0.5841393722
C  C60  1  0.61658000  0.64888000  0.53448000  1.0 0.5841393722
N  N1  1  0.63143000  0.60212000  0.03051000  1.0 -0.1979006538
N  N2  1  0.36857000  0.10212000  0.46949000  1.0 -0.1979006538
N  N3  1  0.36857000  0.39788000  0.96949000  1.0 -0.1979006538
N  N4  1  0.63143000  0.89788000  0.53051000  1.0 -0.1979006538
O  O1  1  0.40628000  0.56395000  0.04215000  1.0 -0.5485372143
O  O2  1  0.59372000  0.06395000  0.45785000  1.0 -0.5485372143
O  O3  1  0.59372000  0.43605000  0.95785000  1.0 -0.5485372143
O  O4  1  0.40628000  0.93605000  0.54215000  1.0 -0.5485372143
O  O5  1  0.55926000  0.48589000  0.14916000  1.0 -0.5403478342
O  O6  1  0.44074000  0.98589000  0.35084000  1.0 -0.5403478342
O  O7  1  0.44074000  0.51411000  0.85084000  1.0 -0.5403478342
O  O8  1  0.55926000  0.01411000  0.64916000  1.0 -0.5403478342
O  O9  1  0.34032000  0.55737000  0.38094000  1.0 -0.5313480692
O  O10  1  0.65968000  0.05737000  0.11906000  1.0 -0.5313480692
O  O11  1  0.65968000  0.44263000  0.61906000  1.0 -0.5313480692
O  O12  1  0.34032000  0.94263000  0.88094000  1.0 -0.5313480692
O  O13  1  0.52969000  0.49784000  0.39527000  1.0 -0.5147152739
O  O14  1  0.47031000  0.99784000  0.10473000  1.0 -0.5147152739
O  O15  1  0.47031000  0.50216000  0.60473000  1.0 -0.5147152739
O  O16  1  0.52969000  0.00216000  0.89527000  1.0 -0.5147152739
O  O17  1  0.97321000  0.63350000  0.08313000  1.0 -0.1792556839
O  O18  1  0.02679000  0.13350000  0.41687000  1.0 -0.1792556839
O  O19  1  0.02679000  0.36650000  0.91687000  1.0 -0.1792556839
O  O20  1  0.97321000  0.86650000  0.58313000  1.0 -0.1792556839
O  O21  1  0.49876000  0.85485000  0.02246000  1.0 -0.52201124
O  O22  1  0.50124000  0.35485000  0.47754000  1.0 -0.52201124
O  O23  1  0.50124000  0.14515000  0.97754000  1.0 -0.52201124
O  O24  1  0.49876000  0.64515000  0.52246000  1.0 -0.52201124
O  O25  1  0.68845000  0.91482000  0.03825000  1.0 -0.4982449012
O  O26  1  0.31155000  0.41482000  0.46175000  1.0 -0.4982449012
O  O27  1  0.31155000  0.08518000  0.96175000  1.0 -0.4982449012
O  O28  1  0.68845000  0.58518000  0.53825000  1.0 -0.4982449012
