# DDEC6 charges by PACMAN v1.1 (https://github.com/mtap-research/PACMAN-charge/)
data_BEXTUV_ASR_pacman
_symmetry_space_group_name_H-M   'P 1'
_cell_length_a   11.18650000
_cell_length_b   11.18650000
_cell_length_c   11.92470000
_cell_angle_alpha   69.75050000
_cell_angle_beta   110.25000000
_cell_angle_gamma   97.63510000
_symmetry_Int_Tables_number   1
_chemical_formula_structural   Mn2H14C18O11
_chemical_formula_sum   'Mn4 H28 C36 O22'
_cell_volume   1313.32517988
_cell_formula_units_Z   2
loop_
 _symmetry_equiv_pos_site_id
 _symmetry_equiv_pos_as_xyz
  1  'x, y, z'
loop_
 _atom_site_type_symbol
 _atom_site_label
 _atom_site_symmetry_multiplicity
 _atom_site_fract_x
 _atom_site_fract_y
 _atom_site_fract_z
 _atom_site_occupancy
 _atom_site_charge
Mn  Mn1  1  0.22612000  0.42128000  0.59732000  1.0 0.9651730802
Mn  Mn2  1  0.42128000  0.22612000  0.90268000  1.0 0.9651730802
Mn  Mn3  1  0.77388000  0.57872000  0.40268000  1.0 0.9651730802
Mn  Mn4  1  0.57872000  0.77388000  0.09732000  1.0 0.9651730802
H  H1  1  0.33100000  0.86920000  0.75060000  1.0 0.138686299
H  H2  1  0.86920000  0.33100000  0.74940000  1.0 0.138686299
H  H3  1  0.13590000  0.15930000  0.45200000  1.0 0.138686299
H  H4  1  0.15930000  0.13590000  0.04800000  1.0 0.138686299
H  H5  1  0.10630000  0.80710000  0.42530000  1.0 0.1208916453
H  H6  1  0.80710000  0.10630000  0.07470000  1.0 0.1208916453
H  H7  1  0.94900000  0.93940000  0.21350000  1.0 0.1073780746
H  H8  1  0.93940000  0.94900000  0.28650000  1.0 0.1073780746
H  H9  1  0.09580000  0.94980000  0.21770000  1.0 0.2162508105
H  H10  1  0.94980000  0.09580000  0.28230000  1.0 0.2162508105
H  H11  1  0.50170000  0.42990000  0.75280000  1.0 0.1507406381
H  H12  1  0.42990000  0.50170000  0.74720000  1.0 0.1507406381
H  H13  1  0.41790000  0.45630000  0.80460000  1.0 0.2162508105
H  H14  1  0.45630000  0.41790000  0.69540000  1.0 0.2162508105
H  H15  1  0.66900000  0.13080000  0.24940000  1.0 0.138686299
H  H16  1  0.13080000  0.66900000  0.25060000  1.0 0.138686299
H  H17  1  0.86410000  0.84070000  0.54800000  1.0 0.138686299
H  H18  1  0.84070000  0.86410000  0.95200000  1.0 0.138686299
H  H19  1  0.89370000  0.19290000  0.57470000  1.0 0.1208916453
H  H20  1  0.19290000  0.89370000  0.92530000  1.0 0.1208916453
H  H21  1  0.05100000  0.06060000  0.78650000  1.0 0.1073780746
H  H22  1  0.06060000  0.05100000  0.71350000  1.0 0.1073780746
H  H23  1  0.90420000  0.05020000  0.78230000  1.0 0.2162508105
H  H24  1  0.05020000  0.90420000  0.71770000  1.0 0.2162508105
H  H25  1  0.49830000  0.57010000  0.24720000  1.0 0.1507406381
H  H26  1  0.57010000  0.49830000  0.25280000  1.0 0.1507406381
H  H27  1  0.58210000  0.54370000  0.19540000  1.0 0.2162508105
H  H28  1  0.54370000  0.58210000  0.30460000  1.0 0.2162508105
C  C1  1  0.26425000  0.68155000  0.64790000  1.0 0.5648014394
C  C2  1  0.68155000  0.26425000  0.85210000  1.0 0.5648014394
C  C3  1  0.22471000  0.81829000  0.59590000  1.0 -0.0062523457
C  C4  1  0.81829000  0.22471000  0.90410000  1.0 -0.0062523457
C  C5  1  0.27437000  0.90023000  0.66666667  1.0 -0.1598617363
C  C6  1  0.90023000  0.27437000  0.83333000  1.0 -0.1598617363
C  C7  1  0.24015000  0.02905000  0.61300000  1.0 -0.0254103916
C  C8  1  0.02905000  0.24015000  0.88700000  1.0 -0.0254103916
C  C9  1  0.29008000  0.12292000  0.68350000  1.0 0.5713412908
C  C10  1  0.12292000  0.29008000  0.81650000  1.0 0.5713412908
C  C11  1  0.15809000  0.07191000  0.48930000  1.0 -0.2802820805
C  C12  1  0.07191000  0.15809000  0.01070000  1.0 -0.2802820805
C  C13  1  0.10860000  0.99080000  0.42050000  1.0 0.1333944124
C  C14  1  0.99080000  0.10860000  0.07950000  1.0 0.1333944124
C  C15  1  0.14102000  0.86358000  0.47290000  1.0 -0.3081375214
C  C16  1  0.86358000  0.14102000  0.02710000  1.0 -0.3081375214
C  C17  1  0.02350000  0.99830000  0.20590000  1.0 0.0012371605
C  C18  1  0.99830000  0.02350000  0.29410000  1.0 0.0012371605
C  C19  1  0.73575000  0.31845000  0.35210000  1.0 0.5648014394
C  C20  1  0.31845000  0.73575000  0.14790000  1.0 0.5648014394
C  C21  1  0.77529000  0.18171000  0.40410000  1.0 -0.0062523457
C  C22  1  0.18171000  0.77529000  0.09590000  1.0 -0.0062523457
C  C23  1  0.72563000  0.09977000  0.33333333  1.0 -0.1598617363
C  C24  1  0.09977000  0.72563000  0.16667000  1.0 -0.1598617363
C  C25  1  0.75985000  0.97095000  0.38700000  1.0 -0.0254103916
C  C26  1  0.97095000  0.75985000  0.11300000  1.0 -0.0254103916
C  C27  1  0.70992000  0.87708000  0.31650000  1.0 0.5713412908
C  C28  1  0.87708000  0.70992000  0.18350000  1.0 0.5713412908
C  C29  1  0.84191000  0.92809000  0.51070000  1.0 -0.2802820805
C  C30  1  0.92809000  0.84191000  0.98930000  1.0 -0.2802820805
C  C31  1  0.89140000  0.00920000  0.57950000  1.0 0.1333944124
C  C32  1  0.00920000  0.89140000  0.92050000  1.0 0.1333944124
C  C33  1  0.85898000  0.13642000  0.52710000  1.0 -0.3081375214
C  C34  1  0.13642000  0.85898000  0.97290000  1.0 -0.3081375214
C  C35  1  0.97650000  0.00170000  0.79410000  1.0 0.0012371605
C  C36  1  0.00170000  0.97650000  0.70590000  1.0 0.0012371605
O  O1  1  0.19628000  0.60800000  0.59050000  1.0 -0.5906919393
O  O2  1  0.60800000  0.19628000  0.90950000  1.0 -0.5906919393
O  O3  1  0.36164000  0.64760000  0.74260000  1.0 -0.5519139844
O  O4  1  0.64760000  0.36164000  0.75740000  1.0 -0.5519139844
O  O5  1  0.35302000  0.08390000  0.79920000  1.0 -0.5519139844
O  O6  1  0.08390000  0.35302000  0.70080000  1.0 -0.5519139844
O  O7  1  0.26422000  0.23610000  0.62130000  1.0 -0.5906919393
O  O8  1  0.23610000  0.26422000  0.87870000  1.0 -0.5906919393
O  O9  1  0.05790000  0.06810000  0.29380000  1.0 -0.0028573182
O  O10  1  0.06810000  0.05790000  0.20620000  1.0 -0.0028573182
O  O11  1  0.41800000  0.41800000  0.75000000  1.0 -0.5136374387
O  O12  1  0.80372000  0.39200000  0.40950000  1.0 -0.5906919393
O  O13  1  0.39200000  0.80372000  0.09050000  1.0 -0.5906919393
O  O14  1  0.63836000  0.35240000  0.25740000  1.0 -0.5519139844
O  O15  1  0.35240000  0.63836000  0.24260000  1.0 -0.5519139844
O  O16  1  0.64698000  0.91610000  0.20080000  1.0 -0.5519139844
O  O17  1  0.91610000  0.64698000  0.29920000  1.0 -0.5519139844
O  O18  1  0.73578000  0.76390000  0.37870000  1.0 -0.5906919393
O  O19  1  0.76390000  0.73578000  0.12130000  1.0 -0.5906919393
O  O20  1  0.94210000  0.93190000  0.70620000  1.0 -0.0028573182
O  O21  1  0.93190000  0.94210000  0.79380000  1.0 -0.0028573182
O  O22  1  0.58200000  0.58200000  0.25000000  1.0 -0.5136374387
