# DDEC6 charges by PACMAN v1.1 (https://github.com/mtap-research/PACMAN-charge/)
data_BEZDUH_ASR_pacman
_symmetry_space_group_name_H-M   'P 1'
_cell_length_a   7.57390000
_cell_length_b   8.50280000
_cell_length_c   15.49450000
_cell_angle_alpha   99.56800000
_cell_angle_beta   103.00900000
_cell_angle_gamma   90.67100000
_symmetry_Int_Tables_number   1
_chemical_formula_structural   MnAg3H5C9N8
_chemical_formula_sum   'Mn2 Ag6 H10 C18 N16'
_cell_volume   957.44737874
_cell_formula_units_Z   2
loop_
 _symmetry_equiv_pos_site_id
 _symmetry_equiv_pos_as_xyz
  1  'x, y, z'
loop_
 _atom_site_type_symbol
 _atom_site_label
 _atom_site_symmetry_multiplicity
 _atom_site_fract_x
 _atom_site_fract_y
 _atom_site_fract_z
 _atom_site_occupancy
 _atom_site_charge
Mn  Mn1  1  0.00000000  0.00000000  0.00000000  1.0 0.8234294176
Mn  Mn2  1  0.50000000  0.00000000  0.50000000  1.0 0.8641849279
Ag  Ag1  1  0.34830000  0.51598000  0.21425000  1.0 0.1282535513
Ag  Ag2  1  0.65170000  0.48402000  0.78575000  1.0 0.1282535513
Ag  Ag3  1  0.56246000  0.63745000  0.09316000  1.0 0.1513121843
Ag  Ag4  1  0.43754000  0.36255000  0.90684000  1.0 0.1513121843
Ag  Ag5  1  0.07020000  0.35245000  0.28977000  1.0 0.2661450028
Ag  Ag6  1  0.92980000  0.64755000  0.71023000  1.0 0.2661450028
H  H1  1  0.31830000  0.93890000  0.89850000  1.0 0.1282535513
H  H2  1  0.68170000  0.06110000  0.10150000  1.0 0.1282535513
H  H3  1  0.94220000  0.13180000  0.67590000  1.0 0.1282535513
H  H4  1  0.05780000  0.86820000  0.32410000  1.0 0.1282535513
H  H5  1  0.85940000  0.12220000  0.80730000  1.0 0.1217399061
H  H6  1  0.14060000  0.87780000  0.19270000  1.0 0.1217399061
H  H7  1  0.48000000  0.93300000  0.71000000  1.0 0.2999839306
H  H8  1  0.52000000  0.06700000  0.29000000  1.0 0.2999839306
H  H9  1  0.52700000  0.90400000  0.80100000  1.0 0.2999839306
H  H10  1  0.47300000  0.09600000  0.19900000  1.0 0.2999839306
C  C1  1  0.23850000  0.97820000  0.85305000  1.0 -0.0778363973
C  C2  1  0.76150000  0.02180000  0.14695000  1.0 -0.0778363973
C  C3  1  0.28980000  0.98430000  0.77208000  1.0 0.3450657248
C  C4  1  0.71020000  0.01570000  0.22792000  1.0 0.3450657248
C  C5  1  0.02170000  0.09100000  0.72083000  1.0 0.0448400013
C  C6  1  0.97830000  0.90900000  0.27917000  1.0 0.0457792737
C  C7  1  0.97100000  0.08510000  0.79987000  1.0 -0.0227043994
C  C8  1  0.02900000  0.91490000  0.20013000  1.0 -0.0227043994
C  C9  1  0.34280000  0.76130000  0.04567000  1.0 -0.0079263807
C  C10  1  0.65720000  0.23870000  0.95433000  1.0 -0.0079263807
C  C11  1  0.76920000  0.52410000  0.16380000  1.0 0.0303129301
C  C12  1  0.23080000  0.47590000  0.83620000  1.0 0.0303129301
C  C13  1  0.41250000  0.70280000  0.32088000  1.0 -0.0024550198
C  C14  1  0.58750000  0.29720000  0.67912000  1.0 -0.0024550198
C  C15  1  0.25960000  0.31610000  0.11787000  1.0 -0.0079263807
C  C16  1  0.74040000  0.68390000  0.88213000  1.0 -0.0079263807
C  C17  1  0.25830000  0.23680000  0.37017000  1.0 -0.0227043994
C  C18  1  0.74170000  0.76320000  0.62983000  1.0 -0.0227043994
N  N1  1  0.19620000  0.20280000  0.07170000  1.0 -0.3396110465
N  N2  1  0.80380000  0.79720000  0.92830000  1.0 -0.3396110465
N  N3  1  0.22060000  0.83580000  0.02778000  1.0 -0.3317459703
N  N4  1  0.77940000  0.16420000  0.97222000  1.0 -0.3317459703
N  N5  1  0.08050000  0.02650000  0.86675000  1.0 -0.1603220656
N  N6  1  0.91950000  0.97350000  0.13325000  1.0 -0.1603220656
N  N7  1  0.17940000  0.04090000  0.70561000  1.0 -0.2963576794
N  N8  1  0.82060000  0.95910000  0.29439000  1.0 -0.2963576794
N  N9  1  0.45140000  0.93230000  0.75990000  1.0 -0.5607400417
N  N10  1  0.54860000  0.06770000  0.24010000  1.0 -0.5607400417
N  N11  1  0.44280000  0.80270000  0.38128000  1.0 -0.3396110465
N  N12  1  0.55720000  0.19730000  0.61872000  1.0 -0.3396110465
N  N13  1  0.35930000  0.16760000  0.41271000  1.0 -0.3396110465
N  N14  1  0.64070000  0.83240000  0.58729000  1.0 -0.3396110465
N  N15  1  0.87260000  0.46270000  0.20880000  1.0 -0.2788691997
N  N16  1  0.12740000  0.53730000  0.79120000  1.0 -0.2788691997
