# DDEC6 charges by PACMAN v1.1 (https://github.com/mtap-research/PACMAN-charge/)
data_BIBMEG_ASR_pacman
_symmetry_space_group_name_H-M   'P 1'
_cell_length_a   16.99400000
_cell_length_b   18.91400000
_cell_length_c   18.94800000
_cell_angle_alpha   108.31400000
_cell_angle_beta   106.71800000
_cell_angle_gamma   109.06600000
_symmetry_Int_Tables_number   1
_chemical_formula_structural   Zn3Mo8H30C70SN22O31
_chemical_formula_sum   'Zn6 Mo16 H60 C140 S2 N44 O62'
_cell_volume   4920.59649362
_cell_formula_units_Z   2
loop_
 _symmetry_equiv_pos_site_id
 _symmetry_equiv_pos_as_xyz
  1  'x, y, z'
loop_
 _atom_site_type_symbol
 _atom_site_label
 _atom_site_symmetry_multiplicity
 _atom_site_fract_x
 _atom_site_fract_y
 _atom_site_fract_z
 _atom_site_occupancy
 _atom_site_charge
Zn  Zn1  1  0.94087000  0.78929000  0.14184000  1.0 0.676162584
Zn  Zn2  1  0.05913000  0.21071000  0.85816000  1.0 0.676162584
Zn  Zn3  1  0.17716000  0.93525000  0.25885000  1.0 0.7711958422
Zn  Zn4  1  0.82284000  0.06475000  0.74115000  1.0 0.7711958422
Zn  Zn5  1  0.58440000  0.83720000  0.19279000  1.0 0.7158628239
Zn  Zn6  1  0.41560000  0.16280000  0.80721000  1.0 0.714919342
Mo  Mo1  1  0.41913000  0.46244000  0.03582000  1.0 1.7694857551
Mo  Mo2  1  0.58087000  0.53756000  0.96418000  1.0 1.7694857551
Mo  Mo3  1  0.46223000  0.63887000  0.00092000  1.0 1.7694857551
Mo  Mo4  1  0.53777000  0.36113000  0.99908000  1.0 1.7694857551
Mo  Mo5  1  0.28643000  0.29055000  0.85496000  1.0 2.0427940025
Mo  Mo6  1  0.71357000  0.70945000  0.14504000  1.0 2.0476036205
Mo  Mo7  1  0.69520000  0.53675000  0.15104000  1.0 1.2553901209
Mo  Mo8  1  0.30480000  0.46325000  0.84896000  1.0 1.2553901209
Mo  Mo9  1  0.54195000  0.08982000  0.59111000  1.0 1.8164836897
Mo  Mo10  1  0.45805000  0.91018000  0.40889000  1.0 1.813998176
Mo  Mo11  1  0.39674000  0.07041000  0.41989000  1.0 1.8164836897
Mo  Mo12  1  0.60326000  0.92959000  0.58011000  1.0 1.813998176
Mo  Mo13  1  0.42336000  0.91072000  0.61177000  1.0 1.1995715035
Mo  Mo14  1  0.57664000  0.08928000  0.38823000  1.0 1.1995715035
Mo  Mo15  1  0.32998000  0.03035000  0.58724000  1.0 1.8303538694
Mo  Mo16  1  0.67002000  0.96965000  0.41276000  1.0 1.8303538694
H  H1  1  0.40630000  0.30530000  0.17450000  1.0 0.1192990653
H  H2  1  0.59370000  0.69470000  0.82550000  1.0 0.1192990653
H  H3  1  0.62950000  0.34700000  0.24000000  1.0 0.0922581516
H  H4  1  0.37050000  0.65300000  0.76000000  1.0 0.0922581516
H  H5  1  0.73210000  0.39950000  0.25690000  1.0 0.0922581516
H  H6  1  0.26790000  0.60050000  0.74310000  1.0 0.0922581516
H  H7  1  0.70170000  0.15450000  0.23760000  1.0 0.1314409003
H  H8  1  0.29830000  0.84550000  0.76240000  1.0 0.1314409003
H  H9  1  0.09410000  0.56700000  0.48540000  1.0 0.1192990653
H  H10  1  0.90590000  0.43300000  0.51460000  1.0 0.1192990653
H  H11  1  0.23150000  0.67210000  0.50260000  1.0 0.0997252577
H  H12  1  0.76850000  0.32790000  0.49740000  1.0 0.0997252577
H  H13  1  0.22640000  0.74980000  0.43140000  1.0 0.1192990653
H  H14  1  0.77360000  0.25020000  0.56860000  1.0 0.1192990653
H  H15  1  0.95000000  0.63080000  0.32990000  1.0 0.1314409003
H  H16  1  0.05000000  0.36920000  0.67010000  1.0 0.1314409003
H  H17  1  0.21570000  0.83940000  0.38110000  1.0 0.1378218173
H  H18  1  0.78430000  0.16060000  0.61890000  1.0 0.1378218173
H  H19  1  0.09330000  0.73540000  0.57800000  1.0 0.1314409003
H  H20  1  0.90670000  0.26460000  0.42200000  1.0 0.1314409003
H  H21  1  0.20490000  0.87630000  0.63310000  1.0 0.1109719111
H  H22  1  0.79510000  0.12370000  0.36690000  1.0 0.1109719111
H  H23  1  0.15970000  0.98410000  0.67700000  1.0 0.1314409003
H  H24  1  0.84030000  0.01590000  0.32300000  1.0 0.1314409003
H  H25  1  0.91160000  0.81200000  0.62330000  1.0 0.1378218173
H  H26  1  0.08840000  0.18800000  0.37670000  1.0 0.1378218173
H  H27  1  0.85090000  0.60910000  0.64650000  1.0 0.0791870051
H  H28  1  0.14910000  0.39090000  0.35350000  1.0 0.0791870051
H  H29  1  0.74700000  0.57090000  0.63290000  1.0 0.0997252577
H  H30  1  0.25300000  0.42910000  0.36710000  1.0 0.0997252577
H  H31  1  0.79240000  0.62210000  0.76000000  1.0 0.1378218173
H  H32  1  0.20760000  0.37790000  0.24000000  1.0 0.1378218173
H  H33  1  0.76830000  0.63300000  0.87670000  1.0 0.1109719111
H  H34  1  0.23170000  0.36700000  0.12330000  1.0 0.1109719111
H  H35  1  0.74840000  0.50800000  0.90530000  1.0 0.1192990653
H  H36  1  0.25160000  0.49200000  0.09470000  1.0 0.1192990653
H  H37  1  0.77540000  0.39280000  0.70380000  1.0 0.1378218173
H  H38  1  0.22460000  0.60720000  0.29620000  1.0 0.1378218173
H  H39  1  0.65590000  0.36380000  0.87300000  1.0 0.1314409003
H  H40  1  0.34410000  0.63620000  0.12700000  1.0 0.1314409003
H  H41  1  0.82300000  0.32060000  0.77960000  1.0 0.1192990653
H  H42  1  0.17700000  0.67940000  0.22040000  1.0 0.1192990653
H  H43  1  0.53600000  0.33630000  0.58940000  1.0 0.1314409003
H  H44  1  0.46400000  0.66370000  0.41060000  1.0 0.1314409003
H  H45  1  0.53530000  0.55370000  0.61410000  1.0 0.1314409003
H  H46  1  0.46470000  0.44630000  0.38590000  1.0 0.1314409003
H  H47  1  0.57180000  0.34450000  0.48100000  1.0 0.0791870051
H  H48  1  0.42820000  0.65550000  0.51900000  1.0 0.0791870051
H  H49  1  0.65790000  0.39560000  0.56780000  1.0 0.0997252577
H  H50  1  0.34210000  0.60440000  0.43220000  1.0 0.0997252577
H  H51  1  0.45940000  0.54610000  0.69550000  1.0 0.0922581516
H  H52  1  0.54060000  0.45390000  0.30450000  1.0 0.0922581516
H  H53  1  0.41970000  0.43210000  0.72530000  1.0 0.1314409003
H  H54  1  0.58030000  0.56790000  0.27470000  1.0 0.1314409003
H  H55  1  0.39380000  0.20700000  0.55940000  1.0 0.1192990653
H  H56  1  0.60620000  0.79300000  0.44060000  1.0 0.1192990653
H  H57  1  0.48250000  0.34300000  0.79480000  1.0 0.1483275428
H  H58  1  0.51750000  0.65700000  0.20520000  1.0 0.1483275428
H  H59  1  0.86960000  0.91600000  0.62690000  1.0 0.1483275428
H  H60  1  0.13040000  0.08400000  0.37310000  1.0 0.1483275428
C  C1  1  0.66200000  0.38470000  0.39860000  1.0 -0.1296470852
C  C2  1  0.33800000  0.61530000  0.60140000  1.0 -0.1296470852
C  C3  1  0.71650000  0.41580000  0.36240000  1.0 -0.0605183553
C  C4  1  0.28350000  0.58420000  0.63760000  1.0 -0.0605183553
C  C5  1  0.78950000  0.49470000  0.40770000  1.0 -0.0276859465
C  C6  1  0.21050000  0.50530000  0.59230000  1.0 -0.0276859465
C  C7  1  0.83000000  0.53100000  0.49150000  1.0 -0.0019971242
C  C8  1  0.17000000  0.46900000  0.50850000  1.0 -0.0019971242
C  C9  1  0.76230000  0.50610000  0.52810000  1.0 0.0507888636
C  C10  1  0.23770000  0.49390000  0.47190000  1.0 0.0507888636
C  C11  1  0.68320000  0.43110000  0.48110000  1.0 -0.0097227016
C  C12  1  0.31680000  0.56890000  0.51890000  1.0 -0.0097227016
C  C13  1  0.57970000  0.29930000  0.34840000  1.0 0.0396080038
C  C14  1  0.42030000  0.70070000  0.65160000  1.0 0.0396080038
C  C15  1  0.43410000  0.24030000  0.23650000  1.0 0.2817620768
C  C16  1  0.56590000  0.75970000  0.76350000  1.0 0.2817620768
C  C17  1  0.40170000  0.16220000  0.23540000  1.0 -0.3909085111
C  C18  1  0.59830000  0.83780000  0.76460000  1.0 -0.3909085111
C  C19  1  0.30300000  0.10300000  0.18000000  1.0 0.0997252577
C  C20  1  0.69700000  0.89700000  0.82000000  1.0 0.0997252577
C  C21  1  0.25200000  0.11900000  0.11700000  1.0 0.0015294425
C  C22  1  0.74800000  0.88100000  0.88300000  1.0 0.0015294425
C  C23  1  0.30590000  0.18660000  0.10740000  1.0 0.1933905987
C  C24  1  0.69410000  0.81340000  0.89260000  1.0 0.1933905987
C  C25  1  0.38520000  0.25250000  0.17280000  1.0 -0.5397595035
C  C26  1  0.61480000  0.74750000  0.82720000  1.0 -0.5397595035
C  C27  1  0.17800000  0.16950000  0.98830000  1.0 0.2278792842
C  C28  1  0.82200000  0.83050000  0.01170000  1.0 0.2278792842
C  C29  1  0.31360000  0.24050000  0.00640000  1.0 0.0997252577
C  C30  1  0.68640000  0.75950000  0.99360000  1.0 0.0997252577
C  C31  1  0.69380000  0.36560000  0.27480000  1.0 -0.0881819368
C  C32  1  0.30620000  0.63440000  0.72520000  1.0 -0.0881819368
C  C33  1  0.68130000  0.23370000  0.19140000  1.0 0.2100668831
C  C34  1  0.31870000  0.76630000  0.80860000  1.0 0.2100668831
C  C35  1  0.65820000  0.24380000  0.12050000  1.0 -0.1296470852
C  C36  1  0.34180000  0.75620000  0.87950000  1.0 -0.1296470852
C  C37  1  0.60600000  0.09200000  0.03100000  1.0 -0.0605183553
C  C38  1  0.39400000  0.90800000  0.96900000  1.0 -0.0708481983
C  C39  1  0.65490000  0.09480000  0.11430000  1.0 0.1378218173
C  C40  1  0.34510000  0.90520000  0.88570000  1.0 0.1378218173
C  C41  1  0.68250000  0.15980000  0.18920000  1.0 -0.4262940453
C  C42  1  0.31750000  0.84020000  0.81080000  1.0 -0.4262940453
C  C43  1  0.61570000  0.97610000  0.15010000  1.0 -0.0276859465
C  C44  1  0.38430000  0.02390000  0.84990000  1.0 -0.0276859465
C  C45  1  0.72090000  0.98830000  0.10510000  1.0 0.0288503531
C  C46  1  0.27910000  0.01170000  0.89490000  1.0 0.0288503531
C  C47  1  0.85110000  0.53830000  0.37310000  1.0 -0.0818645411
C  C48  1  0.14890000  0.46170000  0.62690000  1.0 -0.0818645411
C  C49  1  0.00900000  0.58780000  0.40250000  1.0 0.2962232067
C  C50  1  0.99100000  0.41220000  0.59750000  1.0 0.2962232067
C  C51  1  0.09210000  0.59900000  0.45690000  1.0 -0.3672993647
C  C52  1  0.90790000  0.40100000  0.54310000  1.0 -0.3672993647
C  C53  1  0.17440000  0.66240000  0.46650000  1.0 -0.0708481983
C  C54  1  0.82560000  0.33760000  0.53350000  1.0 -0.0708481983
C  C55  1  0.17220000  0.70920000  0.42470000  1.0 -0.1810643689
C  C56  1  0.82780000  0.29080000  0.57530000  1.0 -0.1810643689
C  C57  1  0.08810000  0.69460000  0.37300000  1.0 0.2100668831
C  C58  1  0.91190000  0.30540000  0.62700000  1.0 0.2100668831
C  C59  1  0.00630000  0.63660000  0.36310000  1.0 -0.3469490872
C  C60  1  0.99370000  0.36340000  0.63690000  1.0 -0.3469490872
C  C61  1  0.01140000  0.72420000  0.26130000  1.0 -0.0423160211
C  C62  1  0.98860000  0.27580000  0.73870000  1.0 -0.0423160211
C  C63  1  0.15560000  0.81280000  0.33980000  1.0 0.0015294425
C  C64  1  0.84440000  0.18720000  0.66020000  1.0 0.0103551953
C  C65  1  0.99460000  0.76190000  0.59720000  1.0 0.2657090707
C  C66  1  0.00540000  0.23810000  0.40280000  1.0 0.2657090707
C  C67  1  0.07920000  0.77890000  0.59820000  1.0 -0.2779329286
C  C68  1  0.92080000  0.22110000  0.40180000  1.0 -0.2745363579
C  C69  1  0.14600000  0.86330000  0.63020000  1.0 -0.0423160211
C  C70  1  0.85400000  0.13670000  0.36980000  1.0 -0.0423160211
C  C71  1  0.11960000  0.92810000  0.65810000  1.0 -0.169493688
C  C72  1  0.88040000  0.07190000  0.34190000  1.0 -0.169493688
C  C73  1  0.03550000  0.90500000  0.65600000  1.0 0.1483275428
C  C74  1  0.96450000  0.09500000  0.34400000  1.0 0.1483275428
C  C75  1  0.97010000  0.82430000  0.62530000  1.0 -0.293479027
C  C76  1  0.02990000  0.17570000  0.37470000  1.0 -0.293479027
C  C77  1  0.79440000  0.55740000  0.62300000  1.0 -0.0881819368
C  C78  1  0.20560000  0.44260000  0.37700000  1.0 -0.0881819368
C  C79  1  0.79700000  0.51220000  0.72990000  1.0 0.2817620768
C  C80  1  0.20300000  0.48780000  0.27010000  1.0 0.2817620768
C  C81  1  0.78800000  0.57980000  0.77610000  1.0 -0.2463132234
C  C82  1  0.21200000  0.42020000  0.22390000  1.0 -0.2463132234
C  C83  1  0.77100000  0.58700000  0.84400000  1.0 -0.0605183553
C  C84  1  0.22900000  0.41300000  0.15600000  1.0 -0.0605183553
C  C85  1  0.75800000  0.50900000  0.86000000  1.0 -0.2624105008
C  C86  1  0.24200000  0.49100000  0.14000000  1.0 -0.2624105008
C  C87  1  0.76060000  0.43930000  0.80650000  1.0 0.1806090346
C  C88  1  0.23940000  0.56070000  0.19350000  1.0 0.1806090346
C  C89  1  0.77730000  0.43990000  0.74100000  1.0 -0.3117824809
C  C90  1  0.22270000  0.56010000  0.25900000  1.0 -0.3117824809
C  C91  1  0.69000000  0.33930000  0.85460000  1.0 0.0681987135
C  C92  1  0.31000000  0.66070000  0.14540000  1.0 0.0681987135
C  C93  1  0.78130000  0.31670000  0.80270000  1.0 0.0288503531
C  C94  1  0.21870000  0.68330000  0.19730000  1.0 0.0288503531
C  C95  1  0.47680000  0.37590000  0.66040000  1.0 0.1806090346
C  C96  1  0.52320000  0.62410000  0.33960000  1.0 0.1806090346
C  C97  1  0.52090000  0.37880000  0.61080000  1.0 -0.3117824809
C  C98  1  0.47910000  0.62120000  0.38920000  1.0 -0.3117824809
C  C99  1  0.54260000  0.44630000  0.59300000  1.0 0.2817620768
C  C100  1  0.45740000  0.55370000  0.40700000  1.0 0.2817620768
C  C101  1  0.51980000  0.50790000  0.62550000  1.0 -0.2274629813
C  C102  1  0.48020000  0.49210000  0.37450000  1.0 -0.2274629813
C  C103  1  0.62220000  0.39970000  0.52040000  1.0 -0.0818645411
C  C104  1  0.37780000  0.60030000  0.47960000  1.0 -0.0818645411
C  C105  1  0.47450000  0.50360000  0.67440000  1.0 -0.1164724452
C  C106  1  0.52550000  0.49640000  0.32560000  1.0 -0.1164724452
C  C107  1  0.45120000  0.43640000  0.69270000  1.0 -0.213657947
C  C108  1  0.54880000  0.56360000  0.30730000  1.0 -0.213657947
C  C109  1  0.40830000  0.22270000  0.61500000  1.0 0.0507888636
C  C110  1  0.59170000  0.77730000  0.38500000  1.0 0.0507888636
C  C111  1  0.45720000  0.29740000  0.74350000  1.0 0.0997252577
C  C112  1  0.54280000  0.70260000  0.25650000  1.0 0.0997252577
C  C113  1  0.07430000  0.05260000  0.75640000  1.0 0.0015294425
C  C114  1  0.92570000  0.94740000  0.24360000  1.0 0.0015294425
C  C115  1  0.92330000  0.96330000  0.66850000  1.0 -0.0276859465
C  C116  1  0.07670000  0.03670000  0.33150000  1.0 -0.0276859465
C  C117  1  0.60800000  0.16500000  0.03500000  1.0 0.0288503531
C  C118  1  0.39200000  0.83500000  0.96500000  1.0 0.0288503531
C  C119  1  0.92370000  0.60620000  0.54580000  1.0 0.0396080038
C  C120  1  0.07630000  0.39380000  0.45420000  1.0 0.0288503531
C  C121  1  0.79800000  0.55100000  0.49100000  1.0 0.0183845151
C  C122  1  0.20200000  0.44900000  0.50900000  1.0 0.0183845151
C  C123  1  0.85600000  0.65500000  0.53600000  1.0 0.0288503531
C  C124  1  0.14400000  0.34500000  0.46400000  1.0 0.0288503531
C  C125  1  0.32830000  0.09130000  0.16230000  1.0 0.0791870051
C  C126  1  0.67170000  0.90870000  0.83770000  1.0 0.0791870051
C  C127  1  0.27360000  0.10160000  0.09760000  1.0 -0.0019971242
C  C128  1  0.72640000  0.89840000  0.90240000  1.0 -0.0019971242
C  C129  1  0.64900000  0.10420000  0.04550000  1.0 -0.0097227016
C  C130  1  0.35100000  0.89580000  0.95450000  1.0 -0.0097227016
C  C131  1  0.65000000  0.18400000  0.05000000  1.0 0.0997252577
C  C132  1  0.35000000  0.81600000  0.95000000  1.0 0.0922581516
C  C133  1  0.09500000  0.06800000  0.73100000  1.0 0.0791870051
C  C134  1  0.90500000  0.93200000  0.26900000  1.0 0.0791870051
C  C135  1  0.64700000  0.95200000  0.05100000  1.0 -0.0276859465
C  C136  1  0.35300000  0.04800000  0.94900000  1.0 -0.0276859465
C  C137  1  0.17100000  0.19000000  0.00400000  1.0 0.2221775784
C  C138  1  0.82900000  0.81000000  0.99600000  1.0 0.2221775784
C  C139  1  0.06200000  0.04810000  0.75100000  1.0 0.0609667993
C  C140  1  0.93800000  0.95190000  0.24900000  1.0 0.0507888636
S  S1  1  0.07890000  0.89240000  0.07910000  1.0 1.3741593494
S  S2  1  0.92110000  0.10760000  0.92090000  1.0 1.3752865924
N  N1  1  0.25900000  0.19600000  0.03400000  1.0 -0.1129262314
N  N2  1  0.74100000  0.80400000  0.96600000  1.0 -0.1129262314
N  N3  1  0.17040000  0.20420000  0.93810000  1.0 -0.169493688
N  N4  1  0.82960000  0.79580000  0.06190000  1.0 -0.169493688
N  N5  1  0.25640000  0.24320000  0.94520000  1.0 -0.3117824809
N  N6  1  0.74360000  0.75680000  0.05480000  1.0 -0.3117824809
N  N7  1  0.67600000  0.02760000  0.12770000  1.0 0.1192990653
N  N8  1  0.32400000  0.97240000  0.87230000  1.0 0.1192990653
N  N9  1  0.62980000  0.91160000  0.14160000  1.0 -0.1591330112
N  N10  1  0.37020000  0.08840000  0.85840000  1.0 -0.1591330112
N  N11  1  0.71080000  0.92400000  0.12260000  1.0 -0.0881819368
N  N12  1  0.28920000  0.07600000  0.87740000  1.0 -0.0881819368
N  N13  1  0.08460000  0.74240000  0.32760000  1.0 -0.0423160211
N  N14  1  0.91540000  0.25760000  0.67240000  1.0 -0.0423160211
N  N15  1  0.12530000  0.83690000  0.28390000  1.0 -0.0818645411
N  N16  1  0.87470000  0.16310000  0.71610000  1.0 -0.0818645411
N  N17  1  0.02900000  0.79100000  0.25500000  1.0 -0.0097227016
N  N18  1  0.97100000  0.20900000  0.74500000  1.0 -0.0097227016
N  N19  1  0.74530000  0.37240000  0.82260000  1.0 -0.0276859465
N  N20  1  0.25470000  0.62760000  0.17740000  1.0 -0.0276859465
N  N21  1  0.68740000  0.27030000  0.85810000  1.0 -0.1810643689
N  N22  1  0.31260000  0.72970000  0.14190000  1.0 -0.1810643689
N  N23  1  0.74450000  0.25610000  0.82310000  1.0 -0.1591330112
N  N24  1  0.25550000  0.74390000  0.17690000  1.0 -0.1591330112
N  N25  1  0.44770000  0.30190000  0.67320000  1.0 -0.0097227016
N  N26  1  0.55230000  0.69810000  0.32680000  1.0 -0.0097227016
N  N27  1  0.42530000  0.21860000  0.72940000  1.0 -0.1412475572
N  N28  1  0.57470000  0.78140000  0.27060000  1.0 -0.1412475572
N  N29  1  0.39300000  0.17060000  0.64680000  1.0 -0.2624105008
N  N30  1  0.60700000  0.82940000  0.35320000  1.0 -0.2624105008
N  N31  1  0.01340000  0.97200000  0.69140000  1.0 0.0681987135
N  N32  1  0.98660000  0.02800000  0.30860000  1.0 0.0681987135
N  N33  1  0.02190000  0.09370000  0.77370000  1.0 -0.0097227016
N  N34  1  0.97810000  0.90630000  0.22630000  1.0 -0.0097227016
N  N35  1  0.92850000  0.03850000  0.71940000  1.0 -0.2779329286
N  N36  1  0.07150000  0.96150000  0.28060000  1.0 -0.2779329286
N  N37  1  0.64000000  0.89230000  0.07050000  1.0 -0.0605183553
N  N38  1  0.36000000  0.10770000  0.92950000  1.0 -0.0605183553
N  N39  1  0.63340000  0.00890000  0.10320000  1.0 0.0997252577
N  N40  1  0.36660000  0.99110000  0.89680000  1.0 0.0997252577
N  N41  1  0.03510000  0.77500000  0.23010000  1.0 -0.0474927367
N  N42  1  0.96490000  0.22500000  0.76990000  1.0 -0.0474927367
N  N43  1  0.26700000  0.20100000  0.04100000  1.0 -0.1164724452
N  N44  1  0.73300000  0.79900000  0.95900000  1.0 -0.1164724452
O  O1  1  0.50610000  0.31060000  0.30050000  1.0 0.1109719111
O  O2  1  0.49390000  0.68940000  0.69950000  1.0 0.1109719111
O  O3  1  0.71010000  0.29570000  0.26860000  1.0 -0.2274629813
O  O4  1  0.28990000  0.70430000  0.73140000  1.0 -0.2274629813
O  O5  1  0.93600000  0.51700000  0.38800000  1.0 0.0681987135
O  O6  1  0.06400000  0.48300000  0.61200000  1.0 0.0609667993
O  O7  1  0.80970000  0.50330000  0.65750000  1.0 -0.2274629813
O  O8  1  0.19030000  0.49670000  0.34250000  1.0 -0.2274629813
O  O9  1  0.58710000  0.45510000  0.54510000  1.0 -0.2211961315
O  O10  1  0.41290000  0.54490000  0.45490000  1.0 -0.2211961315
O  O11  1  0.91200000  0.68190000  0.57280000  1.0 0.0103551953
O  O12  1  0.08800000  0.31810000  0.42720000  1.0 0.0103551953
O  O13  1  0.30290000  0.41000000  0.94250000  1.0 -0.9518313275
O  O14  1  0.69710000  0.59000000  0.05750000  1.0 -0.9518313275
O  O15  1  0.43650000  0.56620000  0.07830000  1.0 -0.7468606101
O  O16  1  0.56350000  0.43380000  0.92170000  1.0 -0.7468606101
O  O17  1  0.54710000  0.48440000  0.06150000  1.0 -1.0819570885
O  O18  1  0.45290000  0.51560000  0.93850000  1.0 -1.0819570885
O  O19  1  0.41420000  0.35230000  0.95290000  1.0 -0.9884316788
O  O20  1  0.58580000  0.64770000  0.04710000  1.0 -0.9884316788
O  O21  1  0.16770000  0.25070000  0.81420000  1.0 -0.6982107427
O  O22  1  0.83230000  0.74930000  0.18580000  1.0 -0.6982107427
O  O23  1  0.30880000  0.20950000  0.81090000  1.0 -0.6683864014
O  O24  1  0.69120000  0.79050000  0.18910000  1.0 -0.6683864014
O  O25  1  0.33410000  0.56690000  0.93920000  1.0 -0.8068467842
O  O26  1  0.66590000  0.43310000  0.06080000  1.0 -0.8068467842
O  O27  1  0.48070000  0.72320000  0.08550000  1.0 -0.6805834935
O  O28  1  0.51930000  0.27680000  0.91450000  1.0 -0.6805834935
O  O29  1  0.31870000  0.35900000  0.80600000  1.0 -0.7909547256
O  O30  1  0.68130000  0.64100000  0.19400000  1.0 -0.7909547256
O  O31  1  0.32740000  0.05060000  0.68270000  1.0 -0.6982107427
O  O32  1  0.67260000  0.94940000  0.31730000  1.0 -0.6982107427
O  O33  1  0.31690000  0.92250000  0.54900000  1.0 -0.76138808
O  O34  1  0.68310000  0.07750000  0.45100000  1.0 -0.76138808
O  O35  1  0.47680000  0.05120000  0.64780000  1.0 -0.9249652491
O  O36  1  0.52320000  0.94880000  0.35220000  1.0 -0.9249652491
O  O37  1  0.63840000  0.07370000  0.62470000  1.0 -0.689703034
O  O38  1  0.36160000  0.92630000  0.37530000  1.0 -0.689703034
O  O39  1  0.52320000  0.06380000  0.47790000  1.0 -1.0566855834
O  O40  1  0.47680000  0.93620000  0.52210000  1.0 -1.0566855834
O  O41  1  0.39920000  0.06180000  0.52080000  1.0 -1.0566855834
O  O42  1  0.60080000  0.93820000  0.47920000  1.0 -1.0566855834
O  O43  1  0.44490000  0.05690000  0.34070000  1.0 -0.7909547256
O  O44  1  0.55510000  0.94310000  0.65930000  1.0 -0.7909547256
O  O45  1  0.27970000  0.03040000  0.35860000  1.0 -0.6982107427
O  O46  1  0.72030000  0.96960000  0.64140000  1.0 -0.6982107427
O  O47  1  0.13680000  0.96400000  0.16620000  1.0 -0.6464060412
O  O48  1  0.86320000  0.03600000  0.83380000  1.0 -0.6464060412
O  O49  1  0.02700000  0.81840000  0.08990000  1.0 -0.7240581379
O  O50  1  0.97300000  0.18160000  0.91010000  1.0 -0.7240581379
O  O51  1  0.14040000  0.87410000  0.04520000  1.0 -0.660573201
O  O52  1  0.85960000  0.12590000  0.95480000  1.0 -0.660573201
O  O53  1  0.02700000  0.92600000  0.03660000  1.0 -0.6683864014
O  O54  1  0.97300000  0.07400000  0.96340000  1.0 -0.6683864014
O  O55  1  0.52700000  0.30740000  0.28580000  1.0 0.1314409003
O  O56  1  0.47300000  0.69260000  0.71420000  1.0 0.1314409003
O  O57  1  0.49600000  0.31600000  0.31700000  1.0 0.1561764016
O  O58  1  0.50400000  0.68400000  0.68300000  1.0 0.1561764016
O  O59  1  0.93100000  0.54100000  0.40700000  1.0 0.0183845151
O  O60  1  0.06900000  0.45900000  0.59300000  1.0 0.0183845151
O  O61  1  0.94800000  0.67300000  0.55810000  1.0 -0.0097227016
O  O62  1  0.05200000  0.32700000  0.44190000  1.0 -0.0097227016
