# DDEC6 charges by PACMAN v1.1 (https://github.com/mtap-research/PACMAN-charge/)
data_BIBMAC_ASR_pacman
_symmetry_space_group_name_H-M   'P 1'
_cell_length_a   16.47250000
_cell_length_b   18.97130000
_cell_length_c   19.23200000
_cell_angle_alpha   108.40900000
_cell_angle_beta   108.93500000
_cell_angle_gamma   106.42400000
_symmetry_Int_Tables_number   1
_chemical_formula_structural   Cd2Mo8H40C60(N6O11)3
_chemical_formula_sum   'Cd4 Mo16 H80 C120 N36 O66'
_cell_volume   4871.81708799
_cell_formula_units_Z   2
loop_
 _symmetry_equiv_pos_site_id
 _symmetry_equiv_pos_as_xyz
  1  'x, y, z'
loop_
 _atom_site_type_symbol
 _atom_site_label
 _atom_site_symmetry_multiplicity
 _atom_site_fract_x
 _atom_site_fract_y
 _atom_site_fract_z
 _atom_site_occupancy
 _atom_site_charge
Cd  Cd1  1  0.92355000  0.31037000  0.66437000  1.0 0.981797294
Cd  Cd2  1  0.07645000  0.68963000  0.33563000  1.0 0.981797294
Cd  Cd3  1  0.53670000  0.29739000  0.63046000  1.0 0.84075679
Cd  Cd4  1  0.46330000  0.70261000  0.36954000  1.0 0.84075679
Mo  Mo1  1  0.81973000  0.08514000  0.53511000  1.0 2.0530521434
Mo  Mo2  1  0.18027000  0.91486000  0.46489000  1.0 2.0530521434
Mo  Mo3  1  0.05033000  0.08973000  0.59641000  1.0 2.1220624012
Mo  Mo4  1  0.94967000  0.91027000  0.40359000  1.0 2.1220624012
Mo  Mo5  1  0.89278000  0.91832000  0.56875000  1.0 2.1378510755
Mo  Mo6  1  0.10722000  0.08168000  0.43125000  1.0 2.1378510755
Mo  Mo7  1  0.92530000  0.11901000  0.41709000  1.0 2.10886033
Mo  Mo8  1  0.07470000  0.88099000  0.58291000  1.0 2.10886033
Mo  Mo9  1  0.77153000  0.35580000  0.79292000  1.0 2.1378510755
Mo  Mo10  1  0.22847000  0.64420000  0.20708000  1.0 2.1378510755
Mo  Mo11  1  0.03465000  0.50437000  0.86246000  1.0 2.1819138489
Mo  Mo12  1  0.96535000  0.49563000  0.13754000  1.0 2.1819138489
Mo  Mo13  1  0.08625000  0.46352000  0.03477000  1.0 2.1856187147
Mo  Mo14  1  0.91375000  0.53648000  0.96523000  1.0 2.1819138489
Mo  Mo15  1  0.79327000  0.34380000  0.96098000  1.0 2.1220624012
Mo  Mo16  1  0.20673000  0.65620000  0.03902000  1.0 2.1220624012
H  H1  1  0.90228000  0.27428000  0.16706000  1.0 0.0891610202
H  H2  1  0.09772000  0.72572000  0.83294000  1.0 0.0891610202
H  H3  1  0.78875000  0.27161000  0.11846000  1.0 0.0704136607
H  H4  1  0.21125000  0.72839000  0.88154000  1.0 0.0704136607
H  H5  1  0.85115000  0.40163000  0.20650000  1.0 0.1222560279
H  H6  1  0.14885000  0.59837000  0.79350000  1.0 0.1222560279
H  H7  1  0.88065000  0.53296000  0.31335000  1.0 0.1095789855
H  H8  1  0.11935000  0.46704000  0.68665000  1.0 0.1095789855
H  H9  1  0.89112000  0.54695000  0.45042000  1.0 0.1095789855
H  H10  1  0.10888000  0.45305000  0.54958000  1.0 0.1095789855
H  H11  1  0.83452000  0.28847000  0.36763000  1.0 0.1329632016
H  H12  1  0.16548000  0.71153000  0.63237000  1.0 0.1329632016
H  H13  1  0.83034000  0.51385000  0.54907000  1.0 0.1095789855
H  H14  1  0.16966000  0.48615000  0.45093000  1.0 0.1095789855
H  H15  1  0.91958000  0.32156000  0.49241000  1.0 0.1384346825
H  H16  1  0.08042000  0.67844000  0.50759000  1.0 0.1384346825
H  H17  1  0.68474000  0.21437000  0.01019000  1.0 0.0813763196
H  H18  1  0.31526000  0.78563000  0.98981000  1.0 0.0813763196
H  H19  1  0.58714000  0.11830000  0.93717000  1.0 0.0891610202
H  H20  1  0.41286000  0.88170000  0.06283000  1.0 0.0891610202
H  H21  1  0.62373000  0.47092000  0.21840000  1.0 0.1329632016
H  H22  1  0.37627000  0.52908000  0.78160000  1.0 0.1329632016
H  H23  1  0.58394000  0.22220000  0.19033000  1.0 0.1329632016
H  H24  1  0.41606000  0.77780000  0.80967000  1.0 0.1329632016
H  H25  1  0.60008000  0.48636000  0.32972000  1.0 0.1001792711
H  H26  1  0.39992000  0.51364000  0.67028000  1.0 0.1001792711
H  H27  1  0.62400000  0.26536000  0.31539000  1.0 0.1001792711
H  H28  1  0.37600000  0.73464000  0.68461000  1.0 0.1001792711
H  H29  1  0.91947000  0.19913000  0.25195000  1.0 0.0813763196
H  H30  1  0.08053000  0.80087000  0.74805000  1.0 0.0813763196
H  H31  1  0.94365000  0.11065000  0.22916000  1.0 0.0813763196
H  H32  1  0.05635000  0.88935000  0.77084000  1.0 0.0813763196
H  H33  1  0.94824000  0.89281000  0.93764000  1.0 0.1222560279
H  H34  1  0.05176000  0.10719000  0.06236000  1.0 0.1222560279
H  H35  1  0.04406000  0.81184000  0.94854000  1.0 0.1001792711
H  H36  1  0.95594000  0.18816000  0.05146000  1.0 0.1001792711
H  H37  1  0.94463000  0.90813000  0.16727000  1.0 0.1384346825
H  H38  1  0.05537000  0.09187000  0.83273000  1.0 0.1384346825
H  H39  1  0.10278000  0.32031000  0.18421000  1.0 0.1561547679
H  H40  1  0.89722000  0.67969000  0.81579000  1.0 0.1561547679
H  H41  1  0.09325000  0.78112000  0.06872000  1.0 0.1329632016
H  H42  1  0.90675000  0.21888000  0.93128000  1.0 0.1329632016
H  H43  1  0.22710000  0.32562000  0.46106000  1.0 0.1095789855
H  H44  1  0.77290000  0.67438000  0.53894000  1.0 0.1095789855
H  H45  1  0.31425000  0.44392000  0.44283000  1.0 0.1095789855
H  H46  1  0.68575000  0.55608000  0.55717000  1.0 0.1095789855
H  H47  1  0.07724000  0.20863000  0.34570000  1.0 0.1329632016
H  H48  1  0.92276000  0.79137000  0.65430000  1.0 0.1329632016
H  H49  1  0.00443000  0.69874000  0.14766000  1.0 0.1384346825
H  H50  1  0.99557000  0.30126000  0.85234000  1.0 0.1384346825
H  H51  1  0.11978000  0.95857000  0.29105000  1.0 0.1222560279
H  H52  1  0.88022000  0.04143000  0.70895000  1.0 0.1222560279
H  H53  1  0.37693000  0.91961000  0.83291000  1.0 0.1222560279
H  H54  1  0.62307000  0.08039000  0.16709000  1.0 0.1222560279
H  H55  1  0.54957000  0.93533000  0.70379000  1.0 0.1487070185
H  H56  1  0.45043000  0.06467000  0.29621000  1.0 0.1487070185
H  H57  1  0.23202000  0.84612000  0.70014000  1.0 0.1001792711
H  H58  1  0.76798000  0.15388000  0.29986000  1.0 0.1001792711
H  H59  1  0.24254000  0.81355000  0.56631000  1.0 0.1222560279
H  H60  1  0.75746000  0.18645000  0.43369000  1.0 0.1222560279
H  H61  1  0.43081000  0.96569000  0.54006000  1.0 0.1329632016
H  H62  1  0.56919000  0.03431000  0.45994000  1.0 0.1329632016
H  H63  1  0.40360000  0.73080000  0.52780000  1.0 0.1095789855
H  H64  1  0.59640000  0.26920000  0.47220000  1.0 0.1095789855
H  H65  1  0.12612000  0.45620000  0.21630000  1.0 0.1222560279
H  H66  1  0.87388000  0.54380000  0.78370000  1.0 0.1222560279
H  H67  1  0.40752000  0.51280000  0.38337000  1.0 0.1222560279
H  H68  1  0.59248000  0.48720000  0.61663000  1.0 0.1222560279
H  H69  1  0.80241000  0.91659000  0.09707000  1.0 0.0704136607
H  H70  1  0.19759000  0.08341000  0.90293000  1.0 0.0704136607
H  H71  1  0.91071000  0.00850000  0.16294000  1.0 0.0891610202
H  H72  1  0.08929000  0.99150000  0.83706000  1.0 0.0891610202
H  H73  1  0.61637000  0.85422000  0.95925000  1.0 0.0891610202
H  H74  1  0.38363000  0.14578000  0.04075000  1.0 0.0891610202
H  H75  1  0.73035000  0.86714000  0.96358000  1.0 0.0813763196
H  H76  1  0.26965000  0.13286000  0.03642000  1.0 0.0813763196
H  H77  1  0.52795000  0.91073000  0.90519000  1.0 0.0704136607
H  H78  1  0.47205000  0.08927000  0.09481000  1.0 0.0704136607
H  H79  1  0.51406000  0.00479000  0.93926000  1.0 0.0704136607
H  H80  1  0.48594000  0.99521000  0.06074000  1.0 0.0704136607
C  C1  1  0.65859000  0.02321000  0.98515000  1.0 0.0020441047
C  C2  1  0.34141000  0.97679000  0.01485000  1.0 0.0020441047
C  C3  1  0.78513000  0.15160000  0.10086000  1.0 0.0129471915
C  C4  1  0.21487000  0.84840000  0.89914000  1.0 0.0129471915
C  C5  1  0.69600000  0.10953000  0.03058000  1.0 0.0020441047
C  C6  1  0.30400000  0.89047000  0.96942000  1.0 0.0020441047
C  C7  1  0.82650000  0.24361000  0.15138000  1.0 -0.0102566744
C  C8  1  0.17350000  0.75639000  0.84862000  1.0 -0.0102566744
C  C9  1  0.84026000  0.33633000  0.28096000  1.0 0.280410358
C  C10  1  0.15974000  0.66367000  0.71904000  1.0 0.280410358
C  C11  1  0.85357000  0.40504000  0.26500000  1.0 -0.2101148305
C  C12  1  0.14643000  0.59496000  0.73500000  1.0 -0.2101148305
C  C13  1  0.87050000  0.47950000  0.32625000  1.0 -0.0307360745
C  C14  1  0.12950000  0.52050000  0.67375000  1.0 -0.0307360745
C  C15  1  0.87651000  0.48778000  0.40324000  1.0 -0.2101148305
C  C16  1  0.12349000  0.51222000  0.59676000  1.0 -0.2101148305
C  C17  1  0.86540000  0.41845000  0.41782000  1.0 0.1904302053
C  C18  1  0.13460000  0.58155000  0.58218000  1.0 0.1904302053
C  C19  1  0.84626000  0.34325000  0.35730000  1.0 -0.297569676
C  C20  1  0.15374000  0.65675000  0.64270000  1.0 -0.297569676
C  C21  1  0.85351000  0.46621000  0.55327000  1.0 0.0813763196
C  C22  1  0.14649000  0.53379000  0.44673000  1.0 0.0813763196
C  C23  1  0.89775000  0.36693000  0.52263000  1.0 0.0813763196
C  C24  1  0.10225000  0.63307000  0.47737000  1.0 0.0813763196
C  C25  1  0.63916000  0.15443000  0.00289000  1.0 -0.0102566744
C  C26  1  0.36084000  0.84557000  0.99711000  1.0 -0.0102566744
C  C27  1  0.59652000  0.24497000  0.09065000  1.0 0.280410358
C  C28  1  0.40348000  0.75503000  0.90935000  1.0 0.280410358
C  C29  1  0.60820000  0.30698000  0.06539000  1.0 -0.1282744545
C  C30  1  0.39180000  0.69302000  0.93461000  1.0 -0.1282744545
C  C31  1  0.61420000  0.37525000  0.10956000  1.0 0.0632444427
C  C32  1  0.38580000  0.62475000  0.89044000  1.0 0.0632444427
C  C33  1  0.61269000  0.40804000  0.18346000  1.0 -0.230770624
C  C34  1  0.38731000  0.59196000  0.81654000  1.0 -0.230770624
C  C35  1  0.60082000  0.34648000  0.21181000  1.0 0.1997957949
C  C36  1  0.39918000  0.65352000  0.78819000  1.0 0.1997957949
C  C37  1  0.59157000  0.26754000  0.16622000  1.0 -0.2914987567
C  C38  1  0.40843000  0.73246000  0.83378000  1.0 -0.2914987567
C  C39  1  0.60930000  0.43792000  0.34586000  1.0 0.0813763196
C  C40  1  0.39070000  0.56208000  0.65414000  1.0 0.0813763196
C  C41  1  0.62095000  0.32456000  0.33871000  1.0 0.0891610202
C  C42  1  0.37905000  0.67544000  0.66129000  1.0 0.0891610202
C  C43  1  0.83488000  0.10678000  0.12516000  1.0 0.0129471915
C  C44  1  0.16512000  0.89322000  0.87484000  1.0 0.0129471915
C  C45  1  0.79970000  0.02161000  0.07593000  1.0 0.0020441047
C  C46  1  0.20030000  0.97839000  0.92407000  1.0 0.0020441047
C  C47  1  0.71259000  0.97992000  0.00295000  1.0 -0.0024565834
C  C48  1  0.28741000  0.02008000  0.99705000  1.0 0.0020441047
C  C49  1  0.85183000  0.97271000  0.09980000  1.0 -0.0024565834
C  C50  1  0.14817000  0.02729000  0.90020000  1.0 -0.0102566744
C  C51  1  0.92572000  0.15233000  0.20475000  1.0 -0.0204716446
C  C52  1  0.07428000  0.84767000  0.79525000  1.0 -0.0204716446
C  C53  1  0.93848000  0.90365000  0.05015000  1.0 0.280410358
C  C54  1  0.06152000  0.09635000  0.94985000  1.0 0.280410358
C  C55  1  0.08254000  0.25667000  0.25724000  1.0 0.280410358
C  C56  1  0.91746000  0.74333000  0.74276000  1.0 0.280410358
C  C57  1  0.96664000  0.87628000  0.98865000  1.0 -0.1805014499
C  C58  1  0.03336000  0.12372000  0.01135000  1.0 -0.1805014499
C  C59  1  0.02096000  0.83195000  0.99564000  1.0 -0.0204716446
C  C60  1  0.97904000  0.16805000  0.00436000  1.0 -0.0204716446
C  C61  1  0.96418000  0.88682000  0.11774000  1.0 -0.2914987567
C  C62  1  0.03582000  0.11318000  0.88226000  1.0 -0.2914987567
C  C63  1  0.21325000  0.38769000  0.31202000  1.0 0.1904302053
C  C64  1  0.78675000  0.61231000  0.68798000  1.0 0.1904302053
C  C65  1  0.13140000  0.32156000  0.24489000  1.0 -0.2584841985
C  C66  1  0.86860000  0.67844000  0.75511000  1.0 -0.2584841985
C  C67  1  0.04921000  0.81479000  0.06295000  1.0 -0.1805014499
C  C68  1  0.95079000  0.18521000  0.93705000  1.0 -0.1805014499
C  C69  1  0.20054000  0.32448000  0.40030000  1.0 -0.0403907138
C  C70  1  0.79946000  0.67552000  0.59970000  1.0 -0.0403907138
C  C71  1  0.25082000  0.39063000  0.39022000  1.0 -0.2101148305
C  C72  1  0.74918000  0.60937000  0.60978000  1.0 -0.2101148305
C  C73  1  0.11620000  0.25822000  0.33516000  1.0 -0.2224661622
C  C74  1  0.88380000  0.74178000  0.66484000  1.0 -0.2224661622
C  C75  1  0.02049000  0.84374000  0.12251000  1.0 0.1904302053
C  C76  1  0.97951000  0.15626000  0.87749000  1.0 0.1904302053
C  C77  1  0.04232000  0.76031000  0.20038000  1.0 0.1384346825
C  C78  1  0.95768000  0.23969000  0.79962000  1.0 0.1384346825
C  C79  1  0.10121000  0.89360000  0.27482000  1.0 0.1384346825
C  C80  1  0.89879000  0.10640000  0.72518000  1.0 0.1384346825
C  C81  1  0.55788000  0.97671000  0.91925000  1.0 -0.0204716446
C  C82  1  0.44212000  0.02329000  0.08075000  1.0 -0.0204716446
C  C83  1  0.39632000  0.87308000  0.62873000  1.0 0.1840014321
C  C84  1  0.60368000  0.12692000  0.37127000  1.0 0.1840014321
C  C85  1  0.38344000  0.90807000  0.77579000  1.0 -0.230770624
C  C86  1  0.61656000  0.09193000  0.22421000  1.0 -0.230770624
C  C87  1  0.47233000  0.93583000  0.77616000  1.0 0.2745178503
C  C88  1  0.52767000  0.06417000  0.22384000  1.0 0.2745178503
C  C89  1  0.47967000  0.91726000  0.70260000  1.0 -0.2797698963
C  C90  1  0.52033000  0.08274000  0.29740000  1.0 -0.2797698963
C  C91  1  0.30132000  0.86496000  0.70014000  1.0 -0.0307360745
C  C92  1  0.69868000  0.13504000  0.29986000  1.0 -0.0307360745
C  C93  1  0.30631000  0.84680000  0.62572000  1.0 -0.2004043436
C  C94  1  0.69369000  0.15320000  0.37428000  1.0 -0.2004043436
C  C95  1  0.43004000  0.90467000  0.51970000  1.0 0.1095789855
C  C96  1  0.56996000  0.09533000  0.48030000  1.0 0.1095789855
C  C97  1  0.41372000  0.78313000  0.51286000  1.0 0.1001792711
C  C98  1  0.58628000  0.21687000  0.48714000  1.0 0.1001792711
C  C99  1  0.20385000  0.48465000  0.25085000  1.0 0.1487070185
C  C100  1  0.79615000  0.51535000  0.74915000  1.0 0.1487070185
C  C101  1  0.34796000  0.51364000  0.33733000  1.0 0.1095789855
C  C102  1  0.65204000  0.48636000  0.66267000  1.0 0.1095789855
C  C103  1  0.67433000  0.88830000  0.94885000  1.0 -0.0204716446
C  C104  1  0.32567000  0.11170000  0.05115000  1.0 -0.0204716446
C  C105  1  0.57702000  0.71561000  0.56260000  1.0 0.0704136607
C  C106  1  0.42298000  0.28439000  0.43740000  1.0 0.0704136607
C  C107  1  0.68160000  0.86891000  0.81841000  1.0 0.2577662629
C  C108  1  0.31840000  0.13109000  0.18159000  1.0 0.2577662629
C  C109  1  0.77300000  0.92219000  0.84193000  1.0 -0.0601673934
C  C110  1  0.22700000  0.07781000  0.15807000  1.0 -0.0601673934
C  C111  1  0.84959000  0.95389000  0.82967000  1.0 -0.0701628017
C  C112  1  0.15041000  0.04611000  0.17033000  1.0 -0.0701628017
C  C113  1  0.78683000  0.89613000  0.75161000  1.0 -0.0601673934
C  C114  1  0.21317000  0.10387000  0.24839000  1.0 -0.0601673934
C  C115  1  0.70115000  0.83346000  0.69080000  1.0 0.1997957949
C  C116  1  0.29885000  0.16654000  0.30920000  1.0 0.1997957949
C  C117  1  0.64939000  0.82385000  0.73447000  1.0 -0.2797698963
C  C118  1  0.35061000  0.17615000  0.26553000  1.0 -0.2797698963
C  C119  1  0.69251000  0.80036000  0.54542000  1.0 0.5411183995
C  C120  1  0.30749000  0.19964000  0.45458000  1.0 0.5411183995
N  N1  1  0.87406000  0.42030000  0.49510000  1.0 -0.0204716446
N  N2  1  0.12594000  0.57970000  0.50490000  1.0 -0.0204716446
N  N3  1  0.86318000  0.44300000  0.61287000  1.0 -0.2004043436
N  N4  1  0.13682000  0.55700000  0.38713000  1.0 -0.2004043436
N  N5  1  0.89108000  0.37921000  0.59205000  1.0 -0.2101148305
N  N6  1  0.10892000  0.62079000  0.40795000  1.0 -0.2101148305
N  N7  1  0.60612000  0.36700000  0.29230000  1.0 -0.0204716446
N  N8  1  0.39388000  0.63300000  0.70770000  1.0 -0.0204716446
N  N9  1  0.62440000  0.43883000  0.41827000  1.0 -0.246368109
N  N10  1  0.37560000  0.56117000  0.58173000  1.0 -0.246368109
N  N11  1  0.63211000  0.36549000  0.41357000  1.0 -0.230770624
N  N12  1  0.36789000  0.63451000  0.58643000  1.0 -0.230770624
N  N13  1  0.25466000  0.45780000  0.30035000  1.0 -0.0204716446
N  N14  1  0.74534000  0.54220000  0.69965000  1.0 -0.0204716446
N  N15  1  0.05332000  0.83289000  0.19575000  1.0 -0.0204716446
N  N16  1  0.94668000  0.16711000  0.80425000  1.0 -0.0204716446
N  N17  1  0.11908000  0.86054000  0.32647000  1.0 -0.2584841985
N  N18  1  0.88092000  0.13946000  0.67353000  1.0 -0.2584841985
N  N19  1  0.08195000  0.77622000  0.27883000  1.0 -0.1805014499
N  N20  1  0.91805000  0.22378000  0.72117000  1.0 -0.1805014499
N  N21  1  0.40764000  0.85314000  0.55481000  1.0 -0.0102566744
N  N22  1  0.59236000  0.14686000  0.44519000  1.0 -0.0102566744
N  N23  1  0.26288000  0.55198000  0.25549000  1.0 -0.2224661622
N  N24  1  0.73712000  0.44802000  0.74451000  1.0 -0.2224661622
N  N25  1  0.35450000  0.57032000  0.31025000  1.0 -0.2004043436
N  N26  1  0.64550000  0.42968000  0.68975000  1.0 -0.2004043436
N  N27  1  0.43781000  0.79225000  0.45529000  1.0 -0.1883467368
N  N28  1  0.56219000  0.20775000  0.54471000  1.0 -0.1883467368
N  N29  1  0.44821000  0.86924000  0.45879000  1.0 -0.2004043436
N  N30  1  0.55179000  0.13076000  0.54121000  1.0 -0.2004043436
N  N31  1  0.66445000  0.78645000  0.60416000  1.0 -0.1482438482
N  N32  1  0.33555000  0.21355000  0.39584000  1.0 -0.1482438482
N  N33  1  0.62706000  0.74084000  0.46994000  1.0 -0.330239116
N  N34  1  0.37294000  0.25916000  0.53006000  1.0 -0.330239116
N  N35  1  0.55703000  0.68829000  0.48197000  1.0 -0.1418636727
N  N36  1  0.44297000  0.31171000  0.51803000  1.0 -0.1482438482
O  O1  1  0.81760000  0.25769000  0.22706000  1.0 -0.2101148305
O  O2  1  0.18240000  0.74231000  0.77294000  1.0 -0.2101148305
O  O3  1  0.58754000  0.16705000  0.05170000  1.0 -0.2004043436
O  O4  1  0.41246000  0.83295000  0.94830000  1.0 -0.2004043436
O  O5  1  0.71160000  0.01617000  0.51222000  1.0 -0.6400038588
O  O6  1  0.28840000  0.98383000  0.48778000  1.0 -0.6306782402
O  O7  1  0.81129000  0.17827000  0.55375000  1.0 -0.7271027404
O  O8  1  0.18871000  0.82173000  0.44625000  1.0 -0.7271027404
O  O9  1  0.97940000  0.15509000  0.56859000  1.0 -0.5670332152
O  O10  1  0.02060000  0.84491000  0.43141000  1.0 -0.5670332152
O  O11  1  0.82268000  0.05863000  0.43314000  1.0 -0.8126407105
O  O12  1  0.17732000  0.94137000  0.56686000  1.0 -0.8126407105
O  O13  1  0.92199000  0.21272000  0.43831000  1.0 -0.6612288791
O  O14  1  0.07801000  0.78728000  0.56169000  1.0 -0.6612288791
O  O15  1  0.88003000  0.06960000  0.31294000  1.0 -0.6306782402
O  O16  1  0.11997000  0.93040000  0.68706000  1.0 -0.6306782402
O  O17  1  0.93580000  0.83707000  0.54759000  1.0 -0.8296676713
O  O18  1  0.06420000  0.16293000  0.45241000  1.0 -0.8296676713
O  O19  1  0.09362000  0.12381000  0.69941000  1.0 -0.6026647526
O  O20  1  0.90638000  0.87619000  0.30059000  1.0 -0.6026647526
O  O21  1  0.01908000  0.97227000  0.56018000  1.0 -1.0300723154
O  O22  1  0.98092000  0.02773000  0.43982000  1.0 -1.0300723154
O  O23  1  0.14575000  0.12215000  0.57357000  1.0 -0.7545534807
O  O24  1  0.85425000  0.87785000  0.42643000  1.0 -0.7545534807
O  O25  1  0.89695000  0.01927000  0.56221000  1.0 -0.9881325799
O  O26  1  0.10305000  0.98073000  0.43779000  1.0 -0.9881325799
O  O27  1  0.77087000  0.85760000  0.55810000  1.0 -0.5517793733
O  O28  1  0.22913000  0.14240000  0.44190000  1.0 -0.5517793733
O  O29  1  0.94869000  0.96147000  0.67311000  1.0 -0.6101807791
O  O30  1  0.05131000  0.03853000  0.32689000  1.0 -0.6101807791
O  O31  1  0.03455000  0.24201000  0.62611000  1.0 -0.1883467368
O  O32  1  0.96545000  0.75799000  0.37389000  1.0 -0.1883467368
O  O33  1  0.79929000  0.31819000  0.71317000  1.0 -0.682155444
O  O34  1  0.20071000  0.68181000  0.28683000  1.0 -0.682155444
O  O35  1  0.02839000  0.42541000  0.77924000  1.0 -0.7576414782
O  O36  1  0.97161000  0.57459000  0.22076000  1.0 -0.7576414782
O  O37  1  0.01533000  0.57365000  0.82666000  1.0 -0.6400038588
O  O38  1  0.98467000  0.42635000  0.17334000  1.0 -0.6400038588
O  O39  1  0.04346000  0.56371000  0.98403000  1.0 -1.0210743982
O  O40  1  0.95654000  0.43629000  0.01597000  1.0 -1.0210743982
O  O41  1  0.90700000  0.45568000  0.85229000  1.0 -0.979689433
O  O42  1  0.09300000  0.54432000  0.14771000  1.0 -0.979689433
O  O43  1  0.06440000  0.42451000  0.93057000  1.0 -0.7874309558
O  O44  1  0.93560000  0.57549000  0.06943000  1.0 -0.7874309558
O  O45  1  0.79580000  0.43938000  0.91172000  1.0 -1.0037552553
O  O46  1  0.20420000  0.56062000  0.08828000  1.0 -1.0037552553
O  O47  1  0.80201000  0.30137000  0.85392000  1.0 -0.8126407105
O  O48  1  0.19799000  0.69863000  0.14608000  1.0 -0.8126407105
O  O49  1  0.67307000  0.30253000  0.92561000  1.0 -0.5873571771
O  O50  1  0.32693000  0.69747000  0.07439000  1.0 -0.5873571771
O  O51  1  0.82779000  0.27657000  0.99158000  1.0 -0.6306782402
O  O52  1  0.17221000  0.72343000  0.00842000  1.0 -0.6306782402
O  O53  1  0.16738000  0.56771000  0.93363000  1.0 -0.8190648991
O  O54  1  0.83262000  0.43229000  0.06637000  1.0 -0.8190648991
O  O55  1  0.64535000  0.30910000  0.74568000  1.0 -0.7576414782
O  O56  1  0.35465000  0.69090000  0.25432000  1.0 -0.7576414782
O  O57  1  0.88775000  0.94934000  0.04073000  1.0 -0.2101148305
O  O58  1  0.11225000  0.05066000  0.95927000  1.0 -0.2101148305
O  O59  1  0.00136000  0.19454000  0.18875000  1.0 -0.2004043436
O  O60  1  0.99864000  0.80546000  0.81125000  1.0 -0.2004043436
O  O61  1  0.55749000  0.98239000  0.84580000  1.0 -0.1883467368
O  O62  1  0.44251000  0.01761000  0.15420000  1.0 -0.1883467368
O  O63  1  0.62806000  0.86057000  0.85945000  1.0 -0.1883467368
O  O64  1  0.37194000  0.13943000  0.14055000  1.0 -0.1883467368
O  O65  1  0.11500000  0.39618000  0.06766000  1.0 -0.6306782402
O  O66  1  0.88500000  0.60382000  0.93234000  1.0 -0.6400038588
