# DDEC6 charges by PACMAN v1.1 (https://github.com/mtap-research/PACMAN-charge/)
data_BIBMIK_ASR_pacman
_symmetry_space_group_name_H-M   'P 1'
_cell_length_a   12.56800000
_cell_length_b   13.59000000
_cell_length_c   25.68000000
_cell_angle_alpha   80.49800000
_cell_angle_beta   76.87200000
_cell_angle_gamma   76.60700000
_symmetry_Int_Tables_number   1
_chemical_formula_structural   Zn2Mo4H41C63N23O24
_chemical_formula_sum   'Zn4 Mo8 H82 C126 N46 O48'
_cell_volume   4125.93654458
_cell_formula_units_Z   2
loop_
 _symmetry_equiv_pos_site_id
 _symmetry_equiv_pos_as_xyz
  1  'x, y, z'
loop_
 _atom_site_type_symbol
 _atom_site_label
 _atom_site_symmetry_multiplicity
 _atom_site_fract_x
 _atom_site_fract_y
 _atom_site_fract_z
 _atom_site_occupancy
 _atom_site_charge
Zn  Zn1  1  0.60778000  0.39757000  0.34702000  1.0 0.6269947186
Zn  Zn2  1  0.39222000  0.60243000  0.65298000  1.0 0.6269947186
Zn  Zn3  1  0.68580000  0.36571000  0.20043000  1.0 0.5421567753
Zn  Zn4  1  0.31420000  0.63429000  0.79957000  1.0 0.5421567753
Mo  Mo1  1  0.43830000  0.23842000  0.45327000  1.0 1.7901945606
Mo  Mo2  1  0.56170000  0.76158000  0.54673000  1.0 1.7901945606
Mo  Mo3  1  0.45190000  0.20130000  0.58894000  1.0 1.4696400657
Mo  Mo4  1  0.54810000  0.79870000  0.41106000  1.0 1.4696400657
Mo  Mo5  1  0.34895000  0.00735000  0.51630000  1.0 1.7198010579
Mo  Mo6  1  0.65105000  0.99265000  0.48370000  1.0 1.7146550313
Mo  Mo7  1  0.52476000  0.94066000  0.62524000  1.0 1.1347349778
Mo  Mo8  1  0.47524000  0.05934000  0.37476000  1.0 1.1347349778
H  H1  1  0.15700000  0.99480000  0.37560000  1.0 0.0791918762
H  H2  1  0.84300000  0.00520000  0.62440000  1.0 0.0791918762
H  H3  1  0.22320000  0.90480000  0.40940000  1.0 0.0877573819
H  H4  1  0.77680000  0.09520000  0.59060000  1.0 0.0877573819
H  H5  1  0.11380000  0.19960000  0.44220000  1.0 0.0877573819
H  H6  1  0.88620000  0.80040000  0.55780000  1.0 0.0877573819
H  H7  1  0.18330000  0.11190000  0.40790000  1.0 0.0791918762
H  H8  1  0.81670000  0.88810000  0.59210000  1.0 0.0791918762
H  H9  1  0.92960000  0.25260000  0.47830000  1.0 0.0791918762
H  H10  1  0.07040000  0.74740000  0.52170000  1.0 0.0791918762
H  H11  1  0.86930000  0.22850000  0.53830000  1.0 0.0791918762
H  H12  1  0.13070000  0.77150000  0.46170000  1.0 0.0791918762
H  H13  1  0.03060000  0.74750000  0.34020000  1.0 0.1191874837
H  H14  1  0.96940000  0.25250000  0.65980000  1.0 0.1191874837
H  H15  1  0.87660000  0.79450000  0.29450000  1.0 0.0998658096
H  H16  1  0.12340000  0.20550000  0.70550000  1.0 0.0998658096
H  H17  1  0.78430000  0.95850000  0.28580000  1.0 0.1094696654
H  H18  1  0.21570000  0.04150000  0.71420000  1.0 0.1094696654
H  H19  1  0.99220000  0.04720000  0.35540000  1.0 0.1191874837
H  H20  1  0.00780000  0.95280000  0.64460000  1.0 0.1191874837
H  H21  1  0.84430000  0.14120000  0.22550000  1.0 0.1094696654
H  H22  1  0.15570000  0.85880000  0.77450000  1.0 0.1094696654
H  H23  1  0.76240000  0.17480000  0.37920000  1.0 0.1191874837
H  H24  1  0.23760000  0.82520000  0.62080000  1.0 0.1191874837
H  H25  1  0.96860000  0.25900000  0.29880000  1.0 0.1094696654
H  H26  1  0.03140000  0.74100000  0.70120000  1.0 0.1094696654
H  H27  1  0.04740000  0.34480000  0.21860000  1.0 0.0998658096
H  H28  1  0.95260000  0.65520000  0.78140000  1.0 0.0998658096
H  H29  1  0.22740000  0.37640000  0.20710000  1.0 0.1191874837
H  H30  1  0.77260000  0.62360000  0.79290000  1.0 0.1191874837
H  H31  1  0.24160000  0.24140000  0.35840000  1.0 0.1386191473
H  H32  1  0.75840000  0.75860000  0.64160000  1.0 0.1386191473
H  H33  1  0.43460000  0.31490000  0.20170000  1.0 0.0791918762
H  H34  1  0.56540000  0.68510000  0.79830000  1.0 0.0791918762
H  H35  1  0.35640000  0.37120000  0.35160000  1.0 0.0998658096
H  H36  1  0.64360000  0.62880000  0.64840000  1.0 0.0998658096
H  H37  1  0.83660000  0.38020000  0.55850000  1.0 0.1094696654
H  H38  1  0.16340000  0.61980000  0.44150000  1.0 0.1094696654
H  H39  1  0.81900000  0.52960000  0.59140000  1.0 0.0877573819
H  H40  1  0.18100000  0.47040000  0.40860000  1.0 0.0877573819
H  H41  1  0.97320000  0.58790000  0.59860000  1.0 0.1191874837
H  H42  1  0.02680000  0.41210000  0.40140000  1.0 0.1191874837
H  H43  1  0.16660000  0.33220000  0.54690000  1.0 0.1293316124
H  H44  1  0.83340000  0.66780000  0.45310000  1.0 0.1293316124
H  H45  1  0.28810000  0.46760000  0.50890000  1.0 0.0998658096
H  H46  1  0.71190000  0.53240000  0.49110000  1.0 0.0998658096
H  H47  1  0.14820000  0.55740000  0.64950000  1.0 0.1191874837
H  H48  1  0.85180000  0.44260000  0.35050000  1.0 0.1191874837
H  H49  1  0.77900000  0.97340000  0.95380000  1.0 0.0791918762
H  H50  1  0.22100000  0.02660000  0.04620000  1.0 0.0791918762
H  H51  1  0.81570000  0.86720000  0.98690000  1.0 0.0877573819
H  H52  1  0.18430000  0.13280000  0.01310000  1.0 0.0877573819
H  H53  1  0.84110000  0.83740000  0.07330000  1.0 0.0877573819
H  H54  1  0.15890000  0.16260000  0.92670000  1.0 0.0877573819
H  H55  1  0.94420000  0.81840000  0.10160000  1.0 0.0706386015
H  H56  1  0.05580000  0.18160000  0.89840000  1.0 0.0706386015
H  H57  1  0.67210000  0.03910000  0.18740000  1.0 0.1094696654
H  H58  1  0.32790000  0.96090000  0.81260000  1.0 0.1094696654
H  H59  1  0.53760000  0.98750000  0.25560000  1.0 0.0706386015
H  H60  1  0.46240000  0.01250000  0.74440000  1.0 0.0706386015
H  H61  1  0.53800000  0.81090000  0.28010000  1.0 0.0791918762
H  H62  1  0.46200000  0.18910000  0.71990000  1.0 0.0791918762
H  H63  1  0.80890000  0.74810000  0.16300000  1.0 0.1386191473
H  H64  1  0.19110000  0.25190000  0.83700000  1.0 0.1386191473
H  H65  1  0.70680000  0.60440000  0.16460000  1.0 0.0877573819
H  H66  1  0.29320000  0.39560000  0.83540000  1.0 0.0877573819
H  H67  1  0.62980000  0.64020000  0.31720000  1.0 0.0791918762
H  H68  1  0.37020000  0.35980000  0.68280000  1.0 0.0791918762
H  H69  1  0.05700000  0.86790000  0.12000000  1.0 0.0791918762
H  H70  1  0.94300000  0.13210000  0.88000000  1.0 0.0791918762
H  H71  1  0.17340000  0.88810000  0.08720000  1.0 0.0877573819
H  H72  1  0.82660000  0.11190000  0.91280000  1.0 0.0877573819
H  H73  1  0.13380000  0.11990000  0.17360000  1.0 0.1293316124
H  H74  1  0.86620000  0.88010000  0.82640000  1.0 0.1293316124
H  H75  1  0.23100000  0.09510000  0.24300000  1.0 0.0998658096
H  H76  1  0.76900000  0.90490000  0.75700000  1.0 0.0998658096
H  H77  1  0.30300000  0.93110000  0.27850000  1.0 0.1094696654
H  H78  1  0.69700000  0.06890000  0.72150000  1.0 0.1094696654
H  H79  1  0.18050000  0.81690000  0.17520000  1.0 0.1293316124
H  H80  1  0.81950000  0.18310000  0.82480000  1.0 0.1293316124
H  H81  1  0.29380000  0.76950000  0.33040000  1.0 0.0998658096
H  H82  1  0.70620000  0.23050000  0.66960000  1.0 0.0998658096
C  C1  1  0.07190000  0.96860000  0.45320000  1.0 -0.0107867986
C  C2  1  0.92810000  0.03140000  0.54680000  1.0 -0.0107867986
C  C3  1  0.04870000  0.07010000  0.46150000  1.0 -0.0029208909
C  C4  1  0.95130000  0.92990000  0.53850000  1.0 -0.0029208909
C  C5  1  0.97430000  0.10230000  0.50790000  1.0 0.0074367423
C  C6  1  0.02570000  0.89770000  0.49210000  1.0 0.0074367423
C  C7  1  0.14990000  0.93490000  0.40150000  1.0 -0.080753655
C  C8  1  0.85010000  0.06510000  0.59850000  1.0 -0.080753655
C  C9  1  0.10840000  0.14550000  0.42320000  1.0 -0.0907135689
C  C10  1  0.89160000  0.85450000  0.57680000  1.0 -0.0907135689
C  C11  1  0.93950000  0.21470000  0.51290000  1.0 -0.080753655
C  C12  1  0.06050000  0.78530000  0.48710000  1.0 -0.080753655
C  C13  1  0.02590000  0.89480000  0.35250000  1.0 0.2809463636
C  C14  1  0.97410000  0.10520000  0.64750000  1.0 0.2809463636
C  C15  1  0.99370000  0.81490000  0.33470000  1.0 -0.2593312318
C  C16  1  0.00630000  0.18510000  0.66530000  1.0 -0.253993991
C  C17  1  0.90020000  0.84390000  0.30770000  1.0 -0.080753655
C  C18  1  0.09980000  0.15610000  0.69230000  1.0 -0.080753655
C  C19  1  0.84720000  0.94130000  0.30130000  1.0 -0.195865418
C  C20  1  0.15280000  0.05870000  0.69870000  1.0 -0.1930259322
C  C21  1  0.88380000  0.01330000  0.31700000  1.0 0.149393707
C  C22  1  0.11620000  0.98670000  0.68300000  1.0 0.149393707
C  C23  1  0.97110000  0.99470000  0.34370000  1.0 -0.3046812519
C  C24  1  0.02890000  0.00530000  0.65630000  1.0 -0.3046812519
C  C25  1  0.81590000  0.16930000  0.25770000  1.0 0.0578551859
C  C26  1  0.18410000  0.83070000  0.74230000  1.0 0.0578551859
C  C27  1  0.77130000  0.18800000  0.34190000  1.0 0.0578551859
C  C28  1  0.22870000  0.81200000  0.65810000  1.0 0.0578551859
C  C29  1  0.09720000  0.24020000  0.33620000  1.0 0.254922618
C  C30  1  0.90280000  0.75980000  0.66380000  1.0 0.254922618
C  C31  1  0.03970000  0.27200000  0.29470000  1.0 -0.2797637388
C  C32  1  0.96030000  0.72800000  0.70530000  1.0 -0.2797637388
C  C33  1  0.08720000  0.32380000  0.24620000  1.0 -0.080753655
C  C34  1  0.91280000  0.67620000  0.75380000  1.0 -0.080753655
C  C35  1  0.19380000  0.34390000  0.23930000  1.0 -0.2366721511
C  C36  1  0.80620000  0.65610000  0.76070000  1.0 -0.2366721511
C  C37  1  0.24750000  0.31320000  0.28280000  1.0 0.1882653132
C  C38  1  0.75250000  0.68680000  0.71720000  1.0 0.1882653132
C  C39  1  0.20240000  0.26160000  0.33050000  1.0 -0.3227950836
C  C40  1  0.79760000  0.73840000  0.66950000  1.0 -0.3227950836
C  C41  1  0.43870000  0.33060000  0.23500000  1.0 -0.0029208909
C  C42  1  0.56130000  0.66940000  0.76500000  1.0 -0.0029208909
C  C43  1  0.39670000  0.36120000  0.31710000  1.0 0.0074367423
C  C44  1  0.60330000  0.63880000  0.68290000  1.0 0.0074367423
C  C45  1  0.00390000  0.33860000  0.54890000  1.0 0.2686518326
C  C46  1  0.99610000  0.66140000  0.45110000  1.0 0.2686518326
C  C47  1  0.89990000  0.40030000  0.56250000  1.0 -0.2593312318
C  C48  1  0.10010000  0.59970000  0.43750000  1.0 -0.2593312318
C  C49  1  0.88980000  0.49020000  0.58160000  1.0 -0.0907135689
C  C50  1  0.11020000  0.50980000  0.41840000  1.0 -0.0907135689
C  C51  1  0.98090000  0.52480000  0.58710000  1.0 -0.2321068044
C  C52  1  0.01910000  0.47520000  0.41290000  1.0 -0.2321068044
C  C53  1  0.08330000  0.46220000  0.57480000  1.0 0.1571270272
C  C54  1  0.91670000  0.53780000  0.42520000  1.0 0.1571270272
C  C55  1  0.09560000  0.37210000  0.55560000  1.0 -0.3085210725
C  C56  1  0.90440000  0.62790000  0.44440000  1.0 -0.3046812519
C  C57  1  0.27570000  0.49410000  0.54140000  1.0 0.0578551859
C  C58  1  0.72430000  0.50590000  0.45860000  1.0 0.0578551859
C  C59  1  0.19960000  0.54260000  0.61810000  1.0 0.0404383436
C  C60  1  0.80040000  0.45740000  0.38190000  1.0 0.0404383436
C  C61  1  0.90280000  0.97420000  0.99480000  1.0 0.0074367423
C  C62  1  0.09720000  0.02580000  0.00520000  1.0 0.0074367423
C  C63  1  0.94540000  0.93810000  0.04090000  1.0 0.0074367423
C  C64  1  0.05460000  0.06190000  0.95910000  1.0 0.0074367423
C  C65  1  0.04160000  0.96480000  0.04680000  1.0 -0.0107867986
C  C66  1  0.95840000  0.03520000  0.95320000  1.0 -0.0107867986
C  C67  1  0.80040000  0.94040000  0.98740000  1.0 -0.0590688072
C  C68  1  0.19960000  0.05960000  0.01260000  1.0 -0.0590688072
C  C69  1  0.62210000  0.92710000  0.03780000  1.0 0.149393707
C  C70  1  0.37790000  0.07290000  0.96220000  1.0 0.149393707
C  C71  1  0.54050000  0.94220000  0.08400000  1.0 0.0074367423
C  C72  1  0.45950000  0.05780000  0.91600000  1.0 0.0074367423
C  C73  1  0.44450000  0.90300000  0.09190000  1.0 -0.0107867986
C  C74  1  0.55550000  0.09700000  0.90810000  1.0 -0.0107867986
C  C75  1  0.43020000  0.84850000  0.05350000  1.0 -0.2321068044
C  C76  1  0.56980000  0.15150000  0.94650000  1.0 -0.2321068044
C  C77  1  0.51180000  0.83330000  0.00730000  1.0 0.149393707
C  C78  1  0.48820000  0.16670000  0.99270000  1.0 0.149393707
C  C79  1  0.60780000  0.87260000  0.99950000  1.0 -0.3943325832
C  C80  1  0.39220000  0.12740000  0.00050000  1.0 -0.3943325832
C  C81  1  0.88910000  0.87050000  0.08620000  1.0 -0.080753655
C  C82  1  0.11090000  0.12950000  0.91380000  1.0 -0.080753655
C  C83  1  0.74950000  0.89990000  0.16650000  1.0 0.2809463636
C  C84  1  0.25050000  0.10010000  0.83350000  1.0 0.2809463636
C  C85  1  0.67070000  0.97020000  0.19590000  1.0 -0.2321068044
C  C86  1  0.32930000  0.02980000  0.80410000  1.0 -0.2321068044
C  C87  1  0.59140000  0.93940000  0.23700000  1.0 -0.1018078059
C  C88  1  0.40860000  0.06060000  0.76300000  1.0 -0.1018078059
C  C89  1  0.59040000  0.83370000  0.25170000  1.0 -0.2321068044
C  C90  1  0.40960000  0.16630000  0.74830000  1.0 -0.2321068044
C  C91  1  0.66950000  0.76860000  0.22220000  1.0 0.1800055474
C  C92  1  0.33050000  0.23140000  0.77780000  1.0 0.1800055474
C  C93  1  0.75330000  0.79650000  0.18050000  1.0 -0.3227950836
C  C94  1  0.24670000  0.20350000  0.81950000  1.0 -0.3227950836
C  C95  1  0.69070000  0.59080000  0.20190000  1.0 -0.0029208909
C  C96  1  0.30930000  0.40920000  0.79810000  1.0 0.0015348937
C  C97  1  0.65030000  0.60980000  0.28560000  1.0 0.0404383436
C  C98  1  0.34970000  0.39020000  0.71440000  1.0 0.0404383436
C  C99  1  0.09560000  0.91950000  0.09830000  1.0 -0.0301634898
C  C100  1  0.90440000  0.08050000  0.90170000  1.0 -0.0301634898
C  C101  1  0.14750000  0.97080000  0.16750000  1.0 0.2439551398
C  C102  1  0.85250000  0.02920000  0.83250000  1.0 0.2439551398
C  C103  1  0.16260000  0.05420000  0.18780000  1.0 -0.2200647879
C  C104  1  0.83740000  0.94580000  0.81220000  1.0 -0.2200647879
C  C105  1  0.22090000  0.03930000  0.22940000  1.0 -0.0703179009
C  C106  1  0.77910000  0.96070000  0.77060000  1.0 -0.0703179009
C  C107  1  0.26400000  0.94110000  0.25070000  1.0 -0.2200647879
C  C108  1  0.73600000  0.05890000  0.74930000  1.0 -0.2200647879
C  C109  1  0.24890000  0.85770000  0.23030000  1.0 0.2096339732
C  C110  1  0.75110000  0.14230000  0.76970000  1.0 0.2096339732
C  C111  1  0.19060000  0.87260000  0.18880000  1.0 -0.3227950836
C  C112  1  0.80940000  0.12740000  0.81120000  1.0 -0.3227950836
C  C113  1  0.31360000  0.72930000  0.30230000  1.0 -0.1632654994
C  C114  1  0.68640000  0.27070000  0.69770000  1.0 -0.1632654994
C  C115  1  0.33900000  0.67730000  0.21890000  1.0 -0.0107867986
C  C116  1  0.66100000  0.32270000  0.78110000  1.0 -0.0029208909
C  C117  1  0.58100000  0.73600000  0.92050000  1.0 -0.0478780169
C  C118  1  0.41900000  0.26400000  0.07950000  1.0 -0.0478780169
C  C119  1  0.39000000  0.83900000  0.93800000  1.0 -0.1221000359
C  C120  1  0.61000000  0.16100000  0.06200000  1.0 -0.1221000359
C  C121  1  0.55800000  0.89800000  0.09060000  1.0 -0.0206642131
C  C122  1  0.44200000  0.10200000  0.90940000  1.0 -0.0206642131
C  C123  1  0.47300000  0.85400000  0.09470000  1.0 0.0015348937
C  C124  1  0.52700000  0.14600000  0.90530000  1.0 0.0015348937
C  C125  1  0.39800000  0.81600000  0.94580000  1.0 -0.0907135689
C  C126  1  0.60200000  0.18400000  0.05420000  1.0 -0.0907135689
N  N1  1  0.82820000  0.11960000  0.30560000  1.0 -0.0301634898
N  N2  1  0.17180000  0.88040000  0.69440000  1.0 -0.0301634898
N  N3  1  0.76010000  0.26100000  0.26120000  1.0 -0.2366721511
N  N4  1  0.23990000  0.73900000  0.73880000  1.0 -0.2366721511
N  N5  1  0.73280000  0.27320000  0.31540000  1.0 -0.169637765
N  N6  1  0.26720000  0.72680000  0.68460000  1.0 -0.169637765
N  N7  1  0.35650000  0.33500000  0.27750000  1.0 -0.0590688072
N  N8  1  0.64350000  0.66500000  0.72250000  1.0 -0.0590688072
N  N9  1  0.52870000  0.35170000  0.24660000  1.0 -0.3085210725
N  N10  1  0.47130000  0.64830000  0.75340000  1.0 -0.3085210725
N  N11  1  0.50020000  0.37040000  0.29940000  1.0 -0.2200647879
N  N12  1  0.49980000  0.62960000  0.70060000  1.0 -0.2200647879
N  N13  1  0.18110000  0.49720000  0.57800000  1.0 -0.0301634898
N  N14  1  0.81890000  0.50280000  0.42200000  1.0 -0.0301634898
N  N15  1  0.34910000  0.53210000  0.55610000  1.0 -0.2089565625
N  N16  1  0.65090000  0.46790000  0.44390000  1.0 -0.2089565625
N  N17  1  0.29880000  0.56190000  0.60570000  1.0 -0.1826959654
N  N18  1  0.70120000  0.43810000  0.39430000  1.0 -0.1826959654
N  N19  1  0.67250000  0.65910000  0.23620000  1.0 -0.0399389865
N  N20  1  0.32750000  0.34090000  0.76380000  1.0 -0.0399389865
N  N21  1  0.68240000  0.50090000  0.22920000  1.0 -0.2593312318
N  N22  1  0.31760000  0.49910000  0.77080000  1.0 -0.2593312318
N  N23  1  0.66190000  0.51130000  0.28290000  1.0 -0.2321068044
N  N24  1  0.33810000  0.48870000  0.71710000  1.0 -0.2321068044
N  N25  1  0.29720000  0.76200000  0.24880000  1.0 -0.1523389176
N  N26  1  0.70280000  0.23800000  0.75120000  1.0 -0.1523389176
N  N27  1  0.36550000  0.62450000  0.30560000  1.0 -0.1018078059
N  N28  1  0.63450000  0.37550000  0.69440000  1.0 -0.0907135689
N  N29  1  0.38120000  0.59240000  0.25400000  1.0 0.1386191473
N  N30  1  0.61880000  0.40760000  0.74600000  1.0 0.1293316124
N  N31  1  0.41500000  0.79700000  0.89140000  1.0 0.0015348937
N  N32  1  0.58500000  0.20300000  0.10860000  1.0 0.0015348937
N  N33  1  0.52800000  0.74790000  0.87580000  1.0 -0.253993991
N  N34  1  0.47200000  0.25210000  0.12420000  1.0 -0.2593312318
N  N35  1  0.49000000  0.81400000  0.95490000  1.0 0.0791918762
N  N36  1  0.51000000  0.18600000  0.04510000  1.0 0.0791918762
N  N37  1  0.41300000  0.60500000  0.25030000  1.0 -0.0107867986
N  N38  1  0.58700000  0.39500000  0.74970000  1.0 -0.0206642131
N  N39  1  0.32100000  0.57400000  0.26900000  1.0 -0.0206642131
N  N40  1  0.67900000  0.42600000  0.73100000  1.0 -0.0206642131
N  N41  1  0.50100000  0.77800000  0.96380000  1.0 0.167577029
N  N42  1  0.49900000  0.22200000  0.03620000  1.0 0.167577029
N  N43  1  0.52800000  0.71900000  0.98300000  1.0 -0.0703179009
N  N44  1  0.47200000  0.28100000  0.01700000  1.0 -0.0590688072
N  N45  1  0.41800000  0.74400000  0.90700000  1.0 0.0998658096
N  N46  1  0.58200000  0.25600000  0.09300000  1.0 0.0877573819
O  O1  1  0.11540000  0.86390000  0.37730000  1.0 -0.2321068044
O  O2  1  0.88460000  0.13610000  0.62270000  1.0 -0.2200647879
O  O3  1  0.04520000  0.18750000  0.38060000  1.0 -0.2200647879
O  O4  1  0.95480000  0.81250000  0.61940000  1.0 -0.2200647879
O  O5  1  0.02600000  0.24530000  0.53150000  1.0 -0.2089565625
O  O6  1  0.97400000  0.75470000  0.46850000  1.0 -0.2089565625
O  O7  1  0.71510000  0.96870000  0.03110000  1.0 -0.3325961932
O  O8  1  0.28490000  0.03130000  0.96890000  1.0 -0.3325961932
O  O9  1  0.82320000  0.93730000  0.12650000  1.0 -0.1930259322
O  O10  1  0.17680000  0.06270000  0.87350000  1.0 -0.1930259322
O  O11  1  0.08670000  0.99580000  0.12720000  1.0 -0.169637765
O  O12  1  0.91330000  0.00420000  0.87280000  1.0 -0.169637765
O  O13  1  0.54470000  0.28620000  0.40840000  1.0 -0.6909364268
O  O14  1  0.45530000  0.71380000  0.59160000  1.0 -0.6909364268
O  O15  1  0.38320000  0.17770000  0.40601000  1.0 -0.8310229585
O  O16  1  0.61680000  0.82230000  0.59399000  1.0 -0.8310229585
O  O17  1  0.48200000  0.24450000  0.51850000  1.0 -0.4483960673
O  O18  1  0.51800000  0.75550000  0.48150000  1.0 -0.4483960673
O  O19  1  0.34260000  0.14010000  0.51600000  1.0 -0.8498558506
O  O20  1  0.65740000  0.85990000  0.48400000  1.0 -0.8498558506
O  O21  1  0.37020000  0.97840000  0.44990000  1.0 -0.6156774267
O  O22  1  0.62980000  0.02160000  0.55010000  1.0 -0.6156774267
O  O23  1  0.45780000  0.92520000  0.55019000  1.0 -0.9617970094
O  O24  1  0.54220000  0.07480000  0.44981000  1.0 -0.9617970094
O  O25  1  0.42620000  0.07340000  0.61790000  1.0 -0.7891784117
O  O26  1  0.57380000  0.92660000  0.38210000  1.0 -0.7891784117
O  O27  1  0.53210000  0.22580000  0.62210000  1.0 0.0791918762
O  O28  1  0.46790000  0.77420000  0.37790000  1.0 0.0877573819
O  O29  1  0.68500000  0.24500000  0.15690000  1.0 0.0493884169
O  O30  1  0.31500000  0.75500000  0.84310000  1.0 0.0493884169
O  O31  1  0.60200000  0.46000000  0.13790000  1.0 0.3266294793
O  O32  1  0.39800000  0.54000000  0.86210000  1.0 0.3229374185
O  O33  1  0.61600000  0.38700000  0.14150000  1.0 0.2291457772
O  O34  1  0.38400000  0.61300000  0.85850000  1.0 0.2291457772
O  O35  1  0.55540000  0.46520000  0.09880000  1.0 -0.0107867986
O  O36  1  0.44460000  0.53480000  0.90120000  1.0 -0.0107867986
O  O37  1  0.75680000  0.28150000  0.11010000  1.0 -0.1632654994
O  O38  1  0.24320000  0.71850000  0.88990000  1.0 -0.1632654994
O  O39  1  0.73500000  0.23910000  0.15930000  1.0 0.167577029
O  O40  1  0.26500000  0.76090000  0.84070000  1.0 0.167577029
O  O41  1  0.50830000  0.22950000  0.51600000  1.0 -0.3706929341
O  O42  1  0.49170000  0.77050000  0.48400000  1.0 -0.3706929341
O  O43  1  0.57260000  0.21320000  0.61600000  1.0 -0.2089565625
O  O44  1  0.42740000  0.78680000  0.38400000  1.0 -0.2089565625
O  O45  1  0.59170000  0.15700000  0.52780000  1.0 -0.0206642131
O  O46  1  0.40830000  0.84300000  0.47220000  1.0 -0.0107867986
O  O47  1  0.64550000  0.45670000  0.13060000  1.0 0.2686518326
O  O48  1  0.35450000  0.54330000  0.86940000  1.0 0.2809463636
