# DDEC6 charges by PACMAN v1.1 (https://github.com/mtap-research/PACMAN-charge/)
data_BIBQEL_FSR_pacman
_symmetry_space_group_name_H-M   'P 1'
_cell_length_a   10.80010000
_cell_length_b   11.96520000
_cell_length_c   14.57110000
_cell_angle_alpha   90.00000000
_cell_angle_beta   109.25000000
_cell_angle_gamma   90.00000000
_symmetry_Int_Tables_number   1
_chemical_formula_structural   Cu2H12C22N4O11
_chemical_formula_sum   'Cu4 H24 C44 N8 O22'
_cell_volume   1777.67770066
_cell_formula_units_Z   2
loop_
 _symmetry_equiv_pos_site_id
 _symmetry_equiv_pos_as_xyz
  1  'x, y, z'
loop_
 _atom_site_type_symbol
 _atom_site_label
 _atom_site_symmetry_multiplicity
 _atom_site_fract_x
 _atom_site_fract_y
 _atom_site_fract_z
 _atom_site_occupancy
 _atom_site_charge
Cu  Cu1  1  0.09952000  0.92609000  0.02462000  1.0 0.7920932977
Cu  Cu2  1  0.90048000  0.42609000  0.47538000  1.0 0.7920932977
Cu  Cu3  1  0.90048000  0.07391000  0.97538000  1.0 0.7920932977
Cu  Cu4  1  0.09952000  0.57391000  0.52462000  1.0 0.7920932977
H  H1  1  0.37280000  0.37140000  0.43700000  1.0 0.1414085859
H  H2  1  0.03090000  0.25140000  0.25760000  1.0 0.16241328
H  H3  1  0.58450000  0.41600000  0.40900000  1.0 0.1266435964
H  H4  1  0.58680000  0.09160000  0.36060000  1.0 0.1414085859
H  H5  1  0.37150000  0.13840000  0.23690000  1.0 0.1414085859
H  H6  1  0.81270000  0.15720000  0.43140000  1.0 0.2053902456
H  H7  1  0.62720000  0.87140000  0.06300000  1.0 0.1414085859
H  H8  1  0.96910000  0.75140000  0.24240000  1.0 0.16241328
H  H9  1  0.41550000  0.91600000  0.09100000  1.0 0.1266435964
H  H10  1  0.41320000  0.59160000  0.13940000  1.0 0.1414085859
H  H11  1  0.62850000  0.63840000  0.26310000  1.0 0.1414085859
H  H12  1  0.18730000  0.65720000  0.06860000  1.0 0.2032683699
H  H13  1  0.62720000  0.62860000  0.56300000  1.0 0.1414085859
H  H14  1  0.96910000  0.74860000  0.74240000  1.0 0.16241328
H  H15  1  0.41550000  0.58400000  0.59100000  1.0 0.1266435964
H  H16  1  0.41320000  0.90840000  0.63940000  1.0 0.1414085859
H  H17  1  0.62850000  0.86160000  0.76310000  1.0 0.1414085859
H  H18  1  0.18730000  0.84280000  0.56860000  1.0 0.2053902456
H  H19  1  0.37280000  0.12860000  0.93700000  1.0 0.1414085859
H  H20  1  0.03090000  0.24860000  0.75760000  1.0 0.16241328
H  H21  1  0.58450000  0.08400000  0.90900000  1.0 0.1266435964
H  H22  1  0.58680000  0.40840000  0.86060000  1.0 0.1414085859
H  H23  1  0.37150000  0.36160000  0.73690000  1.0 0.1414085859
H  H24  1  0.81270000  0.34280000  0.93140000  1.0 0.2053902456
C  C1  1  0.11800000  0.38860000  0.40800000  1.0 0.5736184774
C  C2  1  0.11650000  0.11430000  0.14860000  1.0 0.5736184774
C  C3  1  0.32710000  0.32280000  0.38770000  1.0 -0.1793142145
C  C4  1  0.12210000  0.25180000  0.27910000  1.0 -0.087212119
C  C5  1  0.61390000  0.34320000  0.40720000  1.0 0.1219543929
C  C6  1  0.19030000  0.18450000  0.23440000  1.0 0.0098186709
C  C7  1  0.39380000  0.25280000  0.34490000  1.0 0.16241328
C  C8  1  0.19170000  0.31980000  0.35670000  1.0 0.0190998022
C  C9  1  0.61330000  0.16410000  0.38070000  1.0 -0.08055402
C  C10  1  0.32600000  0.18380000  0.26660000  1.0 -0.1793142145
C  C11  1  0.73810000  0.20160000  0.41780000  1.0 -0.0486276129
C  C12  1  0.88200000  0.88860000  0.09200000  1.0 0.5736184774
C  C13  1  0.88350000  0.61430000  0.35140000  1.0 0.5736184774
C  C14  1  0.67290000  0.82280000  0.11230000  1.0 -0.1793142145
C  C15  1  0.87790000  0.75180000  0.22090000  1.0 -0.087212119
C  C16  1  0.38610000  0.84320000  0.09280000  1.0 0.1219543929
C  C17  1  0.80970000  0.68450000  0.26560000  1.0 0.0098186709
C  C18  1  0.60620000  0.75280000  0.15510000  1.0 0.16241328
C  C19  1  0.80830000  0.81980000  0.14330000  1.0 0.0190998022
C  C20  1  0.38670000  0.66410000  0.11930000  1.0 -0.08055402
C  C21  1  0.67400000  0.68380000  0.23340000  1.0 -0.1793142145
C  C22  1  0.26190000  0.70160000  0.08220000  1.0 -0.0486276129
C  C23  1  0.88200000  0.61140000  0.59200000  1.0 0.5736184774
C  C24  1  0.88350000  0.88570000  0.85140000  1.0 0.5736184774
C  C25  1  0.67290000  0.67720000  0.61230000  1.0 -0.1793142145
C  C26  1  0.87790000  0.74820000  0.72090000  1.0 -0.087212119
C  C27  1  0.38610000  0.65680000  0.59280000  1.0 0.1219543929
C  C28  1  0.80970000  0.81550000  0.76560000  1.0 0.0190998022
C  C29  1  0.60620000  0.74720000  0.65510000  1.0 0.1654929875
C  C30  1  0.80830000  0.68020000  0.64330000  1.0 0.0190998022
C  C31  1  0.38670000  0.83590000  0.61930000  1.0 -0.08055402
C  C32  1  0.67400000  0.81620000  0.73340000  1.0 -0.1793142145
C  C33  1  0.26190000  0.79840000  0.58220000  1.0 -0.0486276129
C  C34  1  0.11800000  0.11140000  0.90800000  1.0 0.5736184774
C  C35  1  0.11650000  0.38570000  0.64860000  1.0 0.5736184774
C  C36  1  0.32710000  0.17720000  0.88770000  1.0 -0.1793142145
C  C37  1  0.12210000  0.24820000  0.77910000  1.0 -0.087212119
C  C38  1  0.61390000  0.15680000  0.90720000  1.0 0.1219543929
C  C39  1  0.19030000  0.31550000  0.73440000  1.0 0.0098186709
C  C40  1  0.39380000  0.24720000  0.84490000  1.0 0.1654929875
C  C41  1  0.19170000  0.18020000  0.85670000  1.0 0.0190998022
C  C42  1  0.61330000  0.33590000  0.88070000  1.0 -0.08055402
C  C43  1  0.32600000  0.31620000  0.76660000  1.0 -0.1793142145
C  C44  1  0.73810000  0.29840000  0.91780000  1.0 -0.0486276129
N  N1  1  0.73810000  0.31470000  0.43230000  1.0 -0.2637571038
N  N2  1  0.53380000  0.25340000  0.37840000  1.0 0.0098186709
N  N3  1  0.26190000  0.81470000  0.06770000  1.0 -0.2637571038
N  N4  1  0.46620000  0.75340000  0.12160000  1.0 0.0098186709
N  N5  1  0.26190000  0.68530000  0.56770000  1.0 -0.2637571038
N  N6  1  0.46620000  0.74660000  0.62160000  1.0 0.0098186709
N  N7  1  0.73810000  0.18530000  0.93230000  1.0 -0.2637571038
N  N8  1  0.53380000  0.24660000  0.87840000  1.0 0.0046477562
O  O1  1  0.17320000  0.02750000  0.13550000  1.0 -0.5095516385
O  O2  1  0.00600000  0.14830000  0.09680000  1.0 -0.4862552749
O  O3  1  0.17490000  0.47580000  0.44880000  1.0 -0.5095516385
O  O4  1  0.00930000  0.35350000  0.40660000  1.0 -0.4823870601
O  O5  1  0.89920000  0.07550000  0.47210000  1.0 -0.3148644806
O  O6  1  0.82680000  0.52750000  0.36450000  1.0 -0.5095516385
O  O7  1  0.99400000  0.64830000  0.40320000  1.0 -0.4862552749
O  O8  1  0.82510000  0.97580000  0.05120000  1.0 -0.5095516385
O  O9  1  0.99070000  0.85350000  0.09340000  1.0 -0.4823870601
O  O10  1  0.10080000  0.57550000  0.02790000  1.0 -0.3168358148
O  O11  1  0.82680000  0.97250000  0.86450000  1.0 -0.5095516385
O  O12  1  0.99400000  0.85170000  0.90320000  1.0 -0.4862552749
O  O13  1  0.82510000  0.52420000  0.55120000  1.0 -0.5095516385
O  O14  1  0.99070000  0.64650000  0.59340000  1.0 -0.4823870601
O  O15  1  0.10080000  0.92450000  0.52790000  1.0 -0.3168358148
O  O16  1  0.17320000  0.47250000  0.63550000  1.0 -0.5095516385
O  O17  1  0.00600000  0.35170000  0.59680000  1.0 -0.4862552749
O  O18  1  0.17490000  0.02420000  0.94880000  1.0 -0.5095516385
O  O19  1  0.00930000  0.14650000  0.90660000  1.0 -0.4823870601
O  O20  1  0.89920000  0.42450000  0.97210000  1.0 -0.3168358148
O  O21  1  0.00000000  0.00000000  0.50000000  1.0 -0.08055402
O  O22  1  0.00000000  0.50000000  0.00000000  1.0 -0.08055402
