# DDEC6 charges by PACMAN v1.1 (https://github.com/mtap-research/PACMAN-charge/)
data_BIBXIV_ASR_pacman
_symmetry_space_group_name_H-M   'P 1'
_cell_length_a   22.91040000
_cell_length_b   22.91040000
_cell_length_c   22.91040000
_cell_angle_alpha   60.00000000
_cell_angle_beta   60.00000000
_cell_angle_gamma   60.00000000
_symmetry_Int_Tables_number   1
_chemical_formula_structural   Ni4H15C60N12(OF24)3
_chemical_formula_sum   'Ni8 H30 C120 N24 O6 F144'
_cell_volume   8503.21220477
_cell_formula_units_Z   2
loop_
 _symmetry_equiv_pos_site_id
 _symmetry_equiv_pos_as_xyz
  1  'x, y, z'
loop_
 _atom_site_type_symbol
 _atom_site_label
 _atom_site_symmetry_multiplicity
 _atom_site_fract_x
 _atom_site_fract_y
 _atom_site_fract_z
 _atom_site_occupancy
 _atom_site_charge
Ni  Ni1  1  0.04076000  0.04076000  0.04076000  1.0 0.5415528453
Ni  Ni2  1  0.04076000  0.04076000  0.87772000  1.0 0.5415528453
Ni  Ni3  1  0.95924000  0.95924000  0.95924000  1.0 0.5415528453
Ni  Ni4  1  0.12228000  0.95924000  0.95924000  1.0 0.5415528453
Ni  Ni5  1  0.04076000  0.87772000  0.04076000  1.0 0.5415528453
Ni  Ni6  1  0.87772000  0.04076000  0.04076000  1.0 0.5415528453
Ni  Ni7  1  0.95924000  0.12228000  0.95924000  1.0 0.5415528453
Ni  Ni8  1  0.95924000  0.95924000  0.12228000  1.0 0.5415528453
H  H1  1  0.92361000  0.07639000  0.07639000  1.0 0.2553933498
H  H2  1  0.07639000  0.92361000  0.92361000  1.0 0.2553933498
H  H3  1  0.92361000  0.07639000  0.92361000  1.0 0.2553933498
H  H4  1  0.07639000  0.07639000  0.92361000  1.0 0.2553933498
H  H5  1  0.92361000  0.92361000  0.07639000  1.0 0.2553933498
H  H6  1  0.07639000  0.92361000  0.07639000  1.0 0.2553933498
H  H7  1  0.93816000  0.93816000  0.82966000  1.0 0.0676220608
H  H8  1  0.93816000  0.93816000  0.29402000  1.0 0.0676220608
H  H9  1  0.06184000  0.17034000  0.06184000  1.0 0.0676220608
H  H10  1  0.70598000  0.06184000  0.17034000  1.0 0.0676220608
H  H11  1  0.82966000  0.29402000  0.93816000  1.0 0.0676220608
H  H12  1  0.06184000  0.06184000  0.17034000  1.0 0.0676220608
H  H13  1  0.82966000  0.93816000  0.29402000  1.0 0.0676220608
H  H14  1  0.93816000  0.29402000  0.93816000  1.0 0.0676220608
H  H15  1  0.70598000  0.17034000  0.06184000  1.0 0.0676220608
H  H16  1  0.93816000  0.82966000  0.29402000  1.0 0.0676220608
H  H17  1  0.17034000  0.06184000  0.06184000  1.0 0.0676220608
H  H18  1  0.70598000  0.06184000  0.06184000  1.0 0.0676220608
H  H19  1  0.93816000  0.29402000  0.82966000  1.0 0.0676220608
H  H20  1  0.29402000  0.93816000  0.93816000  1.0 0.0676220608
H  H21  1  0.06184000  0.70598000  0.17034000  1.0 0.0676220608
H  H22  1  0.06184000  0.17034000  0.70598000  1.0 0.0676220608
H  H23  1  0.82966000  0.93816000  0.93816000  1.0 0.0676220608
H  H24  1  0.17034000  0.70598000  0.06184000  1.0 0.0676220608
H  H25  1  0.29402000  0.93816000  0.82966000  1.0 0.0676220608
H  H26  1  0.93816000  0.82966000  0.93816000  1.0 0.0676220608
H  H27  1  0.06184000  0.06184000  0.70598000  1.0 0.0676220608
H  H28  1  0.29402000  0.82966000  0.93816000  1.0 0.0676220608
H  H29  1  0.06184000  0.70598000  0.06184000  1.0 0.0676220608
H  H30  1  0.17034000  0.06184000  0.70598000  1.0 0.0676220608
C  C1  1  0.00000000  0.00000000  0.56068000  1.0 0.0886829619
C  C2  1  0.00000000  0.00000000  0.43932000  1.0 0.0886829619
C  C3  1  0.00000000  0.43932000  0.00000000  1.0 0.0886829619
C  C4  1  0.56068000  0.00000000  0.43932000  1.0 0.0886829619
C  C5  1  0.56068000  0.43932000  0.00000000  1.0 0.0886829619
C  C6  1  0.00000000  0.56068000  0.43932000  1.0 0.0886829619
C  C7  1  0.43932000  0.00000000  0.00000000  1.0 0.0886829619
C  C8  1  0.56068000  0.00000000  0.00000000  1.0 0.0886829619
C  C9  1  0.00000000  0.43932000  0.56068000  1.0 0.0886829619
C  C10  1  0.43932000  0.56068000  0.00000000  1.0 0.0886829619
C  C11  1  0.43932000  0.00000000  0.56068000  1.0 0.0886829619
C  C12  1  0.00000000  0.56068000  0.00000000  1.0 0.0886829619
C  C13  1  0.96285000  0.96285000  0.56749000  1.0 -0.2332735565
C  C14  1  0.96285000  0.96285000  0.50681000  1.0 -0.2332735565
C  C15  1  0.03715000  0.43251000  0.03715000  1.0 -0.2332735565
C  C16  1  0.49319000  0.03715000  0.43251000  1.0 -0.2332735565
C  C17  1  0.56749000  0.50681000  0.96285000  1.0 -0.2332735565
C  C18  1  0.03715000  0.03715000  0.43251000  1.0 -0.2332735565
C  C19  1  0.56749000  0.96285000  0.50681000  1.0 -0.2332735565
C  C20  1  0.96285000  0.50681000  0.96285000  1.0 -0.2332735565
C  C21  1  0.49319000  0.43251000  0.03715000  1.0 -0.2332735565
C  C22  1  0.96285000  0.56749000  0.50681000  1.0 -0.2332735565
C  C23  1  0.43251000  0.03715000  0.03715000  1.0 -0.2332735565
C  C24  1  0.49319000  0.03715000  0.03715000  1.0 -0.2332735565
C  C25  1  0.96285000  0.50681000  0.56749000  1.0 -0.2332735565
C  C26  1  0.50681000  0.96285000  0.96285000  1.0 -0.2332735565
C  C27  1  0.03715000  0.49319000  0.43251000  1.0 -0.2332735565
C  C28  1  0.03715000  0.43251000  0.49319000  1.0 -0.2332735565
C  C29  1  0.56749000  0.96285000  0.96285000  1.0 -0.2332735565
C  C30  1  0.43251000  0.49319000  0.03715000  1.0 -0.2332735565
C  C31  1  0.50681000  0.96285000  0.56749000  1.0 -0.2332735565
C  C32  1  0.96285000  0.56749000  0.96285000  1.0 -0.2332735565
C  C33  1  0.03715000  0.03715000  0.49319000  1.0 -0.2332735565
C  C34  1  0.50681000  0.56749000  0.96285000  1.0 -0.2332735565
C  C35  1  0.03715000  0.49319000  0.03715000  1.0 -0.2332735565
C  C36  1  0.43251000  0.03715000  0.49319000  1.0 -0.2332735565
C  C37  1  0.92168000  0.92168000  0.64226000  1.0 0.2953838817
C  C38  1  0.92168000  0.92168000  0.51438000  1.0 0.2953838817
C  C39  1  0.07832000  0.35774000  0.07832000  1.0 0.2935859188
C  C40  1  0.48562000  0.07832000  0.35774000  1.0 0.2935859188
C  C41  1  0.64226000  0.51438000  0.92168000  1.0 0.2935859188
C  C42  1  0.07832000  0.07832000  0.35774000  1.0 0.2935859188
C  C43  1  0.64226000  0.92168000  0.51438000  1.0 0.2935859188
C  C44  1  0.92168000  0.51438000  0.92168000  1.0 0.2953838817
C  C45  1  0.48562000  0.35774000  0.07832000  1.0 0.2935859188
C  C46  1  0.92168000  0.64226000  0.51438000  1.0 0.2953838817
C  C47  1  0.35774000  0.07832000  0.07832000  1.0 0.2935859188
C  C48  1  0.48562000  0.07832000  0.07832000  1.0 0.2935859188
C  C49  1  0.92168000  0.51438000  0.64226000  1.0 0.2953838817
C  C50  1  0.51438000  0.92168000  0.92168000  1.0 0.2935859188
C  C51  1  0.07832000  0.48562000  0.35774000  1.0 0.2935859188
C  C52  1  0.07832000  0.35774000  0.48562000  1.0 0.2935859188
C  C53  1  0.64226000  0.92168000  0.92168000  1.0 0.2935859188
C  C54  1  0.35774000  0.48562000  0.07832000  1.0 0.2935859188
C  C55  1  0.51438000  0.92168000  0.64226000  1.0 0.2935859188
C  C56  1  0.92168000  0.64226000  0.92168000  1.0 0.2953838817
C  C57  1  0.07832000  0.07832000  0.48562000  1.0 0.2953838817
C  C58  1  0.51438000  0.64226000  0.92168000  1.0 0.2935859188
C  C59  1  0.07832000  0.48562000  0.07832000  1.0 0.2935859188
C  C60  1  0.35774000  0.07832000  0.48562000  1.0 0.2953838817
C  C61  1  0.00000000  0.00000000  0.62614000  1.0 -0.2579687946
C  C62  1  0.00000000  0.00000000  0.37386000  1.0 -0.2579687946
C  C63  1  0.00000000  0.37386000  0.00000000  1.0 -0.2579687946
C  C64  1  0.62614000  0.00000000  0.37386000  1.0 -0.2579687946
C  C65  1  0.62614000  0.37386000  0.00000000  1.0 -0.2579687946
C  C66  1  0.00000000  0.62614000  0.37386000  1.0 -0.2579687946
C  C67  1  0.37386000  0.00000000  0.00000000  1.0 -0.2579687946
C  C68  1  0.62614000  0.00000000  0.00000000  1.0 -0.2579687946
C  C69  1  0.00000000  0.37386000  0.62614000  1.0 -0.2544967198
C  C70  1  0.37386000  0.62614000  0.00000000  1.0 -0.2579687946
C  C71  1  0.37386000  0.00000000  0.62614000  1.0 -0.2579687946
C  C72  1  0.00000000  0.62614000  0.00000000  1.0 -0.2579687946
C  C73  1  0.00000000  0.00000000  0.68026000  1.0 -0.1066915785
C  C74  1  0.00000000  0.00000000  0.31974000  1.0 -0.1040129411
C  C75  1  0.00000000  0.31974000  0.00000000  1.0 -0.1040129411
C  C76  1  0.68026000  0.00000000  0.31974000  1.0 -0.1040129411
C  C77  1  0.68026000  0.31974000  0.00000000  1.0 -0.1040129411
C  C78  1  0.00000000  0.68026000  0.31974000  1.0 -0.1066915785
C  C79  1  0.31974000  0.00000000  0.00000000  1.0 -0.1040129411
C  C80  1  0.68026000  0.00000000  0.00000000  1.0 -0.1040129411
C  C81  1  0.00000000  0.31974000  0.68026000  1.0 -0.1066915785
C  C82  1  0.31974000  0.68026000  0.00000000  1.0 -0.1040129411
C  C83  1  0.31974000  0.00000000  0.68026000  1.0 -0.1066915785
C  C84  1  0.00000000  0.68026000  0.00000000  1.0 -0.1040129411
C  C85  1  0.00000000  0.00000000  0.74574000  1.0 -0.028162426
C  C86  1  0.00000000  0.00000000  0.25426000  1.0 -0.028162426
C  C87  1  0.00000000  0.25426000  0.00000000  1.0 -0.028162426
C  C88  1  0.74574000  0.00000000  0.25426000  1.0 -0.028162426
C  C89  1  0.74574000  0.25426000  0.00000000  1.0 -0.028162426
C  C90  1  0.00000000  0.74574000  0.25426000  1.0 -0.028162426
C  C91  1  0.25426000  0.00000000  0.00000000  1.0 -0.028162426
C  C92  1  0.74574000  0.00000000  0.00000000  1.0 -0.028162426
C  C93  1  0.00000000  0.25426000  0.74574000  1.0 -0.028162426
C  C94  1  0.25426000  0.74574000  0.00000000  1.0 -0.028162426
C  C95  1  0.25426000  0.00000000  0.74574000  1.0 -0.028162426
C  C96  1  0.00000000  0.74574000  0.00000000  1.0 -0.028162426
C  C97  1  0.96604000  0.96604000  0.81460000  1.0 -0.0910102833
C  C98  1  0.96604000  0.96604000  0.25332000  1.0 -0.0910102833
C  C99  1  0.03396000  0.18540000  0.03396000  1.0 -0.0910102833
C  C100  1  0.74668000  0.03396000  0.18540000  1.0 -0.0910102833
C  C101  1  0.81460000  0.25332000  0.96604000  1.0 -0.0910102833
C  C102  1  0.03396000  0.03396000  0.18540000  1.0 -0.0910102833
C  C103  1  0.81460000  0.96604000  0.25332000  1.0 -0.0910102833
C  C104  1  0.96604000  0.25332000  0.96604000  1.0 -0.0910102833
C  C105  1  0.74668000  0.18540000  0.03396000  1.0 -0.0910102833
C  C106  1  0.96604000  0.81460000  0.25332000  1.0 -0.0910102833
C  C107  1  0.18540000  0.03396000  0.03396000  1.0 -0.0910102833
C  C108  1  0.74668000  0.03396000  0.03396000  1.0 -0.0910102833
C  C109  1  0.96604000  0.25332000  0.81460000  1.0 -0.0910102833
C  C110  1  0.25332000  0.96604000  0.96604000  1.0 -0.0910102833
C  C111  1  0.03396000  0.74668000  0.18540000  1.0 -0.0910102833
C  C112  1  0.03396000  0.18540000  0.74668000  1.0 -0.0910102833
C  C113  1  0.81460000  0.96604000  0.96604000  1.0 -0.0910102833
C  C114  1  0.18540000  0.74668000  0.03396000  1.0 -0.0910102833
C  C115  1  0.25332000  0.96604000  0.81460000  1.0 -0.0910102833
C  C116  1  0.96604000  0.81460000  0.96604000  1.0 -0.0910102833
C  C117  1  0.03396000  0.03396000  0.74668000  1.0 -0.0910102833
C  C118  1  0.25332000  0.81460000  0.96604000  1.0 -0.0910102833
C  C119  1  0.03396000  0.74668000  0.03396000  1.0 -0.0910102833
C  C120  1  0.18540000  0.03396000  0.74668000  1.0 -0.0910102833
N  N1  1  0.97901000  0.97901000  0.85807000  1.0 -0.1962430584
N  N2  1  0.97901000  0.97901000  0.18391000  1.0 -0.1962430584
N  N3  1  0.02099000  0.14193000  0.02099000  1.0 -0.1962430584
N  N4  1  0.81609000  0.02099000  0.14193000  1.0 -0.1962430584
N  N5  1  0.85807000  0.18391000  0.97901000  1.0 -0.1962430584
N  N6  1  0.02099000  0.02099000  0.14193000  1.0 -0.1962430584
N  N7  1  0.85807000  0.97901000  0.18391000  1.0 -0.1962430584
N  N8  1  0.97901000  0.18391000  0.97901000  1.0 -0.1962430584
N  N9  1  0.81609000  0.14193000  0.02099000  1.0 -0.1962430584
N  N10  1  0.97901000  0.85807000  0.18391000  1.0 -0.1962430584
N  N11  1  0.14193000  0.02099000  0.02099000  1.0 -0.1962430584
N  N12  1  0.81609000  0.02099000  0.02099000  1.0 -0.1962430584
N  N13  1  0.97901000  0.18391000  0.85807000  1.0 -0.1962430584
N  N14  1  0.18391000  0.97901000  0.97901000  1.0 -0.1962430584
N  N15  1  0.02099000  0.81609000  0.14193000  1.0 -0.1962430584
N  N16  1  0.02099000  0.14193000  0.81609000  1.0 -0.1962430584
N  N17  1  0.85807000  0.97901000  0.97901000  1.0 -0.1962430584
N  N18  1  0.14193000  0.81609000  0.02099000  1.0 -0.1962430584
N  N19  1  0.18391000  0.97901000  0.85807000  1.0 -0.1962430584
N  N20  1  0.97901000  0.85807000  0.97901000  1.0 -0.1962430584
N  N21  1  0.02099000  0.02099000  0.81609000  1.0 -0.1962430584
N  N22  1  0.18391000  0.85807000  0.97901000  1.0 -0.1962430584
N  N23  1  0.02099000  0.81609000  0.02099000  1.0 -0.1962430584
N  N24  1  0.14193000  0.02099000  0.81609000  1.0 -0.1962430584
O  O1  1  0.95293000  0.04707000  0.04707000  1.0 -0.3608794375
O  O2  1  0.04707000  0.95293000  0.95293000  1.0 -0.3608794375
O  O3  1  0.95293000  0.04707000  0.95293000  1.0 -0.3608794375
O  O4  1  0.04707000  0.04707000  0.95293000  1.0 -0.3608794375
O  O5  1  0.95293000  0.95293000  0.04707000  1.0 -0.3608794375
O  O6  1  0.04707000  0.95293000  0.04707000  1.0 -0.3608794375
F  F1  1  0.85502000  0.96600000  0.66540000  1.0 -0.028162426
F  F2  1  0.96600000  0.85502000  0.51358000  1.0 -0.028162426
F  F3  1  0.14498000  0.33460000  0.03400000  1.0 -0.028162426
F  F4  1  0.48642000  0.03400000  0.33460000  1.0 -0.028162426
F  F5  1  0.66540000  0.51358000  0.85502000  1.0 -0.028162426
F  F6  1  0.03400000  0.14498000  0.33460000  1.0 -0.028162426
F  F7  1  0.66540000  0.96600000  0.51358000  1.0 -0.028162426
F  F8  1  0.85502000  0.51358000  0.96600000  1.0 -0.028162426
F  F9  1  0.48642000  0.33460000  0.14498000  1.0 -0.028162426
F  F10  1  0.85502000  0.66540000  0.51358000  1.0 -0.0242104755
F  F11  1  0.33460000  0.03400000  0.14498000  1.0 -0.028162426
F  F12  1  0.48642000  0.14498000  0.03400000  1.0 -0.028162426
F  F13  1  0.96600000  0.51358000  0.66540000  1.0 -0.028162426
F  F14  1  0.51358000  0.96600000  0.85502000  1.0 -0.028162426
F  F15  1  0.14498000  0.48642000  0.33460000  1.0 -0.028162426
F  F16  1  0.03400000  0.33460000  0.48642000  1.0 -0.0242104755
F  F17  1  0.66540000  0.85502000  0.96600000  1.0 -0.028162426
F  F18  1  0.33460000  0.48642000  0.03400000  1.0 -0.028162426
F  F19  1  0.51358000  0.85502000  0.66540000  1.0 -0.028162426
F  F20  1  0.96600000  0.66540000  0.85502000  1.0 -0.028162426
F  F21  1  0.14498000  0.03400000  0.48642000  1.0 -0.028162426
F  F22  1  0.51358000  0.66540000  0.96600000  1.0 -0.028162426
F  F23  1  0.03400000  0.48642000  0.14498000  1.0 -0.028162426
F  F24  1  0.33460000  0.14498000  0.48642000  1.0 -0.028162426
F  F25  1  0.14498000  0.03400000  0.33460000  1.0 -0.028162426
F  F26  1  0.03400000  0.14498000  0.48642000  1.0 -0.028162426
F  F27  1  0.85502000  0.66540000  0.96600000  1.0 -0.028162426
F  F28  1  0.51358000  0.96600000  0.66540000  1.0 -0.028162426
F  F29  1  0.33460000  0.48642000  0.14498000  1.0 -0.028162426
F  F30  1  0.96600000  0.85502000  0.66540000  1.0 -0.028162426
F  F31  1  0.33460000  0.03400000  0.48642000  1.0 -0.028162426
F  F32  1  0.14498000  0.48642000  0.03400000  1.0 -0.028162426
F  F33  1  0.51358000  0.66540000  0.85502000  1.0 -0.028162426
F  F34  1  0.14498000  0.33460000  0.48642000  1.0 -0.028162426
F  F35  1  0.66540000  0.96600000  0.85502000  1.0 -0.028162426
F  F36  1  0.51358000  0.85502000  0.96600000  1.0 -0.028162426
F  F37  1  0.03400000  0.48642000  0.33460000  1.0 -0.028162426
F  F38  1  0.48642000  0.03400000  0.14498000  1.0 -0.028162426
F  F39  1  0.85502000  0.51358000  0.66540000  1.0 -0.028162426
F  F40  1  0.96600000  0.66540000  0.51358000  1.0 -0.0242104755
F  F41  1  0.33460000  0.14498000  0.03400000  1.0 -0.028162426
F  F42  1  0.66540000  0.51358000  0.96600000  1.0 -0.028162426
F  F43  1  0.48642000  0.14498000  0.33460000  1.0 -0.028162426
F  F44  1  0.03400000  0.33460000  0.14498000  1.0 -0.028162426
F  F45  1  0.85502000  0.96600000  0.51358000  1.0 -0.028162426
F  F46  1  0.48642000  0.33460000  0.03400000  1.0 -0.028162426
F  F47  1  0.96600000  0.51358000  0.85502000  1.0 -0.028162426
F  F48  1  0.66540000  0.85502000  0.51358000  1.0 -0.028162426
F  F49  1  0.91783000  0.86659000  0.63889000  1.0 0.1007087186
F  F50  1  0.86659000  0.91783000  0.57669000  1.0 0.1085433847
F  F51  1  0.08217000  0.36111000  0.13341000  1.0 0.1007087186
F  F52  1  0.42331000  0.13341000  0.36111000  1.0 0.1007087186
F  F53  1  0.63889000  0.57669000  0.91783000  1.0 0.1085433847
F  F54  1  0.13341000  0.08217000  0.36111000  1.0 0.1085433847
F  F55  1  0.63889000  0.86659000  0.57669000  1.0 0.1007087186
F  F56  1  0.91783000  0.57669000  0.86659000  1.0 0.1007087186
F  F57  1  0.42331000  0.36111000  0.08217000  1.0 0.1007087186
F  F58  1  0.91783000  0.63889000  0.57669000  1.0 0.1085433847
F  F59  1  0.36111000  0.13341000  0.08217000  1.0 0.1007087186
F  F60  1  0.42331000  0.08217000  0.13341000  1.0 0.1007087186
F  F61  1  0.86659000  0.57669000  0.63889000  1.0 0.1007087186
F  F62  1  0.57669000  0.86659000  0.91783000  1.0 0.1007087186
F  F63  1  0.08217000  0.42331000  0.36111000  1.0 0.1085433847
F  F64  1  0.13341000  0.36111000  0.42331000  1.0 0.1007087186
F  F65  1  0.63889000  0.91783000  0.86659000  1.0 0.1007087186
F  F66  1  0.36111000  0.42331000  0.13341000  1.0 0.1007087186
F  F67  1  0.57669000  0.91783000  0.63889000  1.0 0.1007087186
F  F68  1  0.86659000  0.63889000  0.91783000  1.0 0.1085433847
F  F69  1  0.08217000  0.13341000  0.42331000  1.0 0.1007087186
F  F70  1  0.57669000  0.63889000  0.86659000  1.0 0.1007087186
F  F71  1  0.13341000  0.42331000  0.08217000  1.0 0.1007087186
F  F72  1  0.36111000  0.08217000  0.42331000  1.0 0.1007087186
F  F73  1  0.08217000  0.13341000  0.36111000  1.0 0.1085433847
F  F74  1  0.13341000  0.08217000  0.42331000  1.0 0.1007087186
F  F75  1  0.91783000  0.63889000  0.86659000  1.0 0.1007087186
F  F76  1  0.57669000  0.86659000  0.63889000  1.0 0.1007087186
F  F77  1  0.36111000  0.42331000  0.08217000  1.0 0.1007087186
F  F78  1  0.86659000  0.91783000  0.63889000  1.0 0.1007087186
F  F79  1  0.36111000  0.13341000  0.42331000  1.0 0.1007087186
F  F80  1  0.08217000  0.42331000  0.13341000  1.0 0.1007087186
F  F81  1  0.57669000  0.63889000  0.91783000  1.0 0.1007087186
F  F82  1  0.08217000  0.36111000  0.42331000  1.0 0.1007087186
F  F83  1  0.63889000  0.86659000  0.91783000  1.0 0.1007087186
F  F84  1  0.57669000  0.91783000  0.86659000  1.0 0.1007087186
F  F85  1  0.13341000  0.42331000  0.36111000  1.0 0.1085433847
F  F86  1  0.42331000  0.13341000  0.08217000  1.0 0.1007087186
F  F87  1  0.91783000  0.57669000  0.63889000  1.0 0.1007087186
F  F88  1  0.86659000  0.63889000  0.57669000  1.0 0.1085433847
F  F89  1  0.36111000  0.08217000  0.13341000  1.0 0.1007087186
F  F90  1  0.63889000  0.57669000  0.86659000  1.0 0.1007087186
F  F91  1  0.42331000  0.08217000  0.36111000  1.0 0.1007087186
F  F92  1  0.13341000  0.36111000  0.08217000  1.0 0.1007087186
F  F93  1  0.91783000  0.86659000  0.57669000  1.0 0.1007087186
F  F94  1  0.42331000  0.36111000  0.13341000  1.0 0.1085433847
F  F95  1  0.86659000  0.57669000  0.91783000  1.0 0.1085433847
F  F96  1  0.63889000  0.91783000  0.57669000  1.0 0.1007087186
F  F97  1  0.95607000  0.89633000  0.68813000  1.0 0.0030953709
F  F98  1  0.89633000  0.95607000  0.45947000  1.0 0.0030953709
F  F99  1  0.04393000  0.31187000  0.10367000  1.0 0.0030953709
F  F100  1  0.54053000  0.10367000  0.31187000  1.0 0.0030953709
F  F101  1  0.68813000  0.45947000  0.95607000  1.0 0.0030953709
F  F102  1  0.10367000  0.04393000  0.31187000  1.0 0.0030953709
F  F103  1  0.68813000  0.89633000  0.45947000  1.0 0.0030953709
F  F104  1  0.95607000  0.45947000  0.89633000  1.0 0.0030953709
F  F105  1  0.54053000  0.31187000  0.04393000  1.0 0.0030953709
F  F106  1  0.95607000  0.68813000  0.45947000  1.0 0.0030953709
F  F107  1  0.31187000  0.10367000  0.04393000  1.0 0.0030953709
F  F108  1  0.54053000  0.04393000  0.10367000  1.0 0.0030953709
F  F109  1  0.89633000  0.45947000  0.68813000  1.0 0.0030953709
F  F110  1  0.45947000  0.89633000  0.95607000  1.0 0.0030953709
F  F111  1  0.04393000  0.54053000  0.31187000  1.0 0.0030953709
F  F112  1  0.10367000  0.31187000  0.54053000  1.0 0.0030953709
F  F113  1  0.68813000  0.95607000  0.89633000  1.0 0.0030953709
F  F114  1  0.31187000  0.54053000  0.10367000  1.0 0.0030953709
F  F115  1  0.45947000  0.95607000  0.68813000  1.0 0.0030953709
F  F116  1  0.89633000  0.68813000  0.95607000  1.0 0.0030953709
F  F117  1  0.04393000  0.10367000  0.54053000  1.0 0.0059473476
F  F118  1  0.45947000  0.68813000  0.89633000  1.0 0.0030953709
F  F119  1  0.10367000  0.54053000  0.04393000  1.0 0.0030953709
F  F120  1  0.31187000  0.04393000  0.54053000  1.0 0.0030953709
F  F121  1  0.04393000  0.10367000  0.31187000  1.0 0.0030953709
F  F122  1  0.10367000  0.04393000  0.54053000  1.0 0.0059473476
F  F123  1  0.95607000  0.68813000  0.89633000  1.0 0.0030953709
F  F124  1  0.45947000  0.89633000  0.68813000  1.0 0.0030953709
F  F125  1  0.31187000  0.54053000  0.04393000  1.0 0.0030953709
F  F126  1  0.89633000  0.95607000  0.68813000  1.0 0.0030953709
F  F127  1  0.31187000  0.10367000  0.54053000  1.0 0.0030953709
F  F128  1  0.04393000  0.54053000  0.10367000  1.0 0.0030953709
F  F129  1  0.45947000  0.68813000  0.95607000  1.0 0.0030953709
F  F130  1  0.04393000  0.31187000  0.54053000  1.0 0.0030953709
F  F131  1  0.68813000  0.89633000  0.95607000  1.0 0.0030953709
F  F132  1  0.45947000  0.95607000  0.89633000  1.0 0.0030953709
F  F133  1  0.10367000  0.54053000  0.31187000  1.0 0.0030953709
F  F134  1  0.54053000  0.10367000  0.04393000  1.0 0.0030953709
F  F135  1  0.95607000  0.45947000  0.68813000  1.0 0.0030953709
F  F136  1  0.89633000  0.68813000  0.45947000  1.0 0.0030953709
F  F137  1  0.31187000  0.04393000  0.10367000  1.0 0.0030953709
F  F138  1  0.68813000  0.45947000  0.89633000  1.0 0.0030953709
F  F139  1  0.54053000  0.04393000  0.31187000  1.0 0.0030953709
F  F140  1  0.10367000  0.31187000  0.04393000  1.0 0.0030953709
F  F141  1  0.95607000  0.89633000  0.45947000  1.0 0.0030953709
F  F142  1  0.54053000  0.31187000  0.10367000  1.0 0.0030953709
F  F143  1  0.89633000  0.45947000  0.95607000  1.0 0.0030953709
F  F144  1  0.68813000  0.95607000  0.45947000  1.0 0.0030953709
