# DDEC6 charges by PACMAN v1.1 (https://github.com/mtap-research/PACMAN-charge/)
data_BIBYAO_ASR_pacman
_symmetry_space_group_name_H-M   'P 1'
_cell_length_a   16.39450000
_cell_length_b   16.39450000
_cell_length_c   16.39450000
_cell_angle_alpha   60.00000000
_cell_angle_beta   60.00000000
_cell_angle_gamma   60.00000000
_symmetry_Int_Tables_number   1
_chemical_formula_structural   Ni4H39C60(N4O5)3
_chemical_formula_sum   'Ni8 H78 C120 N24 O30'
_cell_volume   3115.87143935
_cell_formula_units_Z   2
loop_
 _symmetry_equiv_pos_site_id
 _symmetry_equiv_pos_as_xyz
  1  'x, y, z'
loop_
 _atom_site_type_symbol
 _atom_site_label
 _atom_site_symmetry_multiplicity
 _atom_site_fract_x
 _atom_site_fract_y
 _atom_site_fract_z
 _atom_site_occupancy
 _atom_site_charge
Ni  Ni1  1  0.06388000  0.06388000  0.06388000  1.0 0.3895318534
Ni  Ni2  1  0.06388000  0.80836000  0.06388000  1.0 0.3895318534
Ni  Ni3  1  0.06388000  0.06388000  0.80836000  1.0 0.3895318534
Ni  Ni4  1  0.80836000  0.06388000  0.06388000  1.0 0.3895318534
Ni  Ni5  1  0.19164000  0.93612000  0.93612000  1.0 0.3895318534
Ni  Ni6  1  0.93612000  0.19164000  0.93612000  1.0 0.3895318534
Ni  Ni7  1  0.93612000  0.93612000  0.19164000  1.0 0.3895318534
Ni  Ni8  1  0.93612000  0.93612000  0.93612000  1.0 0.3895318534
H  H1  1  0.87000000  0.13000000  0.13000000  1.0 0.3783664804
H  H2  1  0.13000000  0.87000000  0.87000000  1.0 0.3783664804
H  H3  1  0.13000000  0.87000000  0.13000000  1.0 0.3783664804
H  H4  1  0.87000000  0.13000000  0.87000000  1.0 0.3783664804
H  H5  1  0.87000000  0.87000000  0.13000000  1.0 0.3783664804
H  H6  1  0.13000000  0.13000000  0.87000000  1.0 0.3783664804
H  H7  1  0.91260000  0.91260000  0.60822000  1.0 0.1091617024
H  H8  1  0.60822000  0.56658000  0.91260000  1.0 0.1091617024
H  H9  1  0.91260000  0.91260000  0.56658000  1.0 0.1091617024
H  H10  1  0.56658000  0.60822000  0.91260000  1.0 0.1091617024
H  H11  1  0.43342000  0.39178000  0.08740000  1.0 0.1091617024
H  H12  1  0.39178000  0.43342000  0.08740000  1.0 0.1091617024
H  H13  1  0.08740000  0.39178000  0.43342000  1.0 0.1091617024
H  H14  1  0.43342000  0.08740000  0.08740000  1.0 0.1091617024
H  H15  1  0.08740000  0.08740000  0.43342000  1.0 0.1091617024
H  H16  1  0.08740000  0.08740000  0.39178000  1.0 0.1091617024
H  H17  1  0.60822000  0.91260000  0.91260000  1.0 0.1091617024
H  H18  1  0.91260000  0.60822000  0.91260000  1.0 0.1091617024
H  H19  1  0.39178000  0.08740000  0.08740000  1.0 0.1091617024
H  H20  1  0.08740000  0.39178000  0.08740000  1.0 0.1091617024
H  H21  1  0.91260000  0.60822000  0.56658000  1.0 0.1091617024
H  H22  1  0.56658000  0.91260000  0.91260000  1.0 0.1091617024
H  H23  1  0.91260000  0.56658000  0.60822000  1.0 0.1091617024
H  H24  1  0.56658000  0.91260000  0.60822000  1.0 0.1091617024
H  H25  1  0.91260000  0.56658000  0.91260000  1.0 0.1091617024
H  H26  1  0.60822000  0.91260000  0.56658000  1.0 0.1091617024
H  H27  1  0.43342000  0.08740000  0.39178000  1.0 0.1091617024
H  H28  1  0.08740000  0.43342000  0.08740000  1.0 0.1091617024
H  H29  1  0.39178000  0.08740000  0.43342000  1.0 0.1091617024
H  H30  1  0.08740000  0.43342000  0.39178000  1.0 0.1091617024
H  H31  1  0.91260000  0.91260000  0.46548000  1.0 0.0789767927
H  H32  1  0.46548000  0.70932000  0.91260000  1.0 0.0789767927
H  H33  1  0.91260000  0.91260000  0.70932000  1.0 0.0789767927
H  H34  1  0.70932000  0.46548000  0.91260000  1.0 0.0789767927
H  H35  1  0.29068000  0.53452000  0.08740000  1.0 0.0789767927
H  H36  1  0.53452000  0.29068000  0.08740000  1.0 0.0789767927
H  H37  1  0.08740000  0.53452000  0.29068000  1.0 0.0789767927
H  H38  1  0.29068000  0.08740000  0.08740000  1.0 0.0789767927
H  H39  1  0.08740000  0.08740000  0.29068000  1.0 0.0789767927
H  H40  1  0.08740000  0.08740000  0.53452000  1.0 0.0789767927
H  H41  1  0.46548000  0.91260000  0.91260000  1.0 0.0789767927
H  H42  1  0.91260000  0.46548000  0.91260000  1.0 0.0789767927
H  H43  1  0.53452000  0.08740000  0.08740000  1.0 0.0789767927
H  H44  1  0.08740000  0.53452000  0.08740000  1.0 0.0789767927
H  H45  1  0.91260000  0.46548000  0.70932000  1.0 0.0789767927
H  H46  1  0.70932000  0.91260000  0.91260000  1.0 0.0789767927
H  H47  1  0.91260000  0.70932000  0.46548000  1.0 0.0789767927
H  H48  1  0.70932000  0.91260000  0.46548000  1.0 0.0789767927
H  H49  1  0.91260000  0.70932000  0.91260000  1.0 0.0789767927
H  H50  1  0.46548000  0.91260000  0.70932000  1.0 0.0789767927
H  H51  1  0.29068000  0.08740000  0.53452000  1.0 0.0789767927
H  H52  1  0.08740000  0.29068000  0.08740000  1.0 0.0789767927
H  H53  1  0.53452000  0.08740000  0.29068000  1.0 0.0789767927
H  H54  1  0.08740000  0.29068000  0.53452000  1.0 0.0789767927
H  H55  1  0.91358000  0.91358000  0.73996000  1.0 0.0789767927
H  H56  1  0.73996000  0.43288000  0.91358000  1.0 0.0789767927
H  H57  1  0.91358000  0.91358000  0.43288000  1.0 0.0789767927
H  H58  1  0.43288000  0.73996000  0.91358000  1.0 0.0789767927
H  H59  1  0.56712000  0.26004000  0.08642000  1.0 0.0789767927
H  H60  1  0.26004000  0.56712000  0.08642000  1.0 0.0789767927
H  H61  1  0.08642000  0.26004000  0.56712000  1.0 0.0789767927
H  H62  1  0.56712000  0.08642000  0.08642000  1.0 0.0789767927
H  H63  1  0.08642000  0.08642000  0.56712000  1.0 0.0789767927
H  H64  1  0.08642000  0.08642000  0.26004000  1.0 0.0789767927
H  H65  1  0.73996000  0.91358000  0.91358000  1.0 0.0789767927
H  H66  1  0.91358000  0.73996000  0.91358000  1.0 0.0789767927
H  H67  1  0.26004000  0.08642000  0.08642000  1.0 0.0789767927
H  H68  1  0.08642000  0.26004000  0.08642000  1.0 0.0789767927
H  H69  1  0.91358000  0.73996000  0.43288000  1.0 0.0789767927
H  H70  1  0.43288000  0.91358000  0.91358000  1.0 0.0789767927
H  H71  1  0.91358000  0.43288000  0.73996000  1.0 0.0789767927
H  H72  1  0.43288000  0.91358000  0.73996000  1.0 0.0789767927
H  H73  1  0.91358000  0.43288000  0.91358000  1.0 0.0789767927
H  H74  1  0.73996000  0.91358000  0.43288000  1.0 0.0789767927
H  H75  1  0.56712000  0.08642000  0.26004000  1.0 0.0789767927
H  H76  1  0.08642000  0.56712000  0.08642000  1.0 0.0789767927
H  H77  1  0.26004000  0.08642000  0.56712000  1.0 0.0789767927
H  H78  1  0.08642000  0.56712000  0.26004000  1.0 0.0789767927
C  C1  1  0.00000000  0.00000000  0.53424000  1.0 0.1091617024
C  C2  1  0.53424000  0.46576000  0.00000000  1.0 0.1091617024
C  C3  1  0.00000000  0.00000000  0.46576000  1.0 0.1091617024
C  C4  1  0.46576000  0.53424000  0.00000000  1.0 0.1091617024
C  C5  1  0.00000000  0.46576000  0.53424000  1.0 0.1091617024
C  C6  1  0.53424000  0.00000000  0.00000000  1.0 0.1091617024
C  C7  1  0.00000000  0.53424000  0.00000000  1.0 0.1091617024
C  C8  1  0.46576000  0.00000000  0.00000000  1.0 0.1091617024
C  C9  1  0.00000000  0.46576000  0.00000000  1.0 0.1091617024
C  C10  1  0.00000000  0.53424000  0.46576000  1.0 0.1091617024
C  C11  1  0.46576000  0.00000000  0.53424000  1.0 0.1091617024
C  C12  1  0.53424000  0.00000000  0.46576000  1.0 0.1091617024
C  C13  1  0.94808000  0.94808000  0.54376000  1.0 -0.213712366
C  C14  1  0.54376000  0.56008000  0.94808000  1.0 -0.2150318671
C  C15  1  0.94808000  0.94808000  0.56008000  1.0 -0.213712366
C  C16  1  0.56008000  0.54376000  0.94808000  1.0 -0.2150318671
C  C17  1  0.43992000  0.45624000  0.05192000  1.0 -0.213712366
C  C18  1  0.45624000  0.43992000  0.05192000  1.0 -0.213712366
C  C19  1  0.05192000  0.45624000  0.43992000  1.0 -0.213712366
C  C20  1  0.43992000  0.05192000  0.05192000  1.0 -0.213712366
C  C21  1  0.05192000  0.05192000  0.43992000  1.0 -0.213712366
C  C22  1  0.05192000  0.05192000  0.45624000  1.0 -0.213712366
C  C23  1  0.54376000  0.94808000  0.94808000  1.0 -0.2150318671
C  C24  1  0.94808000  0.54376000  0.94808000  1.0 -0.2150318671
C  C25  1  0.45624000  0.05192000  0.05192000  1.0 -0.213712366
C  C26  1  0.05192000  0.45624000  0.05192000  1.0 -0.213712366
C  C27  1  0.94808000  0.54376000  0.56008000  1.0 -0.213712366
C  C28  1  0.56008000  0.94808000  0.94808000  1.0 -0.2150318671
C  C29  1  0.94808000  0.56008000  0.54376000  1.0 -0.213712366
C  C30  1  0.56008000  0.94808000  0.54376000  1.0 -0.213712366
C  C31  1  0.94808000  0.56008000  0.94808000  1.0 -0.2150318671
C  C32  1  0.54376000  0.94808000  0.56008000  1.0 -0.213712366
C  C33  1  0.43992000  0.05192000  0.45624000  1.0 -0.213712366
C  C34  1  0.05192000  0.43992000  0.05192000  1.0 -0.213712366
C  C35  1  0.45624000  0.05192000  0.43992000  1.0 -0.213712366
C  C36  1  0.05192000  0.43992000  0.45624000  1.0 -0.213712366
C  C37  1  0.94808000  0.94808000  0.45898000  1.0 -0.0221566565
C  C38  1  0.45898000  0.64486000  0.94808000  1.0 -0.0221566565
C  C39  1  0.94808000  0.94808000  0.64486000  1.0 -0.0221566565
C  C40  1  0.64486000  0.45898000  0.94808000  1.0 -0.0221566565
C  C41  1  0.35514000  0.54102000  0.05192000  1.0 -0.0221566565
C  C42  1  0.54102000  0.35514000  0.05192000  1.0 -0.0221566565
C  C43  1  0.05192000  0.54102000  0.35514000  1.0 -0.0221566565
C  C44  1  0.35514000  0.05192000  0.05192000  1.0 -0.0221566565
C  C45  1  0.05192000  0.05192000  0.35514000  1.0 -0.0221566565
C  C46  1  0.05192000  0.05192000  0.54102000  1.0 -0.0221566565
C  C47  1  0.45898000  0.94808000  0.94808000  1.0 -0.0221566565
C  C48  1  0.94808000  0.45898000  0.94808000  1.0 -0.0221566565
C  C49  1  0.54102000  0.05192000  0.05192000  1.0 -0.0221566565
C  C50  1  0.05192000  0.54102000  0.05192000  1.0 -0.0221566565
C  C51  1  0.94808000  0.45898000  0.64486000  1.0 -0.0221566565
C  C52  1  0.64486000  0.94808000  0.94808000  1.0 -0.0221566565
C  C53  1  0.94808000  0.64486000  0.45898000  1.0 -0.0221566565
C  C54  1  0.64486000  0.94808000  0.45898000  1.0 -0.0221566565
C  C55  1  0.94808000  0.64486000  0.94808000  1.0 -0.0221566565
C  C56  1  0.45898000  0.94808000  0.64486000  1.0 -0.0221566565
C  C57  1  0.35514000  0.05192000  0.54102000  1.0 -0.0221566565
C  C58  1  0.05192000  0.35514000  0.05192000  1.0 -0.0221566565
C  C59  1  0.54102000  0.05192000  0.35514000  1.0 -0.0221566565
C  C60  1  0.05192000  0.35514000  0.54102000  1.0 -0.0221566565
C  C61  1  0.00000000  0.00000000  0.36468000  1.0 -0.070880372
C  C62  1  0.36468000  0.63532000  0.00000000  1.0 -0.070880372
C  C63  1  0.00000000  0.00000000  0.63532000  1.0 -0.070880372
C  C64  1  0.63532000  0.36468000  0.00000000  1.0 -0.070880372
C  C65  1  0.00000000  0.63532000  0.36468000  1.0 -0.070880372
C  C66  1  0.36468000  0.00000000  0.00000000  1.0 -0.070880372
C  C67  1  0.00000000  0.36468000  0.00000000  1.0 -0.070880372
C  C68  1  0.63532000  0.00000000  0.00000000  1.0 -0.070880372
C  C69  1  0.00000000  0.63532000  0.00000000  1.0 -0.070880372
C  C70  1  0.00000000  0.36468000  0.63532000  1.0 -0.070880372
C  C71  1  0.63532000  0.00000000  0.36468000  1.0 -0.070880372
C  C72  1  0.36468000  0.00000000  0.63532000  1.0 -0.070880372
C  C73  1  0.00000000  0.00000000  0.27622000  1.0 0.2868887485
C  C74  1  0.27622000  0.72378000  0.00000000  1.0 0.2868887485
C  C75  1  0.00000000  0.00000000  0.72378000  1.0 0.2868887485
C  C76  1  0.72378000  0.27622000  0.00000000  1.0 0.2868887485
C  C77  1  0.00000000  0.72378000  0.27622000  1.0 0.2868887485
C  C78  1  0.27622000  0.00000000  0.00000000  1.0 0.2868887485
C  C79  1  0.00000000  0.27622000  0.00000000  1.0 0.2868887485
C  C80  1  0.72378000  0.00000000  0.00000000  1.0 0.2868887485
C  C81  1  0.00000000  0.72378000  0.00000000  1.0 0.2868887485
C  C82  1  0.00000000  0.27622000  0.72378000  1.0 0.2868887485
C  C83  1  0.72378000  0.00000000  0.27622000  1.0 0.2868887485
C  C84  1  0.27622000  0.00000000  0.72378000  1.0 0.2868887485
C  C85  1  0.00000000  0.00000000  0.62268000  1.0 -0.1332556567
C  C86  1  0.62268000  0.37732000  0.00000000  1.0 -0.1332556567
C  C87  1  0.00000000  0.00000000  0.37732000  1.0 -0.1332556567
C  C88  1  0.37732000  0.62268000  0.00000000  1.0 -0.1332556567
C  C89  1  0.00000000  0.37732000  0.62268000  1.0 -0.1332556567
C  C90  1  0.62268000  0.00000000  0.00000000  1.0 -0.1332556567
C  C91  1  0.00000000  0.62268000  0.00000000  1.0 -0.1332556567
C  C92  1  0.37732000  0.00000000  0.00000000  1.0 -0.1332556567
C  C93  1  0.00000000  0.37732000  0.00000000  1.0 -0.1332556567
C  C94  1  0.00000000  0.62268000  0.37732000  1.0 -0.1332556567
C  C95  1  0.37732000  0.00000000  0.62268000  1.0 -0.1332556567
C  C96  1  0.62268000  0.00000000  0.37732000  1.0 -0.1332556567
C  C97  1  0.95254000  0.95254000  0.71890000  1.0 -0.0060662503
C  C98  1  0.71890000  0.37602000  0.95254000  1.0 -0.0060662503
C  C99  1  0.95254000  0.95254000  0.37602000  1.0 -0.0060662503
C  C100  1  0.37602000  0.71890000  0.95254000  1.0 -0.0060662503
C  C101  1  0.62398000  0.28110000  0.04746000  1.0 -0.0060662503
C  C102  1  0.28110000  0.62398000  0.04746000  1.0 -0.0060662503
C  C103  1  0.04746000  0.28110000  0.62398000  1.0 -0.0060662503
C  C104  1  0.62398000  0.04746000  0.04746000  1.0 -0.0060662503
C  C105  1  0.04746000  0.04746000  0.62398000  1.0 -0.0060662503
C  C106  1  0.04746000  0.04746000  0.28110000  1.0 -0.0060662503
C  C107  1  0.71890000  0.95254000  0.95254000  1.0 -0.0060662503
C  C108  1  0.95254000  0.71890000  0.95254000  1.0 -0.0060662503
C  C109  1  0.28110000  0.04746000  0.04746000  1.0 -0.0060662503
C  C110  1  0.04746000  0.28110000  0.04746000  1.0 -0.0060662503
C  C111  1  0.95254000  0.71890000  0.37602000  1.0 -0.0060662503
C  C112  1  0.37602000  0.95254000  0.95254000  1.0 -0.0060662503
C  C113  1  0.95254000  0.37602000  0.71890000  1.0 -0.0044315396
C  C114  1  0.37602000  0.95254000  0.71890000  1.0 -0.0060662503
C  C115  1  0.95254000  0.37602000  0.95254000  1.0 -0.0060662503
C  C116  1  0.71890000  0.95254000  0.37602000  1.0 -0.0060662503
C  C117  1  0.62398000  0.04746000  0.28110000  1.0 -0.0060662503
C  C118  1  0.04746000  0.62398000  0.04746000  1.0 -0.0060662503
C  C119  1  0.28110000  0.04746000  0.62398000  1.0 -0.0060662503
C  C120  1  0.04746000  0.62398000  0.28110000  1.0 -0.0060662503
N  N1  1  0.97067000  0.97067000  0.77967000  1.0 -0.048333109
N  N2  1  0.77967000  0.27899000  0.97067000  1.0 -0.048333109
N  N3  1  0.97067000  0.97067000  0.27899000  1.0 -0.048333109
N  N4  1  0.27899000  0.77967000  0.97067000  1.0 -0.048333109
N  N5  1  0.72101000  0.22033000  0.02933000  1.0 -0.048333109
N  N6  1  0.22033000  0.72101000  0.02933000  1.0 -0.048333109
N  N7  1  0.02933000  0.22033000  0.72101000  1.0 -0.048333109
N  N8  1  0.72101000  0.02933000  0.02933000  1.0 -0.048333109
N  N9  1  0.02933000  0.02933000  0.72101000  1.0 -0.048333109
N  N10  1  0.02933000  0.02933000  0.22033000  1.0 -0.048333109
N  N11  1  0.77967000  0.97067000  0.97067000  1.0 -0.048333109
N  N12  1  0.97067000  0.77967000  0.97067000  1.0 -0.048333109
N  N13  1  0.22033000  0.02933000  0.02933000  1.0 -0.048333109
N  N14  1  0.02933000  0.22033000  0.02933000  1.0 -0.048333109
N  N15  1  0.97067000  0.77967000  0.27899000  1.0 -0.048333109
N  N16  1  0.27899000  0.97067000  0.97067000  1.0 -0.048333109
N  N17  1  0.97067000  0.27899000  0.77967000  1.0 -0.048333109
N  N18  1  0.27899000  0.97067000  0.77967000  1.0 -0.048333109
N  N19  1  0.97067000  0.27899000  0.97067000  1.0 -0.048333109
N  N20  1  0.77967000  0.97067000  0.27899000  1.0 -0.048333109
N  N21  1  0.72101000  0.02933000  0.22033000  1.0 -0.048333109
N  N22  1  0.02933000  0.72101000  0.02933000  1.0 -0.048333109
N  N23  1  0.22033000  0.02933000  0.72101000  1.0 -0.048333109
N  N24  1  0.02933000  0.72101000  0.22033000  1.0 -0.048333109
O  O1  1  0.90710000  0.09290000  0.09290000  1.0 -0.4594548046
O  O2  1  0.09290000  0.90710000  0.90710000  1.0 -0.4594548046
O  O3  1  0.09290000  0.90710000  0.09290000  1.0 -0.4594548046
O  O4  1  0.90710000  0.09290000  0.90710000  1.0 -0.4594548046
O  O5  1  0.90710000  0.90710000  0.09290000  1.0 -0.4594548046
O  O6  1  0.09290000  0.09290000  0.90710000  1.0 -0.4594548046
O  O7  1  0.95331000  0.95331000  0.28479000  1.0 -0.1821142248
O  O8  1  0.28479000  0.80859000  0.95331000  1.0 -0.1821142248
O  O9  1  0.95331000  0.95331000  0.80859000  1.0 -0.1821142248
O  O10  1  0.80859000  0.28479000  0.95331000  1.0 -0.1821142248
O  O11  1  0.19141000  0.71521000  0.04669000  1.0 -0.1821142248
O  O12  1  0.71521000  0.19141000  0.04669000  1.0 -0.1821142248
O  O13  1  0.04669000  0.71521000  0.19141000  1.0 -0.1821142248
O  O14  1  0.19141000  0.04669000  0.04669000  1.0 -0.1821142248
O  O15  1  0.04669000  0.04669000  0.19141000  1.0 -0.1821142248
O  O16  1  0.04669000  0.04669000  0.71521000  1.0 -0.1821142248
O  O17  1  0.28479000  0.95331000  0.95331000  1.0 -0.1821142248
O  O18  1  0.95331000  0.28479000  0.95331000  1.0 -0.1821142248
O  O19  1  0.71521000  0.04669000  0.04669000  1.0 -0.1821142248
O  O20  1  0.04669000  0.71521000  0.04669000  1.0 -0.1821142248
O  O21  1  0.95331000  0.28479000  0.80859000  1.0 -0.1821142248
O  O22  1  0.80859000  0.95331000  0.95331000  1.0 -0.1821142248
O  O23  1  0.95331000  0.80859000  0.28479000  1.0 -0.1821142248
O  O24  1  0.80859000  0.95331000  0.28479000  1.0 -0.1821142248
O  O25  1  0.95331000  0.80859000  0.95331000  1.0 -0.1821142248
O  O26  1  0.28479000  0.95331000  0.80859000  1.0 -0.1821142248
O  O27  1  0.19141000  0.04669000  0.71521000  1.0 -0.1821142248
O  O28  1  0.04669000  0.19141000  0.04669000  1.0 -0.1821142248
O  O29  1  0.71521000  0.04669000  0.19141000  1.0 -0.1821142248
O  O30  1  0.04669000  0.19141000  0.71521000  1.0 -0.1821142248
