# DDEC6 charges by PACMAN v1.1 (https://github.com/mtap-research/PACMAN-charge/)
data_BICHEB01_ASR_pacman
_symmetry_space_group_name_H-M   'P 1'
_cell_length_a   11.71260000
_cell_length_b   11.71260000
_cell_length_c   8.31980000
_cell_angle_alpha   69.53240000
_cell_angle_beta   110.46800000
_cell_angle_gamma   120.54300000
_symmetry_Int_Tables_number   1
_chemical_formula_structural   CdH12C20(NO2)2
_chemical_formula_sum   'Cd2 H24 C40 N4 O8'
_cell_volume   899.76823032
_cell_formula_units_Z   2
loop_
 _symmetry_equiv_pos_site_id
 _symmetry_equiv_pos_as_xyz
  1  'x, y, z'
loop_
 _atom_site_type_symbol
 _atom_site_label
 _atom_site_symmetry_multiplicity
 _atom_site_fract_x
 _atom_site_fract_y
 _atom_site_fract_z
 _atom_site_occupancy
 _atom_site_charge
Cd  Cd1  1  0.00000000  0.50000000  0.00000000  1.0 0.7846661437
Cd  Cd2  1  0.50000000  0.00000000  0.50000000  1.0 0.7846661437
H  H1  1  0.12700000  0.30020000  0.29070000  1.0 0.1286154058
H  H2  1  0.31510000  0.30090000  0.50610000  1.0 0.1132946577
H  H3  1  0.52740000  0.68960000  0.27430000  1.0 0.0863229515
H  H4  1  0.32800000  0.67380000  0.06570000  1.0 0.0807969872
H  H5  1  0.48710000  0.70430000  0.39110000  1.0 0.0863229515
H  H6  1  0.28810000  0.69250000  0.18790000  1.0 0.0807969872
H  H7  1  0.87300000  0.69980000  0.70930000  1.0 0.1286154058
H  H8  1  0.68490000  0.69910000  0.49390000  1.0 0.1132946577
H  H9  1  0.47260000  0.31040000  0.72570000  1.0 0.0863229515
H  H10  1  0.67200000  0.32620000  0.93430000  1.0 0.0807969872
H  H11  1  0.51290000  0.29570000  0.60890000  1.0 0.0863229515
H  H12  1  0.71190000  0.30750000  0.81210000  1.0 0.0807969872
H  H13  1  0.30020000  0.12700000  0.20930000  1.0 0.1286154058
H  H14  1  0.30090000  0.31510000  0.99390000  1.0 0.1132946577
H  H15  1  0.68960000  0.52740000  0.22570000  1.0 0.0863229515
H  H16  1  0.67380000  0.32800000  0.43430000  1.0 0.0807969872
H  H17  1  0.70430000  0.48710000  0.10890000  1.0 0.0863229515
H  H18  1  0.69250000  0.28810000  0.31210000  1.0 0.0807969872
H  H19  1  0.69980000  0.87300000  0.79070000  1.0 0.1286154058
H  H20  1  0.69910000  0.68490000  0.00610000  1.0 0.1132946577
H  H21  1  0.31040000  0.47260000  0.77430000  1.0 0.0863229515
H  H22  1  0.32620000  0.67200000  0.56570000  1.0 0.0807969872
H  H23  1  0.29570000  0.51290000  0.89110000  1.0 0.0863229515
H  H24  1  0.30750000  0.71190000  0.68790000  1.0 0.0807969872
C  C1  1  0.00220000  0.46280000  0.63250000  1.0 0.1286154058
C  C2  1  0.96720000  0.40220000  0.48480000  1.0 0.1286154058
C  C3  1  0.20620000  0.38380000  0.29770000  1.0 -0.1041877043
C  C4  1  0.32050000  0.38190000  0.42150000  1.0 -0.1477931772
C  C5  1  0.44500000  0.49900000  0.42300000  1.0 0.0285439594
C  C6  1  0.44500000  0.60940000  0.28610000  1.0 -0.0254792992
C  C7  1  0.32440000  0.60220000  0.16620000  1.0 0.0061336182
C  C8  1  0.43100000  0.49900000  0.44800000  1.0 0.0285439594
C  C9  1  0.41760000  0.62000000  0.36360000  1.0 -0.0218623333
C  C10  1  0.30020000  0.61200000  0.24010000  1.0 0.0285439594
C  C11  1  0.99780000  0.53720000  0.36750000  1.0 0.1286154058
C  C12  1  0.03280000  0.59780000  0.51520000  1.0 0.1286154058
C  C13  1  0.79380000  0.61620000  0.70230000  1.0 -0.1041877043
C  C14  1  0.67950000  0.61810000  0.57850000  1.0 -0.1477931772
C  C15  1  0.55500000  0.50100000  0.57700000  1.0 0.0285439594
C  C16  1  0.55500000  0.39060000  0.71390000  1.0 -0.0254792992
C  C17  1  0.67560000  0.39780000  0.83380000  1.0 0.0061336182
C  C18  1  0.56900000  0.50100000  0.55200000  1.0 0.0285439594
C  C19  1  0.58240000  0.38000000  0.63640000  1.0 -0.0218623333
C  C20  1  0.69980000  0.38800000  0.75990000  1.0 0.0285439594
C  C21  1  0.46280000  0.00220000  0.86750000  1.0 0.1286154058
C  C22  1  0.40220000  0.96720000  0.01520000  1.0 0.1286154058
C  C23  1  0.38380000  0.20620000  0.20230000  1.0 -0.1041877043
C  C24  1  0.38190000  0.32050000  0.07850000  1.0 -0.1477931772
C  C25  1  0.49900000  0.44500000  0.07700000  1.0 0.0285439594
C  C26  1  0.60940000  0.44500000  0.21390000  1.0 -0.0254792992
C  C27  1  0.60220000  0.32440000  0.33380000  1.0 0.0061336182
C  C28  1  0.49900000  0.43100000  0.05200000  1.0 0.0285439594
C  C29  1  0.62000000  0.41760000  0.13640000  1.0 -0.0218623333
C  C30  1  0.61200000  0.30020000  0.25990000  1.0 0.0285439594
C  C31  1  0.53720000  0.99780000  0.13250000  1.0 0.1286154058
C  C32  1  0.59780000  0.03280000  0.98480000  1.0 0.1286154058
C  C33  1  0.61620000  0.79380000  0.79770000  1.0 -0.1041877043
C  C34  1  0.61810000  0.67950000  0.92150000  1.0 -0.1477931772
C  C35  1  0.50100000  0.55500000  0.92300000  1.0 0.0285439594
C  C36  1  0.39060000  0.55500000  0.78610000  1.0 -0.0254792992
C  C37  1  0.39780000  0.67560000  0.66620000  1.0 0.0061336182
C  C38  1  0.50100000  0.56900000  0.94800000  1.0 0.0285439594
C  C39  1  0.38000000  0.58240000  0.86360000  1.0 -0.0218623333
C  C40  1  0.38800000  0.69980000  0.74010000  1.0 0.0285439594
N  N1  1  0.20020000  0.49420000  0.18890000  1.0 -0.1748419959
N  N2  1  0.79980000  0.50580000  0.81110000  1.0 -0.1748419959
N  N3  1  0.49420000  0.20020000  0.31110000  1.0 -0.1748419959
N  N4  1  0.50580000  0.79980000  0.68890000  1.0 -0.1748419959
O  O1  1  0.00695000  0.41565000  0.79460000  1.0 -0.4392613467
O  O2  1  0.92487000  0.28493000  0.46870000  1.0 -0.4040534642
O  O3  1  0.99305000  0.58435000  0.20540000  1.0 -0.4392613467
O  O4  1  0.07513000  0.71507000  0.53130000  1.0 -0.4040534642
O  O5  1  0.41565000  0.00695000  0.70540000  1.0 -0.4392613467
O  O6  1  0.28493000  0.92487000  0.03130000  1.0 -0.4040534642
O  O7  1  0.58435000  0.99305000  0.29460000  1.0 -0.4392613467
O  O8  1  0.71507000  0.07513000  0.96870000  1.0 -0.4040534642
