# DDEC6 charges by PACMAN v1.1 (https://github.com/mtap-research/PACMAN-charge/)
data_BICHEB02_ASR_pacman
_symmetry_space_group_name_H-M   'P 1'
_cell_length_a   11.72070000
_cell_length_b   11.72070000
_cell_length_c   8.31960000
_cell_angle_alpha   69.52900000
_cell_angle_beta   110.47100000
_cell_angle_gamma   120.57000000
_symmetry_Int_Tables_number   1
_chemical_formula_structural   CdH12C20(NO2)2
_chemical_formula_sum   'Cd2 H24 C40 N4 O8'
_cell_volume   900.73823251
_cell_formula_units_Z   2
loop_
 _symmetry_equiv_pos_site_id
 _symmetry_equiv_pos_as_xyz
  1  'x, y, z'
loop_
 _atom_site_type_symbol
 _atom_site_label
 _atom_site_symmetry_multiplicity
 _atom_site_fract_x
 _atom_site_fract_y
 _atom_site_fract_z
 _atom_site_occupancy
 _atom_site_charge
Cd  Cd1  1  0.00000000  0.50000000  0.00000000  1.0 0.8030680236
Cd  Cd2  1  0.50000000  0.00000000  0.50000000  1.0 0.8030680236
H  H1  1  0.12680000  0.30040000  0.29190000  1.0 0.1286534261
H  H2  1  0.31680000  0.30160000  0.50640000  1.0 0.11688293
H  H3  1  0.52710000  0.68910000  0.27200000  1.0 0.0814466952
H  H4  1  0.32680000  0.67420000  0.06810000  1.0 0.0814466952
H  H5  1  0.48870000  0.70430000  0.38360000  1.0 0.0814466952
H  H6  1  0.28830000  0.69270000  0.19100000  1.0 0.0873528835
H  H7  1  0.87320000  0.69960000  0.70810000  1.0 0.1286534261
H  H8  1  0.68320000  0.69840000  0.49360000  1.0 0.11688293
H  H9  1  0.47290000  0.31090000  0.72800000  1.0 0.0814466952
H  H10  1  0.67320000  0.32580000  0.93190000  1.0 0.0814466952
H  H11  1  0.51130000  0.29570000  0.61640000  1.0 0.0814466952
H  H12  1  0.71170000  0.30730000  0.80900000  1.0 0.0873528835
H  H13  1  0.30040000  0.12680000  0.20810000  1.0 0.1286534261
H  H14  1  0.30160000  0.31680000  0.99360000  1.0 0.11688293
H  H15  1  0.68910000  0.52710000  0.22800000  1.0 0.0814466952
H  H16  1  0.67420000  0.32680000  0.43190000  1.0 0.0814466952
H  H17  1  0.70430000  0.48870000  0.11640000  1.0 0.0814466952
H  H18  1  0.69270000  0.28830000  0.30900000  1.0 0.0873528835
H  H19  1  0.69960000  0.87320000  0.79190000  1.0 0.1286534261
H  H20  1  0.69840000  0.68320000  0.00640000  1.0 0.11688293
H  H21  1  0.31090000  0.47290000  0.77200000  1.0 0.0814466952
H  H22  1  0.32580000  0.67320000  0.56810000  1.0 0.0814466952
H  H23  1  0.29570000  0.51130000  0.88360000  1.0 0.0814466952
H  H24  1  0.30730000  0.71170000  0.69100000  1.0 0.0873528835
C  C1  1  0.00294000  0.46386000  0.63230000  1.0 0.1286534261
C  C2  1  0.96719000  0.40301000  0.48500000  1.0 0.11688293
C  C3  1  0.20622000  0.38398000  0.29810000  1.0 -0.0989156809
C  C4  1  0.32102000  0.38178000  0.42070000  1.0 -0.1586375121
C  C5  1  0.44200000  0.49800000  0.41670000  1.0 0.0402464614
C  C6  1  0.44460000  0.60920000  0.28380000  1.0 -0.0398716345
C  C7  1  0.32370000  0.60190000  0.16730000  1.0 0.0145921804
C  C8  1  0.43260000  0.49940000  0.45460000  1.0 0.0402464614
C  C9  1  0.41750000  0.61890000  0.36200000  1.0 -0.0324380021
C  C10  1  0.30040000  0.61220000  0.24110000  1.0 0.0309127708
C  C11  1  0.99706000  0.53614000  0.36770000  1.0 0.1286534261
C  C12  1  0.03281000  0.59699000  0.51500000  1.0 0.11688293
C  C13  1  0.79378000  0.61602000  0.70190000  1.0 -0.0989156809
C  C14  1  0.67898000  0.61822000  0.57930000  1.0 -0.1586375121
C  C15  1  0.55800000  0.50200000  0.58330000  1.0 0.0402464614
C  C16  1  0.55540000  0.39080000  0.71620000  1.0 -0.0398716345
C  C17  1  0.67630000  0.39810000  0.83270000  1.0 0.0151814263
C  C18  1  0.56740000  0.50060000  0.54540000  1.0 0.0402464614
C  C19  1  0.58250000  0.38110000  0.63800000  1.0 -0.0324380021
C  C20  1  0.69960000  0.38780000  0.75890000  1.0 0.0309127708
C  C21  1  0.46386000  0.00294000  0.86770000  1.0 0.1286534261
C  C22  1  0.40301000  0.96719000  0.01500000  1.0 0.11688293
C  C23  1  0.38398000  0.20622000  0.20190000  1.0 -0.0989156809
C  C24  1  0.38178000  0.32102000  0.07930000  1.0 -0.1586375121
C  C25  1  0.49800000  0.44200000  0.08330000  1.0 0.0402464614
C  C26  1  0.60920000  0.44460000  0.21620000  1.0 -0.0398716345
C  C27  1  0.60190000  0.32370000  0.33270000  1.0 0.0145921804
C  C28  1  0.49940000  0.43260000  0.04540000  1.0 0.0402464614
C  C29  1  0.61890000  0.41750000  0.13800000  1.0 -0.0324380021
C  C30  1  0.61220000  0.30040000  0.25890000  1.0 0.0309127708
C  C31  1  0.53614000  0.99706000  0.13230000  1.0 0.1286534261
C  C32  1  0.59699000  0.03281000  0.98500000  1.0 0.11688293
C  C33  1  0.61602000  0.79378000  0.79810000  1.0 -0.0989156809
C  C34  1  0.61822000  0.67898000  0.92070000  1.0 -0.1586375121
C  C35  1  0.50200000  0.55800000  0.91670000  1.0 0.0402464614
C  C36  1  0.39080000  0.55540000  0.78380000  1.0 -0.0398716345
C  C37  1  0.39810000  0.67630000  0.66730000  1.0 0.0145921804
C  C38  1  0.50060000  0.56740000  0.95460000  1.0 0.0402464614
C  C39  1  0.38110000  0.58250000  0.86200000  1.0 -0.0324380021
C  C40  1  0.38780000  0.69960000  0.74110000  1.0 0.0309127708
N  N1  1  0.19987000  0.49453000  0.18920000  1.0 -0.175719462
N  N2  1  0.80013000  0.50547000  0.81080000  1.0 -0.175719462
N  N3  1  0.49453000  0.19987000  0.31080000  1.0 -0.175719462
N  N4  1  0.50547000  0.80013000  0.68920000  1.0 -0.175719462
O  O1  1  0.00672000  0.41560000  0.79430000  1.0 -0.4376369003
O  O2  1  0.92507000  0.28455000  0.46870000  1.0 -0.4072256867
O  O3  1  0.99328000  0.58440000  0.20570000  1.0 -0.4376369003
O  O4  1  0.07493000  0.71545000  0.53130000  1.0 -0.4072256867
O  O5  1  0.41560000  0.00672000  0.70570000  1.0 -0.4376369003
O  O6  1  0.28455000  0.92507000  0.03130000  1.0 -0.4072256867
O  O7  1  0.58440000  0.99328000  0.29430000  1.0 -0.4376369003
O  O8  1  0.71545000  0.07493000  0.96870000  1.0 -0.4072256867
