# DDEC6 charges by PACMAN v1.1 (https://github.com/mtap-research/PACMAN-charge/)
data_BICKEH_ion_pacman
_symmetry_space_group_name_H-M   'P 1'
_cell_length_a   14.44710000
_cell_length_b   14.48640000
_cell_length_c   29.02900000
_cell_angle_alpha   77.77000000
_cell_angle_beta   78.32500000
_cell_angle_gamma   77.16000000
_symmetry_Int_Tables_number   1
_chemical_formula_structural   ZnRe2H24C60(N3O2)10
_chemical_formula_sum   'Zn2 Re4 H48 C120 N60 O40'
_cell_volume   5711.63819082
_cell_formula_units_Z   2
loop_
 _symmetry_equiv_pos_site_id
 _symmetry_equiv_pos_as_xyz
  1  'x, y, z'
loop_
 _atom_site_type_symbol
 _atom_site_label
 _atom_site_symmetry_multiplicity
 _atom_site_fract_x
 _atom_site_fract_y
 _atom_site_fract_z
 _atom_site_occupancy
 _atom_site_charge
Zn  Zn1  1  0.98691000  0.01258000  0.24978000  1.0 0.7201173429
Zn  Zn2  1  0.01309000  0.98742000  0.75022000  1.0 0.7201173429
Re  Re1  1  0.38927000  0.04902000  0.56442000  1.0 1.6543793801
Re  Re2  1  0.61073000  0.95098000  0.43558000  1.0 1.6632425908
Re  Re3  1  0.64439000  0.37384000  0.77696000  1.0 1.6403209095
Re  Re4  1  0.35561000  0.62616000  0.22304000  1.0 1.6403209095
H  H1  1  0.98420000  0.84768000  0.18215000  1.0 0.1304742519
H  H2  1  0.01580000  0.15232000  0.81785000  1.0 0.1304742519
H  H3  1  0.82357000  0.88077000  0.24662000  1.0 0.1236430754
H  H4  1  0.17643000  0.11923000  0.75338000  1.0 0.1236430754
H  H5  1  0.03080000  0.30448000  0.37150000  1.0 0.1716318204
H  H6  1  0.96920000  0.69552000  0.62850000  1.0 0.1716318204
H  H7  1  0.68743000  0.77837000  0.22162000  1.0 0.1716318204
H  H8  1  0.31257000  0.22163000  0.77838000  1.0 0.1716318204
H  H9  1  0.15190000  0.14597000  0.24980000  1.0 0.1304742519
H  H10  1  0.84810000  0.85403000  0.75020000  1.0 0.1304742519
H  H11  1  0.74729000  0.96389000  0.09959000  1.0 0.1716318204
H  H12  1  0.25271000  0.03611000  0.90041000  1.0 0.1716318204
H  H13  1  0.98496000  0.17723000  0.31736000  1.0 0.1304742519
H  H14  1  0.01504000  0.82277000  0.68264000  1.0 0.1304742519
H  H15  1  0.23245000  0.05934000  0.39913000  1.0 0.1792875518
H  H16  1  0.76755000  0.94066000  0.60087000  1.0 0.1792875518
H  H17  1  0.90238000  0.05455000  0.58385000  1.0 0.1566519979
H  H18  1  0.09762000  0.94545000  0.41615000  1.0 0.1566519979
H  H19  1  0.87494000  0.98967000  0.66984000  1.0 0.1304742519
H  H20  1  0.12506000  0.01033000  0.33016000  1.0 0.1304742519
H  H21  1  0.93939000  0.71464000  0.13054000  1.0 0.1716318204
H  H22  1  0.06061000  0.28536000  0.86946000  1.0 0.1716318204
H  H23  1  0.14651000  0.98442000  0.83474000  1.0 0.1304742519
H  H24  1  0.85349000  0.01558000  0.16526000  1.0 0.1304742519
H  H25  1  0.10085000  0.94019000  0.92115000  1.0 0.1566519979
H  H26  1  0.89915000  0.05981000  0.07885000  1.0 0.1566519979
H  H27  1  0.02985000  0.67197000  0.20644000  1.0 0.1566519979
H  H28  1  0.97015000  0.32803000  0.79356000  1.0 0.1566519979
H  H29  1  0.27897000  0.25369000  0.27718000  1.0 0.1716318204
H  H30  1  0.72103000  0.74631000  0.72282000  1.0 0.1716318204
H  H31  1  0.64506000  0.92457000  0.27270000  1.0 0.1566519979
H  H32  1  0.35494000  0.07543000  0.72730000  1.0 0.1566519979
H  H33  1  0.32488000  0.11368000  0.21881000  1.0 0.1566519979
H  H34  1  0.67512000  0.88632000  0.78119000  1.0 0.1566519979
H  H35  1  0.41632000  0.20644000  0.45663000  1.0 0.1979307879
H  H36  1  0.58368000  0.79356000  0.54337000  1.0 0.1979307879
H  H37  1  0.39630000  0.43975000  0.35010000  1.0 0.1792875518
H  H38  1  0.60370000  0.56025000  0.64990000  1.0 0.1792875518
H  H39  1  0.56789000  0.82010000  0.03503000  1.0 0.1792875518
H  H40  1  0.43211000  0.17990000  0.96497000  1.0 0.1792875518
H  H41  1  0.92771000  0.35365000  0.29623000  1.0 0.1487428917
H  H42  1  0.07229000  0.64635000  0.70377000  1.0 0.1487428917
H  H43  1  0.17990000  0.42778000  0.46402000  1.0 0.1716318204
H  H44  1  0.82010000  0.57222000  0.53598000  1.0 0.1716318204
H  H45  1  0.56161000  0.60031000  0.14690000  1.0 0.1792875518
H  H46  1  0.43839000  0.39969000  0.85310000  1.0 0.1792875518
H  H47  1  0.78963000  0.58913000  0.03888000  1.0 0.1792875518
H  H48  1  0.21037000  0.41087000  0.96112000  1.0 0.1792875518
C  C1  1  0.70800000  0.87870000  0.16130000  1.0 0.2719722662
C  C2  1  0.29200000  0.12130000  0.83870000  1.0 0.2719722662
C  C3  1  0.10760000  0.61560000  0.29140000  1.0 0.4713460211
C  C4  1  0.89240000  0.38440000  0.70860000  1.0 0.4713460211
C  C5  1  0.20980000  0.95780000  0.21180000  1.0 0.1979307879
C  C6  1  0.79020000  0.04220000  0.78820000  1.0 0.1979307879
C  C7  1  0.05920000  0.79300000  0.27820000  1.0 0.1487428917
C  C8  1  0.94080000  0.20700000  0.72180000  1.0 0.1487428917
C  C9  1  0.26430000  0.14770000  0.33660000  1.0 0.2913490757
C  C10  1  0.73570000  0.85230000  0.66340000  1.0 0.2913490757
C  C11  1  0.00800000  0.81570000  0.21070000  1.0 -0.0397599172
C  C12  1  0.99200000  0.18430000  0.78930000  1.0 -0.0397599172
C  C13  1  0.12350000  0.17800000  0.39150000  1.0 0.3205435101
C  C14  1  0.87650000  0.82200000  0.60850000  1.0 0.3143228714
C  C15  1  0.85190000  0.84330000  0.10890000  1.0 0.2985807334
C  C16  1  0.14810000  0.15670000  0.89110000  1.0 0.2985807334
C  C17  1  0.95560000  0.91650000  0.85920000  1.0 0.1005875741
C  C18  1  0.04440000  0.08350000  0.14080000  1.0 0.1005875741
C  C19  1  0.79120000  0.93640000  0.25970000  1.0 -0.0229793989
C  C20  1  0.20880000  0.06360000  0.74030000  1.0 -0.0229793989
C  C21  1  0.06290000  0.06660000  0.64020000  1.0 0.1487428917
C  C22  1  0.93710000  0.93340000  0.35980000  1.0 0.1487428917
C  C23  1  0.91060000  0.23370000  0.22180000  1.0 0.0910962496
C  C24  1  0.08940000  0.76630000  0.77820000  1.0 0.0910962496
C  C25  1  0.09130000  0.26530000  0.36270000  1.0 -0.3106126848
C  C26  1  0.90870000  0.73470000  0.63730000  1.0 -0.3106126848
C  C27  1  0.72940000  0.79430000  0.19260000  1.0 -0.2988590724
C  C28  1  0.27060000  0.20570000  0.80740000  1.0 -0.2988590724
C  C29  1  0.83020000  0.56740000  0.19820000  1.0 0.5693550148
C  C30  1  0.16980000  0.43260000  0.80180000  1.0 0.5693550148
C  C31  1  0.43100000  0.11470000  0.32710000  1.0 0.5693550148
C  C32  1  0.56900000  0.88530000  0.67290000  1.0 0.5693550148
C  C33  1  0.18460000  0.09090000  0.23630000  1.0 -0.0312036094
C  C34  1  0.81540000  0.90910000  0.76370000  1.0 -0.0312036094
C  C35  1  0.76530000  0.90500000  0.12020000  1.0 -0.2819813698
C  C36  1  0.23470000  0.09500000  0.87980000  1.0 -0.2916608926
C  C37  1  0.96020000  0.20950000  0.28910000  1.0 -0.0312036094
C  C38  1  0.03980000  0.79050000  0.71090000  1.0 -0.0312036094
C  C39  1  0.15130000  0.29150000  0.32110000  1.0 0.2985807334
C  C40  1  0.84870000  0.70850000  0.67890000  1.0 0.2985807334
C  C41  1  0.07680000  0.12770000  0.55330000  1.0 0.4589763804
C  C42  1  0.92320000  0.87230000  0.44670000  1.0 0.4713460211
C  C43  1  0.21130000  0.11790000  0.37900000  1.0 -0.2988590724
C  C44  1  0.78870000  0.88210000  0.62100000  1.0 -0.2988590724
C  C45  1  0.18340000  0.21360000  0.51310000  1.0 0.558727237
C  C46  1  0.81660000  0.78640000  0.48690000  1.0 0.558727237
C  C47  1  0.76760000  0.07170000  0.28630000  1.0 0.1068085891
C  C48  1  0.23240000  0.92830000  0.71370000  1.0 0.1068085891
C  C49  1  0.18410000  0.53310000  0.35020000  1.0 0.5693550148
C  C50  1  0.81590000  0.46690000  0.64980000  1.0 0.5693550148
C  C51  1  0.92250000  0.87440000  0.94720000  1.0 0.4589763804
C  C52  1  0.07750000  0.12560000  0.05280000  1.0 0.4589763804
C  C53  1  0.94300000  0.05190000  0.60620000  1.0 -0.0796919789
C  C54  1  0.05700000  0.94810000  0.39380000  1.0 -0.0796919789
C  C55  1  0.92930000  0.01640000  0.65310000  1.0 -0.0312036094
C  C56  1  0.07070000  0.98360000  0.34690000  1.0 -0.0312036094
C  C57  1  0.59010000  0.09450000  0.31270000  1.0 0.4791420821
C  C58  1  0.40990000  0.90550000  0.68730000  1.0 0.4791420821
C  C59  1  0.13470000  0.45810000  0.30380000  1.0 0.5404708136
C  C60  1  0.86530000  0.54190000  0.69620000  1.0 0.5404708136
C  C61  1  0.38400000  0.93730000  0.18270000  1.0 0.4713460211
C  C62  1  0.61600000  0.06270000  0.81730000  1.0 0.4713460211
C  C63  1  0.77630000  0.49430000  0.15190000  1.0 0.5784348969
C  C64  1  0.22370000  0.50570000  0.84810000  1.0 0.5784348969
C  C65  1  0.50710000  0.20650000  0.35300000  1.0 0.5784348969
C  C66  1  0.49290000  0.79350000  0.64700000  1.0 0.5784348969
C  C67  1  0.54090000  0.91610000  0.16900000  1.0 0.5404708136
C  C68  1  0.45910000  0.08390000  0.83100000  1.0 0.5404708136
C  C69  1  0.85800000  0.40750000  0.20970000  1.0 0.4859905962
C  C70  1  0.14200000  0.59250000  0.79030000  1.0 0.4859905962
C  C71  1  0.87990000  0.75630000  0.13830000  1.0 -0.3106126848
C  C72  1  0.12010000  0.24370000  0.86170000  1.0 -0.3106126848
C  C73  1  0.08900000  0.96200000  0.85020000  1.0 -0.0397599172
C  C74  1  0.91100000  0.03800000  0.14980000  1.0 -0.0312036094
C  C75  1  0.06530000  0.93790000  0.89740000  1.0 -0.0870776109
C  C76  1  0.93470000  0.06210000  0.10260000  1.0 -0.0870776109
C  C77  1  0.80480000  0.79980000  0.98570000  1.0 0.5471883838
C  C78  1  0.19520000  0.20020000  0.01430000  1.0 0.5471883838
C  C79  1  0.03380000  0.71980000  0.22350000  1.0 -0.0682137187
C  C80  1  0.96620000  0.28020000  0.77650000  1.0 -0.0682137187
C  C81  1  0.23870000  0.23460000  0.30630000  1.0 -0.3106126848
C  C82  1  0.76130000  0.76540000  0.69370000  1.0 -0.3106126848
C  C83  1  0.69250000  0.95970000  0.27400000  1.0 -0.0597106906
C  C84  1  0.30750000  0.04030000  0.72600000  1.0 -0.0597106906
C  C85  1  0.27930000  0.07490000  0.21970000  1.0 -0.0870776109
C  C86  1  0.72070000  0.92510000  0.78030000  1.0 -0.0870776109
C  C87  1  0.89210000  0.85320000  0.02530000  1.0 0.5404708136
C  C88  1  0.10790000  0.14680000  0.97470000  1.0 0.5404708136
C  C89  1  0.09260000  0.15950000  0.47540000  1.0 0.5404708136
C  C90  1  0.90740000  0.84050000  0.52460000  1.0 0.5404708136
C  C91  1  0.81510000  0.73390000  0.17970000  1.0 0.2985807334
C  C92  1  0.18490000  0.26610000  0.82030000  1.0 0.2985807334
C  C93  1  0.38230000  0.26730000  0.44370000  1.0 -0.2819813698
C  C94  1  0.61770000  0.73270000  0.55630000  1.0 -0.2819813698
C  C95  1  0.36980000  0.40630000  0.38000000  1.0 -0.2819813698
C  C96  1  0.63020000  0.59370000  0.62000000  1.0 -0.2819813698
C  C97  1  0.59810000  0.75970000  0.05060000  1.0 -0.2819813698
C  C98  1  0.40190000  0.24030000  0.94940000  1.0 -0.2819813698
C  C99  1  0.55750000  0.71690000  0.09290000  1.0 0.2719722662
C  C100  1  0.44250000  0.28310000  0.90710000  1.0 0.2719722662
C  C101  1  0.46570000  0.82790000  0.14070000  1.0 0.558727237
C  C102  1  0.53430000  0.17210000  0.85930000  1.0 0.5693550148
C  C103  1  0.92900000  0.30590000  0.27800000  1.0 -0.0796919789
C  C104  1  0.07100000  0.69410000  0.72200000  1.0 -0.0796919789
C  C105  1  0.24050000  0.40050000  0.44780000  1.0 -0.2988590724
C  C106  1  0.75950000  0.59950000  0.55220000  1.0 -0.2988590724
C  C107  1  0.28040000  0.44400000  0.40560000  1.0 0.2810935725
C  C108  1  0.71960000  0.55600000  0.59440000  1.0 0.2810935725
C  C109  1  0.68730000  0.71150000  0.03030000  1.0 0.2913490757
C  C110  1  0.31270000  0.28850000  0.96970000  1.0 0.2913490757
C  C111  1  0.59440000  0.62870000  0.11730000  1.0 -0.2620795916
C  C112  1  0.40560000  0.37130000  0.88270000  1.0 -0.2620795916
C  C113  1  0.29570000  0.30810000  0.46750000  1.0 0.3205435101
C  C114  1  0.70430000  0.69190000  0.53250000  1.0 0.3205435101
C  C115  1  0.41740000  0.31690000  0.40100000  1.0 0.2913490757
C  C116  1  0.58260000  0.68310000  0.59900000  1.0 0.2913490757
C  C117  1  0.68370000  0.58340000  0.09560000  1.0 0.2810935725
C  C118  1  0.31630000  0.41660000  0.90440000  1.0 0.2810935725
C  C119  1  0.72970000  0.62220000  0.05300000  1.0 -0.2916608926
C  C120  1  0.27030000  0.37780000  0.94700000  1.0 -0.2916608926
N  N1  1  0.02190000  0.86060000  0.24610000  1.0 -0.2684742685
N  N2  1  0.97810000  0.13940000  0.75390000  1.0 -0.2684742685
N  N3  1  0.95050000  0.16580000  0.25310000  1.0 -0.2500052031
N  N4  1  0.04950000  0.83420000  0.74690000  1.0 -0.2500052031
N  N5  1  0.00540000  0.02390000  0.67400000  1.0 -0.2620795916
N  N6  1  0.99460000  0.97610000  0.32600000  1.0 -0.2620795916
N  N7  1  0.13920000  0.01890000  0.23190000  1.0 -0.3106126848
N  N8  1  0.86080000  0.98110000  0.76810000  1.0 -0.3106126848
N  N9  1  0.83530000  0.00560000  0.26720000  1.0 -0.2819813698
N  N10  1  0.16470000  0.99440000  0.73280000  1.0 -0.2819813698
N  N11  1  0.01990000  0.95050000  0.82650000  1.0 -0.2375345964
N  N12  1  0.98010000  0.04950000  0.17350000  1.0 -0.2375345964
N  N13  1  0.42420000  0.18710000  0.35120000  1.0 -0.4783439252
N  N14  1  0.57580000  0.81290000  0.64880000  1.0 -0.4783439252
N  N15  1  0.78140000  0.57630000  0.16170000  1.0 -0.4867786245
N  N16  1  0.21860000  0.42370000  0.83830000  1.0 -0.4867786245
N  N17  1  0.06700000  0.70500000  0.26630000  1.0 -0.0523710481
N  N18  1  0.93300000  0.29500000  0.73370000  1.0 -0.0523710481
N  N19  1  0.55010000  0.84660000  0.14370000  1.0 -0.4710234479
N  N20  1  0.44990000  0.15340000  0.85630000  1.0 -0.4710234479
N  N21  1  0.29480000  0.98670000  0.20370000  1.0 -0.0597106906
N  N22  1  0.70520000  0.01330000  0.79630000  1.0 -0.0597106906
N  N23  1  0.51320000  0.06230000  0.30840000  1.0 -0.4710234479
N  N24  1  0.48680000  0.93770000  0.69160000  1.0 -0.4783439252
N  N25  1  0.67840000  0.04540000  0.29040000  1.0 -0.0397599172
N  N26  1  0.32160000  0.95460000  0.70960000  1.0 -0.0397599172
N  N27  1  0.14770000  0.17370000  0.55400000  1.0 -0.4228372898
N  N28  1  0.85230000  0.82630000  0.44600000  1.0 -0.4228372898
N  N29  1  0.86880000  0.48440000  0.22410000  1.0 -0.4710234479
N  N30  1  0.13120000  0.51560000  0.77590000  1.0 -0.4710234479
N  N31  1  0.89980000  0.31890000  0.23440000  1.0 -0.0597106906
N  N32  1  0.10020000  0.68110000  0.76560000  1.0 -0.0597106906
N  N33  1  0.09910000  0.53780000  0.27700000  1.0 -0.438683721
N  N34  1  0.90090000  0.46220000  0.72300000  1.0 -0.438683721
N  N35  1  0.84780000  0.83350000  0.94510000  1.0 -0.4710234479
N  N36  1  0.15220000  0.16650000  0.05490000  1.0 -0.4710234479
N  N37  1  0.17840000  0.45050000  0.34020000  1.0 -0.4639575954
N  N38  1  0.82160000  0.54950000  0.65980000  1.0 -0.4639575954
N  N39  1  0.81540000  0.40320000  0.17390000  1.0 -0.5024723883
N  N40  1  0.18460000  0.59680000  0.82610000  1.0 -0.5024723883
N  N41  1  0.37730000  0.87240000  0.15890000  1.0 -0.438683721
N  N42  1  0.62270000  0.12760000  0.84110000  1.0 -0.438683721
N  N43  1  0.94900000  0.88610000  0.98550000  1.0 -0.4348115202
N  N44  1  0.05100000  0.11390000  0.01450000  1.0 -0.438683721
N  N45  1  0.81730000  0.81170000  0.02950000  1.0 -0.4783439252
N  N46  1  0.18270000  0.18830000  0.97050000  1.0 -0.4867786245
N  N47  1  0.04430000  0.11890000  0.51570000  1.0 -0.4348115202
N  N48  1  0.95570000  0.88110000  0.48430000  1.0 -0.438683721
N  N49  1  0.46120000  0.96720000  0.18820000  1.0 -0.4526101973
N  N50  1  0.53880000  0.03280000  0.81180000  1.0 -0.4526101973
N  N51  1  0.16400000  0.20700000  0.47000000  1.0 -0.4710234479
N  N52  1  0.83600000  0.79300000  0.53000000  1.0 -0.4710234479
N  N53  1  0.14830000  0.61980000  0.32820000  1.0 -0.4783439252
N  N54  1  0.85170000  0.38020000  0.67180000  1.0 -0.4783439252
N  N55  1  0.03210000  0.08510000  0.59730000  1.0 -0.0682137187
N  N56  1  0.96790000  0.91490000  0.40270000  1.0 -0.0682137187
N  N57  1  0.59580000  0.16710000  0.33280000  1.0 -0.4783439252
N  N58  1  0.40420000  0.83290000  0.66720000  1.0 -0.4783439252
N  N59  1  0.97600000  0.90810000  0.90440000  1.0 -0.0597106906
N  N60  1  0.02400000  0.09190000  0.09560000  1.0 -0.0597106906
O  O1  1  0.84270000  0.64630000  0.21020000  1.0 -0.230840809
O  O2  1  0.15730000  0.35370000  0.78980000  1.0 -0.230840809
O  O3  1  0.12380000  0.37720000  0.29070000  1.0 -0.230840809
O  O4  1  0.87620000  0.62280000  0.70930000  1.0 -0.230840809
O  O5  1  0.06330000  0.15090000  0.43440000  1.0 -0.230840809
O  O6  1  0.93670000  0.84910000  0.56560000  1.0 -0.230840809
O  O7  1  0.91530000  0.86670000  0.06660000  1.0 -0.230840809
O  O8  1  0.08470000  0.13330000  0.93340000  1.0 -0.230840809
O  O9  1  0.35300000  0.08800000  0.32180000  1.0 -0.230840809
O  O10  1  0.64700000  0.91200000  0.67820000  1.0 -0.230840809
O  O11  1  0.46390000  0.76250000  0.11480000  1.0 -0.2120373573
O  O12  1  0.53610000  0.23750000  0.88520000  1.0 -0.2120373573
O  O13  1  0.62080000  0.94230000  0.17490000  1.0 -0.230840809
O  O14  1  0.37920000  0.05770000  0.82510000  1.0 -0.230840809
O  O15  1  0.73100000  0.75690000  0.98600000  1.0 -0.230840809
O  O16  1  0.26900000  0.24310000  0.01400000  1.0 -0.230840809
O  O17  1  0.23370000  0.53350000  0.38400000  1.0 -0.2120373573
O  O18  1  0.76630000  0.46650000  0.61600000  1.0 -0.2120373573
O  O19  1  0.72780000  0.49180000  0.11820000  1.0 -0.2375345964
O  O20  1  0.27220000  0.50820000  0.88180000  1.0 -0.2375345964
O  O21  1  0.50850000  0.27730000  0.37610000  1.0 -0.2120373573
O  O22  1  0.49150000  0.72270000  0.62390000  1.0 -0.2120373573
O  O23  1  0.25310000  0.26300000  0.51160000  1.0 -0.2150321033
O  O24  1  0.74690000  0.73700000  0.48840000  1.0 -0.2150321033
O  O25  1  0.29710000  0.04220000  0.60850000  1.0 -0.5469246185
O  O26  1  0.43890000  0.13790000  0.57230000  1.0 -0.5417862113
O  O27  1  0.47950000  0.95000000  0.56900000  1.0 -0.5469246185
O  O28  1  0.34480000  0.05540000  0.51340000  1.0 -0.5469246185
O  O29  1  0.70290000  0.95780000  0.39150000  1.0 -0.5469246185
O  O30  1  0.56110000  0.86210000  0.42770000  1.0 -0.5417862113
O  O31  1  0.52050000  0.05000000  0.43100000  1.0 -0.5469246185
O  O32  1  0.65520000  0.94460000  0.48660000  1.0 -0.5469246185
O  O33  1  0.53800000  0.33710000  0.78200000  1.0 -0.595945346
O  O34  1  0.65470000  0.46560000  0.72990000  1.0 -0.5814979748
O  O35  1  0.72830000  0.27360000  0.77140000  1.0 -0.5814979748
O  O36  1  0.65200000  0.42600000  0.82230000  1.0 -0.5658279236
O  O37  1  0.46200000  0.66290000  0.21800000  1.0 -0.595945346
O  O38  1  0.34530000  0.53440000  0.27010000  1.0 -0.5851096984
O  O39  1  0.27170000  0.72640000  0.22860000  1.0 -0.5814979748
O  O40  1  0.34800000  0.57400000  0.17770000  1.0 -0.5658279236
