# DDEC6 charges by PACMAN v1.1 (https://github.com/mtap-research/PACMAN-charge/)
data_BICPOT_FSR_pacman
_symmetry_space_group_name_H-M   'P 1'
_cell_length_a   12.88880000
_cell_length_b   12.88880000
_cell_length_c   14.22370000
_cell_angle_alpha   82.53910000
_cell_angle_beta   97.46090000
_cell_angle_gamma   115.15200000
_symmetry_Int_Tables_number   1
_chemical_formula_structural   Al4P4O16F
_chemical_formula_sum   'Al16 P16 O64 F4'
_cell_volume   2113.36145774
_cell_formula_units_Z   4
loop_
 _symmetry_equiv_pos_site_id
 _symmetry_equiv_pos_as_xyz
  1  'x, y, z'
loop_
 _atom_site_type_symbol
 _atom_site_label
 _atom_site_symmetry_multiplicity
 _atom_site_fract_x
 _atom_site_fract_y
 _atom_site_fract_z
 _atom_site_occupancy
 _atom_site_charge
Al  Al1  1  0.63485000  0.95819000  0.09108000  1.0 1.7494256794
Al  Al2  1  0.95819000  0.63485000  0.40892000  1.0 1.7494256794
Al  Al3  1  0.36515000  0.04181000  0.90892000  1.0 1.7494256794
Al  Al4  1  0.04181000  0.36515000  0.59108000  1.0 1.7494256794
Al  Al5  1  0.01653000  0.18401000  0.99208000  1.0 1.7413179755
Al  Al6  1  0.18401000  0.01653000  0.50792000  1.0 1.7413179755
Al  Al7  1  0.98347000  0.81599000  0.00792000  1.0 1.7413179755
Al  Al8  1  0.81599000  0.98347000  0.49208000  1.0 1.7413179755
Al  Al9  1  0.86252000  0.35468000  0.94047000  1.0 1.7347123027
Al  Al10  1  0.35468000  0.86252000  0.55953000  1.0 1.7413179755
Al  Al11  1  0.13748000  0.64532000  0.05953000  1.0 1.7347123027
Al  Al12  1  0.64532000  0.13748000  0.44047000  1.0 1.7347123027
Al  Al13  1  0.73113000  0.05143000  0.80333000  1.0 1.7494256794
Al  Al14  1  0.05143000  0.73113000  0.69667000  1.0 1.7494256794
Al  Al15  1  0.26887000  0.94857000  0.19667000  1.0 1.7494256794
Al  Al16  1  0.94857000  0.26887000  0.30333000  1.0 1.7494256794
P  P1  1  0.81990000  0.93908000  0.98535000  1.0 1.5400640802
P  P2  1  0.93908000  0.81990000  0.51465000  1.0 1.5400640802
P  P3  1  0.18010000  0.06092000  0.01465000  1.0 1.5400640802
P  P4  1  0.06092000  0.18010000  0.48535000  1.0 1.5400640802
P  P5  1  0.04372000  0.38700000  0.10591000  1.0 1.5400640802
P  P6  1  0.38700000  0.04372000  0.39409000  1.0 1.5400640802
P  P7  1  0.95628000  0.61300000  0.89409000  1.0 1.5326840877
P  P8  1  0.61300000  0.95628000  0.60591000  1.0 1.5326840877
P  P9  1  0.62667000  0.15149000  0.93781000  1.0 1.5400640802
P  P10  1  0.15149000  0.62667000  0.56219000  1.0 1.5400640802
P  P11  1  0.37333000  0.84851000  0.06219000  1.0 1.5400640802
P  P12  1  0.84851000  0.37333000  0.43781000  1.0 1.5400640802
P  P13  1  0.72768000  0.04362000  0.29507000  1.0 1.5475190679
P  P14  1  0.04362000  0.72768000  0.20493000  1.0 1.5475190679
P  P15  1  0.27232000  0.95638000  0.70493000  1.0 1.5475190679
P  P16  1  0.95638000  0.27232000  0.79507000  1.0 1.5400640802
O  O1  1  0.93363000  0.39157000  0.05500000  1.0 -0.7895516783
O  O2  1  0.39157000  0.93363000  0.44500000  1.0 -0.7895516783
O  O3  1  0.06637000  0.60843000  0.94500000  1.0 -0.7895516783
O  O4  1  0.60843000  0.06637000  0.55500000  1.0 -0.7895516783
O  O5  1  0.92014000  0.04386000  0.02480000  1.0 -0.7895516783
O  O6  1  0.04386000  0.92014000  0.47520000  1.0 -0.7895516783
O  O7  1  0.07986000  0.95614000  0.97520000  1.0 -0.7895516783
O  O8  1  0.95614000  0.07986000  0.52480000  1.0 -0.7895516783
O  O9  1  0.64111000  0.08789000  0.03370000  1.0 -0.82866247
O  O10  1  0.08789000  0.64111000  0.46630000  1.0 -0.82866247
O  O11  1  0.35889000  0.91211000  0.96630000  1.0 -0.82866247
O  O12  1  0.91211000  0.35889000  0.53370000  1.0 -0.82866247
O  O13  1  0.07392000  0.30028000  0.06480000  1.0 -0.7708271146
O  O14  1  0.30028000  0.07392000  0.43520000  1.0 -0.7708271146
O  O15  1  0.92608000  0.69972000  0.93520000  1.0 -0.7708271146
O  O16  1  0.69972000  0.92608000  0.56480000  1.0 -0.7708271146
O  O17  1  0.64295000  0.09365000  0.85760000  1.0 -0.82866247
O  O18  1  0.09365000  0.64295000  0.64240000  1.0 -0.82866247
O  O19  1  0.35705000  0.90635000  0.14240000  1.0 -0.82866247
O  O20  1  0.90635000  0.35705000  0.35760000  1.0 -0.82866247
O  O21  1  0.77404000  0.97156000  0.36740000  1.0 -0.7895516783
O  O22  1  0.97156000  0.77404000  0.13260000  1.0 -0.7895516783
O  O23  1  0.22596000  0.02844000  0.63260000  1.0 -0.7895516783
O  O24  1  0.02844000  0.22596000  0.86740000  1.0 -0.7895516783
O  O25  1  0.85308000  0.83872000  0.98960000  1.0 -0.7533738017
O  O26  1  0.83872000  0.85308000  0.51040000  1.0 -0.7533738017
O  O27  1  0.14692000  0.16128000  0.01040000  1.0 -0.7533738017
O  O28  1  0.16128000  0.14692000  0.48960000  1.0 -0.7533738017
O  O29  1  0.70983000  0.27877000  0.93640000  1.0 -0.7413007617
O  O30  1  0.27877000  0.70983000  0.56360000  1.0 -0.7413007617
O  O31  1  0.29017000  0.72123000  0.06360000  1.0 -0.7413007617
O  O32  1  0.72123000  0.29017000  0.43640000  1.0 -0.7413007617
O  O33  1  0.66925000  0.97315000  0.21070000  1.0 -0.759864673
O  O34  1  0.97315000  0.66925000  0.28930000  1.0 -0.759864673
O  O35  1  0.33075000  0.02685000  0.78930000  1.0 -0.759864673
O  O36  1  0.02685000  0.33075000  0.71070000  1.0 -0.759864673
O  O37  1  0.50544000  0.14780000  0.92360000  1.0 -0.78073968
O  O38  1  0.14780000  0.50544000  0.57640000  1.0 -0.78073968
O  O39  1  0.49456000  0.85220000  0.07640000  1.0 -0.78073968
O  O40  1  0.85220000  0.49456000  0.42360000  1.0 -0.78073968
O  O41  1  0.14488000  0.50572000  0.09450000  1.0 -0.7708271146
O  O42  1  0.50572000  0.14488000  0.40550000  1.0 -0.7708271146
O  O43  1  0.85512000  0.49428000  0.90550000  1.0 -0.7708271146
O  O44  1  0.49428000  0.85512000  0.59450000  1.0 -0.7708271146
O  O45  1  0.71822000  0.90458000  0.04490000  1.0 -0.7895516783
O  O46  1  0.90458000  0.71822000  0.45510000  1.0 -0.7895516783
O  O47  1  0.28178000  0.09542000  0.95510000  1.0 -0.7895516783
O  O48  1  0.09542000  0.28178000  0.54490000  1.0 -0.7895516783
O  O49  1  0.02954000  0.35346000  0.21190000  1.0 -0.759864673
O  O50  1  0.35346000  0.02954000  0.28810000  1.0 -0.759864673
O  O51  1  0.97046000  0.64654000  0.78810000  1.0 -0.759864673
O  O52  1  0.64654000  0.97046000  0.71190000  1.0 -0.759864673
O  O53  1  0.63959000  0.07061000  0.33660000  1.0 -0.7895516783
O  O54  1  0.07061000  0.63959000  0.16340000  1.0 -0.7895516783
O  O55  1  0.36041000  0.92939000  0.66340000  1.0 -0.7895516783
O  O56  1  0.92939000  0.36041000  0.83660000  1.0 -0.7895516783
O  O57  1  0.78258000  0.96702000  0.88280000  1.0 -0.8144282996
O  O58  1  0.96702000  0.78258000  0.61720000  1.0 -0.8144282996
O  O59  1  0.21742000  0.03298000  0.11720000  1.0 -0.8144282996
O  O60  1  0.03298000  0.21742000  0.38280000  1.0 -0.8144282996
O  O61  1  0.82622000  0.15578000  0.26000000  1.0 -0.8213398755
O  O62  1  0.15578000  0.82622000  0.24000000  1.0 -0.8213398755
O  O63  1  0.17378000  0.84422000  0.74000000  1.0 -0.8213398755
O  O64  1  0.84422000  0.17378000  0.76000000  1.0 -0.8213398755
F  F1  1  0.87682000  0.21258000  0.97320000  1.0 -0.5610412956
F  F2  1  0.21258000  0.87682000  0.52680000  1.0 -0.5610412956
F  F3  1  0.12318000  0.78742000  0.02680000  1.0 -0.5610412956
F  F4  1  0.78742000  0.12318000  0.47320000  1.0 -0.5610412956
