# DDEC6 charges by PACMAN v1.1 (https://github.com/mtap-research/PACMAN-charge/)
data_BIDMUZ_ASR_pacman
_symmetry_space_group_name_H-M   'P 1'
_cell_length_a   25.19260000
_cell_length_b   25.19260000
_cell_length_c   25.19260000
_cell_angle_alpha   110.63900000
_cell_angle_beta   110.63900000
_cell_angle_gamma   107.15900000
_symmetry_Int_Tables_number   1
_chemical_formula_structural   Cu2Ge2WS13
_chemical_formula_sum   'Cu32 Ge32 W16 S208'
_cell_volume   12293.48627225
_cell_formula_units_Z   16
loop_
 _symmetry_equiv_pos_site_id
 _symmetry_equiv_pos_as_xyz
  1  'x, y, z'
loop_
 _atom_site_type_symbol
 _atom_site_label
 _atom_site_symmetry_multiplicity
 _atom_site_fract_x
 _atom_site_fract_y
 _atom_site_fract_z
 _atom_site_occupancy
 _atom_site_charge
Cu  Cu1  1  0.18563000  0.55826000  0.47993000  1.0 0.6469173165
Cu  Cu2  1  0.25471000  0.54257000  0.20160000  1.0 0.7268162451
Cu  Cu3  1  0.07833000  0.70570000  0.52007000  1.0 0.6469173165
Cu  Cu4  1  0.34097000  0.05311000  0.79840000  1.0 0.7268162451
Cu  Cu5  1  0.06437000  0.04430000  0.87263000  1.0 0.6469173165
Cu  Cu6  1  0.99529000  0.69689000  0.78786000  1.0 0.7268162451
Cu  Cu7  1  0.17167000  0.19174000  0.12737000  1.0 0.6585379697
Cu  Cu8  1  0.90903000  0.20743000  0.21214000  1.0 0.7268162451
Cu  Cu9  1  0.56437000  0.69174000  0.02007000  1.0 0.6585379697
Cu  Cu10  1  0.49529000  0.70743000  0.29840000  1.0 0.7202172658
Cu  Cu11  1  0.67167000  0.54430000  0.97993000  1.0 0.6469173165
Cu  Cu12  1  0.40903000  0.19689000  0.70160000  1.0 0.7202172658
Cu  Cu13  1  0.68563000  0.20570000  0.62737000  1.0 0.6469173165
Cu  Cu14  1  0.75471000  0.55311000  0.71214000  1.0 0.7268162451
Cu  Cu15  1  0.57833000  0.05826000  0.37263000  1.0 0.6585379697
Cu  Cu16  1  0.84097000  0.04257000  0.28786000  1.0 0.7268162451
Cu  Cu17  1  0.30826000  0.32833000  0.87263000  1.0 0.6469173165
Cu  Cu18  1  0.29257000  0.59097000  0.78786000  1.0 0.7268162451
Cu  Cu19  1  0.45570000  0.43563000  0.12737000  1.0 0.6469173165
Cu  Cu20  1  0.80311000  0.50471000  0.21214000  1.0 0.7469566248
Cu  Cu21  1  0.94174000  0.31437000  0.52007000  1.0 0.6469173165
Cu  Cu22  1  0.95743000  0.24529000  0.79840000  1.0 0.7268162451
Cu  Cu23  1  0.79430000  0.42167000  0.47993000  1.0 0.6469173165
Cu  Cu24  1  0.44689000  0.15903000  0.20160000  1.0 0.7268162451
Cu  Cu25  1  0.44174000  0.92167000  0.62737000  1.0 0.6469173165
Cu  Cu26  1  0.45743000  0.65903000  0.71214000  1.0 0.7268162451
Cu  Cu27  1  0.29430000  0.81437000  0.37263000  1.0 0.6469173165
Cu  Cu28  1  0.94689000  0.74529000  0.28786000  1.0 0.7268162451
Cu  Cu29  1  0.80826000  0.93563000  0.97993000  1.0 0.6469173165
Cu  Cu30  1  0.79257000  0.00471000  0.70160000  1.0 0.7469566248
Cu  Cu31  1  0.95570000  0.82833000  0.02007000  1.0 0.6585379697
Cu  Cu32  1  0.30311000  0.09097000  0.29840000  1.0 0.7268162451
Ge  Ge1  1  0.18227000  0.44140000  0.36269000  1.0 1.1814258179
Ge  Ge2  1  0.14805000  0.42790000  0.20855000  1.0 1.2032392025
Ge  Ge3  1  0.07871000  0.81958000  0.63731000  1.0 1.1814258179
Ge  Ge4  1  0.21935000  0.93950000  0.79145000  1.0 1.2032392025
Ge  Ge5  1  0.06773000  0.93042000  0.75913000  1.0 1.1814258179
Ge  Ge6  1  0.10195000  0.81050000  0.77985000  1.0 1.2087579748
Ge  Ge7  1  0.17129000  0.30860000  0.24087000  1.0 1.1814258179
Ge  Ge8  1  0.03065000  0.32210000  0.22015000  1.0 1.2032392025
Ge  Ge9  1  0.56773000  0.80860000  0.13731000  1.0 1.1869983456
Ge  Ge10  1  0.60195000  0.82210000  0.29145000  1.0 1.2087579748
Ge  Ge11  1  0.67129000  0.43042000  0.86269000  1.0 1.1814258179
Ge  Ge12  1  0.53065000  0.31050000  0.70855000  1.0 1.2032392025
Ge  Ge13  1  0.68227000  0.31958000  0.74087000  1.0 1.1814258179
Ge  Ge14  1  0.64805000  0.43950000  0.72015000  1.0 1.2032392025
Ge  Ge15  1  0.57871000  0.94140000  0.25913000  1.0 1.1814258179
Ge  Ge16  1  0.71935000  0.92790000  0.27985000  1.0 1.2087579748
Ge  Ge17  1  0.19140000  0.32871000  0.75913000  1.0 1.1814258179
Ge  Ge18  1  0.17790000  0.46935000  0.77985000  1.0 1.2032392025
Ge  Ge19  1  0.56958000  0.43227000  0.24087000  1.0 1.1869983456
Ge  Ge20  1  0.68950000  0.39805000  0.22015000  1.0 1.2087579748
Ge  Ge21  1  0.05860000  0.31773000  0.63731000  1.0 1.1814258179
Ge  Ge22  1  0.07210000  0.35195000  0.79145000  1.0 1.2032392025
Ge  Ge23  1  0.68042000  0.42129000  0.36269000  1.0 1.1869983456
Ge  Ge24  1  0.56050000  0.28065000  0.20855000  1.0 1.2087579748
Ge  Ge25  1  0.55860000  0.92129000  0.74087000  1.0 1.1814258179
Ge  Ge26  1  0.57210000  0.78065000  0.72015000  1.0 1.2032392025
Ge  Ge27  1  0.18042000  0.81773000  0.25913000  1.0 1.1814258179
Ge  Ge28  1  0.06050000  0.85195000  0.27985000  1.0 1.2032392025
Ge  Ge29  1  0.69140000  0.93227000  0.86269000  1.0 1.1814258179
Ge  Ge30  1  0.67790000  0.89805000  0.70855000  1.0 1.2032392025
Ge  Ge31  1  0.06958000  0.82871000  0.13731000  1.0 1.1869983456
Ge  Ge32  1  0.18950000  0.96935000  0.29145000  1.0 1.2032392025
W  W1  1  0.13038000  0.63038000  0.50000000  1.0 0.6713118709
W  W2  1  0.11962000  0.11962000  0.00000000  1.0 0.6713118709
W  W3  1  0.61962000  0.61962000  0.00000000  1.0 0.6713118709
W  W4  1  0.63038000  0.13038000  0.50000000  1.0 0.6713118709
W  W5  1  0.37500000  0.62500000  0.25000000  1.0 0.7141079388
W  W6  1  0.37500000  0.12500000  0.75000000  1.0 0.7202172658
W  W7  1  0.87500000  0.62500000  0.75000000  1.0 0.6988665841
W  W8  1  0.87500000  0.12500000  0.25000000  1.0 0.7141079388
W  W9  1  0.38038000  0.38038000  0.00000000  1.0 0.6713118709
W  W10  1  0.86962000  0.36962000  0.50000000  1.0 0.6713118709
W  W11  1  0.36962000  0.86962000  0.50000000  1.0 0.6713118709
W  W12  1  0.88038000  0.88038000  0.00000000  1.0 0.6713118709
W  W13  1  0.37500000  0.62500000  0.75000000  1.0 0.7202172658
W  W14  1  0.87500000  0.62500000  0.25000000  1.0 0.7202172658
W  W15  1  0.87500000  0.12500000  0.75000000  1.0 0.7202172658
W  W16  1  0.37500000  0.12500000  0.25000000  1.0 0.7202172658
S  S1  1  0.23736000  0.50277000  0.46833000  1.0 -0.5826855784
S  S2  1  0.19892000  0.49853000  0.31483000  1.0 -0.6906157142
S  S3  1  0.18856000  0.36086000  0.18878000  1.0 -0.7030169485
S  S4  1  0.15229000  0.47679000  0.15390000  1.0 -0.6820674805
S  S5  1  0.10320000  0.55610000  0.40190000  1.0 -0.1894623277
S  S6  1  0.20160000  0.62510000  0.57670000  1.0 -0.1400029708
S  S7  1  0.45110000  0.60110000  0.22620000  1.0 -0.3929451166
S  S8  1  0.31710000  0.52800000  0.17350000  1.0 0.2028464704
S  S9  1  0.34610000  0.55150000  0.28140000  1.0 -0.2386614493
S  S10  1  0.29940000  0.59750000  0.16470000  1.0 0.1022774484
S  S11  1  0.10420000  0.53210000  0.48950000  1.0 -0.1611955323
S  S12  1  0.21580000  0.65910000  0.48790000  1.0 -0.1611955323
S  S13  1  0.03444000  0.76903000  0.53167000  1.0 -0.5826855784
S  S14  1  0.18370000  0.88409000  0.68517000  1.0 -0.6906157142
S  S15  1  0.17208000  0.99978000  0.81122000  1.0 -0.7092482123
S  S16  1  0.32289000  0.99839000  0.84610000  1.0 -0.6820674805
S  S17  1  0.15420000  0.70130000  0.59810000  1.0 -0.1894623277
S  S18  1  0.04840000  0.62490000  0.42330000  1.0 -0.1400029708
S  S19  1  0.37490000  0.22490000  0.77380000  1.0 -0.3929451166
S  S20  1  0.35450000  0.14360000  0.82650000  1.0 0.2028464704
S  S21  1  0.27010000  0.06470000  0.71860000  1.0 -0.2386614493
S  S22  1  0.43280000  0.13470000  0.83530000  1.0 0.1022774484
S  S23  1  0.04260000  0.61470000  0.51050000  1.0 -0.1611955323
S  S24  1  0.17120000  0.72790000  0.51210000  1.0 -0.1611955323
S  S25  1  0.01264000  0.98097000  0.76541000  1.0 -0.5826855784
S  S26  1  0.05108000  0.86591000  0.79961000  1.0 -0.6906157142
S  S27  1  0.06144000  0.75022000  0.67230000  1.0 -0.7198548236
S  S28  1  0.09771000  0.75161000  0.82450000  1.0 -0.6906157142
S  S29  1  0.14680000  0.04870000  0.95290000  1.0 -0.1894623277
S  S30  1  0.04840000  0.12510000  0.92350000  1.0 -0.1400029708
S  S31  1  0.79890000  0.52510000  0.65000000  1.0 -0.3929451166
S  S32  1  0.93290000  0.60640000  0.71090000  1.0 0.216259809
S  S33  1  0.90390000  0.68530000  0.70540000  1.0 -0.2386614493
S  S34  1  0.95060000  0.61530000  0.79810000  1.0 0.1065393831
S  S35  1  0.14580000  0.13530000  0.92790000  1.0 -0.1611955323
S  S36  1  0.03420000  0.02210000  0.94330000  1.0 -0.1658451774
S  S37  1  0.21556000  0.24723000  0.23459000  1.0 -0.5896260955
S  S38  1  0.06630000  0.25147000  0.20039000  1.0 -0.6906157142
S  S39  1  0.07792000  0.38914000  0.32770000  1.0 -0.7030169485
S  S40  1  0.92711000  0.27321000  0.17550000  1.0 -0.6820674805
S  S41  1  0.09580000  0.19390000  0.04710000  1.0 -0.1894623277
S  S42  1  0.20160000  0.12490000  0.07650000  1.0 -0.1400029708
S  S43  1  0.87510000  0.14890000  0.35000000  1.0 -0.3929451166
S  S44  1  0.89550000  0.22200000  0.28910000  1.0 0.2075158426
S  S45  1  0.97990000  0.19850000  0.29460000  1.0 -0.2386614493
S  S46  1  0.81720000  0.15250000  0.20190000  1.0 0.1065393831
S  S47  1  0.20740000  0.21790000  0.07210000  1.0 -0.1611955323
S  S48  1  0.07880000  0.09090000  0.05670000  1.0 -0.1611955323
S  S49  1  0.51264000  0.74723000  0.03167000  1.0 -0.5988655009
S  S50  1  0.55108000  0.75147000  0.18517000  1.0 -0.7092482123
S  S51  1  0.56144000  0.88914000  0.31122000  1.0 -0.7092482123
S  S52  1  0.59771000  0.77321000  0.34610000  1.0 -0.6906157142
S  S53  1  0.64680000  0.69390000  0.09810000  1.0 -0.1894623277
S  S54  1  0.54840000  0.62490000  0.92330000  1.0 -0.1400029708
S  S55  1  0.29890000  0.64890000  0.27380000  1.0 -0.3929451166
S  S56  1  0.43290000  0.72200000  0.32650000  1.0 0.2028464704
S  S57  1  0.40390000  0.69850000  0.21860000  1.0 -0.2386614493
S  S58  1  0.45060000  0.65250000  0.33530000  1.0 0.1022774484
S  S59  1  0.64580000  0.71790000  0.01050000  1.0 -0.1611955323
S  S60  1  0.53420000  0.59090000  0.01210000  1.0 -0.1611955323
S  S61  1  0.71556000  0.48097000  0.96833000  1.0 -0.5826855784
S  S62  1  0.56630000  0.36591000  0.81483000  1.0 -0.6906157142
S  S63  1  0.57792000  0.25022000  0.68878000  1.0 -0.7092482123
S  S64  1  0.42711000  0.25161000  0.65390000  1.0 -0.6820674805
S  S65  1  0.59580000  0.54870000  0.90190000  1.0 -0.1894623277
S  S66  1  0.70160000  0.62510000  0.07670000  1.0 -0.1400029708
S  S67  1  0.37510000  0.02510000  0.72620000  1.0 -0.3929451166
S  S68  1  0.39550000  0.10640000  0.67350000  1.0 0.2028464704
S  S69  1  0.47990000  0.18530000  0.78140000  1.0 -0.2386614493
S  S70  1  0.31720000  0.11530000  0.66470000  1.0 0.1022774484
S  S71  1  0.70740000  0.63530000  0.98950000  1.0 -0.1611955323
S  S72  1  0.57880000  0.52210000  0.98790000  1.0 -0.1611955323
S  S73  1  0.73736000  0.26903000  0.73459000  1.0 -0.5826855784
S  S74  1  0.69892000  0.38409000  0.70039000  1.0 -0.6906157142
S  S75  1  0.68856000  0.49978000  0.82770000  1.0 -0.7092482123
S  S76  1  0.65229000  0.49839000  0.67550000  1.0 -0.6820674805
S  S77  1  0.60320000  0.20130000  0.54710000  1.0 -0.1894623277
S  S78  1  0.70160000  0.12490000  0.57650000  1.0 -0.1400029708
S  S79  1  0.95110000  0.72490000  0.85000000  1.0 -0.3929451166
S  S80  1  0.81710000  0.64360000  0.78910000  1.0 0.216259809
S  S81  1  0.84610000  0.56470000  0.79460000  1.0 -0.2386614493
S  S82  1  0.79940000  0.63470000  0.70190000  1.0 0.1065393831
S  S83  1  0.60420000  0.11470000  0.57210000  1.0 -0.1611955323
S  S84  1  0.71580000  0.22790000  0.55670000  1.0 -0.1611955323
S  S85  1  0.53444000  0.00277000  0.26541000  1.0 -0.5896260955
S  S86  1  0.68370000  0.99853000  0.29961000  1.0 -0.6906157142
S  S87  1  0.67208000  0.86086000  0.17230000  1.0 -0.7092482123
S  S88  1  0.82289000  0.97679000  0.32450000  1.0 -0.6906157142
S  S89  1  0.65420000  0.05610000  0.45290000  1.0 -0.1894623277
S  S90  1  0.54840000  0.12510000  0.42350000  1.0 -0.1400029708
S  S91  1  0.87490000  0.10110000  0.15000000  1.0 -0.3929451166
S  S92  1  0.85450000  0.02800000  0.21090000  1.0 0.2075158426
S  S93  1  0.77010000  0.05150000  0.20540000  1.0 -0.2386614493
S  S94  1  0.93280000  0.09750000  0.29810000  1.0 0.1065393831
S  S95  1  0.54260000  0.03210000  0.42790000  1.0 -0.1611955323
S  S96  1  0.67120000  0.15910000  0.44330000  1.0 -0.1611955323
S  S97  1  0.22410000  0.37500000  0.34910000  1.0 -0.8198148428
S  S98  1  0.04210000  0.37500000  0.16710000  1.0 -0.7926201441
S  S99  1  0.02590000  0.87500000  0.65090000  1.0 -0.8198148428
S  S100  1  0.20790000  0.87500000  0.83290000  1.0 -0.7977885225
S  S101  1  0.52590000  0.87500000  0.15090000  1.0 -0.8198148428
S  S102  1  0.70790000  0.87500000  0.33290000  1.0 -0.8316323378
S  S103  1  0.72410000  0.37500000  0.84910000  1.0 -0.8198148428
S  S104  1  0.54210000  0.37500000  0.66710000  1.0 -0.7926201441
S  S105  1  0.25277000  0.28444000  0.76541000  1.0 -0.5826855784
S  S106  1  0.24853000  0.43370000  0.79961000  1.0 -0.6906157142
S  S107  1  0.11086000  0.42208000  0.67230000  1.0 -0.7030169485
S  S108  1  0.22679000  0.57289000  0.82450000  1.0 -0.6820674805
S  S109  1  0.30610000  0.40420000  0.95290000  1.0 -0.1894623277
S  S110  1  0.37510000  0.29840000  0.92350000  1.0 -0.1400029708
S  S111  1  0.35110000  0.62490000  0.65000000  1.0 -0.3929451166
S  S112  1  0.27800000  0.60450000  0.71090000  1.0 0.2028464704
S  S113  1  0.30150000  0.52010000  0.70540000  1.0 -0.2386614493
S  S114  1  0.34750000  0.68280000  0.79810000  1.0 0.1022774484
S  S115  1  0.28210000  0.29260000  0.92790000  1.0 -0.1611955323
S  S116  1  0.40910000  0.42120000  0.94330000  1.0 -0.1658451774
S  S117  1  0.51903000  0.48736000  0.23459000  1.0 -0.5896260955
S  S118  1  0.63409000  0.44892000  0.20039000  1.0 -0.6906157142
S  S119  1  0.74978000  0.43856000  0.32770000  1.0 -0.7092482123
S  S120  1  0.74839000  0.40229000  0.17550000  1.0 -0.6820674805
S  S121  1  0.45130000  0.35320000  0.04710000  1.0 -0.1894623277
S  S122  1  0.37490000  0.45160000  0.07650000  1.0 -0.1400029708
S  S123  1  0.97490000  0.70110000  0.35000000  1.0 -0.3929451166
S  S124  1  0.89360000  0.56710000  0.28910000  1.0 0.216259809
S  S125  1  0.81470000  0.59610000  0.29460000  1.0 -0.2332410135
S  S126  1  0.88470000  0.54940000  0.20190000  1.0 0.1065393831
S  S127  1  0.36470000  0.35420000  0.07210000  1.0 -0.1611955323
S  S128  1  0.47790000  0.46580000  0.05670000  1.0 -0.1611955323
S  S129  1  0.99723000  0.26264000  0.53167000  1.0 -0.5826855784
S  S130  1  0.00147000  0.30108000  0.68517000  1.0 -0.6906157142
S  S131  1  0.13914000  0.31144000  0.81122000  1.0 -0.7030169485
S  S132  1  0.02321000  0.34771000  0.84610000  1.0 -0.6820674805
S  S133  1  0.94390000  0.39680000  0.59810000  1.0 -0.1894623277
S  S134  1  0.87490000  0.29840000  0.42330000  1.0 -0.1400029708
S  S135  1  0.89890000  0.04890000  0.77380000  1.0 -0.3929451166
S  S136  1  0.97200000  0.18290000  0.82650000  1.0 0.2028464704
S  S137  1  0.94850000  0.15390000  0.71860000  1.0 -0.2386614493
S  S138  1  0.90250000  0.20060000  0.83530000  1.0 0.1065393831
S  S139  1  0.96790000  0.39580000  0.51050000  1.0 -0.1611955323
S  S140  1  0.84090000  0.28420000  0.51210000  1.0 -0.1611955323
S  S141  1  0.73097000  0.46556000  0.46833000  1.0 -0.5896260955
S  S142  1  0.61591000  0.31630000  0.31483000  1.0 -0.7030169485
S  S143  1  0.50022000  0.32792000  0.18878000  1.0 -0.7092482123
S  S144  1  0.50161000  0.17711000  0.15390000  1.0 -0.7198548236
S  S145  1  0.79870000  0.34580000  0.40190000  1.0 -0.1894623277
S  S146  1  0.87510000  0.45160000  0.57670000  1.0 -0.1400029708
S  S147  1  0.27510000  0.12510000  0.22620000  1.0 -0.3962825158
S  S148  1  0.35640000  0.14550000  0.17350000  1.0 0.2028464704
S  S149  1  0.43530000  0.22990000  0.28140000  1.0 -0.2386614493
S  S150  1  0.36530000  0.06720000  0.16470000  1.0 0.1022774484
S  S151  1  0.88530000  0.45740000  0.48950000  1.0 -0.1611955323
S  S152  1  0.77210000  0.32880000  0.48790000  1.0 -0.1611955323
S  S153  1  0.49723000  0.96556000  0.73459000  1.0 -0.5826855784
S  S154  1  0.50147000  0.81630000  0.70039000  1.0 -0.6906157142
S  S155  1  0.63914000  0.82792000  0.82770000  1.0 -0.7092482123
S  S156  1  0.52321000  0.67711000  0.67550000  1.0 -0.6820674805
S  S157  1  0.44390000  0.84580000  0.54710000  1.0 -0.1894623277
S  S158  1  0.37490000  0.95160000  0.57650000  1.0 -0.1400029708
S  S159  1  0.39890000  0.62510000  0.85000000  1.0 -0.3929451166
S  S160  1  0.47200000  0.64550000  0.78910000  1.0 0.2028464704
S  S161  1  0.44850000  0.72990000  0.79460000  1.0 -0.2386614493
S  S162  1  0.40250000  0.56720000  0.70190000  1.0 0.1022774484
S  S163  1  0.46790000  0.95740000  0.57210000  1.0 -0.1611955323
S  S164  1  0.34090000  0.82880000  0.55670000  1.0 -0.1611955323
S  S165  1  0.23097000  0.76264000  0.26541000  1.0 -0.5896260955
S  S166  1  0.11591000  0.80108000  0.29961000  1.0 -0.6906157142
S  S167  1  0.00022000  0.81144000  0.17230000  1.0 -0.7092482123
S  S168  1  0.00161000  0.84771000  0.32450000  1.0 -0.6820674805
S  S169  1  0.29870000  0.89680000  0.45290000  1.0 -0.1894623277
S  S170  1  0.37510000  0.79840000  0.42350000  1.0 -0.1400029708
S  S171  1  0.77510000  0.54890000  0.15000000  1.0 -0.3929451166
S  S172  1  0.85640000  0.68290000  0.21090000  1.0 0.2028464704
S  S173  1  0.93530000  0.65390000  0.20540000  1.0 -0.2386614493
S  S174  1  0.86530000  0.70060000  0.29810000  1.0 0.1022774484
S  S175  1  0.38530000  0.89580000  0.42790000  1.0 -0.1611955323
S  S176  1  0.27210000  0.78420000  0.44330000  1.0 -0.1611955323
S  S177  1  0.75277000  0.98736000  0.96833000  1.0 -0.5826855784
S  S178  1  0.74853000  0.94892000  0.81483000  1.0 -0.6906157142
S  S179  1  0.61086000  0.93856000  0.68878000  1.0 -0.7030169485
S  S180  1  0.72679000  0.90229000  0.65390000  1.0 -0.6820674805
S  S181  1  0.80610000  0.85320000  0.90190000  1.0 -0.1894623277
S  S182  1  0.87510000  0.95160000  0.07670000  1.0 -0.1400029708
S  S183  1  0.85110000  0.20110000  0.72620000  1.0 -0.3929451166
S  S184  1  0.77800000  0.06710000  0.67350000  1.0 0.216259809
S  S185  1  0.80150000  0.09610000  0.78140000  1.0 -0.2386614493
S  S186  1  0.84750000  0.04940000  0.66470000  1.0 0.1065393831
S  S187  1  0.78210000  0.85420000  0.98950000  1.0 -0.1611955323
S  S188  1  0.90910000  0.96580000  0.98790000  1.0 -0.1611955323
S  S189  1  0.01903000  0.78444000  0.03167000  1.0 -0.5988655009
S  S190  1  0.13409000  0.93370000  0.18517000  1.0 -0.6906157142
S  S191  1  0.24978000  0.92208000  0.31122000  1.0 -0.7092482123
S  S192  1  0.24839000  0.07289000  0.34610000  1.0 -0.6820674805
S  S193  1  0.95130000  0.90420000  0.09810000  1.0 -0.1894623277
S  S194  1  0.87490000  0.79840000  0.92330000  1.0 -0.1400029708
S  S195  1  0.47490000  0.12490000  0.27380000  1.0 -0.3929451166
S  S196  1  0.39360000  0.10450000  0.32650000  1.0 0.2075158426
S  S197  1  0.31470000  0.02010000  0.21860000  1.0 -0.2332410135
S  S198  1  0.38470000  0.18280000  0.33530000  1.0 0.1022774484
S  S199  1  0.86470000  0.79260000  0.01050000  1.0 -0.1611955323
S  S200  1  0.97790000  0.92120000  0.01210000  1.0 -0.1611955323
S  S201  1  0.12500000  0.27590000  0.65090000  1.0 -0.8198148428
S  S202  1  0.12500000  0.45790000  0.83290000  1.0 -0.7926201441
S  S203  1  0.62500000  0.47410000  0.34910000  1.0 -0.8599422195
S  S204  1  0.62500000  0.29210000  0.16710000  1.0 -0.7926201441
S  S205  1  0.62500000  0.97410000  0.84910000  1.0 -0.8198148428
S  S206  1  0.62500000  0.79210000  0.66710000  1.0 -0.7926201441
S  S207  1  0.12500000  0.77590000  0.15090000  1.0 -0.8599422195
S  S208  1  0.12500000  0.95790000  0.33290000  1.0 -0.7926201441
