# DDEC6 charges by PACMAN v1.1 (https://github.com/mtap-research/PACMAN-charge/)
data_BIDMOT_ASR_pacman
_symmetry_space_group_name_H-M   'P 1'
_cell_length_a   25.38360000
_cell_length_b   25.38360000
_cell_length_c   25.38360000
_cell_angle_alpha   110.51400000
_cell_angle_beta   110.51400000
_cell_angle_gamma   107.40500000
_symmetry_Int_Tables_number   1
_chemical_formula_structural   Cu2Ge2MoS16
_chemical_formula_sum   'Cu32 Ge32 Mo16 S256'
_cell_volume   12578.15677998
_cell_formula_units_Z   16
loop_
 _symmetry_equiv_pos_site_id
 _symmetry_equiv_pos_as_xyz
  1  'x, y, z'
loop_
 _atom_site_type_symbol
 _atom_site_label
 _atom_site_symmetry_multiplicity
 _atom_site_fract_x
 _atom_site_fract_y
 _atom_site_fract_z
 _atom_site_occupancy
 _atom_site_charge
Cu  Cu1  1  0.79101000  0.08938000  0.78477000  1.0 0.5117008418
Cu  Cu2  1  0.80913000  0.83164000  0.87427000  1.0 0.5183985973
Cu  Cu3  1  0.30461000  0.00624000  0.21523000  1.0 0.5117008418
Cu  Cu4  1  0.95737000  0.93486000  0.12573000  1.0 0.5183985973
Cu  Cu5  1  0.45899000  0.74376000  0.79837000  1.0 0.5183985973
Cu  Cu6  1  0.44087000  0.81514000  0.52251000  1.0 0.5183985973
Cu  Cu7  1  0.94539000  0.66062000  0.20163000  1.0 0.5117008418
Cu  Cu8  1  0.29263000  0.91836000  0.47749000  1.0 0.5117008418
Cu  Cu9  1  0.95899000  0.16062000  0.71523000  1.0 0.5117008418
Cu  Cu10  1  0.94087000  0.41836000  0.62573000  1.0 0.5117008418
Cu  Cu11  1  0.44539000  0.24376000  0.28477000  1.0 0.5117008418
Cu  Cu12  1  0.79263000  0.31514000  0.37427000  1.0 0.5117008418
Cu  Cu13  1  0.29101000  0.50624000  0.70163000  1.0 0.5117008418
Cu  Cu14  1  0.30913000  0.43486000  0.97749000  1.0 0.5183985973
Cu  Cu15  1  0.80461000  0.58938000  0.29837000  1.0 0.5043016518
Cu  Cu16  1  0.45737000  0.33164000  0.02251000  1.0 0.5117008418
Cu  Cu17  1  0.83938000  0.55461000  0.79837000  1.0 0.5117008418
Cu  Cu18  1  0.58164000  0.20737000  0.52251000  1.0 0.5117008418
Cu  Cu19  1  0.75624000  0.04101000  0.20163000  1.0 0.5117008418
Cu  Cu20  1  0.68486000  0.05913000  0.47749000  1.0 0.5117008418
Cu  Cu21  1  0.41062000  0.70899000  0.21523000  1.0 0.5117008418
Cu  Cu22  1  0.66836000  0.69087000  0.12573000  1.0 0.5183985973
Cu  Cu23  1  0.49376000  0.19539000  0.78477000  1.0 0.5117008418
Cu  Cu24  1  0.56514000  0.54263000  0.87427000  1.0 0.5183985973
Cu  Cu25  1  0.91062000  0.69539000  0.70163000  1.0 0.5043016518
Cu  Cu26  1  0.16836000  0.04263000  0.97749000  1.0 0.5117008418
Cu  Cu27  1  0.99376000  0.20899000  0.29837000  1.0 0.5117008418
Cu  Cu28  1  0.06514000  0.19087000  0.02251000  1.0 0.5117008418
Cu  Cu29  1  0.33938000  0.54101000  0.28477000  1.0 0.5321811283
Cu  Cu30  1  0.08164000  0.55913000  0.37427000  1.0 0.5117008418
Cu  Cu31  1  0.25624000  0.05461000  0.71523000  1.0 0.5117008418
Cu  Cu32  1  0.18486000  0.70737000  0.62573000  1.0 0.5183985973
Ge  Ge1  1  0.67658000  0.96878000  0.77880000  1.0 1.0692304677
Ge  Ge2  1  0.69182000  0.83072000  0.75936000  1.0 1.0692304677
Ge  Ge3  1  0.18998000  0.89778000  0.22120000  1.0 1.0692304677
Ge  Ge4  1  0.07136000  0.93246000  0.24064000  1.0 1.1089560533
Ge  Ge5  1  0.57342000  0.85222000  0.79220000  1.0 1.1018795813
Ge  Ge6  1  0.55818000  0.81754000  0.63890000  1.0 1.1018795813
Ge  Ge7  1  0.06002000  0.78122000  0.20780000  1.0 1.0692304677
Ge  Ge8  1  0.17864000  0.91928000  0.36110000  1.0 1.0692304677
Ge  Ge9  1  0.07342000  0.28122000  0.72120000  1.0 1.061024114
Ge  Ge10  1  0.05818000  0.41928000  0.74064000  1.0 1.061024114
Ge  Ge11  1  0.56002000  0.35222000  0.27880000  1.0 1.0692304677
Ge  Ge12  1  0.67864000  0.31754000  0.25936000  1.0 1.0692304677
Ge  Ge13  1  0.17658000  0.39778000  0.70780000  1.0 1.061024114
Ge  Ge14  1  0.19182000  0.43246000  0.86110000  1.0 1.061024114
Ge  Ge15  1  0.68998000  0.46878000  0.29220000  1.0 1.1089560533
Ge  Ge16  1  0.57136000  0.33072000  0.13890000  1.0 1.061024114
Ge  Ge17  1  0.71878000  0.43998000  0.79220000  1.0 1.061024114
Ge  Ge18  1  0.58072000  0.32136000  0.63890000  1.0 1.0692304677
Ge  Ge19  1  0.64778000  0.92658000  0.20780000  1.0 1.0692304677
Ge  Ge20  1  0.68246000  0.94182000  0.36110000  1.0 1.1089560533
Ge  Ge21  1  0.53122000  0.82342000  0.22120000  1.0 1.1018795813
Ge  Ge22  1  0.66928000  0.80818000  0.24064000  1.0 1.1156031335
Ge  Ge23  1  0.60222000  0.31002000  0.77880000  1.0 1.061024114
Ge  Ge24  1  0.56754000  0.42864000  0.75936000  1.0 1.061024114
Ge  Ge25  1  0.03122000  0.81002000  0.70780000  1.0 1.0692304677
Ge  Ge26  1  0.16928000  0.92864000  0.86110000  1.0 1.0692304677
Ge  Ge27  1  0.10222000  0.32342000  0.29220000  1.0 1.0692304677
Ge  Ge28  1  0.06754000  0.30818000  0.13890000  1.0 1.0692304677
Ge  Ge29  1  0.21878000  0.42658000  0.27880000  1.0 1.061024114
Ge  Ge30  1  0.08072000  0.44182000  0.25936000  1.0 1.061024114
Ge  Ge31  1  0.14778000  0.93998000  0.72120000  1.0 1.1018795813
Ge  Ge32  1  0.18246000  0.82136000  0.74064000  1.0 1.1089560533
Mo  Mo1  1  0.87500000  0.12500000  0.75000000  1.0 0.6281335966
Mo  Mo2  1  0.37500000  0.12500000  0.25000000  1.0 0.6281335966
Mo  Mo3  1  0.37500000  0.62500000  0.75000000  1.0 0.6281335966
Mo  Mo4  1  0.87500000  0.62500000  0.25000000  1.0 0.6281335966
Mo  Mo5  1  0.88179000  0.88179000  0.00000000  1.0 0.5872665638
Mo  Mo6  1  0.36821000  0.86821000  0.50000000  1.0 0.5872665638
Mo  Mo7  1  0.86821000  0.36821000  0.50000000  1.0 0.5872665638
Mo  Mo8  1  0.38179000  0.38179000  0.00000000  1.0 0.5872665638
Mo  Mo9  1  0.87500000  0.62500000  0.75000000  1.0 0.6281335966
Mo  Mo10  1  0.87500000  0.12500000  0.25000000  1.0 0.6281335966
Mo  Mo11  1  0.37500000  0.62500000  0.25000000  1.0 0.620927676
Mo  Mo12  1  0.37500000  0.12500000  0.75000000  1.0 0.6281335966
Mo  Mo13  1  0.63179000  0.13179000  0.50000000  1.0 0.5872665638
Mo  Mo14  1  0.61821000  0.61821000  0.00000000  1.0 0.5872665638
Mo  Mo15  1  0.11821000  0.11821000  0.00000000  1.0 0.5872665638
Mo  Mo16  1  0.13179000  0.63179000  0.50000000  1.0 0.5872665638
S  S1  1  0.80350000  0.02240000  0.70850000  1.0 -0.1602827008
S  S2  1  0.84030000  0.18160000  0.79050000  1.0 0.1843323318
S  S3  1  0.72460000  0.07140000  0.82020000  1.0 -0.6634526705
S  S4  1  0.74794000  0.93436000  0.79824000  1.0 -0.6893218856
S  S5  1  0.60856000  0.92067000  0.67221000  1.0 -0.7181829517
S  S6  1  0.75509000  0.78943000  0.76810000  1.0 -0.6087453194
S  S7  1  0.87446000  0.80037000  0.92317000  1.0 -0.1407246556
S  S8  1  0.80971000  0.90605000  0.95394000  1.0 -0.2110285107
S  S9  1  0.88220000  0.09630000  0.82450000  1.0 0.0529454047
S  S10  1  0.85650000  0.18760000  0.81490000  1.0 0.0923773385
S  S11  1  0.78600000  0.12110000  0.71790000  1.0 0.1113567795
S  S12  1  0.89960000  0.12620000  0.85160000  1.0 0.0415740245
S  S13  1  0.77720000  0.09630000  0.70550000  1.0 0.1414278109
S  S14  1  0.78571000  0.79539000  0.92994000  1.0 -0.1496259059
S  S15  1  0.90798000  0.92274000  0.94350000  1.0 -0.2183720544
S  S16  1  0.31390000  0.09500000  0.29150000  1.0 -0.1602827008
S  S17  1  0.39110000  0.04980000  0.20950000  1.0 0.1870525735
S  S18  1  0.25120000  0.90440000  0.17980000  1.0 -0.6689451858
S  S19  1  0.13612000  0.94970000  0.20176000  1.0 -0.6784977769
S  S20  1  0.24846000  0.93635000  0.32779000  1.0 -0.7301955775
S  S21  1  0.02133000  0.98699000  0.23190000  1.0 -0.6213450586
S  S22  1  0.87720000  0.95129000  0.07683000  1.0 -0.1407246556
S  S23  1  0.95211000  0.85577000  0.04606000  1.0 -0.2110285107
S  S24  1  0.27180000  0.05770000  0.17550000  1.0 0.0529454047
S  S25  1  0.37270000  0.04160000  0.18510000  1.0 0.0985939881
S  S26  1  0.40320000  0.06810000  0.28210000  1.0 0.1113567795
S  S27  1  0.27460000  0.04800000  0.14840000  1.0 0.0415740245
S  S28  1  0.39080000  0.07170000  0.29450000  1.0 0.1414278109
S  S29  1  0.86545000  0.85577000  0.07006000  1.0 -0.1407246556
S  S30  1  0.97924000  0.96448000  0.05650000  1.0 -0.2183720544
S  S31  1  0.44650000  0.65500000  0.71890000  1.0 -0.1602827008
S  S32  1  0.40970000  0.70020000  0.84130000  1.0 0.1870525735
S  S33  1  0.52540000  0.84560000  0.84680000  1.0 -0.6689451858
S  S34  1  0.50206000  0.80030000  0.68642000  1.0 -0.6893218856
S  S35  1  0.64144000  0.81365000  0.81211000  1.0 -0.7181829517
S  S36  1  0.49491000  0.76301000  0.53434000  1.0 -0.6087453194
S  S37  1  0.37554000  0.79871000  0.42591000  1.0 -0.1496259059
S  S38  1  0.44029000  0.89423000  0.59634000  1.0 -0.2110285107
S  S39  1  0.36780000  0.69230000  0.71410000  1.0 0.057622693
S  S40  1  0.39350000  0.70840000  0.83110000  1.0 0.0985939881
S  S41  1  0.46400000  0.68190000  0.83510000  1.0 0.1212023366
S  S42  1  0.35040000  0.70200000  0.72660000  1.0 0.0415740245
S  S43  1  0.47280000  0.67830000  0.81910000  1.0 0.1489170123
S  S44  1  0.46429000  0.89423000  0.50968000  1.0 -0.1407246556
S  S45  1  0.34202000  0.78552000  0.51476000  1.0 -0.2183720544
S  S46  1  0.93610000  0.72760000  0.28110000  1.0 -0.1602827008
S  S47  1  0.85890000  0.56840000  0.15870000  1.0 0.1870525735
S  S48  1  0.99880000  0.67860000  0.15320000  1.0 -0.6689451858
S  S49  1  0.11388000  0.81564000  0.31358000  1.0 -0.6893218856
S  S50  1  0.00154000  0.82933000  0.18789000  1.0 -0.7301955775
S  S51  1  0.22867000  0.96057000  0.46566000  1.0 -0.6087453194
S  S52  1  0.37280000  0.94963000  0.57409000  1.0 -0.1496259059
S  S53  1  0.29789000  0.84395000  0.40366000  1.0 -0.2110285107
S  S54  1  0.97820000  0.65370000  0.28590000  1.0 0.057622693
S  S55  1  0.87730000  0.56240000  0.16890000  1.0 0.0985939881
S  S56  1  0.84680000  0.62890000  0.16490000  1.0 0.1113567795
S  S57  1  0.97540000  0.62380000  0.27340000  1.0 0.0415740245
S  S58  1  0.85920000  0.65370000  0.18090000  1.0 0.1414278109
S  S59  1  0.38455000  0.95461000  0.49032000  1.0 -0.1407246556
S  S60  1  0.27076000  0.82726000  0.48524000  1.0 -0.2183720544
S  S61  1  0.94650000  0.22760000  0.79150000  1.0 -0.1602827008
S  S62  1  0.90970000  0.06840000  0.70950000  1.0 0.1870525735
S  S63  1  0.02540000  0.17860000  0.67980000  1.0 -0.6689451858
S  S64  1  0.00206000  0.31564000  0.70176000  1.0 -0.6689451858
S  S65  1  0.14144000  0.32933000  0.82779000  1.0 -0.7097648462
S  S66  1  0.99491000  0.46057000  0.73190000  1.0 -0.603989696
S  S67  1  0.87554000  0.44963000  0.57683000  1.0 -0.1407246556
S  S68  1  0.94029000  0.34395000  0.54606000  1.0 -0.2110285107
S  S69  1  0.86780000  0.15370000  0.67550000  1.0 0.057622693
S  S70  1  0.89350000  0.06240000  0.68510000  1.0 0.0985939881
S  S71  1  0.96400000  0.12890000  0.78210000  1.0 0.1113567795
S  S72  1  0.85040000  0.12380000  0.64840000  1.0 0.0415740245
S  S73  1  0.97280000  0.15370000  0.79450000  1.0 0.1414278109
S  S74  1  0.96429000  0.45461000  0.57006000  1.0 -0.1407246556
S  S75  1  0.84202000  0.32726000  0.55650000  1.0 -0.2110285107
S  S76  1  0.43610000  0.15500000  0.20850000  1.0 -0.1602827008
S  S77  1  0.35890000  0.20020000  0.29050000  1.0 0.1843323318
S  S78  1  0.49880000  0.34560000  0.32020000  1.0 -0.6689451858
S  S79  1  0.61388000  0.30030000  0.29824000  1.0 -0.6784977769
S  S80  1  0.50154000  0.31365000  0.17221000  1.0 -0.7097648462
S  S81  1  0.72867000  0.26301000  0.26810000  1.0 -0.6087453194
S  S82  1  0.87280000  0.29871000  0.42317000  1.0 -0.1407246556
S  S83  1  0.79789000  0.39423000  0.45394000  1.0 -0.2110285107
S  S84  1  0.47820000  0.19230000  0.32450000  1.0 0.0529454047
S  S85  1  0.37730000  0.20840000  0.31490000  1.0 0.0923773385
S  S86  1  0.34680000  0.18190000  0.21790000  1.0 0.1113567795
S  S87  1  0.47540000  0.20200000  0.35160000  1.0 0.0415740245
S  S88  1  0.35920000  0.17830000  0.20550000  1.0 0.1414278109
S  S89  1  0.88455000  0.39423000  0.42994000  1.0 -0.1407246556
S  S90  1  0.77076000  0.28552000  0.44350000  1.0 -0.2183720544
S  S91  1  0.30350000  0.59500000  0.78110000  1.0 -0.1602827008
S  S92  1  0.34030000  0.54980000  0.65870000  1.0 0.1843323318
S  S93  1  0.22460000  0.40440000  0.65320000  1.0 -0.6689451858
S  S94  1  0.24794000  0.44970000  0.81358000  1.0 -0.6689451858
S  S95  1  0.10856000  0.43635000  0.68789000  1.0 -0.7097648462
S  S96  1  0.25509000  0.48699000  0.96566000  1.0 -0.6087453194
S  S97  1  0.37446000  0.45129000  0.07409000  1.0 -0.1496259059
S  S98  1  0.30971000  0.35577000  0.90366000  1.0 -0.2183720544
S  S99  1  0.38220000  0.55770000  0.78590000  1.0 0.0529454047
S  S100  1  0.35650000  0.54160000  0.66890000  1.0 0.0923773385
S  S101  1  0.28600000  0.56810000  0.66490000  1.0 0.1212023366
S  S102  1  0.39960000  0.54800000  0.77340000  1.0 0.0415740245
S  S103  1  0.27720000  0.57170000  0.68090000  1.0 0.1414278109
S  S104  1  0.28571000  0.35577000  0.99032000  1.0 -0.1407246556
S  S105  1  0.40798000  0.46448000  0.98524000  1.0 -0.2183720544
S  S106  1  0.81390000  0.52240000  0.21890000  1.0 -0.1602827008
S  S107  1  0.89110000  0.68160000  0.34130000  1.0 0.1870525735
S  S108  1  0.75120000  0.57140000  0.34680000  1.0 -0.6784977769
S  S109  1  0.63612000  0.43436000  0.18642000  1.0 -0.6784977769
S  S110  1  0.74846000  0.42067000  0.31211000  1.0 -0.737828747
S  S111  1  0.52133000  0.28943000  0.03434000  1.0 -0.6087453194
S  S112  1  0.37720000  0.30037000  0.92591000  1.0 -0.1496259059
S  S113  1  0.45211000  0.40605000  0.09634000  1.0 -0.2110285107
S  S114  1  0.77180000  0.59630000  0.21410000  1.0 0.057622693
S  S115  1  0.87270000  0.68760000  0.33110000  1.0 0.0985939881
S  S116  1  0.90320000  0.62110000  0.33510000  1.0 0.1113567795
S  S117  1  0.77460000  0.62620000  0.22660000  1.0 0.0415740245
S  S118  1  0.89080000  0.59630000  0.31910000  1.0 0.1564699593
S  S119  1  0.36545000  0.29539000  0.00968000  1.0 -0.1407246556
S  S120  1  0.47924000  0.42274000  0.01476000  1.0 -0.2183720544
S  S121  1  0.62500000  0.95737000  0.83237000  1.0 -0.8374968325
S  S122  1  0.62500000  0.77725000  0.65225000  1.0 -0.9038425242
S  S123  1  0.12500000  0.79263000  0.16763000  1.0 -0.8297070618
S  S124  1  0.12500000  0.97275000  0.34775000  1.0 -0.8673069631
S  S125  1  0.12500000  0.29263000  0.66763000  1.0 -0.8233657633
S  S126  1  0.12500000  0.47275000  0.84775000  1.0 -0.8567430978
S  S127  1  0.62500000  0.45737000  0.33237000  1.0 -0.8783201531
S  S128  1  0.62500000  0.27725000  0.15225000  1.0 -0.8567430978
S  S129  1  0.77240000  0.56390000  0.71890000  1.0 -0.1602827008
S  S130  1  0.93160000  0.64110000  0.84130000  1.0 0.1870525735
S  S131  1  0.82140000  0.50120000  0.84680000  1.0 -0.6689451858
S  S132  1  0.68436000  0.38612000  0.68642000  1.0 -0.6893218856
S  S133  1  0.67067000  0.49846000  0.81211000  1.0 -0.7097648462
S  S134  1  0.53943000  0.27133000  0.53434000  1.0 -0.6087453194
S  S135  1  0.55037000  0.12720000  0.42591000  1.0 -0.1496259059
S  S136  1  0.65605000  0.20211000  0.59634000  1.0 -0.2110285107
S  S137  1  0.84630000  0.52180000  0.71410000  1.0 0.057622693
S  S138  1  0.93760000  0.62270000  0.83110000  1.0 0.0923773385
S  S139  1  0.87110000  0.65320000  0.83510000  1.0 0.1113567795
S  S140  1  0.87620000  0.52460000  0.72660000  1.0 0.0415740245
S  S141  1  0.84630000  0.64080000  0.81910000  1.0 0.1414278109
S  S142  1  0.54539000  0.11545000  0.50968000  1.0 -0.1407246556
S  S143  1  0.67274000  0.22924000  0.51476000  1.0 -0.2183720544
S  S144  1  0.84500000  0.05350000  0.28110000  1.0 -0.1602827008
S  S145  1  0.79980000  0.09030000  0.15870000  1.0 0.1843323318
S  S146  1  0.65440000  0.97460000  0.15320000  1.0 -0.6634526705
S  S147  1  0.69970000  0.99794000  0.31358000  1.0 -0.6893218856
S  S148  1  0.68635000  0.85856000  0.18789000  1.0 -0.7181829517
S  S149  1  0.73699000  0.00509000  0.46566000  1.0 -0.6087453194
S  S150  1  0.70129000  0.12446000  0.57409000  1.0 -0.1496259059
S  S151  1  0.60577000  0.05971000  0.40366000  1.0 -0.2110285107
S  S152  1  0.80770000  0.13220000  0.28590000  1.0 0.0529454047
S  S153  1  0.79160000  0.10650000  0.16890000  1.0 0.0923773385
S  S154  1  0.81810000  0.03600000  0.16490000  1.0 0.1113567795
S  S155  1  0.79800000  0.14960000  0.27340000  1.0 0.0415740245
S  S156  1  0.82170000  0.02720000  0.18090000  1.0 0.1414278109
S  S157  1  0.60577000  0.03571000  0.49032000  1.0 -0.1407246556
S  S158  1  0.71448000  0.15798000  0.48524000  1.0 -0.2110285107
S  S159  1  0.47760000  0.69650000  0.29150000  1.0 -0.1602827008
S  S160  1  0.31840000  0.65970000  0.20950000  1.0 0.1870525735
S  S161  1  0.42860000  0.77540000  0.17980000  1.0 -0.6784977769
S  S162  1  0.56564000  0.75206000  0.20176000  1.0 -0.6893218856
S  S163  1  0.57933000  0.89144000  0.32779000  1.0 -0.7301955775
S  S164  1  0.71057000  0.74491000  0.23190000  1.0 -0.6213450586
S  S165  1  0.69963000  0.62554000  0.07683000  1.0 -0.1407246556
S  S166  1  0.59395000  0.69029000  0.04606000  1.0 -0.2110285107
S  S167  1  0.40370000  0.61780000  0.17550000  1.0 0.0529454047
S  S168  1  0.31240000  0.64350000  0.18510000  1.0 0.0985939881
S  S169  1  0.37890000  0.71400000  0.28210000  1.0 0.1113567795
S  S170  1  0.37380000  0.60040000  0.14840000  1.0 0.0415740245
S  S171  1  0.40370000  0.72280000  0.29450000  1.0 0.1414278109
S  S172  1  0.70461000  0.71429000  0.07006000  1.0 -0.1496259059
S  S173  1  0.57726000  0.59202000  0.05650000  1.0 -0.2183720544
S  S174  1  0.40500000  0.18610000  0.70850000  1.0 -0.1602827008
S  S175  1  0.45020000  0.10890000  0.79050000  1.0 0.1843323318
S  S176  1  0.59560000  0.24880000  0.82020000  1.0 -0.6689451858
S  S177  1  0.55030000  0.36388000  0.79824000  1.0 -0.6689451858
S  S178  1  0.56365000  0.25154000  0.67221000  1.0 -0.7097648462
S  S179  1  0.51301000  0.47867000  0.76810000  1.0 -0.6087453194
S  S180  1  0.54871000  0.62280000  0.92317000  1.0 -0.1496259059
S  S181  1  0.64423000  0.54789000  0.95394000  1.0 -0.2183720544
S  S182  1  0.44230000  0.22820000  0.82450000  1.0 0.0529454047
S  S183  1  0.45840000  0.12730000  0.81490000  1.0 0.0923773385
S  S184  1  0.43190000  0.09680000  0.71790000  1.0 0.1113567795
S  S185  1  0.45200000  0.22540000  0.85160000  1.0 0.0415740245
S  S186  1  0.42830000  0.10920000  0.70550000  1.0 0.1414278109
S  S187  1  0.64423000  0.63455000  0.92994000  1.0 -0.1407246556
S  S188  1  0.53552000  0.52076000  0.94350000  1.0 -0.2183720544
S  S189  1  0.97760000  0.68610000  0.78110000  1.0 -0.1602827008
S  S190  1  0.81840000  0.60890000  0.65870000  1.0 0.1843323318
S  S191  1  0.92860000  0.74880000  0.65320000  1.0 -0.6689451858
S  S192  1  0.06564000  0.86388000  0.81358000  1.0 -0.6893218856
S  S193  1  0.07933000  0.75154000  0.68789000  1.0 -0.7097648462
S  S194  1  0.21057000  0.97867000  0.96566000  1.0 -0.603989696
S  S195  1  0.19963000  0.12280000  0.07409000  1.0 -0.1496259059
S  S196  1  0.09395000  0.04789000  0.90366000  1.0 -0.2110285107
S  S197  1  0.90370000  0.72820000  0.78590000  1.0 0.0529454047
S  S198  1  0.81240000  0.62730000  0.66890000  1.0 0.0923773385
S  S199  1  0.87890000  0.59680000  0.66490000  1.0 0.1212023366
S  S200  1  0.87380000  0.72540000  0.77340000  1.0 0.0415740245
S  S201  1  0.90370000  0.60920000  0.68090000  1.0 0.1489170123
S  S202  1  0.20461000  0.13455000  0.99032000  1.0 -0.1407246556
S  S203  1  0.07726000  0.02076000  0.98524000  1.0 -0.2183720544
S  S204  1  0.90500000  0.19650000  0.21890000  1.0 -0.1602827008
S  S205  1  0.95020000  0.15970000  0.34130000  1.0 0.1870525735
S  S206  1  0.09560000  0.27540000  0.34680000  1.0 -0.6893218856
S  S207  1  0.05030000  0.25206000  0.18642000  1.0 -0.6893218856
S  S208  1  0.06365000  0.39144000  0.31211000  1.0 -0.7097648462
S  S209  1  0.01301000  0.24491000  0.03434000  1.0 -0.6087453194
S  S210  1  0.04871000  0.12554000  0.92591000  1.0 -0.1496259059
S  S211  1  0.14423000  0.19029000  0.09634000  1.0 -0.2110285107
S  S212  1  0.94230000  0.11780000  0.21410000  1.0 0.0529454047
S  S213  1  0.95840000  0.14350000  0.33110000  1.0 0.0923773385
S  S214  1  0.93190000  0.21400000  0.33510000  1.0 0.1113567795
S  S215  1  0.95200000  0.10040000  0.22660000  1.0 0.0415740245
S  S216  1  0.92830000  0.22280000  0.31910000  1.0 0.1414278109
S  S217  1  0.14423000  0.21429000  0.00968000  1.0 -0.1407246556
S  S218  1  0.03552000  0.09202000  0.01476000  1.0 -0.2183720544
S  S219  1  0.27240000  0.55350000  0.20850000  1.0 -0.1698593949
S  S220  1  0.43160000  0.59030000  0.29050000  1.0 0.1870525735
S  S221  1  0.32140000  0.47460000  0.32020000  1.0 -0.6893218856
S  S222  1  0.18436000  0.49794000  0.29824000  1.0 -0.6784977769
S  S223  1  0.17067000  0.35856000  0.17221000  1.0 -0.7097648462
S  S224  1  0.03943000  0.50509000  0.26810000  1.0 -0.603989696
S  S225  1  0.05037000  0.62446000  0.42317000  1.0 -0.1407246556
S  S226  1  0.15605000  0.55971000  0.45394000  1.0 -0.2110285107
S  S227  1  0.34630000  0.63220000  0.32450000  1.0 0.0529454047
S  S228  1  0.43760000  0.60650000  0.31490000  1.0 0.0923773385
S  S229  1  0.37110000  0.53600000  0.21790000  1.0 0.1212023366
S  S230  1  0.37620000  0.64960000  0.35160000  1.0 0.0415740245
S  S231  1  0.34630000  0.52720000  0.20550000  1.0 0.1346346712
S  S232  1  0.04539000  0.53571000  0.42994000  1.0 -0.1496259059
S  S233  1  0.17274000  0.65798000  0.44350000  1.0 -0.2183720544
S  S234  1  0.34500000  0.06390000  0.79150000  1.0 -0.1602827008
S  S235  1  0.29980000  0.14110000  0.70950000  1.0 0.1870525735
S  S236  1  0.15440000  0.00120000  0.67980000  1.0 -0.6689451858
S  S237  1  0.19970000  0.88612000  0.70176000  1.0 -0.6893218856
S  S238  1  0.18635000  0.99846000  0.82779000  1.0 -0.7181829517
S  S239  1  0.23699000  0.77133000  0.73190000  1.0 -0.6087453194
S  S240  1  0.20129000  0.62720000  0.57683000  1.0 -0.1496259059
S  S241  1  0.10577000  0.70211000  0.54606000  1.0 -0.2110285107
S  S242  1  0.30770000  0.02180000  0.67550000  1.0 0.0529454047
S  S243  1  0.29160000  0.12270000  0.68510000  1.0 0.0985939881
S  S244  1  0.31810000  0.15320000  0.78210000  1.0 0.1113567795
S  S245  1  0.29800000  0.02460000  0.64840000  1.0 0.0415740245
S  S246  1  0.32170000  0.14080000  0.79450000  1.0 0.1414278109
S  S247  1  0.10577000  0.61545000  0.57006000  1.0 -0.1407246556
S  S248  1  0.21448000  0.72924000  0.55650000  1.0 -0.2110285107
S  S249  1  0.70737000  0.37500000  0.83237000  1.0 -0.8297070618
S  S250  1  0.52725000  0.37500000  0.65225000  1.0 -0.8567430978
S  S251  1  0.54263000  0.87500000  0.16763000  1.0 -0.8783201531
S  S252  1  0.72275000  0.87500000  0.34775000  1.0 -0.9069112694
S  S253  1  0.04263000  0.87500000  0.66763000  1.0 -0.8783201531
S  S254  1  0.22275000  0.87500000  0.84775000  1.0 -0.9069112694
S  S255  1  0.20737000  0.37500000  0.33237000  1.0 -0.8297070618
S  S256  1  0.02725000  0.37500000  0.15225000  1.0 -0.8567430978
