# DDEC6 charges by PACMAN v1.1 (https://github.com/mtap-research/PACMAN-charge/)
data_BIDPOV_ASR_pacman
_symmetry_space_group_name_H-M   'P 1'
_cell_length_a   21.10980000
_cell_length_b   21.10980000
_cell_length_c   21.10980000
_cell_angle_alpha   52.51350000
_cell_angle_beta   52.51350000
_cell_angle_gamma   52.51350000
_symmetry_Int_Tables_number   1
_chemical_formula_structural   CuH9C17O4
_chemical_formula_sum   'Cu6 H54 C102 O24'
_cell_volume   5482.75610393
_cell_formula_units_Z   6
loop_
 _symmetry_equiv_pos_site_id
 _symmetry_equiv_pos_as_xyz
  1  'x, y, z'
loop_
 _atom_site_type_symbol
 _atom_site_label
 _atom_site_symmetry_multiplicity
 _atom_site_fract_x
 _atom_site_fract_y
 _atom_site_fract_z
 _atom_site_occupancy
 _atom_site_charge
Cu  Cu1  1  0.49629000  0.49636000  0.06720000  1.0 0.8538877767
Cu  Cu2  1  0.49636000  0.06720000  0.49629000  1.0 0.8538877767
Cu  Cu3  1  0.06720000  0.49629000  0.49636000  1.0 0.8538877767
Cu  Cu4  1  0.50371000  0.50364000  0.93280000  1.0 0.8538877767
Cu  Cu5  1  0.50364000  0.93280000  0.50371000  1.0 0.8538877767
Cu  Cu6  1  0.93280000  0.50371000  0.50364000  1.0 0.8538877767
H  H1  1  0.53970000  0.24240000  0.02680000  1.0 0.1379751266
H  H2  1  0.24240000  0.02680000  0.53970000  1.0 0.1379751266
H  H3  1  0.02680000  0.53970000  0.24240000  1.0 0.1379751266
H  H4  1  0.46030000  0.75760000  0.97320000  1.0 0.1379751266
H  H5  1  0.75760000  0.97320000  0.46030000  1.0 0.1379751266
H  H6  1  0.97320000  0.46030000  0.75760000  1.0 0.1379751266
H  H7  1  0.52910000  0.23090000  0.23010000  1.0 0.1379751266
H  H8  1  0.23090000  0.23010000  0.52910000  1.0 0.1379751266
H  H9  1  0.23010000  0.52910000  0.23090000  1.0 0.1379751266
H  H10  1  0.47090000  0.76910000  0.76990000  1.0 0.1379751266
H  H11  1  0.76910000  0.76990000  0.47090000  1.0 0.1379751266
H  H12  1  0.76990000  0.47090000  0.76910000  1.0 0.1379751266
H  H13  1  0.53940000  0.02710000  0.24210000  1.0 0.1379751266
H  H14  1  0.02710000  0.24210000  0.53940000  1.0 0.1379751266
H  H15  1  0.24210000  0.53940000  0.02710000  1.0 0.1379751266
H  H16  1  0.46060000  0.97290000  0.75790000  1.0 0.1379751266
H  H17  1  0.97290000  0.75790000  0.46060000  1.0 0.1379751266
H  H18  1  0.75790000  0.46060000  0.97290000  1.0 0.1379751266
H  H19  1  0.49390000  0.06960000  0.81370000  1.0 0.1221202762
H  H20  1  0.06960000  0.81370000  0.49390000  1.0 0.1221202762
H  H21  1  0.81370000  0.49390000  0.06960000  1.0 0.1221202762
H  H22  1  0.50610000  0.93040000  0.18630000  1.0 0.1221202762
H  H23  1  0.93040000  0.18630000  0.50610000  1.0 0.1221202762
H  H24  1  0.18630000  0.50610000  0.93040000  1.0 0.1221202762
H  H25  1  0.49340000  0.21180000  0.73110000  1.0 0.1221202762
H  H26  1  0.21180000  0.73110000  0.49340000  1.0 0.1221202762
H  H27  1  0.73110000  0.49340000  0.21180000  1.0 0.1221202762
H  H28  1  0.50660000  0.78820000  0.26890000  1.0 0.1221202762
H  H29  1  0.78820000  0.26890000  0.50660000  1.0 0.1221202762
H  H30  1  0.26890000  0.50660000  0.78820000  1.0 0.1221202762
H  H31  1  0.50020000  0.27010000  0.79110000  1.0 0.1221202762
H  H32  1  0.27010000  0.79110000  0.50020000  1.0 0.1221202762
H  H33  1  0.79110000  0.50020000  0.27010000  1.0 0.1221202762
H  H34  1  0.49980000  0.72990000  0.20890000  1.0 0.1221202762
H  H35  1  0.72990000  0.20890000  0.49980000  1.0 0.1221202762
H  H36  1  0.20890000  0.49980000  0.72990000  1.0 0.1221202762
H  H37  1  0.50060000  0.18890000  0.93130000  1.0 0.1290702672
H  H38  1  0.18890000  0.93130000  0.50060000  1.0 0.1290702672
H  H39  1  0.93130000  0.50060000  0.18890000  1.0 0.1290702672
H  H40  1  0.49940000  0.81110000  0.06870000  1.0 0.1290702672
H  H41  1  0.81110000  0.06870000  0.49940000  1.0 0.1290702672
H  H42  1  0.06870000  0.49940000  0.81110000  1.0 0.1290702672
H  H43  1  0.50860000  0.13340000  0.92030000  1.0 0.1006167402
H  H44  1  0.13340000  0.92030000  0.50860000  1.0 0.1006167402
H  H45  1  0.92030000  0.50860000  0.13340000  1.0 0.1006167402
H  H46  1  0.49140000  0.86660000  0.07970000  1.0 0.1006167402
H  H47  1  0.86660000  0.07970000  0.49140000  1.0 0.1006167402
H  H48  1  0.07970000  0.49140000  0.86660000  1.0 0.1006167402
H  H49  1  0.49840000  0.07790000  0.86360000  1.0 0.1006167402
H  H50  1  0.07790000  0.86360000  0.49840000  1.0 0.1006167402
H  H51  1  0.86360000  0.49840000  0.07790000  1.0 0.1006167402
H  H52  1  0.50160000  0.92210000  0.13640000  1.0 0.1006167402
H  H53  1  0.92210000  0.13640000  0.50160000  1.0 0.1006167402
H  H54  1  0.13640000  0.50160000  0.92210000  1.0 0.1006167402
C  C1  1  0.52607000  0.34217000  0.07377000  1.0 0.5808319898
C  C2  1  0.34217000  0.07377000  0.52607000  1.0 0.5808319898
C  C3  1  0.07377000  0.52607000  0.34217000  1.0 0.5808319898
C  C4  1  0.47393000  0.65783000  0.92623000  1.0 0.5808319898
C  C5  1  0.65783000  0.92623000  0.47393000  1.0 0.5808319898
C  C6  1  0.92623000  0.47393000  0.65783000  1.0 0.5808319898
C  C7  1  0.53298000  0.25088000  0.12098000  1.0 -0.031948134
C  C8  1  0.25088000  0.12098000  0.53298000  1.0 -0.031948134
C  C9  1  0.12098000  0.53298000  0.25088000  1.0 -0.031948134
C  C10  1  0.46702000  0.74912000  0.87902000  1.0 -0.031948134
C  C11  1  0.74912000  0.87902000  0.46702000  1.0 -0.031948134
C  C12  1  0.87902000  0.46702000  0.74912000  1.0 -0.031948134
C  C13  1  0.53679000  0.21279000  0.08329000  1.0 -0.1212920686
C  C14  1  0.21279000  0.08329000  0.53679000  1.0 -0.1212920686
C  C15  1  0.08329000  0.53679000  0.21279000  1.0 -0.1212920686
C  C16  1  0.46321000  0.78721000  0.91671000  1.0 -0.1212920686
C  C17  1  0.78721000  0.91671000  0.46321000  1.0 -0.1212920686
C  C18  1  0.91671000  0.46321000  0.78721000  1.0 -0.1212920686
C  C19  1  0.53635000  0.12955000  0.12995000  1.0 0.1470478874
C  C20  1  0.12955000  0.12995000  0.53635000  1.0 0.1470478874
C  C21  1  0.12995000  0.53635000  0.12955000  1.0 0.1470478874
C  C22  1  0.46365000  0.87045000  0.87005000  1.0 0.1470478874
C  C23  1  0.87045000  0.87005000  0.46365000  1.0 0.1470478874
C  C24  1  0.87005000  0.46365000  0.87045000  1.0 0.1470478874
C  C25  1  0.51745000  0.06785000  0.06775000  1.0 -0.1891633196
C  C26  1  0.06785000  0.06775000  0.51745000  1.0 -0.1891633196
C  C27  1  0.06775000  0.51745000  0.06785000  1.0 -0.1891633196
C  C28  1  0.48255000  0.93215000  0.93225000  1.0 -0.1891633196
C  C29  1  0.93215000  0.93225000  0.48255000  1.0 -0.1891633196
C  C30  1  0.93225000  0.48255000  0.93215000  1.0 -0.1891633196
C  C31  1  0.53258000  0.09288000  0.09248000  1.0 -0.1089005999
C  C32  1  0.09288000  0.09248000  0.53258000  1.0 -0.1089005999
C  C33  1  0.09248000  0.53258000  0.09288000  1.0 -0.1089005999
C  C34  1  0.46742000  0.90712000  0.90752000  1.0 -0.1089005999
C  C35  1  0.90712000  0.90752000  0.46742000  1.0 -0.1089005999
C  C36  1  0.90752000  0.46742000  0.90712000  1.0 -0.1089005999
C  C37  1  0.49990000  0.08210000  0.95390000  1.0 -0.0483578746
C  C38  1  0.08210000  0.95390000  0.49990000  1.0 -0.0483578746
C  C39  1  0.95390000  0.49990000  0.08210000  1.0 -0.0483578746
C  C40  1  0.50010000  0.91790000  0.04610000  1.0 -0.0483578746
C  C41  1  0.91790000  0.04610000  0.50010000  1.0 -0.0483578746
C  C42  1  0.04610000  0.50010000  0.91790000  1.0 -0.0483578746
C  C43  1  0.50753000  0.03453000  0.03443000  1.0 0.0473318914
C  C44  1  0.03453000  0.03443000  0.50753000  1.0 0.0473318914
C  C45  1  0.03443000  0.50753000  0.03453000  1.0 0.0473318914
C  C46  1  0.49247000  0.96547000  0.96557000  1.0 0.0473318914
C  C47  1  0.96547000  0.96557000  0.49247000  1.0 0.0473318914
C  C48  1  0.96557000  0.49247000  0.96547000  1.0 0.0473318914
C  C49  1  0.49733000  0.04633000  0.91943000  1.0 -0.0573396067
C  C50  1  0.04633000  0.91943000  0.49733000  1.0 -0.0573396067
C  C51  1  0.91943000  0.49733000  0.04633000  1.0 -0.0573396067
C  C52  1  0.50267000  0.95367000  0.08057000  1.0 -0.0573396067
C  C53  1  0.95367000  0.08057000  0.50267000  1.0 -0.0573396067
C  C54  1  0.08057000  0.50267000  0.95367000  1.0 -0.0573396067
C  C55  1  0.53136000  0.20546000  0.20486000  1.0 -0.0848641692
C  C56  1  0.20546000  0.20486000  0.53136000  1.0 -0.0848641692
C  C57  1  0.20486000  0.53136000  0.20546000  1.0 -0.0912184341
C  C58  1  0.46864000  0.79454000  0.79514000  1.0 -0.0848641692
C  C59  1  0.79454000  0.79514000  0.46864000  1.0 -0.0848641692
C  C60  1  0.79514000  0.46864000  0.79454000  1.0 -0.0848641692
C  C61  1  0.53315000  0.12085000  0.25105000  1.0 -0.031948134
C  C62  1  0.12085000  0.25105000  0.53315000  1.0 -0.031948134
C  C63  1  0.25105000  0.53315000  0.12085000  1.0 -0.031948134
C  C64  1  0.46685000  0.87915000  0.74895000  1.0 -0.031948134
C  C65  1  0.87915000  0.74895000  0.46685000  1.0 -0.031948134
C  C66  1  0.74895000  0.46685000  0.87915000  1.0 -0.031948134
C  C67  1  0.53679000  0.08339000  0.21239000  1.0 -0.1212920686
C  C68  1  0.08339000  0.21239000  0.53679000  1.0 -0.1212920686
C  C69  1  0.21239000  0.53679000  0.08339000  1.0 -0.1212920686
C  C70  1  0.46321000  0.91661000  0.78761000  1.0 -0.1212920686
C  C71  1  0.91661000  0.78761000  0.46321000  1.0 -0.1212920686
C  C72  1  0.78761000  0.46321000  0.91661000  1.0 -0.1212920686
C  C73  1  0.52631000  0.07371000  0.34211000  1.0 0.5808319898
C  C74  1  0.07371000  0.34211000  0.52631000  1.0 0.5808319898
C  C75  1  0.34211000  0.52631000  0.07371000  1.0 0.5808319898
C  C76  1  0.47369000  0.92629000  0.65789000  1.0 0.5808319898
C  C77  1  0.92629000  0.65789000  0.47369000  1.0 0.5808319898
C  C78  1  0.65789000  0.47369000  0.92629000  1.0 0.5808319898
C  C79  1  0.49534000  0.09434000  0.83684000  1.0 -0.0912184341
C  C80  1  0.09434000  0.83684000  0.49534000  1.0 -0.0912184341
C  C81  1  0.83684000  0.49534000  0.09434000  1.0 -0.0912184341
C  C82  1  0.50466000  0.90566000  0.16316000  1.0 -0.0912184341
C  C83  1  0.90566000  0.16316000  0.50466000  1.0 -0.0912184341
C  C84  1  0.16316000  0.50466000  0.90566000  1.0 -0.0912184341
C  C85  1  0.49557000  0.18087000  0.78557000  1.0 -0.1375128626
C  C86  1  0.18087000  0.78557000  0.49557000  1.0 -0.1375128626
C  C87  1  0.78557000  0.49557000  0.18087000  1.0 -0.1375128626
C  C88  1  0.50443000  0.81913000  0.21443000  1.0 -0.1375128626
C  C89  1  0.81913000  0.21443000  0.50443000  1.0 -0.1375128626
C  C90  1  0.21443000  0.50443000  0.81913000  1.0 -0.1375128626
C  C91  1  0.49874000  0.21544000  0.82154000  1.0 -0.1255099474
C  C92  1  0.21544000  0.82154000  0.49874000  1.0 -0.1255099474
C  C93  1  0.82154000  0.49874000  0.21544000  1.0 -0.1212920686
C  C94  1  0.50126000  0.78456000  0.17846000  1.0 -0.1212920686
C  C95  1  0.78456000  0.17846000  0.50126000  1.0 -0.1212920686
C  C96  1  0.17846000  0.50126000  0.78456000  1.0 -0.1255099474
C  C97  1  0.49978000  0.16508000  0.90668000  1.0 -0.1089005999
C  C98  1  0.16508000  0.90668000  0.49978000  1.0 -0.1212920686
C  C99  1  0.90668000  0.49978000  0.16508000  1.0 -0.1212920686
C  C100  1  0.50022000  0.83492000  0.09332000  1.0 -0.1212920686
C  C101  1  0.83492000  0.09332000  0.50022000  1.0 -0.1089005999
C  C102  1  0.09332000  0.50022000  0.83492000  1.0 -0.1089005999
O  O1  1  0.52024000  0.37357000  0.11267000  1.0 -0.5141764336
O  O2  1  0.37357000  0.11267000  0.52024000  1.0 -0.5141764336
O  O3  1  0.11267000  0.52024000  0.37357000  1.0 -0.5141764336
O  O4  1  0.47976000  0.62643000  0.88733000  1.0 -0.5141764336
O  O5  1  0.62643000  0.88733000  0.47976000  1.0 -0.5141764336
O  O6  1  0.88733000  0.47976000  0.62643000  1.0 -0.5141764336
O  O7  1  0.52025000  0.11250000  0.37364000  1.0 -0.5141764336
O  O8  1  0.11250000  0.37364000  0.52025000  1.0 -0.5141764336
O  O9  1  0.37364000  0.52025000  0.11250000  1.0 -0.5141764336
O  O10  1  0.47975000  0.88750000  0.62636000  1.0 -0.5141764336
O  O11  1  0.88750000  0.62636000  0.47975000  1.0 -0.5141764336
O  O12  1  0.62636000  0.47975000  0.88750000  1.0 -0.5141764336
O  O13  1  0.52535000  0.00033000  0.38015000  1.0 -0.5141764336
O  O14  1  0.00033000  0.38015000  0.52535000  1.0 -0.5141764336
O  O15  1  0.38015000  0.52535000  0.00033000  1.0 -0.5141764336
O  O16  1  0.47465000  0.99967000  0.61985000  1.0 -0.5141764336
O  O17  1  0.99967000  0.61985000  0.47465000  1.0 -0.5141764336
O  O18  1  0.61985000  0.47465000  0.99967000  1.0 -0.5154427289
O  O19  1  0.52530000  0.38025000  0.00028000  1.0 -0.5141764336
O  O20  1  0.38025000  0.00028000  0.52530000  1.0 -0.5141764336
O  O21  1  0.00028000  0.52530000  0.38025000  1.0 -0.5141764336
O  O22  1  0.47470000  0.61975000  0.99972000  1.0 -0.5154427289
O  O23  1  0.61975000  0.99972000  0.47470000  1.0 -0.5141764336
O  O24  1  0.99972000  0.47470000  0.61975000  1.0 -0.5141764336
