# DDEC6 charges by PACMAN v1.1 (https://github.com/mtap-research/PACMAN-charge/)
data_BIFGOO_ASR_pacman
_symmetry_space_group_name_H-M   'P 1'
_cell_length_a   19.27500000
_cell_length_b   19.27500000
_cell_length_c   13.12300000
_cell_angle_alpha   90.00000000
_cell_angle_beta   90.00000000
_cell_angle_gamma   120.00000000
_symmetry_Int_Tables_number   1
_chemical_formula_structural   K3Cu14H96C72I16(N2O3)6
_chemical_formula_sum   'K3 Cu14 H96 C72 I16 N12 O18'
_cell_volume   4222.33350971
_cell_formula_units_Z   1
loop_
 _symmetry_equiv_pos_site_id
 _symmetry_equiv_pos_as_xyz
  1  'x, y, z'
loop_
 _atom_site_type_symbol
 _atom_site_label
 _atom_site_symmetry_multiplicity
 _atom_site_fract_x
 _atom_site_fract_y
 _atom_site_fract_z
 _atom_site_occupancy
 _atom_site_charge
K  K1  1  0.50000000  0.50000000  0.00000000  1.0 0.7654062255
K  K2  1  0.50000000  0.00000000  0.00000000  1.0 0.763282661
K  K3  1  0.00000000  0.50000000  0.00000000  1.0 0.7654062255
Cu  Cu1  1  0.40034000  0.64565000  0.57622000  1.0 0.1626346304
Cu  Cu2  1  0.35435000  0.75469000  0.57622000  1.0 0.1626346304
Cu  Cu3  1  0.24531000  0.59966000  0.57622000  1.0 0.1626346304
Cu  Cu4  1  0.59966000  0.35435000  0.42378000  1.0 0.1626346304
Cu  Cu5  1  0.64565000  0.24531000  0.42378000  1.0 0.1626346304
Cu  Cu6  1  0.75469000  0.40034000  0.42378000  1.0 0.1626346304
Cu  Cu7  1  0.33333333  0.66666667  0.74913000  1.0 -0.0176128664
Cu  Cu8  1  0.66666667  0.33333333  0.25087000  1.0 -0.0176128664
Cu  Cu9  1  0.45160000  0.68940000  0.84950000  1.0 0.1419299289
Cu  Cu10  1  0.31060000  0.76220000  0.84950000  1.0 0.1419299289
Cu  Cu11  1  0.23780000  0.54840000  0.84950000  1.0 0.1419299289
Cu  Cu12  1  0.54840000  0.31060000  0.15050000  1.0 0.1419299289
Cu  Cu13  1  0.68940000  0.23780000  0.15050000  1.0 0.1419299289
Cu  Cu14  1  0.76220000  0.45160000  0.15050000  1.0 0.1419299289
H  H1  1  0.56410000  0.67440000  0.63140000  1.0 0.0906835473
H  H2  1  0.32560000  0.88970000  0.63140000  1.0 0.0906835473
H  H3  1  0.11030000  0.43590000  0.63140000  1.0 0.0906835473
H  H4  1  0.43590000  0.32560000  0.36860000  1.0 0.0906835473
H  H5  1  0.67440000  0.11030000  0.36860000  1.0 0.0906835473
H  H6  1  0.88970000  0.56410000  0.36860000  1.0 0.0906835473
H  H7  1  0.42390000  0.56640000  0.39840000  1.0 0.0906835473
H  H8  1  0.43360000  0.85750000  0.39840000  1.0 0.0906835473
H  H9  1  0.14250000  0.57610000  0.39840000  1.0 0.0906835473
H  H10  1  0.57610000  0.43360000  0.60160000  1.0 0.0906835473
H  H11  1  0.56640000  0.14250000  0.60160000  1.0 0.0906835473
H  H12  1  0.85750000  0.42390000  0.60160000  1.0 0.0906835473
H  H13  1  0.66560000  0.66230000  0.56060000  1.0 0.1202286227
H  H14  1  0.33770000  0.00330000  0.56060000  1.0 0.1202286227
H  H15  1  0.99670000  0.33440000  0.56060000  1.0 0.1202286227
H  H16  1  0.33440000  0.33770000  0.43940000  1.0 0.1202286227
H  H17  1  0.66230000  0.99670000  0.43940000  1.0 0.1202286227
H  H18  1  0.00330000  0.66560000  0.43940000  1.0 0.1202286227
H  H19  1  0.55590000  0.51900000  0.26420000  1.0 0.1094831694
H  H20  1  0.48100000  0.03690000  0.26420000  1.0 0.1094831694
H  H21  1  0.96310000  0.44410000  0.26420000  1.0 0.1094831694
H  H22  1  0.44410000  0.48100000  0.73580000  1.0 0.1094831694
H  H23  1  0.51900000  0.96310000  0.73580000  1.0 0.1094831694
H  H24  1  0.03690000  0.55590000  0.73580000  1.0 0.1094831694
H  H25  1  0.46320000  0.49190000  0.27370000  1.0 0.0999668764
H  H26  1  0.50810000  0.97130000  0.27370000  1.0 0.0999668764
H  H27  1  0.02870000  0.53680000  0.27370000  1.0 0.0999668764
H  H28  1  0.53680000  0.50810000  0.72630000  1.0 0.0999668764
H  H29  1  0.49190000  0.02870000  0.72630000  1.0 0.0999668764
H  H30  1  0.97130000  0.46320000  0.72630000  1.0 0.0999668764
H  H31  1  0.47880000  0.65380000  0.12650000  1.0 0.1202286227
H  H32  1  0.34620000  0.82500000  0.12650000  1.0 0.1202286227
H  H33  1  0.17500000  0.52120000  0.12650000  1.0 0.1202286227
H  H34  1  0.52120000  0.34620000  0.87350000  1.0 0.1202286227
H  H35  1  0.65380000  0.17500000  0.87350000  1.0 0.1202286227
H  H36  1  0.82500000  0.47880000  0.87350000  1.0 0.1202286227
H  H37  1  0.47110000  0.64770000  0.24770000  1.0 0.0999668764
H  H38  1  0.35230000  0.82340000  0.24770000  1.0 0.0999668764
H  H39  1  0.17660000  0.52890000  0.24770000  1.0 0.0999668764
H  H40  1  0.52890000  0.35230000  0.75230000  1.0 0.0999668764
H  H41  1  0.64770000  0.17660000  0.75230000  1.0 0.0999668764
H  H42  1  0.82340000  0.47110000  0.75230000  1.0 0.0999668764
H  H43  1  0.36780000  0.51740000  0.23630000  1.0 0.0823818327
H  H44  1  0.48260000  0.85040000  0.23630000  1.0 0.0823818327
H  H45  1  0.14960000  0.63220000  0.23630000  1.0 0.0823818327
H  H46  1  0.63220000  0.48260000  0.76370000  1.0 0.0823818327
H  H47  1  0.51740000  0.14960000  0.76370000  1.0 0.0823818327
H  H48  1  0.85040000  0.36780000  0.76370000  1.0 0.0823818327
H  H49  1  0.34730000  0.57540000  0.17160000  1.0 0.0906835473
H  H50  1  0.42460000  0.77190000  0.17160000  1.0 0.0906835473
H  H51  1  0.22810000  0.65270000  0.17160000  1.0 0.0906835473
H  H52  1  0.65270000  0.42460000  0.82840000  1.0 0.0906835473
H  H53  1  0.57540000  0.22810000  0.82840000  1.0 0.0906835473
H  H54  1  0.77190000  0.34730000  0.82840000  1.0 0.0906835473
H  H55  1  0.64690000  0.60180000  0.39770000  1.0 0.1202286227
H  H56  1  0.39820000  0.04510000  0.39770000  1.0 0.1202286227
H  H57  1  0.95490000  0.35310000  0.39770000  1.0 0.1202286227
H  H58  1  0.35310000  0.39820000  0.60230000  1.0 0.1202286227
H  H59  1  0.60180000  0.95490000  0.60230000  1.0 0.1202286227
H  H60  1  0.04510000  0.64690000  0.60230000  1.0 0.1202286227
H  H61  1  0.67220000  0.61090000  0.20850000  1.0 0.0999668764
H  H62  1  0.38910000  0.06130000  0.20850000  1.0 0.0999668764
H  H63  1  0.93870000  0.32780000  0.20850000  1.0 0.0999668764
H  H64  1  0.32780000  0.38910000  0.79150000  1.0 0.0999668764
H  H65  1  0.61090000  0.93870000  0.79150000  1.0 0.0999668764
H  H66  1  0.06130000  0.67220000  0.79150000  1.0 0.0999668764
H  H67  1  0.72240000  0.69810000  0.15800000  1.0 0.1094831694
H  H68  1  0.30190000  0.02430000  0.15800000  1.0 0.1094831694
H  H69  1  0.97570000  0.27760000  0.15800000  1.0 0.1094831694
H  H70  1  0.27760000  0.30190000  0.84200000  1.0 0.1094831694
H  H71  1  0.69810000  0.97570000  0.84200000  1.0 0.1094831694
H  H72  1  0.02430000  0.72240000  0.84200000  1.0 0.1094831694
H  H73  1  0.70140000  0.54070000  0.08240000  1.0 0.0906835473
H  H74  1  0.45930000  0.16070000  0.08240000  1.0 0.0906835473
H  H75  1  0.83930000  0.29860000  0.08240000  1.0 0.0906835473
H  H76  1  0.29860000  0.45930000  0.91760000  1.0 0.0906835473
H  H77  1  0.54070000  0.83930000  0.91760000  1.0 0.0906835473
H  H78  1  0.16070000  0.70140000  0.91760000  1.0 0.0906835473
H  H79  1  0.76660000  0.62980000  0.04880000  1.0 0.0823818327
H  H80  1  0.37020000  0.13680000  0.04880000  1.0 0.0823818327
H  H81  1  0.86320000  0.23340000  0.04880000  1.0 0.0823818327
H  H82  1  0.23340000  0.37020000  0.95120000  1.0 0.0823818327
H  H83  1  0.62980000  0.86320000  0.95120000  1.0 0.0823818327
H  H84  1  0.13680000  0.76660000  0.95120000  1.0 0.0823818327
H  H85  1  0.25560000  0.46040000  0.08540000  1.0 0.0906835473
H  H86  1  0.53960000  0.79520000  0.08540000  1.0 0.0906835473
H  H87  1  0.20480000  0.74440000  0.08540000  1.0 0.0906835473
H  H88  1  0.74440000  0.53960000  0.91460000  1.0 0.0906835473
H  H89  1  0.46040000  0.20480000  0.91460000  1.0 0.0906835473
H  H90  1  0.79520000  0.25560000  0.91460000  1.0 0.0906835473
H  H91  1  0.28350000  0.39800000  0.11970000  1.0 0.0906835473
H  H92  1  0.60200000  0.88550000  0.11970000  1.0 0.0906835473
H  H93  1  0.11450000  0.71650000  0.11970000  1.0 0.0906835473
H  H94  1  0.71650000  0.60200000  0.88030000  1.0 0.0906835473
H  H95  1  0.39800000  0.11450000  0.88030000  1.0 0.0906835473
H  H96  1  0.88550000  0.28350000  0.88030000  1.0 0.0906835473
C  C1  1  0.55570000  0.64920000  0.56680000  1.0 0.0347987345
C  C2  1  0.35080000  0.90650000  0.56680000  1.0 0.0353350422
C  C3  1  0.09350000  0.44430000  0.56680000  1.0 0.0347987345
C  C4  1  0.44430000  0.35080000  0.43320000  1.0 0.0347987345
C  C5  1  0.64920000  0.09350000  0.43320000  1.0 0.0353350422
C  C6  1  0.90650000  0.55570000  0.43320000  1.0 0.0353350422
C  C7  1  0.53320000  0.57700000  0.38220000  1.0 0.0679168372
C  C8  1  0.42300000  0.95620000  0.38220000  1.0 0.0679168372
C  C9  1  0.04380000  0.46680000  0.38220000  1.0 0.0679168372
C  C10  1  0.46680000  0.42300000  0.61780000  1.0 0.0679168372
C  C11  1  0.57700000  0.04380000  0.61780000  1.0 0.0679168372
C  C12  1  0.95620000  0.53320000  0.61780000  1.0 0.0679168372
C  C13  1  0.47420000  0.58650000  0.43140000  1.0 0.0021677961
C  C14  1  0.41350000  0.88770000  0.43140000  1.0 0.0021677961
C  C15  1  0.11230000  0.52580000  0.43140000  1.0 0.0021677961
C  C16  1  0.52580000  0.41350000  0.56860000  1.0 0.0021677961
C  C17  1  0.58650000  0.11230000  0.56860000  1.0 0.0021677961
C  C18  1  0.88770000  0.47420000  0.56860000  1.0 0.0021677961
C  C19  1  0.61620000  0.64260000  0.52550000  1.0 -0.1499038891
C  C20  1  0.35740000  0.97360000  0.52550000  1.0 -0.1499038891
C  C21  1  0.02640000  0.38380000  0.52550000  1.0 -0.1499038891
C  C22  1  0.38380000  0.35740000  0.47450000  1.0 -0.1499038891
C  C23  1  0.64260000  0.02640000  0.47450000  1.0 -0.1499038891
C  C24  1  0.97360000  0.61620000  0.47450000  1.0 -0.1499038891
C  C25  1  0.51800000  0.53890000  0.27510000  1.0 -0.1830529379
C  C26  1  0.46110000  0.97910000  0.27510000  1.0 -0.1830529379
C  C27  1  0.02090000  0.48200000  0.27510000  1.0 -0.1830529379
C  C28  1  0.48200000  0.46110000  0.72490000  1.0 -0.1830529379
C  C29  1  0.53890000  0.02090000  0.72490000  1.0 -0.1830529379
C  C30  1  0.97910000  0.51800000  0.72490000  1.0 -0.1830529379
C  C31  1  0.46630000  0.61700000  0.18500000  1.0 -0.1666817423
C  C32  1  0.38300000  0.84930000  0.18500000  1.0 -0.1666817423
C  C33  1  0.15070000  0.53370000  0.18500000  1.0 -0.1666817423
C  C34  1  0.53370000  0.38300000  0.81500000  1.0 -0.1666817423
C  C35  1  0.61700000  0.15070000  0.81500000  1.0 -0.1666817423
C  C36  1  0.84930000  0.46630000  0.81500000  1.0 -0.1666817423
C  C37  1  0.38310000  0.55250000  0.17550000  1.0 -0.06175401
C  C38  1  0.44750000  0.83060000  0.17550000  1.0 -0.06175401
C  C39  1  0.16940000  0.61690000  0.17550000  1.0 -0.06175401
C  C40  1  0.61690000  0.44750000  0.82450000  1.0 -0.06175401
C  C41  1  0.55250000  0.16940000  0.82450000  1.0 -0.06175401
C  C42  1  0.83060000  0.38310000  0.82450000  1.0 -0.06175401
C  C43  1  0.60480000  0.60600000  0.42910000  1.0 -0.1210458397
C  C44  1  0.39400000  0.99880000  0.42910000  1.0 -0.1210458397
C  C45  1  0.00120000  0.39520000  0.42910000  1.0 -0.1210458397
C  C46  1  0.39520000  0.39400000  0.57090000  1.0 -0.1210458397
C  C47  1  0.60600000  0.00120000  0.57090000  1.0 -0.1210458397
C  C48  1  0.99880000  0.60480000  0.57090000  1.0 -0.1210458397
C  C49  1  0.60720000  0.66360000  0.18160000  1.0 -0.2279792819
C  C50  1  0.33640000  0.94360000  0.18160000  1.0 -0.2279792819
C  C51  1  0.05640000  0.39280000  0.18160000  1.0 -0.2279792819
C  C52  1  0.39280000  0.33640000  0.81840000  1.0 -0.2279792819
C  C53  1  0.66360000  0.05640000  0.81840000  1.0 -0.2279792819
C  C54  1  0.94360000  0.60720000  0.81840000  1.0 -0.2279792819
C  C55  1  0.67030000  0.64750000  0.15690000  1.0 -0.0984758219
C  C56  1  0.35250000  0.02280000  0.15690000  1.0 -0.0984758219
C  C57  1  0.97720000  0.32970000  0.15690000  1.0 -0.0984758219
C  C58  1  0.32970000  0.35250000  0.84310000  1.0 -0.0984758219
C  C59  1  0.64750000  0.97720000  0.84310000  1.0 -0.0984758219
C  C60  1  0.02280000  0.67030000  0.84310000  1.0 -0.0984758219
C  C61  1  0.71170000  0.58510000  0.03570000  1.0 -0.06854801
C  C62  1  0.41490000  0.12660000  0.03570000  1.0 -0.06854801
C  C63  1  0.87340000  0.28830000  0.03570000  1.0 -0.06854801
C  C64  1  0.28830000  0.41490000  0.96430000  1.0 -0.06854801
C  C65  1  0.58510000  0.87340000  0.96430000  1.0 -0.06854801
C  C66  1  0.12660000  0.71170000  0.96430000  1.0 -0.06854801
C  C67  1  0.29470000  0.44230000  0.07220000  1.0 -0.06854801
C  C68  1  0.55770000  0.85240000  0.07220000  1.0 -0.06854801
C  C69  1  0.14760000  0.70530000  0.07220000  1.0 -0.06854801
C  C70  1  0.70530000  0.55770000  0.92780000  1.0 -0.06854801
C  C71  1  0.44230000  0.14760000  0.92780000  1.0 -0.06854801
C  C72  1  0.85240000  0.29470000  0.92780000  1.0 -0.06854801
I  I1  1  0.33333333  0.66666667  0.40693000  1.0 -0.4150847153
I  I2  1  0.66666667  0.33333333  0.59307000  1.0 -0.413679357
I  I3  1  0.29947000  0.52021000  0.68535000  1.0 -0.2888094541
I  I4  1  0.47979000  0.77926000  0.68535000  1.0 -0.2888094541
I  I5  1  0.22074000  0.70053000  0.68535000  1.0 -0.2888094541
I  I6  1  0.70053000  0.47979000  0.31465000  1.0 -0.2888094541
I  I7  1  0.52021000  0.22074000  0.31465000  1.0 -0.2888094541
I  I8  1  0.77926000  0.29947000  0.31465000  1.0 -0.2888094541
I  I9  1  0.33333333  0.66666667  0.94872000  1.0 -0.2568598942
I  I10  1  0.66666667  0.33333333  0.05128000  1.0 -0.2568598942
I  I11  1  0.56890000  0.67650000  0.87200000  1.0 0.340857227
I  I12  1  0.32350000  0.89240000  0.87200000  1.0 0.340857227
I  I13  1  0.10760000  0.43110000  0.87200000  1.0 0.340857227
I  I14  1  0.43110000  0.32350000  0.12800000  1.0 0.340857227
I  I15  1  0.67650000  0.10760000  0.12800000  1.0 0.340857227
I  I16  1  0.89240000  0.56890000  0.12800000  1.0 0.340857227
N  N1  1  0.48400000  0.62170000  0.52140000  1.0 -0.1607661601
N  N2  1  0.37830000  0.86230000  0.52140000  1.0 -0.1607661601
N  N3  1  0.13770000  0.51600000  0.52140000  1.0 -0.1607661601
N  N4  1  0.51600000  0.37830000  0.47860000  1.0 -0.1607661601
N  N5  1  0.62170000  0.13770000  0.47860000  1.0 -0.1607661601
N  N6  1  0.86230000  0.48400000  0.47860000  1.0 -0.1607661601
N  N7  1  0.52610000  0.59210000  0.18900000  1.0 -0.0899401089
N  N8  1  0.40790000  0.93400000  0.18900000  1.0 -0.0899401089
N  N9  1  0.06600000  0.47390000  0.18900000  1.0 -0.0899401089
N  N10  1  0.47390000  0.40790000  0.81100000  1.0 -0.0899401089
N  N11  1  0.59210000  0.06600000  0.81100000  1.0 -0.0899401089
N  N12  1  0.93400000  0.52610000  0.81100000  1.0 -0.0899401089
O  O1  1  0.37410000  0.50670000  0.08610000  1.0 -0.2386509832
O  O2  1  0.49330000  0.86740000  0.08610000  1.0 -0.2386509832
O  O3  1  0.13260000  0.62590000  0.08610000  1.0 -0.2386509832
O  O4  1  0.62590000  0.49330000  0.91390000  1.0 -0.2386509832
O  O5  1  0.50670000  0.13260000  0.91390000  1.0 -0.2386509832
O  O6  1  0.86740000  0.37410000  0.91390000  1.0 -0.2386509832
O  O7  1  0.65670000  0.61040000  0.05460000  1.0 -0.2279792819
O  O8  1  0.38960000  0.04630000  0.05460000  1.0 -0.2279792819
O  O9  1  0.95370000  0.34330000  0.05460000  1.0 -0.2279792819
O  O10  1  0.34330000  0.38960000  0.94540000  1.0 -0.2279792819
O  O11  1  0.61040000  0.95370000  0.94540000  1.0 -0.2279792819
O  O12  1  0.04630000  0.65670000  0.94540000  1.0 -0.2279792819
O  O13  1  0.50240000  0.63200000  0.89900000  1.0 -0.3395864821
O  O14  1  0.36800000  0.87040000  0.89900000  1.0 -0.3395864821
O  O15  1  0.12960000  0.49760000  0.89900000  1.0 -0.3395864821
O  O16  1  0.49760000  0.36800000  0.10100000  1.0 -0.3395864821
O  O17  1  0.63200000  0.12960000  0.10100000  1.0 -0.3395864821
O  O18  1  0.87040000  0.50240000  0.10100000  1.0 -0.3395864821
