# DDEC6 charges by PACMAN v1.1 (https://github.com/mtap-research/PACMAN-charge/)
data_BIFSIV_ASR_pacman
_symmetry_space_group_name_H-M   'P 1'
_cell_length_a   14.73420000
_cell_length_b   14.73420000
_cell_length_c   8.56410000
_cell_angle_alpha   90.00000000
_cell_angle_beta   90.00000000
_cell_angle_gamma   120.00000000
_symmetry_Int_Tables_number   1
_chemical_formula_structural   UH24C33NO6
_chemical_formula_sum   'U2 H48 C66 N2 O12'
_cell_volume   1610.14683495
_cell_formula_units_Z   2
loop_
 _symmetry_equiv_pos_site_id
 _symmetry_equiv_pos_as_xyz
  1  'x, y, z'
loop_
 _atom_site_type_symbol
 _atom_site_label
 _atom_site_symmetry_multiplicity
 _atom_site_fract_x
 _atom_site_fract_y
 _atom_site_fract_z
 _atom_site_occupancy
 _atom_site_charge
U  U1  1  0.66666667  0.33333333  0.25000000  1.0 1.8360518633
U  U2  1  0.33333333  0.66666667  0.75000000  1.0 1.8339497267
H  H1  1  0.31170000  0.03510000  0.16120000  1.0 0.1179328141
H  H2  1  0.12770000  0.94520000  0.14420000  1.0 0.1102789361
H  H3  1  0.12750000  0.95780000  0.48220000  1.0 0.0982361889
H  H4  1  0.32410000  0.05330000  0.45660000  1.0 0.1102789361
H  H5  1  0.72340000  0.68830000  0.16120000  1.0 0.1179328141
H  H6  1  0.81750000  0.87230000  0.14420000  1.0 0.1102789361
H  H7  1  0.83030000  0.87250000  0.48220000  1.0 0.0982361889
H  H8  1  0.72920000  0.67590000  0.45660000  1.0 0.1102789361
H  H9  1  0.96490000  0.27660000  0.16120000  1.0 0.1179328141
H  H10  1  0.05480000  0.18250000  0.14420000  1.0 0.1102789361
H  H11  1  0.04220000  0.16970000  0.48220000  1.0 0.0982361889
H  H12  1  0.94670000  0.27080000  0.45660000  1.0 0.1102789361
H  H13  1  0.72340000  0.03510000  0.33880000  1.0 0.1179328141
H  H14  1  0.81750000  0.94520000  0.35580000  1.0 0.1102789361
H  H15  1  0.83030000  0.95780000  0.01780000  1.0 0.0982361889
H  H16  1  0.72920000  0.05330000  0.04340000  1.0 0.1102789361
H  H17  1  0.96490000  0.68830000  0.33880000  1.0 0.1179328141
H  H18  1  0.05480000  0.87230000  0.35580000  1.0 0.1102789361
H  H19  1  0.04220000  0.87250000  0.01780000  1.0 0.0982361889
H  H20  1  0.94670000  0.67590000  0.04340000  1.0 0.1102789361
H  H21  1  0.31170000  0.27660000  0.33880000  1.0 0.1179328141
H  H22  1  0.12770000  0.18250000  0.35580000  1.0 0.1102789361
H  H23  1  0.12750000  0.16970000  0.01780000  1.0 0.0982361889
H  H24  1  0.32410000  0.27080000  0.04340000  1.0 0.1102789361
H  H25  1  0.68830000  0.96490000  0.83880000  1.0 0.1179328141
H  H26  1  0.87230000  0.05480000  0.85580000  1.0 0.1102789361
H  H27  1  0.87250000  0.04220000  0.51780000  1.0 0.0982361889
H  H28  1  0.67590000  0.94670000  0.54340000  1.0 0.1102789361
H  H29  1  0.27660000  0.31170000  0.83880000  1.0 0.1179328141
H  H30  1  0.18250000  0.12770000  0.85580000  1.0 0.1102789361
H  H31  1  0.16970000  0.12750000  0.51780000  1.0 0.0982361889
H  H32  1  0.27080000  0.32410000  0.54340000  1.0 0.1102789361
H  H33  1  0.03510000  0.72340000  0.83880000  1.0 0.1179328141
H  H34  1  0.94520000  0.81750000  0.85580000  1.0 0.1102789361
H  H35  1  0.95780000  0.83030000  0.51780000  1.0 0.0982361889
H  H36  1  0.05330000  0.72920000  0.54340000  1.0 0.1102789361
H  H37  1  0.27660000  0.96490000  0.66120000  1.0 0.1179328141
H  H38  1  0.18250000  0.05480000  0.64420000  1.0 0.1102789361
H  H39  1  0.16970000  0.04220000  0.98220000  1.0 0.0982361889
H  H40  1  0.27080000  0.94670000  0.95660000  1.0 0.1102789361
H  H41  1  0.03510000  0.31170000  0.66120000  1.0 0.1179328141
H  H42  1  0.94520000  0.12770000  0.64420000  1.0 0.1102789361
H  H43  1  0.95780000  0.12750000  0.98220000  1.0 0.0982361889
H  H44  1  0.05330000  0.32410000  0.95660000  1.0 0.1102789361
H  H45  1  0.68830000  0.72340000  0.66120000  1.0 0.1179328141
H  H46  1  0.87230000  0.81750000  0.64420000  1.0 0.1102789361
H  H47  1  0.87250000  0.83030000  0.98220000  1.0 0.0982361889
H  H48  1  0.67590000  0.72920000  0.95660000  1.0 0.1102789361
C  C1  1  0.27490000  0.06700000  0.21200000  1.0 -0.0803629973
C  C2  1  0.16400000  0.01310000  0.19800000  1.0 -0.1536643323
C  C3  1  0.16750000  0.01830000  0.41400000  1.0 -0.1793453004
C  C4  1  0.28000000  0.07300000  0.39700000  1.0 -0.0859476806
C  C5  1  0.79210000  0.72510000  0.21200000  1.0 -0.0803629973
C  C6  1  0.84910000  0.83600000  0.19800000  1.0 -0.1536643323
C  C7  1  0.85080000  0.83250000  0.41400000  1.0 -0.1793453004
C  C8  1  0.79300000  0.72000000  0.39700000  1.0 -0.0803629973
C  C9  1  0.93300000  0.20790000  0.21200000  1.0 -0.0803629973
C  C10  1  0.98690000  0.15090000  0.19800000  1.0 -0.1536643323
C  C11  1  0.98170000  0.14920000  0.41400000  1.0 -0.1793453004
C  C12  1  0.92700000  0.20700000  0.39700000  1.0 -0.0803629973
C  C13  1  0.79210000  0.06700000  0.28800000  1.0 -0.0803629973
C  C14  1  0.84910000  0.01310000  0.30200000  1.0 -0.1536643323
C  C15  1  0.85080000  0.01830000  0.08600000  1.0 -0.1793453004
C  C16  1  0.79300000  0.07300000  0.10300000  1.0 -0.0803629973
C  C17  1  0.93300000  0.72510000  0.28800000  1.0 -0.0803629973
C  C18  1  0.98690000  0.83600000  0.30200000  1.0 -0.1536643323
C  C19  1  0.98170000  0.83250000  0.08600000  1.0 -0.1793453004
C  C20  1  0.92700000  0.72000000  0.10300000  1.0 -0.0803629973
C  C21  1  0.27490000  0.20790000  0.28800000  1.0 -0.0803629973
C  C22  1  0.16400000  0.15090000  0.30200000  1.0 -0.1536643323
C  C23  1  0.16750000  0.14920000  0.08600000  1.0 -0.1793453004
C  C24  1  0.28000000  0.20700000  0.10300000  1.0 -0.0803629973
C  C25  1  0.44610000  0.22305000  0.25000000  1.0 0.5130748469
C  C26  1  0.33100000  0.16550000  0.25000000  1.0 0.0180336667
C  C27  1  0.11100000  0.05550000  0.25000000  1.0 0.1179328141
C  C28  1  0.77695000  0.55390000  0.25000000  1.0 0.5130748469
C  C29  1  0.83450000  0.66900000  0.25000000  1.0 0.0180336667
C  C30  1  0.94450000  0.88900000  0.25000000  1.0 0.1179328141
C  C31  1  0.77695000  0.22305000  0.25000000  1.0 0.5130748469
C  C32  1  0.83450000  0.16550000  0.25000000  1.0 0.0180336667
C  C33  1  0.94450000  0.05550000  0.25000000  1.0 0.1179328141
C  C34  1  0.72510000  0.93300000  0.78800000  1.0 -0.0803629973
C  C35  1  0.83600000  0.98690000  0.80200000  1.0 -0.1536643323
C  C36  1  0.83250000  0.98170000  0.58600000  1.0 -0.1793453004
C  C37  1  0.72000000  0.92700000  0.60300000  1.0 -0.0803629973
C  C38  1  0.20790000  0.27490000  0.78800000  1.0 -0.0803629973
C  C39  1  0.15090000  0.16400000  0.80200000  1.0 -0.1536643323
C  C40  1  0.14920000  0.16750000  0.58600000  1.0 -0.1793453004
C  C41  1  0.20700000  0.28000000  0.60300000  1.0 -0.0803629973
C  C42  1  0.06700000  0.79210000  0.78800000  1.0 -0.0803629973
C  C43  1  0.01310000  0.84910000  0.80200000  1.0 -0.1536643323
C  C44  1  0.01830000  0.85080000  0.58600000  1.0 -0.1793453004
C  C45  1  0.07300000  0.79300000  0.60300000  1.0 -0.0859476806
C  C46  1  0.20790000  0.93300000  0.71200000  1.0 -0.0803629973
C  C47  1  0.15090000  0.98690000  0.69800000  1.0 -0.1536643323
C  C48  1  0.14920000  0.98170000  0.91400000  1.0 -0.1793453004
C  C49  1  0.20700000  0.92700000  0.89700000  1.0 -0.0803629973
C  C50  1  0.06700000  0.27490000  0.71200000  1.0 -0.0803629973
C  C51  1  0.01310000  0.16400000  0.69800000  1.0 -0.1536643323
C  C52  1  0.01830000  0.16750000  0.91400000  1.0 -0.1793453004
C  C53  1  0.07300000  0.28000000  0.89700000  1.0 -0.0803629973
C  C54  1  0.72510000  0.79210000  0.71200000  1.0 -0.0803629973
C  C55  1  0.83600000  0.84910000  0.69800000  1.0 -0.1536643323
C  C56  1  0.83250000  0.85080000  0.91400000  1.0 -0.1793453004
C  C57  1  0.72000000  0.79300000  0.89700000  1.0 -0.0803629973
C  C58  1  0.55390000  0.77695000  0.75000000  1.0 0.5130748469
C  C59  1  0.66900000  0.83450000  0.75000000  1.0 0.0180336667
C  C60  1  0.88900000  0.94450000  0.75000000  1.0 0.1179328141
C  C61  1  0.22305000  0.44610000  0.75000000  1.0 0.5130748469
C  C62  1  0.16550000  0.33100000  0.75000000  1.0 0.0180336667
C  C63  1  0.05550000  0.11100000  0.75000000  1.0 0.1179328141
C  C64  1  0.22305000  0.77695000  0.75000000  1.0 0.5130748469
C  C65  1  0.16550000  0.83450000  0.75000000  1.0 0.0180336667
C  C66  1  0.05550000  0.94450000  0.75000000  1.0 0.1179328141
N  N1  1  0.00000000  0.00000000  0.25000000  1.0 -0.1536643323
N  N2  1  0.00000000  0.00000000  0.75000000  1.0 -0.1536643323
O  O1  1  0.49380000  0.17510000  0.24700000  1.0 -0.5468038749
O  O2  1  0.68130000  0.50620000  0.24700000  1.0 -0.5468038749
O  O3  1  0.82490000  0.31870000  0.24700000  1.0 -0.5468038749
O  O4  1  0.68130000  0.17510000  0.25300000  1.0 -0.5468038749
O  O5  1  0.82490000  0.50620000  0.25300000  1.0 -0.5468038749
O  O6  1  0.49380000  0.31870000  0.25300000  1.0 -0.5468038749
O  O7  1  0.50620000  0.82490000  0.75300000  1.0 -0.5468038749
O  O8  1  0.31870000  0.49380000  0.75300000  1.0 -0.5468038749
O  O9  1  0.17510000  0.68130000  0.75300000  1.0 -0.5468038749
O  O10  1  0.31870000  0.82490000  0.74700000  1.0 -0.5468038749
O  O11  1  0.17510000  0.49380000  0.74700000  1.0 -0.5468038749
O  O12  1  0.50620000  0.68130000  0.74700000  1.0 -0.5468038749
