# DDEC6 charges by PACMAN v1.1 (https://github.com/mtap-research/PACMAN-charge/)
data_BIHBEB_ASR_pacman
_symmetry_space_group_name_H-M   'P 1'
_cell_length_a   22.85800000
_cell_length_b   22.85800000
_cell_length_c   14.04200000
_cell_angle_alpha   90.00000000
_cell_angle_beta   90.00000000
_cell_angle_gamma   120.00000000
_symmetry_Int_Tables_number   1
_chemical_formula_structural   Cr6Cd3H96C120(N6O13)2
_chemical_formula_sum   'Cr6 Cd3 H96 C120 N12 O26'
_cell_volume   6353.83682178
_cell_formula_units_Z   1
loop_
 _symmetry_equiv_pos_site_id
 _symmetry_equiv_pos_as_xyz
  1  'x, y, z'
loop_
 _atom_site_type_symbol
 _atom_site_label
 _atom_site_symmetry_multiplicity
 _atom_site_fract_x
 _atom_site_fract_y
 _atom_site_fract_z
 _atom_site_occupancy
 _atom_site_charge
Cr  Cr1  1  0.28521000  0.71479000  0.50000000  1.0 1.3469670214
Cr  Cr2  1  0.71479000  0.28521000  0.50000000  1.0 1.3469670214
Cr  Cr3  1  0.28521000  0.57042000  0.50000000  1.0 1.3469670214
Cr  Cr4  1  0.42958000  0.71479000  0.50000000  1.0 1.3469670214
Cr  Cr5  1  0.57042000  0.28521000  0.50000000  1.0 1.3469670214
Cr  Cr6  1  0.71479000  0.42958000  0.50000000  1.0 1.3469670214
Cd  Cd1  1  0.00000000  0.50000000  0.00000000  1.0 0.5240290957
Cd  Cd2  1  0.50000000  0.50000000  0.00000000  1.0 0.5240290957
Cd  Cd3  1  0.50000000  0.00000000  0.00000000  1.0 0.5291437703
H  H1  1  0.18480000  0.51010000  0.23450000  1.0 0.0947063985
H  H2  1  0.81520000  0.48990000  0.23450000  1.0 0.0947063985
H  H3  1  0.48990000  0.67470000  0.23450000  1.0 0.0947063985
H  H4  1  0.32530000  0.81520000  0.23450000  1.0 0.0947063985
H  H5  1  0.67470000  0.18480000  0.23450000  1.0 0.0947063985
H  H6  1  0.51010000  0.32530000  0.23450000  1.0 0.0947063985
H  H7  1  0.67470000  0.48990000  0.76550000  1.0 0.0947063985
H  H8  1  0.81520000  0.32530000  0.76550000  1.0 0.0947063985
H  H9  1  0.51010000  0.18480000  0.76550000  1.0 0.0947063985
H  H10  1  0.48990000  0.81520000  0.76550000  1.0 0.0947063985
H  H11  1  0.18480000  0.67470000  0.76550000  1.0 0.0947063985
H  H12  1  0.32530000  0.51010000  0.76550000  1.0 0.0947063985
H  H13  1  0.81520000  0.48990000  0.76550000  1.0 0.0947063985
H  H14  1  0.18480000  0.51010000  0.76550000  1.0 0.0947063985
H  H15  1  0.51010000  0.32530000  0.76550000  1.0 0.0947063985
H  H16  1  0.67470000  0.18480000  0.76550000  1.0 0.0947063985
H  H17  1  0.32530000  0.81520000  0.76550000  1.0 0.0947063985
H  H18  1  0.48990000  0.67470000  0.76550000  1.0 0.0947063985
H  H19  1  0.32530000  0.51010000  0.23450000  1.0 0.0947063985
H  H20  1  0.18480000  0.67470000  0.23450000  1.0 0.0947063985
H  H21  1  0.48990000  0.81520000  0.23450000  1.0 0.0947063985
H  H22  1  0.51010000  0.18480000  0.23450000  1.0 0.0947063985
H  H23  1  0.81520000  0.32530000  0.23450000  1.0 0.0947063985
H  H24  1  0.67470000  0.48990000  0.23450000  1.0 0.0947063985
H  H25  1  0.11190000  0.47500000  0.10320000  1.0 0.0435857268
H  H26  1  0.88810000  0.52500000  0.10320000  1.0 0.0435857268
H  H27  1  0.52500000  0.63690000  0.10320000  1.0 0.0435857268
H  H28  1  0.36310000  0.88810000  0.10320000  1.0 0.0435857268
H  H29  1  0.63690000  0.11190000  0.10320000  1.0 0.0435857268
H  H30  1  0.47500000  0.36310000  0.10320000  1.0 0.0435857268
H  H31  1  0.63690000  0.52500000  0.89680000  1.0 0.0435857268
H  H32  1  0.88810000  0.36310000  0.89680000  1.0 0.0435857268
H  H33  1  0.47500000  0.11190000  0.89680000  1.0 0.0435857268
H  H34  1  0.52500000  0.88810000  0.89680000  1.0 0.0435857268
H  H35  1  0.11190000  0.63690000  0.89680000  1.0 0.0435857268
H  H36  1  0.36310000  0.47500000  0.89680000  1.0 0.0435857268
H  H37  1  0.88810000  0.52500000  0.89680000  1.0 0.0435857268
H  H38  1  0.11190000  0.47500000  0.89680000  1.0 0.0435857268
H  H39  1  0.47500000  0.36310000  0.89680000  1.0 0.0435857268
H  H40  1  0.63690000  0.11190000  0.89680000  1.0 0.0435857268
H  H41  1  0.36310000  0.88810000  0.89680000  1.0 0.0435857268
H  H42  1  0.52500000  0.63690000  0.89680000  1.0 0.0435857268
H  H43  1  0.36310000  0.47500000  0.10320000  1.0 0.0435857268
H  H44  1  0.11190000  0.63690000  0.10320000  1.0 0.0435857268
H  H45  1  0.52500000  0.88810000  0.10320000  1.0 0.0435857268
H  H46  1  0.47500000  0.11190000  0.10320000  1.0 0.0435857268
H  H47  1  0.88810000  0.36310000  0.10320000  1.0 0.0435857268
H  H48  1  0.63690000  0.52500000  0.10320000  1.0 0.0435857268
H  H49  1  0.05190000  0.44660000  0.16910000  1.0 0.0456210583
H  H50  1  0.94810000  0.55340000  0.16910000  1.0 0.0456210583
H  H51  1  0.55340000  0.60530000  0.16910000  1.0 0.0456210583
H  H52  1  0.39470000  0.94810000  0.16910000  1.0 0.0456210583
H  H53  1  0.60530000  0.05190000  0.16910000  1.0 0.0456210583
H  H54  1  0.44660000  0.39470000  0.16910000  1.0 0.0456210583
H  H55  1  0.60530000  0.55340000  0.83090000  1.0 0.0456210583
H  H56  1  0.94810000  0.39470000  0.83090000  1.0 0.0456210583
H  H57  1  0.44660000  0.05190000  0.83090000  1.0 0.0456210583
H  H58  1  0.55340000  0.94810000  0.83090000  1.0 0.0456210583
H  H59  1  0.05190000  0.60530000  0.83090000  1.0 0.0456210583
H  H60  1  0.39470000  0.44660000  0.83090000  1.0 0.0456210583
H  H61  1  0.94810000  0.55340000  0.83090000  1.0 0.0456210583
H  H62  1  0.05190000  0.44660000  0.83090000  1.0 0.0456210583
H  H63  1  0.44660000  0.39470000  0.83090000  1.0 0.0456210583
H  H64  1  0.60530000  0.05190000  0.83090000  1.0 0.0456210583
H  H65  1  0.39470000  0.94810000  0.83090000  1.0 0.0456210583
H  H66  1  0.55340000  0.60530000  0.83090000  1.0 0.0456210583
H  H67  1  0.39470000  0.44660000  0.16910000  1.0 0.0456210583
H  H68  1  0.05190000  0.60530000  0.16910000  1.0 0.0456210583
H  H69  1  0.55340000  0.94810000  0.16910000  1.0 0.0456210583
H  H70  1  0.44660000  0.05190000  0.16910000  1.0 0.0456210583
H  H71  1  0.94810000  0.39470000  0.16910000  1.0 0.0456210583
H  H72  1  0.60530000  0.55340000  0.16910000  1.0 0.0456210583
H  H73  1  0.12760000  0.48060000  0.29630000  1.0 0.0963557925
H  H74  1  0.87240000  0.51940000  0.29630000  1.0 0.0963557925
H  H75  1  0.51940000  0.64700000  0.29630000  1.0 0.0963557925
H  H76  1  0.35300000  0.87240000  0.29630000  1.0 0.0963557925
H  H77  1  0.64700000  0.12760000  0.29630000  1.0 0.0963557925
H  H78  1  0.48060000  0.35300000  0.29630000  1.0 0.0963557925
H  H79  1  0.64700000  0.51940000  0.70370000  1.0 0.0963557925
H  H80  1  0.87240000  0.35300000  0.70370000  1.0 0.0963557925
H  H81  1  0.48060000  0.12760000  0.70370000  1.0 0.0963557925
H  H82  1  0.51940000  0.87240000  0.70370000  1.0 0.0963557925
H  H83  1  0.12760000  0.64700000  0.70370000  1.0 0.0963557925
H  H84  1  0.35300000  0.48060000  0.70370000  1.0 0.0963557925
H  H85  1  0.87240000  0.51940000  0.70370000  1.0 0.0963557925
H  H86  1  0.12760000  0.48060000  0.70370000  1.0 0.0963557925
H  H87  1  0.48060000  0.35300000  0.70370000  1.0 0.0963557925
H  H88  1  0.64700000  0.12760000  0.70370000  1.0 0.0963557925
H  H89  1  0.35300000  0.87240000  0.70370000  1.0 0.0963557925
H  H90  1  0.51940000  0.64700000  0.70370000  1.0 0.0963557925
H  H91  1  0.35300000  0.48060000  0.29630000  1.0 0.0963557925
H  H92  1  0.12760000  0.64700000  0.29630000  1.0 0.0963557925
H  H93  1  0.51940000  0.87240000  0.29630000  1.0 0.0963557925
H  H94  1  0.48060000  0.12760000  0.29630000  1.0 0.0963557925
H  H95  1  0.87240000  0.35300000  0.29630000  1.0 0.0963557925
H  H96  1  0.64700000  0.51940000  0.29630000  1.0 0.0963557925
C  C1  1  0.20520000  0.60260000  0.36880000  1.0 0.4817804468
C  C2  1  0.79480000  0.39740000  0.36880000  1.0 0.4817804468
C  C3  1  0.39740000  0.60260000  0.36880000  1.0 0.4817804468
C  C4  1  0.39740000  0.79480000  0.36880000  1.0 0.4817804468
C  C5  1  0.60260000  0.20520000  0.36880000  1.0 0.4817804468
C  C6  1  0.60260000  0.39740000  0.36880000  1.0 0.4817804468
C  C7  1  0.60260000  0.39740000  0.63120000  1.0 0.4817804468
C  C8  1  0.79480000  0.39740000  0.63120000  1.0 0.4817804468
C  C9  1  0.60260000  0.20520000  0.63120000  1.0 0.4817804468
C  C10  1  0.39740000  0.79480000  0.63120000  1.0 0.4817804468
C  C11  1  0.20520000  0.60260000  0.63120000  1.0 0.4817804468
C  C12  1  0.39740000  0.60260000  0.63120000  1.0 0.4817804468
C  C13  1  0.16230000  0.58115000  0.27990000  1.0 -0.0234359108
C  C14  1  0.83770000  0.41885000  0.27990000  1.0 -0.0234359108
C  C15  1  0.41885000  0.58115000  0.27990000  1.0 -0.0234359108
C  C16  1  0.41885000  0.83770000  0.27990000  1.0 -0.0234359108
C  C17  1  0.58115000  0.16230000  0.27990000  1.0 -0.0234359108
C  C18  1  0.58115000  0.41885000  0.27990000  1.0 -0.0234359108
C  C19  1  0.58115000  0.41885000  0.72010000  1.0 -0.0234359108
C  C20  1  0.83770000  0.41885000  0.72010000  1.0 -0.0234359108
C  C21  1  0.58115000  0.16230000  0.72010000  1.0 -0.0234359108
C  C22  1  0.41885000  0.83770000  0.72010000  1.0 -0.0234359108
C  C23  1  0.16230000  0.58115000  0.72010000  1.0 -0.0234359108
C  C24  1  0.41885000  0.58115000  0.72010000  1.0 -0.0234359108
C  C25  1  0.15830000  0.53060000  0.22130000  1.0 -0.0801724096
C  C26  1  0.84170000  0.46940000  0.22130000  1.0 -0.0801724096
C  C27  1  0.46940000  0.62770000  0.22130000  1.0 -0.0801724096
C  C28  1  0.37230000  0.84170000  0.22130000  1.0 -0.0801724096
C  C29  1  0.62770000  0.15830000  0.22130000  1.0 -0.0801724096
C  C30  1  0.53060000  0.37230000  0.22130000  1.0 -0.0801724096
C  C31  1  0.62770000  0.46940000  0.77870000  1.0 -0.0801724096
C  C32  1  0.84170000  0.37230000  0.77870000  1.0 -0.0801724096
C  C33  1  0.53060000  0.15830000  0.77870000  1.0 -0.0801724096
C  C34  1  0.46940000  0.84170000  0.77870000  1.0 -0.0801724096
C  C35  1  0.15830000  0.62770000  0.77870000  1.0 -0.0801724096
C  C36  1  0.37230000  0.53060000  0.77870000  1.0 -0.0801724096
C  C37  1  0.84170000  0.46940000  0.77870000  1.0 -0.0801724096
C  C38  1  0.15830000  0.53060000  0.77870000  1.0 -0.0801724096
C  C39  1  0.53060000  0.37230000  0.77870000  1.0 -0.0801724096
C  C40  1  0.62770000  0.15830000  0.77870000  1.0 -0.0801724096
C  C41  1  0.37230000  0.84170000  0.77870000  1.0 -0.0801724096
C  C42  1  0.46940000  0.62770000  0.77870000  1.0 -0.0801724096
C  C43  1  0.37230000  0.53060000  0.22130000  1.0 -0.0801724096
C  C44  1  0.15830000  0.62770000  0.22130000  1.0 -0.0801724096
C  C45  1  0.46940000  0.84170000  0.22130000  1.0 -0.0801724096
C  C46  1  0.53060000  0.15830000  0.22130000  1.0 -0.0801724096
C  C47  1  0.84170000  0.37230000  0.22130000  1.0 -0.0801724096
C  C48  1  0.62770000  0.46940000  0.22130000  1.0 -0.0801724096
C  C49  1  0.11540000  0.51000000  0.14340000  1.0 -0.0006393184
C  C50  1  0.88460000  0.49000000  0.14340000  1.0 0.0003380469
C  C51  1  0.49000000  0.60540000  0.14340000  1.0 0.0003380469
C  C52  1  0.39460000  0.88460000  0.14340000  1.0 -0.0006393184
C  C53  1  0.60540000  0.11540000  0.14340000  1.0 -0.0006393184
C  C54  1  0.51000000  0.39460000  0.14340000  1.0 0.0003380469
C  C55  1  0.60540000  0.49000000  0.85660000  1.0 0.0003380469
C  C56  1  0.88460000  0.39460000  0.85660000  1.0 0.0003380469
C  C57  1  0.51000000  0.11540000  0.85660000  1.0 0.0003380469
C  C58  1  0.49000000  0.88460000  0.85660000  1.0 -0.0006393184
C  C59  1  0.11540000  0.60540000  0.85660000  1.0 -0.0006393184
C  C60  1  0.39460000  0.51000000  0.85660000  1.0 0.0003380469
C  C61  1  0.88460000  0.49000000  0.85660000  1.0 0.0003380469
C  C62  1  0.11540000  0.51000000  0.85660000  1.0 -0.0006393184
C  C63  1  0.51000000  0.39460000  0.85660000  1.0 0.0003380469
C  C64  1  0.60540000  0.11540000  0.85660000  1.0 0.0003380469
C  C65  1  0.39460000  0.88460000  0.85660000  1.0 -0.0006393184
C  C66  1  0.49000000  0.60540000  0.85660000  1.0 0.0003380469
C  C67  1  0.39460000  0.51000000  0.14340000  1.0 -0.0006393184
C  C68  1  0.11540000  0.60540000  0.14340000  1.0 -0.0006393184
C  C69  1  0.49000000  0.88460000  0.14340000  1.0 -0.0006393184
C  C70  1  0.51000000  0.11540000  0.14340000  1.0 -0.0006393184
C  C71  1  0.88460000  0.39460000  0.14340000  1.0 0.0003380469
C  C72  1  0.60540000  0.49000000  0.14340000  1.0 0.0003380469
C  C73  1  0.08080000  0.49340000  0.18180000  1.0 -0.0090565533
C  C74  1  0.91920000  0.50660000  0.18180000  1.0 -0.0090565533
C  C75  1  0.50660000  0.58740000  0.18180000  1.0 -0.0090565533
C  C76  1  0.41260000  0.91920000  0.18180000  1.0 -0.0090565533
C  C77  1  0.58740000  0.08080000  0.18180000  1.0 -0.0090565533
C  C78  1  0.49340000  0.41260000  0.18180000  1.0 -0.0090565533
C  C79  1  0.58740000  0.50660000  0.81820000  1.0 -0.0090565533
C  C80  1  0.91920000  0.41260000  0.81820000  1.0 -0.0090565533
C  C81  1  0.49340000  0.08080000  0.81820000  1.0 -0.0090565533
C  C82  1  0.50660000  0.91920000  0.81820000  1.0 -0.0090565533
C  C83  1  0.08080000  0.58740000  0.81820000  1.0 -0.0090565533
C  C84  1  0.41260000  0.49340000  0.81820000  1.0 -0.0090565533
C  C85  1  0.91920000  0.50660000  0.81820000  1.0 -0.0090565533
C  C86  1  0.08080000  0.49340000  0.81820000  1.0 -0.0090565533
C  C87  1  0.49340000  0.41260000  0.81820000  1.0 -0.0090565533
C  C88  1  0.58740000  0.08080000  0.81820000  1.0 -0.0090565533
C  C89  1  0.41260000  0.91920000  0.81820000  1.0 -0.0090565533
C  C90  1  0.50660000  0.58740000  0.81820000  1.0 -0.0090565533
C  C91  1  0.41260000  0.49340000  0.18180000  1.0 -0.0090565533
C  C92  1  0.08080000  0.58740000  0.18180000  1.0 -0.0090565533
C  C93  1  0.50660000  0.91920000  0.18180000  1.0 -0.0090565533
C  C94  1  0.49340000  0.08080000  0.18180000  1.0 -0.0090565533
C  C95  1  0.91920000  0.41260000  0.18180000  1.0 -0.0090565533
C  C96  1  0.58740000  0.50660000  0.18180000  1.0 -0.0090565533
C  C97  1  0.12410000  0.51320000  0.25860000  1.0 -0.0801724096
C  C98  1  0.87590000  0.48680000  0.25860000  1.0 -0.0801724096
C  C99  1  0.48680000  0.61090000  0.25860000  1.0 -0.0801724096
C  C100  1  0.38910000  0.87590000  0.25860000  1.0 -0.0801724096
C  C101  1  0.61090000  0.12410000  0.25860000  1.0 -0.0801724096
C  C102  1  0.51320000  0.38910000  0.25860000  1.0 -0.0801724096
C  C103  1  0.61090000  0.48680000  0.74140000  1.0 -0.0801724096
C  C104  1  0.87590000  0.38910000  0.74140000  1.0 -0.0801724096
C  C105  1  0.51320000  0.12410000  0.74140000  1.0 -0.0801724096
C  C106  1  0.48680000  0.87590000  0.74140000  1.0 -0.0801724096
C  C107  1  0.12410000  0.61090000  0.74140000  1.0 -0.0801724096
C  C108  1  0.38910000  0.51320000  0.74140000  1.0 -0.0801724096
C  C109  1  0.87590000  0.48680000  0.74140000  1.0 -0.0801724096
C  C110  1  0.12410000  0.51320000  0.74140000  1.0 -0.0801724096
C  C111  1  0.51320000  0.38910000  0.74140000  1.0 -0.0801724096
C  C112  1  0.61090000  0.12410000  0.74140000  1.0 -0.0801724096
C  C113  1  0.38910000  0.87590000  0.74140000  1.0 -0.0801724096
C  C114  1  0.48680000  0.61090000  0.74140000  1.0 -0.0801724096
C  C115  1  0.38910000  0.51320000  0.25860000  1.0 -0.0801724096
C  C116  1  0.12410000  0.61090000  0.25860000  1.0 -0.0801724096
C  C117  1  0.48680000  0.87590000  0.25860000  1.0 -0.0801724096
C  C118  1  0.51320000  0.12410000  0.25860000  1.0 -0.0801724096
C  C119  1  0.87590000  0.38910000  0.25860000  1.0 -0.0801724096
C  C120  1  0.61090000  0.48680000  0.25860000  1.0 -0.0801724096
N  N1  1  0.07910000  0.53955000  0.12520000  1.0 -0.1886425269
N  N2  1  0.92090000  0.46045000  0.12520000  1.0 -0.1886425269
N  N3  1  0.46045000  0.53955000  0.12520000  1.0 -0.1886425269
N  N4  1  0.46045000  0.92090000  0.12520000  1.0 -0.1886425269
N  N5  1  0.53955000  0.07910000  0.12520000  1.0 -0.1886425269
N  N6  1  0.53955000  0.46045000  0.12520000  1.0 -0.1886425269
N  N7  1  0.53955000  0.46045000  0.87480000  1.0 -0.1886425269
N  N8  1  0.92090000  0.46045000  0.87480000  1.0 -0.1886425269
N  N9  1  0.53955000  0.07910000  0.87480000  1.0 -0.1886425269
N  N10  1  0.46045000  0.92090000  0.87480000  1.0 -0.1886425269
N  N11  1  0.07910000  0.53955000  0.87480000  1.0 -0.1886425269
N  N12  1  0.46045000  0.53955000  0.87480000  1.0 -0.1886425269
O  O1  1  0.33333333  0.66666667  0.50000000  1.0 -1.0501983566
O  O2  1  0.66666667  0.33333333  0.50000000  1.0 -1.0501983566
O  O3  1  0.22310000  0.66040000  0.39940000  1.0 -0.5605506701
O  O4  1  0.77690000  0.33960000  0.39940000  1.0 -0.5605506701
O  O5  1  0.33960000  0.56270000  0.39940000  1.0 -0.5605506701
O  O6  1  0.43730000  0.77690000  0.39940000  1.0 -0.5605506701
O  O7  1  0.56270000  0.22310000  0.39940000  1.0 -0.5605506701
O  O8  1  0.66040000  0.43730000  0.39940000  1.0 -0.5605506701
O  O9  1  0.56270000  0.33960000  0.60060000  1.0 -0.5605506701
O  O10  1  0.77690000  0.43730000  0.60060000  1.0 -0.5605506701
O  O11  1  0.66040000  0.22310000  0.60060000  1.0 -0.5605506701
O  O12  1  0.33960000  0.77690000  0.60060000  1.0 -0.5605506701
O  O13  1  0.22310000  0.56270000  0.60060000  1.0 -0.5605506701
O  O14  1  0.43730000  0.66040000  0.60060000  1.0 -0.5605506701
O  O15  1  0.77690000  0.33960000  0.60060000  1.0 -0.5605506701
O  O16  1  0.22310000  0.66040000  0.60060000  1.0 -0.5605506701
O  O17  1  0.66040000  0.43730000  0.60060000  1.0 -0.5605506701
O  O18  1  0.56270000  0.22310000  0.60060000  1.0 -0.5605506701
O  O19  1  0.43730000  0.77690000  0.60060000  1.0 -0.5605506701
O  O20  1  0.33960000  0.56270000  0.60060000  1.0 -0.5605506701
O  O21  1  0.43730000  0.66040000  0.39940000  1.0 -0.5605506701
O  O22  1  0.22310000  0.56270000  0.39940000  1.0 -0.5605506701
O  O23  1  0.33960000  0.77690000  0.39940000  1.0 -0.5605506701
O  O24  1  0.66040000  0.22310000  0.39940000  1.0 -0.5605506701
O  O25  1  0.77690000  0.43730000  0.39940000  1.0 -0.5605506701
O  O26  1  0.56270000  0.33960000  0.39940000  1.0 -0.5605506701
