# DDEC6 charges by PACMAN v1.1 (https://github.com/mtap-research/PACMAN-charge/)
data_BIJJOV_FSR_pacman
_symmetry_space_group_name_H-M   'P 1'
_cell_length_a   12.65010000
_cell_length_b   12.65010000
_cell_length_c   10.15270000
_cell_angle_alpha   87.36640000
_cell_angle_beta   92.63360000
_cell_angle_gamma   63.63270000
_symmetry_Int_Tables_number   1
_chemical_formula_structural   CdH12C18SO6
_chemical_formula_sum   'Cd4 H48 C72 S4 O24'
_cell_volume   1450.12317163
_cell_formula_units_Z   4
loop_
 _symmetry_equiv_pos_site_id
 _symmetry_equiv_pos_as_xyz
  1  'x, y, z'
loop_
 _atom_site_type_symbol
 _atom_site_label
 _atom_site_symmetry_multiplicity
 _atom_site_fract_x
 _atom_site_fract_y
 _atom_site_fract_z
 _atom_site_occupancy
 _atom_site_charge
Cd  Cd1  1  0.55755000  0.58851000  0.08055000  1.0 1.0628767864
Cd  Cd2  1  0.58851000  0.55755000  0.41945000  1.0 1.0628767864
Cd  Cd3  1  0.44245000  0.41149000  0.91945000  1.0 1.0628767864
Cd  Cd4  1  0.41149000  0.44245000  0.58055000  1.0 1.0628767864
H  H1  1  0.17200000  0.38840000  0.44340000  1.0 0.0881760542
H  H2  1  0.38840000  0.17200000  0.05660000  1.0 0.0881760542
H  H3  1  0.82800000  0.61160000  0.55660000  1.0 0.0881760542
H  H4  1  0.61160000  0.82800000  0.94340000  1.0 0.0881760542
H  H5  1  0.96880000  0.44540000  0.44120000  1.0 0.0817527019
H  H6  1  0.44540000  0.96880000  0.05880000  1.0 0.0817527019
H  H7  1  0.03120000  0.55460000  0.55880000  1.0 0.0817527019
H  H8  1  0.55460000  0.03120000  0.94120000  1.0 0.0817527019
H  H9  1  0.94790000  0.44630000  0.04590000  1.0 0.0881760542
H  H10  1  0.44630000  0.94790000  0.45410000  1.0 0.0881760542
H  H11  1  0.05210000  0.55370000  0.95410000  1.0 0.0881760542
H  H12  1  0.55370000  0.05210000  0.54590000  1.0 0.0881760542
H  H13  1  0.15160000  0.38500000  0.04630000  1.0 0.0881760542
H  H14  1  0.38500000  0.15160000  0.45370000  1.0 0.0881760542
H  H15  1  0.84840000  0.61500000  0.95370000  1.0 0.0881760542
H  H16  1  0.61500000  0.84840000  0.54630000  1.0 0.0881760542
H  H17  1  0.65660000  0.19980000  0.40580000  1.0 0.1364504651
H  H18  1  0.19980000  0.65660000  0.09420000  1.0 0.1364504651
H  H19  1  0.34340000  0.80020000  0.59420000  1.0 0.1364504651
H  H20  1  0.80020000  0.34340000  0.90580000  1.0 0.1364504651
H  H21  1  0.73380000  0.99460000  0.42630000  1.0 0.1190208972
H  H22  1  0.99460000  0.73380000  0.07370000  1.0 0.1190208972
H  H23  1  0.26620000  0.00540000  0.57370000  1.0 0.1190208972
H  H24  1  0.00540000  0.26620000  0.92630000  1.0 0.1190208972
H  H25  1  0.77400000  0.98300000  0.03480000  1.0 0.1298227303
H  H26  1  0.98300000  0.77400000  0.46520000  1.0 0.1298227303
H  H27  1  0.22600000  0.01700000  0.96520000  1.0 0.1298227303
H  H28  1  0.01700000  0.22600000  0.53480000  1.0 0.1298227303
H  H29  1  0.69620000  0.18820000  0.01440000  1.0 0.1298227303
H  H30  1  0.18820000  0.69620000  0.48560000  1.0 0.1298227303
H  H31  1  0.30380000  0.81180000  0.98560000  1.0 0.1298227303
H  H32  1  0.81180000  0.30380000  0.51440000  1.0 0.1298227303
H  H33  1  0.15280000  0.48040000  0.40390000  1.0 0.0817527019
H  H34  1  0.48040000  0.15280000  0.09610000  1.0 0.0817527019
H  H35  1  0.84720000  0.51960000  0.59610000  1.0 0.0817527019
H  H36  1  0.51960000  0.84720000  0.90390000  1.0 0.0817527019
H  H37  1  0.94860000  0.54640000  0.39980000  1.0 0.0817527019
H  H38  1  0.54640000  0.94860000  0.10020000  1.0 0.0817527019
H  H39  1  0.05140000  0.45360000  0.60020000  1.0 0.0817527019
H  H40  1  0.45360000  0.05140000  0.89980000  1.0 0.0817527019
H  H41  1  0.95490000  0.36410000  0.09060000  1.0 0.0881760542
H  H42  1  0.36410000  0.95490000  0.40940000  1.0 0.0881760542
H  H43  1  0.04510000  0.63590000  0.90940000  1.0 0.0881760542
H  H44  1  0.63590000  0.04510000  0.59060000  1.0 0.0881760542
H  H45  1  0.16030000  0.29070000  0.09090000  1.0 0.0817527019
H  H46  1  0.29070000  0.16030000  0.40910000  1.0 0.0817527019
H  H47  1  0.83970000  0.70930000  0.90910000  1.0 0.0817527019
H  H48  1  0.70930000  0.83970000  0.59090000  1.0 0.0817527019
C  C1  1  0.17690000  0.38350000  0.24540000  1.0 -0.0373987112
C  C2  1  0.38350000  0.17690000  0.25460000  1.0 -0.0373987112
C  C3  1  0.82310000  0.61650000  0.75460000  1.0 -0.0373987112
C  C4  1  0.61650000  0.82310000  0.74540000  1.0 -0.0373987112
C  C5  1  0.93700000  0.45680000  0.24590000  1.0 -0.0126969109
C  C6  1  0.45680000  0.93700000  0.25410000  1.0 -0.0126969109
C  C7  1  0.06300000  0.54320000  0.75410000  1.0 -0.0126969109
C  C8  1  0.54320000  0.06300000  0.74590000  1.0 -0.0126969109
C  C9  1  0.12680000  0.40020000  0.36430000  1.0 -0.0186277135
C  C10  1  0.40020000  0.12680000  0.13570000  1.0 -0.0186277135
C  C11  1  0.87320000  0.59980000  0.63570000  1.0 -0.0186277135
C  C12  1  0.59980000  0.87320000  0.86430000  1.0 -0.0186277135
C  C13  1  0.00460000  0.43580000  0.36180000  1.0 -0.0275535404
C  C14  1  0.43580000  0.00460000  0.13820000  1.0 -0.0275535404
C  C15  1  0.99540000  0.56420000  0.63820000  1.0 -0.0275535404
C  C16  1  0.56420000  0.99540000  0.86180000  1.0 -0.0275535404
C  C17  1  0.99260000  0.43560000  0.12510000  1.0 -0.0021491796
C  C18  1  0.43560000  0.99260000  0.37490000  1.0 -0.0021491796
C  C19  1  0.00740000  0.56440000  0.87490000  1.0 -0.0021491796
C  C20  1  0.56440000  0.00740000  0.62510000  1.0 -0.0021491796
C  C21  1  0.11400000  0.39880000  0.12480000  1.0 -0.0373987112
C  C22  1  0.39880000  0.11400000  0.37520000  1.0 -0.0373987112
C  C23  1  0.88600000  0.60120000  0.87520000  1.0 -0.0373987112
C  C24  1  0.60120000  0.88600000  0.62480000  1.0 -0.0373987112
C  C25  1  0.80590000  0.49910000  0.24780000  1.0 0.5179004923
C  C26  1  0.49910000  0.80590000  0.25220000  1.0 0.5179004923
C  C27  1  0.19410000  0.50090000  0.75220000  1.0 0.5179004923
C  C28  1  0.50090000  0.19410000  0.74780000  1.0 0.5179004923
C  C29  1  0.61990000  0.34550000  0.19560000  1.0 0.6183941916
C  C30  1  0.34550000  0.61990000  0.30440000  1.0 0.6183941916
C  C31  1  0.38010000  0.65450000  0.80440000  1.0 0.6183941916
C  C32  1  0.65450000  0.38010000  0.69560000  1.0 0.6183941916
C  C33  1  0.66810000  0.21330000  0.20730000  1.0 -0.0186277135
C  C34  1  0.21330000  0.66810000  0.29270000  1.0 -0.0186277135
C  C35  1  0.33190000  0.78670000  0.79270000  1.0 -0.0186277135
C  C36  1  0.78670000  0.33190000  0.70730000  1.0 -0.0186277135
C  C37  1  0.67960000  0.15640000  0.33190000  1.0 -0.0975899498
C  C38  1  0.15640000  0.67960000  0.16810000  1.0 -0.0975899498
C  C39  1  0.32040000  0.84360000  0.66810000  1.0 -0.0975899498
C  C40  1  0.84360000  0.32040000  0.83190000  1.0 -0.0975899498
C  C41  1  0.72590000  0.03390000  0.34410000  1.0 -0.1544772356
C  C42  1  0.03390000  0.72590000  0.15590000  1.0 -0.1544772356
C  C43  1  0.27410000  0.96610000  0.65590000  1.0 -0.1544772356
C  C44  1  0.96610000  0.27410000  0.84410000  1.0 -0.1544772356
C  C45  1  0.76030000  0.97050000  0.23220000  1.0 -0.0478962443
C  C46  1  0.97050000  0.76030000  0.26780000  1.0 -0.0478962443
C  C47  1  0.23970000  0.02950000  0.76780000  1.0 -0.0478962443
C  C48  1  0.02950000  0.23970000  0.73220000  1.0 -0.0478962443
C  C49  1  0.75010000  0.02650000  0.10840000  1.0 -0.1352915435
C  C50  1  0.02650000  0.75010000  0.39160000  1.0 -0.1352915435
C  C51  1  0.24990000  0.97350000  0.89160000  1.0 -0.1352915435
C  C52  1  0.97350000  0.24990000  0.60840000  1.0 -0.1352915435
C  C53  1  0.70360000  0.14900000  0.09670000  1.0 -0.0975899498
C  C54  1  0.14900000  0.70360000  0.40330000  1.0 -0.0975899498
C  C55  1  0.29640000  0.85100000  0.90330000  1.0 -0.0975899498
C  C56  1  0.85100000  0.29640000  0.59670000  1.0 -0.0975899498
C  C57  1  0.11420000  0.45680000  0.34000000  1.0 -0.0126969109
C  C58  1  0.45680000  0.11420000  0.16000000  1.0 -0.0126969109
C  C59  1  0.88580000  0.54320000  0.66000000  1.0 -0.0126969109
C  C60  1  0.54320000  0.88580000  0.84000000  1.0 -0.0126969109
C  C61  1  0.99230000  0.49510000  0.33800000  1.0 -0.0186277135
C  C62  1  0.49510000  0.99230000  0.16200000  1.0 -0.0186277135
C  C63  1  0.00770000  0.50490000  0.66200000  1.0 -0.0186277135
C  C64  1  0.50490000  0.00770000  0.83800000  1.0 -0.0186277135
C  C65  1  0.99580000  0.38580000  0.15400000  1.0 0.0007233316
C  C66  1  0.38580000  0.99580000  0.34600000  1.0 0.0007233316
C  C67  1  0.00420000  0.61420000  0.84600000  1.0 0.0007233316
C  C68  1  0.61420000  0.00420000  0.65400000  1.0 0.0007233316
C  C69  1  0.11790000  0.34390000  0.15200000  1.0 -0.0373987112
C  C70  1  0.34390000  0.11790000  0.34800000  1.0 -0.0373987112
C  C71  1  0.88210000  0.65610000  0.84800000  1.0 -0.0373987112
C  C72  1  0.65610000  0.88210000  0.65200000  1.0 -0.0373987112
S  S1  1  0.33148000  0.33148000  0.25000000  1.0 0.4832004861
S  S2  1  0.66852000  0.66852000  0.75000000  1.0 0.4832004861
S  S3  1  0.81496000  0.81496000  0.25000000  1.0 0.6125168756
S  S4  1  0.18504000  0.18504000  0.75000000  1.0 0.6125168756
O  O1  1  0.62430000  0.39450000  0.29650000  1.0 -0.5304012541
O  O2  1  0.39450000  0.62430000  0.20350000  1.0 -0.5304012541
O  O3  1  0.37570000  0.60550000  0.70350000  1.0 -0.5304012541
O  O4  1  0.60550000  0.37570000  0.79650000  1.0 -0.5304012541
O  O5  1  0.58050000  0.40050000  0.08090000  1.0 -0.5733694031
O  O6  1  0.40050000  0.58050000  0.41910000  1.0 -0.5733694031
O  O7  1  0.41950000  0.59950000  0.91910000  1.0 -0.5733694031
O  O8  1  0.59950000  0.41950000  0.58090000  1.0 -0.5733694031
O  O9  1  0.75010000  0.50790000  0.13930000  1.0 -0.5018118068
O  O10  1  0.50790000  0.75010000  0.36070000  1.0 -0.5018118068
O  O11  1  0.24990000  0.49210000  0.86070000  1.0 -0.5018118068
O  O12  1  0.49210000  0.24990000  0.63930000  1.0 -0.5018118068
O  O13  1  0.76300000  0.52340000  0.35940000  1.0 -0.5304012541
O  O14  1  0.52340000  0.76300000  0.14060000  1.0 -0.5304012541
O  O15  1  0.23700000  0.47660000  0.64060000  1.0 -0.5304012541
O  O16  1  0.47660000  0.23700000  0.85940000  1.0 -0.5304012541
O  O17  1  0.36160000  0.37080000  0.12750000  1.0 -0.5201796188
O  O18  1  0.37080000  0.36160000  0.37250000  1.0 -0.5201796188
O  O19  1  0.63840000  0.62920000  0.87250000  1.0 -0.5201796188
O  O20  1  0.62920000  0.63840000  0.62750000  1.0 -0.5201796188
O  O21  1  0.77720000  0.78620000  0.37200000  1.0 -0.5304012541
O  O22  1  0.78620000  0.77720000  0.12800000  1.0 -0.5304012541
O  O23  1  0.22280000  0.21380000  0.62800000  1.0 -0.5304012541
O  O24  1  0.21380000  0.22280000  0.87200000  1.0 -0.5304012541
