# DDEC6 charges by PACMAN v1.1 (https://github.com/mtap-research/PACMAN-charge/)
data_BIMRAU_ASR_pacman
_symmetry_space_group_name_H-M   'P 1'
_cell_length_a   16.64600000
_cell_length_b   16.65000000
_cell_length_c   21.61800000
_cell_angle_alpha   96.28100000
_cell_angle_beta   111.07900000
_cell_angle_gamma   89.71500000
_symmetry_Int_Tables_number   1
_chemical_formula_structural   MnZn2H38C71N6ClO9
_chemical_formula_sum   'Mn2 Zn4 H76 C142 N12 Cl2 O18'
_cell_volume   5553.25707111
_cell_formula_units_Z   2
loop_
 _symmetry_equiv_pos_site_id
 _symmetry_equiv_pos_as_xyz
  1  'x, y, z'
loop_
 _atom_site_type_symbol
 _atom_site_label
 _atom_site_symmetry_multiplicity
 _atom_site_fract_x
 _atom_site_fract_y
 _atom_site_fract_z
 _atom_site_occupancy
 _atom_site_charge
Mn  Mn1  1  0.11314000  0.83837000  0.63353000  1.0 0.7629292015
Mn  Mn2  1  0.88686000  0.16163000  0.36647000  1.0 0.7629292015
Zn  Zn1  1  0.57267000  0.33191000  0.55443000  1.0 0.8360534314
Zn  Zn2  1  0.64934000  0.34211000  0.70182000  1.0 0.8457578424
Zn  Zn3  1  0.42733000  0.66809000  0.44557000  1.0 0.8360534314
Zn  Zn4  1  0.35066000  0.65789000  0.29818000  1.0 0.8457578424
H  H1  1  0.86400000  0.06460000  0.50930000  1.0 0.120343692
H  H2  1  0.75640000  0.15750000  0.50620000  1.0 0.120343692
H  H3  1  0.30890000  0.62840000  0.55500000  1.0 0.1283937976
H  H4  1  0.40720000  0.52520000  0.55150000  1.0 0.120343692
H  H5  1  0.74290000  0.51710000  0.52810000  1.0 0.120343692
H  H6  1  0.33260000  0.40700000  0.35270000  1.0 0.1283937976
H  H7  1  0.85880000  0.50330000  0.72430000  1.0 0.120343692
H  H8  1  0.83920000  0.61920000  0.53260000  1.0 0.120343692
H  H9  1  0.20540000  0.54430000  0.65760000  1.0 0.1283937976
H  H10  1  0.51340000  0.20700000  0.44240000  1.0 0.120343692
H  H11  1  0.80090000  0.90190000  0.60590000  1.0 0.120343692
H  H12  1  0.16860000  0.13240000  0.60420000  1.0 0.1283937976
H  H13  1  0.80910000  0.75490000  0.61880000  1.0 0.120343692
H  H14  1  0.37600000  0.15680000  0.53630000  1.0 0.1283937976
H  H15  1  0.01260000  0.12440000  0.58490000  1.0 0.1283937976
H  H16  1  0.48470000  0.15760000  0.73420000  1.0 0.120343692
H  H17  1  0.27340000  0.06290000  0.53060000  1.0 0.120343692
H  H18  1  0.41600000  0.92080000  0.64900000  1.0 0.120343692
H  H19  1  0.05470000  0.54200000  0.65260000  1.0 0.1283937976
H  H20  1  0.79200000  0.13540000  0.69770000  1.0 0.120343692
H  H21  1  0.25850000  0.39050000  0.25020000  1.0 0.1283937976
H  H22  1  0.41170000  0.17890000  0.33630000  1.0 0.1283937976
H  H23  1  0.96470000  0.39700000  0.01710000  1.0 0.1283937976
H  H24  1  0.43890000  0.42980000  0.45790000  1.0 0.120343692
H  H25  1  0.88850000  0.03350000  0.69920000  1.0 0.120343692
H  H26  1  0.38700000  0.05840000  0.73080000  1.0 0.120343692
H  H27  1  0.42260000  0.77490000  0.65850000  1.0 0.120343692
H  H28  1  0.96230000  0.60420000  0.73010000  1.0 0.120343692
H  H29  1  0.80670000  0.18570000  0.88940000  1.0 0.120343692
H  H30  1  0.89740000  0.41720000  0.91550000  1.0 0.1283937976
H  H31  1  0.78580000  0.44270000  0.81750000  1.0 0.120343692
H  H32  1  0.69510000  0.21120000  0.79150000  1.0 0.120343692
H  H33  1  0.38220000  0.62750000  0.75070000  1.0 0.120343692
H  H34  1  0.48390000  0.53270000  0.75190000  1.0 0.1283937976
H  H35  1  0.95910000  0.17280000  0.93230000  1.0 0.120343692
H  H36  1  0.29380000  0.14810000  0.25700000  1.0 0.120343692
H  H37  1  0.19190000  0.12280000  0.15080000  1.0 0.120343692
H  H38  1  0.04750000  0.12590000  0.03640000  1.0 0.120343692
H  H39  1  0.13600000  0.93540000  0.49070000  1.0 0.120343692
H  H40  1  0.24360000  0.84250000  0.49380000  1.0 0.120343692
H  H41  1  0.69110000  0.37160000  0.44500000  1.0 0.1283937976
H  H42  1  0.59280000  0.47480000  0.44850000  1.0 0.120343692
H  H43  1  0.25710000  0.48290000  0.47190000  1.0 0.120343692
H  H44  1  0.66740000  0.59300000  0.64730000  1.0 0.1283937976
H  H45  1  0.14120000  0.49670000  0.27570000  1.0 0.120343692
H  H46  1  0.16080000  0.38080000  0.46740000  1.0 0.120343692
H  H47  1  0.79460000  0.45570000  0.34240000  1.0 0.1283937976
H  H48  1  0.48660000  0.79300000  0.55760000  1.0 0.120343692
H  H49  1  0.19910000  0.09810000  0.39410000  1.0 0.120343692
H  H50  1  0.83140000  0.86760000  0.39580000  1.0 0.1283937976
H  H51  1  0.19090000  0.24510000  0.38120000  1.0 0.120343692
H  H52  1  0.62400000  0.84320000  0.46370000  1.0 0.1283937976
H  H53  1  0.98740000  0.87560000  0.41510000  1.0 0.1283937976
H  H54  1  0.51530000  0.84240000  0.26580000  1.0 0.120343692
H  H55  1  0.72660000  0.93710000  0.46940000  1.0 0.120343692
H  H56  1  0.58400000  0.07920000  0.35100000  1.0 0.120343692
H  H57  1  0.94530000  0.45800000  0.34740000  1.0 0.1283937976
H  H58  1  0.20800000  0.86460000  0.30230000  1.0 0.120343692
H  H59  1  0.74150000  0.60950000  0.74980000  1.0 0.1283937976
H  H60  1  0.58830000  0.82110000  0.66370000  1.0 0.1283937976
H  H61  1  0.03530000  0.60300000  0.98290000  1.0 0.1283937976
H  H62  1  0.56110000  0.57020000  0.54210000  1.0 0.120343692
H  H63  1  0.11150000  0.96650000  0.30080000  1.0 0.120343692
H  H64  1  0.61300000  0.94160000  0.26920000  1.0 0.120343692
H  H65  1  0.57740000  0.22510000  0.34150000  1.0 0.120343692
H  H66  1  0.03770000  0.39580000  0.26990000  1.0 0.120343692
H  H67  1  0.19330000  0.81430000  0.11060000  1.0 0.120343692
H  H68  1  0.10260000  0.58280000  0.08450000  1.0 0.1283937976
H  H69  1  0.21420000  0.55730000  0.18250000  1.0 0.120343692
H  H70  1  0.30490000  0.78880000  0.20850000  1.0 0.120343692
H  H71  1  0.61780000  0.37250000  0.24930000  1.0 0.120343692
H  H72  1  0.51610000  0.46730000  0.24810000  1.0 0.1283937976
H  H73  1  0.04090000  0.82720000  0.06770000  1.0 0.120343692
H  H74  1  0.70620000  0.85190000  0.74300000  1.0 0.120343692
H  H75  1  0.80810000  0.87720000  0.84920000  1.0 0.120343692
H  H76  1  0.95250000  0.87410000  0.96360000  1.0 0.120343692
C  C1  1  0.88450000  0.03710000  0.60250000  1.0 0.0875640124
C  C2  1  0.84740000  0.07620000  0.54690000  1.0 -0.1515284087
C  C3  1  0.43970000  0.16810000  0.63410000  1.0 -0.0194995641
C  C4  1  0.78500000  0.13360000  0.54590000  1.0 -0.1007511145
C  C5  1  0.34390000  0.60790000  0.59490000  1.0 -0.1515284087
C  C6  1  0.40300000  0.54640000  0.59280000  1.0 -0.1007511145
C  C7  1  0.50630000  0.23180000  0.63720000  1.0 0.5886410777
C  C8  1  0.95170000  0.97630000  0.60760000  1.0 -0.0677006688
C  C9  1  0.76450000  0.15590000  0.60150000  1.0 -0.0194995641
C  C10  1  0.51550000  0.45230000  0.64820000  1.0 0.5824592217
C  C11  1  0.79020000  0.50150000  0.62580000  1.0 -0.0460397523
C  C12  1  0.25470000  0.98710000  0.62990000  1.0 -0.0627115552
C  C13  1  0.17050000  0.00750000  0.61690000  1.0 0.1611406956
C  C14  1  0.72380000  0.43950000  0.62320000  1.0 0.5824592217
C  C15  1  0.03220000  0.00200000  0.60750000  1.0 0.1927264784
C  C16  1  0.45400000  0.51810000  0.65100000  1.0 -0.032730281
C  C17  1  0.78650000  0.53570000  0.56970000  1.0 -0.1007511145
C  C18  1  0.70130000  0.22110000  0.60220000  1.0 0.5824592217
C  C19  1  0.36870000  0.36430000  0.37040000  1.0 -0.1794177998
C  C20  1  0.33750000  0.63740000  0.65480000  1.0 0.068565369
C  C21  1  0.93370000  0.89720000  0.61580000  1.0 0.1966215749
C  C22  1  0.29290000  0.77950000  0.65020000  1.0 0.1724006413
C  C23  1  0.28590000  0.90870000  0.64140000  1.0 0.1813180153
C  C24  1  0.85500000  0.52680000  0.68520000  1.0 -0.1007511145
C  C25  1  0.27030000  0.69850000  0.65320000  1.0 -0.0426972169
C  C26  1  0.05680000  0.66840000  0.64560000  1.0 0.1813180153
C  C27  1  0.94010000  0.76650000  0.62630000  1.0 0.1724006413
C  C28  1  0.17310000  0.31980000  0.17630000  1.0 -0.0426972169
C  C29  1  0.84390000  0.59600000  0.57190000  1.0 -0.1515284087
C  C30  1  0.16910000  0.58910000  0.65470000  1.0 -0.1596259024
C  C31  1  0.47630000  0.24860000  0.42360000  1.0 0.0981398924
C  C32  1  0.85000000  0.86990000  0.61200000  1.0 -0.1899483324
C  C33  1  0.97220000  0.68920000  0.63610000  1.0 -0.0627115552
C  C34  1  0.90980000  0.62290000  0.63280000  1.0 0.0875640124
C  C35  1  0.13680000  0.08560000  0.60540000  1.0 -0.1794177998
C  C36  1  0.85440000  0.78940000  0.61890000  1.0 -0.1794177998
C  C37  1  0.31660000  0.04980000  0.63130000  1.0 0.0875640124
C  C38  1  0.37730000  0.13770000  0.57650000  1.0 -0.0948904153
C  C39  1  0.05180000  0.08200000  0.59640000  1.0 -0.1794177998
C  C40  1  0.44180000  0.13760000  0.69270000  1.0 -0.1007511145
C  C41  1  0.31630000  0.08130000  0.57260000  1.0 -0.1419754472
C  C42  1  0.37040000  0.88620000  0.64830000  1.0 -0.1899483324
C  C43  1  0.08710000  0.58820000  0.65140000  1.0 -0.1899483324
C  C44  1  0.80470000  0.11920000  0.65880000  1.0 -0.1007511145
C  C45  1  0.24110000  0.33570000  0.23320000  1.0 -0.1419754472
C  C46  1  0.41470000  0.23050000  0.36070000  1.0 -0.1989594247
C  C47  1  0.19100000  0.67280000  0.65300000  1.0 0.1724006413
C  C48  1  0.05310000  0.32200000  0.07360000  1.0 -0.0056509214
C  C49  1  0.98240000  0.34270000  0.01980000  1.0 -0.1794177998
C  C50  1  0.43300000  0.37810000  0.43300000  1.0 0.0981398924
C  C51  1  0.11460000  0.37420000  0.13200000  1.0 0.3434836571
C  C52  1  0.86290000  0.05960000  0.66020000  1.0 -0.1596259024
C  C53  1  0.38280000  0.07930000  0.69070000  1.0 -0.1419754472
C  C54  1  0.37380000  0.80700000  0.65340000  1.0 -0.1794177998
C  C55  1  0.91670000  0.58790000  0.68900000  1.0 -0.1515284087
C  C56  1  0.80250000  0.23790000  0.87480000  1.0 -0.1989594247
C  C57  1  0.86250000  0.29910000  0.91170000  1.0 0.120343692
C  C58  1  0.85630000  0.37540000  0.89030000  1.0 -0.1747108247
C  C59  1  0.79000000  0.39060000  0.83210000  1.0 0.0981398924
C  C60  1  0.73620000  0.25300000  0.81660000  1.0 0.0875640124
C  C61  1  0.35660000  0.28950000  0.33333333  1.0 0.120343692
C  C62  1  0.38790000  0.60770000  0.70960000  1.0 -0.1515284087
C  C63  1  0.93860000  0.28010000  0.97000000  1.0 0.068565369
C  C64  1  0.44770000  0.55010000  0.71090000  1.0 -0.0948904153
C  C65  1  0.28660000  0.27530000  0.26800000  1.0 0.068565369
C  C66  1  0.97480000  0.20850000  0.97260000  1.0 -0.1419754472
C  C67  1  0.26410000  0.19170000  0.23490000  1.0 -0.1324035521
C  C68  1  0.20190000  0.17600000  0.17370000  1.0 -0.1324035521
C  C69  1  0.03560000  0.18120000  0.03150000  1.0 -0.1419754472
C  C70  1  0.15190000  0.24060000  0.14470000  1.0 0.0279869926
C  C71  1  0.07830000  0.24880000  0.08440000  1.0 0.0019847265
C  C72  1  0.11550000  0.96290000  0.39750000  1.0 0.0875640124
C  C73  1  0.15260000  0.92380000  0.45310000  1.0 -0.1515284087
C  C74  1  0.56030000  0.83190000  0.36590000  1.0 -0.0194995641
C  C75  1  0.21500000  0.86640000  0.45410000  1.0 -0.0948904153
C  C76  1  0.65610000  0.39210000  0.40510000  1.0 -0.1515284087
C  C77  1  0.59700000  0.45360000  0.40720000  1.0 -0.1007511145
C  C78  1  0.49370000  0.76820000  0.36280000  1.0 0.5886410777
C  C79  1  0.04830000  0.02370000  0.39240000  1.0 -0.0677006688
C  C80  1  0.23550000  0.84410000  0.39850000  1.0 -0.0194995641
C  C81  1  0.48450000  0.54770000  0.35180000  1.0 0.5824592217
C  C82  1  0.20980000  0.49850000  0.37420000  1.0 -0.0460397523
C  C83  1  0.74530000  0.01290000  0.37010000  1.0 -0.0627115552
C  C84  1  0.82950000  0.99250000  0.38310000  1.0 0.1611406956
C  C85  1  0.27620000  0.56050000  0.37680000  1.0 0.5824592217
C  C86  1  0.96780000  0.99800000  0.39250000  1.0 0.1927264784
C  C87  1  0.54600000  0.48190000  0.34900000  1.0 -0.032730281
C  C88  1  0.21350000  0.46430000  0.43030000  1.0 -0.1007511145
C  C89  1  0.29870000  0.77890000  0.39780000  1.0 0.5824592217
C  C90  1  0.63130000  0.63570000  0.62960000  1.0 -0.1794177998
C  C91  1  0.66250000  0.36260000  0.34520000  1.0 0.068565369
C  C92  1  0.06630000  0.10280000  0.38420000  1.0 0.1966215749
C  C93  1  0.70710000  0.22050000  0.34980000  1.0 0.1724006413
C  C94  1  0.71410000  0.09130000  0.35860000  1.0 0.1813180153
C  C95  1  0.14500000  0.47320000  0.31480000  1.0 -0.1007511145
C  C96  1  0.72970000  0.30150000  0.34680000  1.0 -0.0426972169
C  C97  1  0.94320000  0.33160000  0.35440000  1.0 0.1813180153
C  C98  1  0.05990000  0.23350000  0.37370000  1.0 0.1724006413
C  C99  1  0.82690000  0.68020000  0.82370000  1.0 -0.0426972169
C  C100  1  0.15610000  0.40400000  0.42810000  1.0 -0.1515284087
C  C101  1  0.83090000  0.41090000  0.34530000  1.0 -0.1596259024
C  C102  1  0.52370000  0.75140000  0.57640000  1.0 0.0981398924
C  C103  1  0.15000000  0.13010000  0.38800000  1.0 -0.1899483324
C  C104  1  0.02780000  0.31080000  0.36390000  1.0 -0.0627115552
C  C105  1  0.09020000  0.37710000  0.36720000  1.0 0.0875640124
C  C106  1  0.86320000  0.91440000  0.39460000  1.0 -0.1794177998
C  C107  1  0.14560000  0.21060000  0.38110000  1.0 -0.1794177998
C  C108  1  0.68340000  0.95020000  0.36870000  1.0 0.0875640124
C  C109  1  0.62270000  0.86230000  0.42350000  1.0 -0.0948904153
C  C110  1  0.94820000  0.91800000  0.40360000  1.0 -0.1794177998
C  C111  1  0.55820000  0.86240000  0.30730000  1.0 -0.1007511145
C  C112  1  0.68370000  0.91870000  0.42740000  1.0 -0.1419754472
C  C113  1  0.62960000  0.11380000  0.35170000  1.0 -0.1899483324
C  C114  1  0.91290000  0.41180000  0.34860000  1.0 -0.1899483324
C  C115  1  0.19530000  0.88080000  0.34120000  1.0 -0.1007511145
C  C116  1  0.75890000  0.66430000  0.76680000  1.0 -0.1419754472
C  C117  1  0.58530000  0.76950000  0.63930000  1.0 -0.1989594247
C  C118  1  0.80900000  0.32720000  0.34700000  1.0 0.1724006413
C  C119  1  0.94690000  0.67800000  0.92640000  1.0 -0.0056509214
C  C120  1  0.01760000  0.65730000  0.98020000  1.0 -0.1794177998
C  C121  1  0.56700000  0.62190000  0.56700000  1.0 0.0981398924
C  C122  1  0.88540000  0.62580000  0.86800000  1.0 0.3434836571
C  C123  1  0.13710000  0.94040000  0.33980000  1.0 -0.1596259024
C  C124  1  0.61720000  0.92070000  0.30930000  1.0 -0.1419754472
C  C125  1  0.62620000  0.19300000  0.34660000  1.0 -0.1794177998
C  C126  1  0.08330000  0.41210000  0.31100000  1.0 -0.1515284087
C  C127  1  0.19750000  0.76210000  0.12520000  1.0 -0.1989594247
C  C128  1  0.13750000  0.70090000  0.08830000  1.0 0.120343692
C  C129  1  0.14370000  0.62460000  0.10970000  1.0 -0.1747108247
C  C130  1  0.21000000  0.60940000  0.16790000  1.0 0.0981398924
C  C131  1  0.26380000  0.74700000  0.18340000  1.0 0.0875640124
C  C132  1  0.64340000  0.71050000  0.66666667  1.0 0.120343692
C  C133  1  0.61210000  0.39230000  0.29040000  1.0 -0.1515284087
C  C134  1  0.06140000  0.71990000  0.03000000  1.0 0.068565369
C  C135  1  0.55230000  0.44990000  0.28910000  1.0 -0.0948904153
C  C136  1  0.71340000  0.72470000  0.73200000  1.0 0.068565369
C  C137  1  0.02520000  0.79150000  0.02740000  1.0 -0.1419754472
C  C138  1  0.73590000  0.80830000  0.76510000  1.0 -0.1324035521
C  C139  1  0.79810000  0.82400000  0.82630000  1.0 -0.1324035521
C  C140  1  0.96440000  0.81880000  0.96850000  1.0 -0.1419754472
C  C141  1  0.84810000  0.75940000  0.85530000  1.0 0.0279869926
C  C142  1  0.92170000  0.75120000  0.91560000  1.0 0.0019847265
N  N1  1  0.98750000  0.83420000  0.62350000  1.0 -0.3408881422
N  N2  1  0.23730000  0.84270000  0.64100000  1.0 -0.3408881422
N  N3  1  0.10400000  0.95670000  0.61780000  1.0 -0.3525260087
N  N4  1  0.12160000  0.71970000  0.64710000  1.0 -0.3408881422
N  N5  1  0.48710000  0.32030000  0.45930000  1.0 -0.2072249498
N  N6  1  0.72990000  0.32940000  0.79530000  1.0 -0.2418659028
N  N7  1  0.01250000  0.16580000  0.37650000  1.0 -0.3408881422
N  N8  1  0.76270000  0.15730000  0.35900000  1.0 -0.3408881422
N  N9  1  0.89600000  0.04330000  0.38220000  1.0 -0.3525260087
N  N10  1  0.87840000  0.28030000  0.35290000  1.0 -0.3408881422
N  N11  1  0.51290000  0.67970000  0.54070000  1.0 -0.2072249498
N  N12  1  0.27010000  0.67060000  0.20470000  1.0 -0.2418659028
Cl  Cl1  1  0.15340000  0.87070000  0.74320000  1.0 -0.3597530421
Cl  Cl2  1  0.84660000  0.12930000  0.25680000  1.0 -0.3525260087
O  O1  1  0.51360000  0.42420000  0.59100000  1.0 -0.5650705691
O  O2  1  0.50390000  0.24990000  0.58180000  1.0 -0.5501967962
O  O3  1  0.66950000  0.41390000  0.56750000  1.0 -0.522366424
O  O4  1  0.65430000  0.24270000  0.54650000  1.0 -0.5421515848
O  O5  1  0.72480000  0.42110000  0.67880000  1.0 -0.5501967962
O  O6  1  0.55580000  0.26060000  0.69330000  1.0 -0.522366424
O  O7  1  0.70320000  0.25080000  0.65790000  1.0 -0.5421515848
O  O8  1  0.56670000  0.43190000  0.70230000  1.0 -0.522366424
O  O9  1  0.11060000  0.44520000  0.14250000  1.0 -0.3841195401
O  O10  1  0.48640000  0.57580000  0.40900000  1.0 -0.5650705691
O  O11  1  0.49610000  0.75010000  0.41820000  1.0 -0.5501967962
O  O12  1  0.33050000  0.58610000  0.43250000  1.0 -0.522366424
O  O13  1  0.34570000  0.75730000  0.45350000  1.0 -0.5421515848
O  O14  1  0.27520000  0.57890000  0.32120000  1.0 -0.5501967962
O  O15  1  0.44420000  0.73940000  0.30670000  1.0 -0.522366424
O  O16  1  0.29680000  0.74920000  0.34210000  1.0 -0.5421515848
O  O17  1  0.43330000  0.56810000  0.29770000  1.0 -0.522366424
O  O18  1  0.88940000  0.55480000  0.85750000  1.0 -0.3841195401
