# DDEC6 charges by PACMAN v1.1 (https://github.com/mtap-research/PACMAN-charge/)
data_BIMREY_FSR_pacman
_symmetry_space_group_name_H-M   'P 1'
_cell_length_a   7.63200000
_cell_length_b   14.39800000
_cell_length_c   15.02200000
_cell_angle_alpha   77.11200000
_cell_angle_beta   77.17900000
_cell_angle_gamma   83.78800000
_symmetry_Int_Tables_number   1
_chemical_formula_structural   NiH26C32(NO3)2
_chemical_formula_sum   'Ni2 H52 C64 N4 O12'
_cell_volume   1566.00150722
_cell_formula_units_Z   2
loop_
 _symmetry_equiv_pos_site_id
 _symmetry_equiv_pos_as_xyz
  1  'x, y, z'
loop_
 _atom_site_type_symbol
 _atom_site_label
 _atom_site_symmetry_multiplicity
 _atom_site_fract_x
 _atom_site_fract_y
 _atom_site_fract_z
 _atom_site_occupancy
 _atom_site_charge
Ni  Ni1  1  0.42972000  0.75208000  0.61140000  1.0 0.5604970258
Ni  Ni2  1  0.57028000  0.24792000  0.38860000  1.0 0.5604970258
H  H1  1  0.19100000  0.65450000  0.59690000  1.0 0.3217952799
H  H2  1  0.80900000  0.34550000  0.40310000  1.0 0.3217952799
H  H3  1  0.13440000  0.68080000  0.68190000  1.0 0.3113841218
H  H4  1  0.86560000  0.31920000  0.31810000  1.0 0.3113841218
H  H5  1  0.18140000  0.97230000  0.79420000  1.0 0.1217282013
H  H6  1  0.81860000  0.02770000  0.20580000  1.0 0.1217282013
H  H7  1  0.45830000  0.74330000  0.91920000  1.0 0.1294349458
H  H8  1  0.54170000  0.25670000  0.08080000  1.0 0.1294349458
H  H9  1  0.39930000  0.93700000  0.34580000  1.0 0.1119888675
H  H10  1  0.60070000  0.06300000  0.65420000  1.0 0.1119888675
H  H11  1  0.14150000  0.03840000  0.92470000  1.0 0.1412890655
H  H12  1  0.85850000  0.96160000  0.07530000  1.0 0.1412890655
H  H13  1  0.10240000  0.73430000  0.31840000  1.0 0.1217282013
H  H14  1  0.89760000  0.26570000  0.68160000  1.0 0.1217282013
H  H15  1  0.09750000  0.81400000  0.16470000  1.0 0.1294349458
H  H16  1  0.90250000  0.18600000  0.83530000  1.0 0.1294349458
H  H17  1  0.39170000  0.01680000  0.19220000  1.0 0.1294349458
H  H18  1  0.60830000  0.98320000  0.80780000  1.0 0.1294349458
H  H19  1  0.41510000  0.80920000  0.05130000  1.0 0.1294349458
H  H20  1  0.58490000  0.19080000  0.94870000  1.0 0.1294349458
H  H21  1  0.97260000  0.53380000  0.64090000  1.0 0.1217282013
H  H22  1  0.02740000  0.46620000  0.35910000  1.0 0.1217282013
H  H23  1  0.96330000  0.91070000  0.64710000  1.0 0.0894261497
H  H24  1  0.03670000  0.08930000  0.35290000  1.0 0.0894261497
H  H25  1  0.73370000  0.81030000  0.68650000  1.0 0.0894261497
H  H26  1  0.26630000  0.18970000  0.31350000  1.0 0.0894261497
H  H27  1  0.71950000  0.62820000  0.68720000  1.0 0.0894261497
H  H28  1  0.28050000  0.37180000  0.31280000  1.0 0.0894261497
H  H29  1  0.84780000  0.98720000  0.38930000  1.0 0.0727801871
H  H30  1  0.15220000  0.01280000  0.61070000  1.0 0.0727801871
H  H31  1  0.61890000  0.88660000  0.43890000  1.0 0.0626238425
H  H32  1  0.38110000  0.11340000  0.56110000  1.0 0.0626238425
H  H33  1  0.53310000  0.61870000  0.46910000  1.0 0.0626238425
H  H34  1  0.46690000  0.38130000  0.53090000  1.0 0.0626238425
H  H35  1  0.76770000  0.51650000  0.42240000  1.0 0.0894261497
H  H36  1  0.23230000  0.48350000  0.57760000  1.0 0.0894261497
H  H37  1  0.53580000  0.93860000  0.47660000  1.0 0.0626238425
H  H38  1  0.46420000  0.06140000  0.52340000  1.0 0.0626238425
H  H39  1  0.76770000  0.03650000  0.42620000  1.0 0.083701643
H  H40  1  0.23230000  0.96350000  0.57380000  1.0 0.083701643
H  H41  1  0.02760000  0.86900000  0.61550000  1.0 0.0894261497
H  H42  1  0.97240000  0.13100000  0.38450000  1.0 0.0894261497
H  H43  1  0.78040000  0.77990000  0.66570000  1.0 0.0894261497
H  H44  1  0.21960000  0.22010000  0.33430000  1.0 0.0894261497
H  H45  1  0.62870000  0.69190000  0.43980000  1.0 0.0626238425
H  H46  1  0.37130000  0.30810000  0.56020000  1.0 0.0626238425
H  H47  1  0.87220000  0.59630000  0.38570000  1.0 0.0894261497
H  H48  1  0.12780000  0.40370000  0.61430000  1.0 0.0894261497
H  H49  1  0.67350000  0.59340000  0.69790000  1.0 0.096985164
H  H50  1  0.32650000  0.40660000  0.30210000  1.0 0.096985164
H  H51  1  0.93620000  0.50660000  0.65070000  1.0 0.1217282013
H  H52  1  0.06380000  0.49340000  0.34930000  1.0 0.1217282013
C  C1  1  0.25280000  0.82880000  0.34630000  1.0 -0.002695539
C  C2  1  0.74720000  0.17120000  0.65370000  1.0 -0.002695539
C  C3  1  0.92610000  0.96700000  0.51400000  1.0 -0.0064198458
C  C4  1  0.07390000  0.03300000  0.48600000  1.0 -0.0064198458
C  C5  1  0.32210000  0.85060000  0.84370000  1.0 -0.0363083393
C  C6  1  0.67790000  0.14940000  0.15630000  1.0 -0.0363083393
C  C7  1  0.24730000  0.92160000  0.16550000  1.0 0.2303395373
C  C8  1  0.75270000  0.07840000  0.83450000  1.0 0.2303395373
C  C9  1  0.35160000  0.80930000  0.75930000  1.0 0.5129797858
C  C10  1  0.64840000  0.19070000  0.24070000  1.0 0.5129797858
C  C11  1  0.26510000  0.77250000  0.44320000  1.0 0.4595328373
C  C12  1  0.73490000  0.22750000  0.55680000  1.0 0.4595328373
C  C13  1  0.27030000  0.92850000  0.00140000  1.0 0.2525268894
C  C14  1  0.72970000  0.07150000  0.99860000  1.0 0.2525268894
C  C15  1  0.22870000  0.93880000  0.84660000  1.0 -0.093645339
C  C16  1  0.77130000  0.06120000  0.15340000  1.0 -0.093645339
C  C17  1  0.39230000  0.80300000  0.92060000  1.0 -0.0772905696
C  C18  1  0.60770000  0.19700000  0.07940000  1.0 -0.0772905696
C  C19  1  0.91780000  0.52850000  0.51710000  1.0 0.083701643
C  C20  1  0.08220000  0.47150000  0.48290000  1.0 0.083701643
C  C21  1  0.33750000  0.91140000  0.30930000  1.0 -0.1561612908
C  C22  1  0.66250000  0.08860000  0.69070000  1.0 -0.1561612908
C  C23  1  0.20400000  0.97770000  0.92400000  1.0 -0.1985374327
C  C24  1  0.79600000  0.02230000  0.07600000  1.0 -0.1985374327
C  C25  1  0.16230000  0.79180000  0.29280000  1.0 -0.1023023772
C  C26  1  0.83770000  0.20820000  0.70720000  1.0 -0.1023023772
C  C27  1  0.15960000  0.83890000  0.20160000  1.0 -0.2105150867
C  C28  1  0.84040000  0.16110000  0.79840000  1.0 -0.2105150867
C  C29  1  0.33370000  0.95870000  0.21770000  1.0 -0.1985374327
C  C30  1  0.66630000  0.04130000  0.78230000  1.0 -0.1985374327
C  C31  1  0.36650000  0.84200000  0.99900000  1.0 -0.2230009038
C  C32  1  0.63350000  0.15800000  0.00100000  1.0 -0.2230009038
C  C33  1  0.88900000  0.55500000  0.60100000  1.0 -0.1874490354
C  C34  1  0.11100000  0.44500000  0.39900000  1.0 -0.1874490354
C  C35  1  0.89160000  0.90910000  0.60330000  1.0 -0.0512813073
C  C36  1  0.10840000  0.09090000  0.39670000  1.0 -0.0512813073
C  C37  1  0.75300000  0.85040000  0.62610000  1.0 -0.0206715913
C  C38  1  0.24700000  0.14960000  0.37390000  1.0 -0.0206715913
C  C39  1  0.73800000  0.61190000  0.62780000  1.0 -0.002695539
C  C40  1  0.26200000  0.38810000  0.37220000  1.0 -0.002695539
C  C41  1  0.82270000  0.95400000  0.45250000  1.0 -0.0206715913
C  C42  1  0.17730000  0.04600000  0.54750000  1.0 -0.0206715913
C  C43  1  0.68670000  0.89420000  0.48250000  1.0 0.0298910522
C  C44  1  0.31330000  0.10580000  0.51750000  1.0 0.0298910522
C  C45  1  0.62850000  0.60520000  0.50220000  1.0 0.0298910522
C  C46  1  0.37150000  0.39480000  0.49780000  1.0 0.0298910522
C  C47  1  0.76910000  0.54610000  0.47280000  1.0 -0.0512813073
C  C48  1  0.23090000  0.45390000  0.52720000  1.0 -0.0512813073
C  C49  1  0.63830000  0.92370000  0.50440000  1.0 0.0298910522
C  C50  1  0.36170000  0.07630000  0.49560000  1.0 0.0298910522
C  C51  1  0.77550000  0.98260000  0.47520000  1.0 -0.0315634389
C  C52  1  0.22450000  0.01740000  0.52480000  1.0 -0.0315634389
C  C53  1  0.92720000  0.88570000  0.58620000  1.0 -0.0512813073
C  C54  1  0.07280000  0.11430000  0.41380000  1.0 -0.0512813073
C  C55  1  0.78200000  0.83110000  0.61330000  1.0 -0.0206715913
C  C56  1  0.21800000  0.16890000  0.38670000  1.0 -0.0206715913
C  C57  1  0.68530000  0.64830000  0.48390000  1.0 0.0298910522
C  C58  1  0.31470000  0.35170000  0.51610000  1.0 0.0298910522
C  C59  1  0.83050000  0.59260000  0.45080000  1.0 -0.0315634389
C  C60  1  0.16950000  0.40740000  0.54920000  1.0 -0.0363083393
C  C61  1  0.71300000  0.59300000  0.63330000  1.0 0.0053062102
C  C62  1  0.28700000  0.40700000  0.36670000  1.0 0.0053062102
C  C63  1  0.86700000  0.53800000  0.60630000  1.0 -0.1874490354
C  C64  1  0.13300000  0.46200000  0.39370000  1.0 -0.1874490354
N  N1  1  0.64230000  0.84440000  0.57180000  1.0 -0.1491784352
N  N2  1  0.35770000  0.15560000  0.42820000  1.0 -0.1491784352
N  N3  1  0.61690000  0.64550000  0.57540000  1.0 -0.1491784352
N  N4  1  0.38310000  0.35450000  0.42460000  1.0 -0.1491784352
O  O1  1  0.36270000  0.80520000  0.48550000  1.0 -0.5309362906
O  O2  1  0.63730000  0.19480000  0.51450000  1.0 -0.5309362906
O  O3  1  0.45090000  0.73280000  0.75380000  1.0 -0.5309362906
O  O4  1  0.54910000  0.26720000  0.24620000  1.0 -0.5309362906
O  O5  1  0.27640000  0.85010000  0.69230000  1.0 -0.5387845236
O  O6  1  0.72360000  0.14990000  0.30770000  1.0 -0.5387845236
O  O7  1  0.24220000  0.97360000  0.07600000  1.0 -0.2230009038
O  O8  1  0.75780000  0.02640000  0.92400000  1.0 -0.2230009038
O  O9  1  0.22830000  0.65780000  0.64680000  1.0 -0.6625459391
O  O10  1  0.77170000  0.34220000  0.35320000  1.0 -0.6625459391
O  O11  1  0.18480000  0.69840000  0.47340000  1.0 -0.4965768653
O  O12  1  0.81520000  0.30160000  0.52660000  1.0 -0.4965768653
