# DDEC6 charges by PACMAN v1.1 (https://github.com/mtap-research/PACMAN-charge/)
data_BIQHEQ_ASR_pacman
_symmetry_space_group_name_H-M   'P 1'
_cell_length_a   11.49980000
_cell_length_b   15.83540000
_cell_length_c   17.52040000
_cell_angle_alpha   90.00000000
_cell_angle_beta   90.00000000
_cell_angle_gamma   90.00000000
_symmetry_Int_Tables_number   1
_chemical_formula_structural   Zn3Fe2H24(C7N3)6
_chemical_formula_sum   'Zn6 Fe4 H48 C84 N36'
_cell_volume   3190.53374633
_cell_formula_units_Z   2
loop_
 _symmetry_equiv_pos_site_id
 _symmetry_equiv_pos_as_xyz
  1  'x, y, z'
loop_
 _atom_site_type_symbol
 _atom_site_label
 _atom_site_symmetry_multiplicity
 _atom_site_fract_x
 _atom_site_fract_y
 _atom_site_fract_z
 _atom_site_occupancy
 _atom_site_charge
Zn  Zn1  1  0.00000000  0.10795000  0.66730000  1.0 0.7455155389
Zn  Zn2  1  0.00000000  0.89205000  0.33270000  1.0 0.7449193732
Zn  Zn3  1  0.00000000  0.60795000  0.83270000  1.0 0.7455155389
Zn  Zn4  1  0.00000000  0.39205000  0.16730000  1.0 0.7449193732
Zn  Zn5  1  0.00000000  0.50000000  0.50000000  1.0 0.6949803368
Zn  Zn6  1  0.00000000  0.00000000  0.00000000  1.0 0.6980458037
Fe  Fe1  1  0.00000000  0.19827000  0.39143000  1.0 0.0823771344
Fe  Fe2  1  0.00000000  0.80173000  0.60857000  1.0 0.0823771344
Fe  Fe3  1  0.00000000  0.69827000  0.10857000  1.0 0.0823771344
Fe  Fe4  1  0.00000000  0.30173000  0.89143000  1.0 0.0823771344
H  H1  1  0.21360000  0.16820000  0.76710000  1.0 0.1196481441
H  H2  1  0.21360000  0.83180000  0.23290000  1.0 0.1196481441
H  H3  1  0.78640000  0.66820000  0.73290000  1.0 0.1196481441
H  H4  1  0.78640000  0.33180000  0.26710000  1.0 0.1196481441
H  H5  1  0.78640000  0.83180000  0.23290000  1.0 0.1196481441
H  H6  1  0.78640000  0.16820000  0.76710000  1.0 0.1196481441
H  H7  1  0.21360000  0.33180000  0.26710000  1.0 0.1196481441
H  H8  1  0.21360000  0.66820000  0.73290000  1.0 0.1196481441
H  H9  1  0.41220000  0.16200000  0.77300000  1.0 0.1408654233
H  H10  1  0.41220000  0.83800000  0.22700000  1.0 0.1408654233
H  H11  1  0.58780000  0.66200000  0.72700000  1.0 0.1408654233
H  H12  1  0.58780000  0.33800000  0.27300000  1.0 0.1408654233
H  H13  1  0.58780000  0.83800000  0.22700000  1.0 0.1408654233
H  H14  1  0.58780000  0.16200000  0.77300000  1.0 0.1408654233
H  H15  1  0.41220000  0.33800000  0.27300000  1.0 0.1408654233
H  H16  1  0.41220000  0.66200000  0.72700000  1.0 0.1408654233
H  H17  1  0.21000000  0.03160000  0.58420000  1.0 0.1292104459
H  H18  1  0.21000000  0.96840000  0.41580000  1.0 0.1292104459
H  H19  1  0.79000000  0.53160000  0.91580000  1.0 0.1292104459
H  H20  1  0.79000000  0.46840000  0.08420000  1.0 0.1292104459
H  H21  1  0.79000000  0.96840000  0.41580000  1.0 0.1292104459
H  H22  1  0.79000000  0.03160000  0.58420000  1.0 0.1292104459
H  H23  1  0.21000000  0.46840000  0.08420000  1.0 0.1292104459
H  H24  1  0.21000000  0.53160000  0.91580000  1.0 0.1292104459
H  H25  1  0.40760000  0.02090000  0.58510000  1.0 0.1482969267
H  H26  1  0.40760000  0.97910000  0.41490000  1.0 0.1482969267
H  H27  1  0.59240000  0.52090000  0.91490000  1.0 0.1482969267
H  H28  1  0.59240000  0.47910000  0.08510000  1.0 0.1482969267
H  H29  1  0.59240000  0.97910000  0.41490000  1.0 0.1482969267
H  H30  1  0.59240000  0.02090000  0.58510000  1.0 0.1482969267
H  H31  1  0.40760000  0.47910000  0.08510000  1.0 0.1482969267
H  H32  1  0.40760000  0.52090000  0.91490000  1.0 0.1482969267
H  H33  1  0.78890000  0.56390000  0.59390000  1.0 0.1196481441
H  H34  1  0.78890000  0.43610000  0.40610000  1.0 0.1196481441
H  H35  1  0.21110000  0.06390000  0.90610000  1.0 0.1196481441
H  H36  1  0.21110000  0.93610000  0.09390000  1.0 0.1196481441
H  H37  1  0.21110000  0.43610000  0.40610000  1.0 0.1196481441
H  H38  1  0.21110000  0.56390000  0.59390000  1.0 0.1196481441
H  H39  1  0.78890000  0.93610000  0.09390000  1.0 0.1196481441
H  H40  1  0.78890000  0.06390000  0.90610000  1.0 0.1196481441
H  H41  1  0.59080000  0.56480000  0.59740000  1.0 0.1408654233
H  H42  1  0.59080000  0.43520000  0.40260000  1.0 0.1408654233
H  H43  1  0.40920000  0.06480000  0.90260000  1.0 0.1408654233
H  H44  1  0.40920000  0.93520000  0.09740000  1.0 0.1408654233
H  H45  1  0.40920000  0.43520000  0.40260000  1.0 0.1408654233
H  H46  1  0.40920000  0.56480000  0.59740000  1.0 0.1408654233
H  H47  1  0.59080000  0.93520000  0.09740000  1.0 0.1408654233
H  H48  1  0.59080000  0.06480000  0.90260000  1.0 0.1408654233
C  C1  1  0.17000000  0.19800000  0.39360000  1.0 -0.066567102
C  C2  1  0.17000000  0.80200000  0.60640000  1.0 -0.066567102
C  C3  1  0.83000000  0.69800000  0.10640000  1.0 -0.066567102
C  C4  1  0.83000000  0.30200000  0.89360000  1.0 -0.066567102
C  C5  1  0.83000000  0.80200000  0.60640000  1.0 -0.066567102
C  C6  1  0.83000000  0.19800000  0.39360000  1.0 -0.066567102
C  C7  1  0.17000000  0.30200000  0.89360000  1.0 -0.066567102
C  C8  1  0.17000000  0.69800000  0.10640000  1.0 -0.066567102
C  C9  1  0.00000000  0.25430000  0.29430000  1.0 0.1196481441
C  C10  1  0.00000000  0.74570000  0.70570000  1.0 0.1196481441
C  C11  1  0.00000000  0.75430000  0.20570000  1.0 0.1196481441
C  C12  1  0.00000000  0.24570000  0.79430000  1.0 0.1196481441
C  C13  1  0.00000000  0.31010000  0.43340000  1.0 0.1099383221
C  C14  1  0.00000000  0.68990000  0.56660000  1.0 0.1099383221
C  C15  1  0.00000000  0.81010000  0.06660000  1.0 0.1099383221
C  C16  1  0.00000000  0.18990000  0.93340000  1.0 0.1099383221
C  C17  1  0.00000000  0.15280000  0.49320000  1.0 0.1292104459
C  C18  1  0.00000000  0.84720000  0.50680000  1.0 0.1292104459
C  C19  1  0.00000000  0.65280000  0.00680000  1.0 0.1292104459
C  C20  1  0.00000000  0.34720000  0.99320000  1.0 0.1292104459
C  C21  1  0.00000000  0.08640000  0.34790000  1.0 0.1196481441
C  C22  1  0.00000000  0.91360000  0.65210000  1.0 0.1196481441
C  C23  1  0.00000000  0.58640000  0.15210000  1.0 0.1196481441
C  C24  1  0.00000000  0.41360000  0.84790000  1.0 0.1196481441
C  C25  1  0.25320000  0.13850000  0.72940000  1.0 0.0897150696
C  C26  1  0.25320000  0.86150000  0.27060000  1.0 0.0897150696
C  C27  1  0.74680000  0.63850000  0.77060000  1.0 0.0897150696
C  C28  1  0.74680000  0.36150000  0.22940000  1.0 0.0897150696
C  C29  1  0.74680000  0.86150000  0.27060000  1.0 0.0897150696
C  C30  1  0.74680000  0.13850000  0.72940000  1.0 0.0897150696
C  C31  1  0.25320000  0.36150000  0.22940000  1.0 0.0897150696
C  C32  1  0.25320000  0.63850000  0.77060000  1.0 0.0897150696
C  C33  1  0.37320000  0.13530000  0.73330000  1.0 -0.1770996074
C  C34  1  0.37320000  0.86470000  0.26670000  1.0 -0.1770996074
C  C35  1  0.62680000  0.63530000  0.76670000  1.0 -0.1770996074
C  C36  1  0.62680000  0.36470000  0.23330000  1.0 -0.1770996074
C  C37  1  0.62680000  0.86470000  0.26670000  1.0 -0.1770996074
C  C38  1  0.62680000  0.13530000  0.73330000  1.0 -0.1770996074
C  C39  1  0.37320000  0.36470000  0.23330000  1.0 -0.1770996074
C  C40  1  0.37320000  0.63530000  0.76670000  1.0 -0.1770996074
C  C41  1  0.25090000  0.05880000  0.62290000  1.0 0.1099383221
C  C42  1  0.25090000  0.94120000  0.37710000  1.0 0.1099383221
C  C43  1  0.74910000  0.55880000  0.87710000  1.0 0.1099383221
C  C44  1  0.74910000  0.44120000  0.12290000  1.0 0.1099383221
C  C45  1  0.74910000  0.94120000  0.37710000  1.0 0.1099383221
C  C46  1  0.74910000  0.05880000  0.62290000  1.0 0.1099383221
C  C47  1  0.25090000  0.44120000  0.12290000  1.0 0.1099383221
C  C48  1  0.25090000  0.55880000  0.87710000  1.0 0.1099383221
C  C49  1  0.37040000  0.05240000  0.62270000  1.0 -0.1770996074
C  C50  1  0.37040000  0.94760000  0.37730000  1.0 -0.1770996074
C  C51  1  0.62960000  0.55240000  0.87730000  1.0 -0.1770996074
C  C52  1  0.62960000  0.44760000  0.12270000  1.0 -0.1770996074
C  C53  1  0.62960000  0.94760000  0.37730000  1.0 -0.1770996074
C  C54  1  0.62960000  0.05240000  0.62270000  1.0 -0.1770996074
C  C55  1  0.37040000  0.44760000  0.12270000  1.0 -0.1770996074
C  C56  1  0.37040000  0.55240000  0.87730000  1.0 -0.1770996074
C  C57  1  0.43480000  0.09240000  0.67830000  1.0 0.1196481441
C  C58  1  0.43480000  0.90760000  0.32170000  1.0 0.1196481441
C  C59  1  0.56520000  0.59240000  0.82170000  1.0 0.1196481441
C  C60  1  0.56520000  0.40760000  0.17830000  1.0 0.1196481441
C  C61  1  0.56520000  0.90760000  0.32170000  1.0 0.1196481441
C  C62  1  0.56520000  0.09240000  0.67830000  1.0 0.1196481441
C  C63  1  0.43480000  0.40760000  0.17830000  1.0 0.1196481441
C  C64  1  0.43480000  0.59240000  0.82170000  1.0 0.1196481441
C  C65  1  0.74860000  0.53700000  0.55480000  1.0 0.0966111389
C  C66  1  0.74860000  0.46300000  0.44520000  1.0 0.0966111389
C  C67  1  0.25140000  0.03700000  0.94520000  1.0 0.0966111389
C  C68  1  0.25140000  0.96300000  0.05480000  1.0 0.0966111389
C  C69  1  0.25140000  0.46300000  0.44520000  1.0 0.0966111389
C  C70  1  0.25140000  0.53700000  0.55480000  1.0 0.0966111389
C  C71  1  0.74860000  0.96300000  0.05480000  1.0 0.0966111389
C  C72  1  0.74860000  0.03700000  0.94520000  1.0 0.0966111389
C  C73  1  0.62860000  0.53820000  0.55720000  1.0 -0.1882776185
C  C74  1  0.62860000  0.46180000  0.44280000  1.0 -0.1882776185
C  C75  1  0.37140000  0.03820000  0.94280000  1.0 -0.1882776185
C  C76  1  0.37140000  0.96180000  0.05720000  1.0 -0.1882776185
C  C77  1  0.37140000  0.46180000  0.44280000  1.0 -0.1882776185
C  C78  1  0.37140000  0.53820000  0.55720000  1.0 -0.1882776185
C  C79  1  0.62860000  0.96180000  0.05720000  1.0 -0.1882776185
C  C80  1  0.62860000  0.03820000  0.94280000  1.0 -0.1882776185
C  C81  1  0.56430000  0.50000000  0.50000000  1.0 0.1196481441
C  C82  1  0.43570000  0.00000000  0.00000000  1.0 0.1196481441
C  C83  1  0.43570000  0.50000000  0.50000000  1.0 0.1196481441
C  C84  1  0.56430000  0.00000000  0.00000000  1.0 0.1196481441
N  N1  1  0.27050000  0.19710000  0.39690000  1.0 -0.3992049723
N  N2  1  0.27050000  0.80290000  0.60310000  1.0 -0.3992049723
N  N3  1  0.72950000  0.69710000  0.10310000  1.0 -0.3992049723
N  N4  1  0.72950000  0.30290000  0.89690000  1.0 -0.3992049723
N  N5  1  0.72950000  0.80290000  0.60310000  1.0 -0.3992049723
N  N6  1  0.72950000  0.19710000  0.39690000  1.0 -0.3992049723
N  N7  1  0.27050000  0.30290000  0.89690000  1.0 -0.3992049723
N  N8  1  0.27050000  0.69710000  0.10310000  1.0 -0.3992049723
N  N9  1  0.00000000  0.29590000  0.24070000  1.0 -0.3992049723
N  N10  1  0.00000000  0.70410000  0.75930000  1.0 -0.3992049723
N  N11  1  0.00000000  0.79590000  0.25930000  1.0 -0.3992049723
N  N12  1  0.00000000  0.20410000  0.74070000  1.0 -0.3992049723
N  N13  1  0.00000000  0.37840000  0.45520000  1.0 -0.3992049723
N  N14  1  0.00000000  0.62160000  0.54480000  1.0 -0.3992049723
N  N15  1  0.00000000  0.87840000  0.04480000  1.0 -0.3992049723
N  N16  1  0.00000000  0.12160000  0.95520000  1.0 -0.3992049723
N  N17  1  0.00000000  0.13160000  0.55610000  1.0 -0.3992049723
N  N18  1  0.00000000  0.86840000  0.44390000  1.0 -0.3992049723
N  N19  1  0.00000000  0.63160000  0.94390000  1.0 -0.3992049723
N  N20  1  0.00000000  0.36840000  0.05610000  1.0 -0.3992049723
N  N21  1  0.00000000  0.01920000  0.32310000  1.0 -0.3818159862
N  N22  1  0.00000000  0.98080000  0.67690000  1.0 -0.3818159862
N  N23  1  0.00000000  0.51920000  0.17690000  1.0 -0.3818159862
N  N24  1  0.00000000  0.48080000  0.82310000  1.0 -0.3818159862
N  N25  1  0.19070000  0.10127000  0.67439000  1.0 -0.1985710873
N  N26  1  0.19070000  0.89873000  0.32561000  1.0 -0.1985710873
N  N27  1  0.80930000  0.60127000  0.82561000  1.0 -0.1985710873
N  N28  1  0.80930000  0.39873000  0.17439000  1.0 -0.1985710873
N  N29  1  0.80930000  0.89873000  0.32561000  1.0 -0.1985710873
N  N30  1  0.80930000  0.10127000  0.67439000  1.0 -0.1985710873
N  N31  1  0.19070000  0.39873000  0.17439000  1.0 -0.1985710873
N  N32  1  0.19070000  0.60127000  0.82561000  1.0 -0.1985710873
N  N33  1  0.80970000  0.50000000  0.50000000  1.0 -0.2097677974
N  N34  1  0.19030000  0.00000000  0.00000000  1.0 -0.2097677974
N  N35  1  0.19030000  0.50000000  0.50000000  1.0 -0.2097677974
N  N36  1  0.80970000  0.00000000  0.00000000  1.0 -0.2097677974
