# DDEC6 charges by PACMAN v1.1 (https://github.com/mtap-research/PACMAN-charge/)
data_BIRGIU_FSR_pacman
_symmetry_space_group_name_H-M   'P 1'
_cell_length_a   16.34200000
_cell_length_b   16.80900000
_cell_length_c   21.87970000
_cell_angle_alpha   90.00000000
_cell_angle_beta   121.45600000
_cell_angle_gamma   90.00000000
_symmetry_Int_Tables_number   1
_chemical_formula_structural   Mn3H44C26Br8N5O8
_chemical_formula_sum   'Mn12 H176 C104 Br32 N20 O32'
_cell_volume   5126.94235650
_cell_formula_units_Z   4
loop_
 _symmetry_equiv_pos_site_id
 _symmetry_equiv_pos_as_xyz
  1  'x, y, z'
loop_
 _atom_site_type_symbol
 _atom_site_label
 _atom_site_symmetry_multiplicity
 _atom_site_fract_x
 _atom_site_fract_y
 _atom_site_fract_z
 _atom_site_occupancy
 _atom_site_charge
Mn  Mn1  1  0.00000000  0.00000000  0.00000000  1.0 0.9768117388
Mn  Mn2  1  0.00000000  0.50000000  0.50000000  1.0 0.9768117388
Mn  Mn3  1  0.18621000  0.89212000  0.05305000  1.0 0.877510937
Mn  Mn4  1  0.81379000  0.39212000  0.44695000  1.0 0.877510937
Mn  Mn5  1  0.81379000  0.10788000  0.94695000  1.0 0.877510937
Mn  Mn6  1  0.18621000  0.60788000  0.55305000  1.0 0.877510937
Mn  Mn7  1  0.50000000  0.50000000  0.00000000  1.0 0.7527427991
Mn  Mn8  1  0.50000000  0.00000000  0.50000000  1.0 0.7527427991
Mn  Mn9  1  0.35616000  0.64935000  0.94423000  1.0 0.7759300192
Mn  Mn10  1  0.64384000  0.14935000  0.55577000  1.0 0.7759300192
Mn  Mn11  1  0.64384000  0.35065000  0.05577000  1.0 0.7759300192
Mn  Mn12  1  0.35616000  0.85065000  0.44423000  1.0 0.7759300192
H  H1  1  0.19920000  0.23560000  0.08800000  1.0 0.1307703677
H  H2  1  0.80080000  0.73560000  0.41200000  1.0 0.1307703677
H  H3  1  0.80080000  0.76440000  0.91200000  1.0 0.1307703677
H  H4  1  0.19920000  0.26440000  0.58800000  1.0 0.1307703677
H  H5  1  0.16180000  0.26240000  0.13770000  1.0 0.1091372537
H  H6  1  0.83820000  0.76240000  0.36230000  1.0 0.1091372537
H  H7  1  0.83820000  0.73760000  0.86230000  1.0 0.1091372537
H  H8  1  0.16180000  0.23760000  0.63770000  1.0 0.1091372537
H  H9  1  0.24780000  0.06640000  0.13320000  1.0 0.091144197
H  H10  1  0.75220000  0.56640000  0.36680000  1.0 0.091144197
H  H11  1  0.75220000  0.93360000  0.86680000  1.0 0.091144197
H  H12  1  0.24780000  0.43360000  0.63320000  1.0 0.091144197
H  H13  1  0.19510000  0.09770000  0.05430000  1.0 0.1091372537
H  H14  1  0.80490000  0.59770000  0.44570000  1.0 0.1091372537
H  H15  1  0.80490000  0.90230000  0.94570000  1.0 0.1091372537
H  H16  1  0.19510000  0.40230000  0.55430000  1.0 0.1091372537
H  H17  1  0.04760000  0.18220000  0.00690000  1.0 0.1091372537
H  H18  1  0.95240000  0.68220000  0.49310000  1.0 0.1091372537
H  H19  1  0.95240000  0.81780000  0.99310000  1.0 0.1091372537
H  H20  1  0.04760000  0.31780000  0.50690000  1.0 0.1091372537
H  H21  1  0.01240000  0.21070000  0.05760000  1.0 0.091144197
H  H22  1  0.98760000  0.71070000  0.44240000  1.0 0.091144197
H  H23  1  0.98760000  0.78930000  0.94240000  1.0 0.091144197
H  H24  1  0.01240000  0.28930000  0.55760000  1.0 0.091144197
H  H25  1  0.19290000  0.10060000  0.21500000  1.0 0.0993751546
H  H26  1  0.80710000  0.60060000  0.28500000  1.0 0.0993751546
H  H27  1  0.80710000  0.89940000  0.78500000  1.0 0.0993751546
H  H28  1  0.19290000  0.39940000  0.71500000  1.0 0.0993751546
H  H29  1  0.09480000  0.06050000  0.15970000  1.0 0.1307703677
H  H30  1  0.90520000  0.56050000  0.34030000  1.0 0.1307703677
H  H31  1  0.90520000  0.93950000  0.84030000  1.0 0.1307703677
H  H32  1  0.09480000  0.43950000  0.65970000  1.0 0.1307703677
H  H33  1  0.94820000  0.12290000  0.12820000  1.0 0.1307703677
H  H34  1  0.05180000  0.62290000  0.37180000  1.0 0.1307703677
H  H35  1  0.05180000  0.87710000  0.87180000  1.0 0.1307703677
H  H36  1  0.94820000  0.37710000  0.62820000  1.0 0.1307703677
H  H37  1  0.86390000  0.21320000  0.15720000  1.0 0.1208107114
H  H38  1  0.13610000  0.71320000  0.34280000  1.0 0.1208107114
H  H39  1  0.13610000  0.78680000  0.84280000  1.0 0.1208107114
H  H40  1  0.86390000  0.28680000  0.65720000  1.0 0.1208107114
H  H41  1  0.95100000  0.30600000  0.24650000  1.0 0.1307703677
H  H42  1  0.04900000  0.80600000  0.25350000  1.0 0.1307703677
H  H43  1  0.04900000  0.69400000  0.75350000  1.0 0.1307703677
H  H44  1  0.95100000  0.19400000  0.74650000  1.0 0.1307703677
H  H45  1  0.11690000  0.30880000  0.30500000  1.0 0.1589382795
H  H46  1  0.88310000  0.80880000  0.19500000  1.0 0.1589382795
H  H47  1  0.88310000  0.69120000  0.69500000  1.0 0.1589382795
H  H48  1  0.11690000  0.19120000  0.80500000  1.0 0.1589382795
H  H49  1  0.19470000  0.22360000  0.27140000  1.0 0.0993751546
H  H50  1  0.80530000  0.72360000  0.22860000  1.0 0.0993751546
H  H51  1  0.80530000  0.77640000  0.72860000  1.0 0.0993751546
H  H52  1  0.19470000  0.27640000  0.77140000  1.0 0.0993751546
H  H53  1  0.33960000  0.35830000  0.10250000  1.0 0.1307703677
H  H54  1  0.66040000  0.85830000  0.39750000  1.0 0.1307703677
H  H55  1  0.66040000  0.64170000  0.89750000  1.0 0.1307703677
H  H56  1  0.33960000  0.14170000  0.60250000  1.0 0.1307703677
H  H57  1  0.41630000  0.37700000  0.18240000  1.0 0.1307703677
H  H58  1  0.58370000  0.87700000  0.31760000  1.0 0.1307703677
H  H59  1  0.58370000  0.62300000  0.81760000  1.0 0.1307703677
H  H60  1  0.41630000  0.12300000  0.68240000  1.0 0.1307703677
H  H61  1  0.32170000  0.53440000  0.05440000  1.0 0.091144197
H  H62  1  0.67830000  0.03440000  0.44560000  1.0 0.091144197
H  H63  1  0.67830000  0.46560000  0.94560000  1.0 0.091144197
H  H64  1  0.32170000  0.96560000  0.55440000  1.0 0.091144197
H  H65  1  0.31520000  0.46220000  0.00670000  1.0 0.0797299334
H  H66  1  0.68480000  0.96220000  0.49330000  1.0 0.0797299334
H  H67  1  0.68480000  0.53780000  0.99330000  1.0 0.0797299334
H  H68  1  0.31520000  0.03780000  0.50670000  1.0 0.0797299334
H  H69  1  0.43090000  0.35290000  0.05560000  1.0 0.0797299334
H  H70  1  0.56910000  0.85290000  0.44440000  1.0 0.0797299334
H  H71  1  0.56910000  0.64710000  0.94440000  1.0 0.0797299334
H  H72  1  0.43090000  0.14710000  0.55560000  1.0 0.0797299334
H  H73  1  0.51840000  0.35380000  0.13450000  1.0 0.0993751546
H  H74  1  0.48160000  0.85380000  0.36550000  1.0 0.0993751546
H  H75  1  0.48160000  0.64620000  0.86550000  1.0 0.0993751546
H  H76  1  0.51840000  0.14620000  0.63450000  1.0 0.0993751546
H  H77  1  0.54980000  0.52170000  0.15630000  1.0 0.1091372537
H  H78  1  0.45020000  0.02170000  0.34370000  1.0 0.1091372537
H  H79  1  0.45020000  0.47830000  0.84370000  1.0 0.1091372537
H  H80  1  0.54980000  0.97830000  0.65630000  1.0 0.1091372537
H  H81  1  0.54720000  0.46730000  0.21330000  1.0 0.1307703677
H  H82  1  0.45280000  0.96730000  0.28670000  1.0 0.1307703677
H  H83  1  0.45280000  0.53270000  0.78670000  1.0 0.1307703677
H  H84  1  0.54720000  0.03270000  0.71330000  1.0 0.1307703677
H  H85  1  0.48930000  0.51700000  0.28120000  1.0 0.1208107114
H  H86  1  0.51070000  0.01700000  0.21880000  1.0 0.1208107114
H  H87  1  0.51070000  0.48300000  0.71880000  1.0 0.1208107114
H  H88  1  0.48930000  0.98300000  0.78120000  1.0 0.1208107114
H  H89  1  0.43000000  0.62010000  0.31800000  1.0 0.1380453036
H  H90  1  0.57000000  0.12010000  0.18200000  1.0 0.1380453036
H  H91  1  0.57000000  0.37990000  0.68200000  1.0 0.1380453036
H  H92  1  0.43000000  0.87990000  0.81800000  1.0 0.1380453036
H  H93  1  0.38460000  0.73840000  0.25160000  1.0 0.1091372537
H  H94  1  0.61540000  0.23840000  0.24840000  1.0 0.1091372537
H  H95  1  0.61540000  0.26160000  0.74840000  1.0 0.1091372537
H  H96  1  0.38460000  0.76160000  0.75160000  1.0 0.1091372537
H  H97  1  0.39230000  0.74610000  0.14780000  1.0 0.1475489308
H  H98  1  0.60770000  0.24610000  0.35220000  1.0 0.1475489308
H  H99  1  0.60770000  0.25390000  0.85220000  1.0 0.1475489308
H  H100  1  0.39230000  0.75390000  0.64780000  1.0 0.1475489308
H  H101  1  0.44790000  0.63890000  0.11670000  1.0 0.1208107114
H  H102  1  0.55210000  0.13890000  0.38330000  1.0 0.1208107114
H  H103  1  0.55210000  0.36110000  0.88330000  1.0 0.1208107114
H  H104  1  0.44790000  0.86110000  0.61670000  1.0 0.1208107114
H  H105  1  0.13140000  0.74680000  0.17900000  1.0 0.0993751546
H  H106  1  0.86860000  0.24680000  0.32100000  1.0 0.0993751546
H  H107  1  0.86860000  0.25320000  0.82100000  1.0 0.0993751546
H  H108  1  0.13140000  0.75320000  0.67900000  1.0 0.0993751546
H  H109  1  0.09520000  0.72890000  0.09850000  1.0 0.1307703677
H  H110  1  0.90480000  0.22890000  0.40150000  1.0 0.1307703677
H  H111  1  0.90480000  0.27110000  0.90150000  1.0 0.1307703677
H  H112  1  0.09520000  0.77110000  0.59850000  1.0 0.1307703677
H  H113  1  0.20510000  0.72560000  0.15610000  1.0 0.0993751546
H  H114  1  0.79490000  0.22560000  0.34390000  1.0 0.0993751546
H  H115  1  0.79490000  0.27440000  0.84390000  1.0 0.0993751546
H  H116  1  0.20510000  0.77440000  0.65610000  1.0 0.0993751546
H  H117  1  0.25330000  0.98530000  0.91160000  1.0 0.0993751546
H  H118  1  0.74670000  0.48530000  0.58840000  1.0 0.0993751546
H  H119  1  0.74670000  0.01470000  0.08840000  1.0 0.0993751546
H  H120  1  0.25330000  0.51470000  0.41160000  1.0 0.0993751546
H  H121  1  0.32810000  0.97640000  0.99390000  1.0 0.0993751546
H  H122  1  0.67190000  0.47640000  0.50610000  1.0 0.0993751546
H  H123  1  0.67190000  0.02360000  0.00610000  1.0 0.0993751546
H  H124  1  0.32810000  0.52360000  0.49390000  1.0 0.0993751546
H  H125  1  0.28640000  0.90050000  0.94560000  1.0 0.0797299334
H  H126  1  0.71360000  0.40050000  0.55440000  1.0 0.0797299334
H  H127  1  0.71360000  0.09950000  0.05440000  1.0 0.0797299334
H  H128  1  0.28640000  0.59950000  0.44560000  1.0 0.0797299334
H  H129  1  0.55910000  0.79910000  0.09810000  1.0 0.091144197
H  H130  1  0.44090000  0.29910000  0.40190000  1.0 0.091144197
H  H131  1  0.44090000  0.20090000  0.90190000  1.0 0.091144197
H  H132  1  0.55910000  0.70090000  0.59810000  1.0 0.091144197
H  H133  1  0.48770000  0.82810000  0.01950000  1.0 0.091144197
H  H134  1  0.51230000  0.32810000  0.48050000  1.0 0.091144197
H  H135  1  0.51230000  0.17190000  0.98050000  1.0 0.091144197
H  H136  1  0.48770000  0.67190000  0.51950000  1.0 0.091144197
H  H137  1  0.44970000  0.80860000  0.07050000  1.0 0.0993751546
H  H138  1  0.55030000  0.30860000  0.42950000  1.0 0.0993751546
H  H139  1  0.55030000  0.19140000  0.92950000  1.0 0.0993751546
H  H140  1  0.44970000  0.69140000  0.57050000  1.0 0.0993751546
H  H141  1  0.17380000  0.54190000  0.75750000  1.0 0.091144197
H  H142  1  0.82620000  0.04190000  0.74250000  1.0 0.091144197
H  H143  1  0.82620000  0.45810000  0.24250000  1.0 0.091144197
H  H144  1  0.17380000  0.95810000  0.25750000  1.0 0.091144197
H  H145  1  0.20430000  0.63160000  0.77120000  1.0 0.0797299334
H  H146  1  0.79570000  0.13160000  0.72880000  1.0 0.0797299334
H  H147  1  0.79570000  0.36840000  0.22880000  1.0 0.0797299334
H  H148  1  0.20430000  0.86840000  0.27120000  1.0 0.0797299334
H  H149  1  0.28030000  0.56590000  0.78530000  1.0 0.091144197
H  H150  1  0.71970000  0.06590000  0.71470000  1.0 0.091144197
H  H151  1  0.71970000  0.43410000  0.21470000  1.0 0.091144197
H  H152  1  0.28030000  0.93410000  0.28530000  1.0 0.091144197
H  H153  1  0.21120000  0.85090000  0.23860000  1.0 0.0797299334
H  H154  1  0.78880000  0.35090000  0.26140000  1.0 0.0797299334
H  H155  1  0.78880000  0.14910000  0.76140000  1.0 0.0797299334
H  H156  1  0.21120000  0.64910000  0.73860000  1.0 0.0797299334
H  H157  1  0.28820000  0.86350000  0.21730000  1.0 0.091144197
H  H158  1  0.71180000  0.36350000  0.28270000  1.0 0.091144197
H  H159  1  0.71180000  0.13650000  0.78270000  1.0 0.091144197
H  H160  1  0.28820000  0.63650000  0.71730000  1.0 0.091144197
H  H161  1  0.21240000  0.93010000  0.20130000  1.0 0.1208107114
H  H162  1  0.78760000  0.43010000  0.29870000  1.0 0.1208107114
H  H163  1  0.78760000  0.06990000  0.79870000  1.0 0.1208107114
H  H164  1  0.21240000  0.56990000  0.70130000  1.0 0.1208107114
H  H165  1  0.13080000  0.51360000  0.79910000  1.0 0.091144197
H  H166  1  0.86920000  0.01360000  0.70090000  1.0 0.091144197
H  H167  1  0.86920000  0.48640000  0.20090000  1.0 0.091144197
H  H168  1  0.13080000  0.98640000  0.29910000  1.0 0.091144197
H  H169  1  0.15680000  0.51930000  0.87880000  1.0 0.1091372537
H  H170  1  0.84320000  0.01930000  0.62120000  1.0 0.1091372537
H  H171  1  0.84320000  0.48070000  0.12120000  1.0 0.1091372537
H  H172  1  0.15680000  0.98070000  0.37880000  1.0 0.1091372537
H  H173  1  0.11590000  0.59380000  0.82860000  1.0 0.0993751546
H  H174  1  0.88410000  0.09380000  0.67140000  1.0 0.0993751546
H  H175  1  0.88410000  0.40620000  0.17140000  1.0 0.0993751546
H  H176  1  0.11590000  0.90620000  0.32860000  1.0 0.0993751546
C  C1  1  0.13730000  0.14430000  0.11160000  1.0 0.1208107114
C  C2  1  0.86270000  0.64430000  0.38840000  1.0 0.1091372537
C  C3  1  0.86270000  0.85570000  0.88840000  1.0 0.1091372537
C  C4  1  0.13730000  0.35570000  0.61160000  1.0 0.1091372537
C  C5  1  0.19560000  0.22040000  0.12930000  1.0 -0.2446557562
C  C6  1  0.80440000  0.72040000  0.37070000  1.0 -0.2446557562
C  C7  1  0.80440000  0.77960000  0.87070000  1.0 -0.2446557562
C  C8  1  0.19560000  0.27960000  0.62930000  1.0 -0.2446557562
C  C9  1  0.18510000  0.07770000  0.09150000  1.0 -0.0385972234
C  C10  1  0.81490000  0.57770000  0.40850000  1.0 -0.0385972234
C  C11  1  0.81490000  0.92230000  0.90850000  1.0 -0.0385972234
C  C12  1  0.18510000  0.42230000  0.59150000  1.0 -0.0385972234
C  C13  1  0.03880000  0.16580000  0.04560000  1.0 -0.0651798527
C  C14  1  0.96120000  0.66580000  0.45440000  1.0 -0.0651798527
C  C15  1  0.96120000  0.83420000  0.95440000  1.0 -0.0649164858
C  C16  1  0.03880000  0.33420000  0.54560000  1.0 -0.0651798527
C  C17  1  0.12900000  0.11080000  0.17430000  1.0 -0.1866875457
C  C18  1  0.87100000  0.61080000  0.32570000  1.0 -0.1866875457
C  C19  1  0.87100000  0.88920000  0.82570000  1.0 -0.1866875457
C  C20  1  0.12900000  0.38920000  0.67430000  1.0 -0.1866875457
C  C21  1  0.98110000  0.16160000  0.16300000  1.0 0.0567349104
C  C22  1  0.01890000  0.66160000  0.33700000  1.0 0.0567349104
C  C23  1  0.01890000  0.83840000  0.83700000  1.0 0.0567349104
C  C24  1  0.98110000  0.33840000  0.66300000  1.0 0.0567349104
C  C25  1  0.93050000  0.21490000  0.18060000  1.0 -0.1537536959
C  C26  1  0.06950000  0.71490000  0.31940000  1.0 -0.1537536959
C  C27  1  0.06950000  0.78510000  0.81940000  1.0 -0.1537536959
C  C28  1  0.93050000  0.28510000  0.68060000  1.0 -0.1537536959
C  C29  1  0.98270000  0.26990000  0.23370000  1.0 -0.0385972234
C  C30  1  0.01730000  0.76990000  0.26630000  1.0 -0.0385972234
C  C31  1  0.01730000  0.73010000  0.76630000  1.0 -0.0385972234
C  C32  1  0.98270000  0.23010000  0.73370000  1.0 -0.0385972234
C  C33  1  0.08230000  0.27220000  0.26850000  1.0 -0.1082607265
C  C34  1  0.91770000  0.77220000  0.23150000  1.0 -0.1082607265
C  C35  1  0.91770000  0.72780000  0.73150000  1.0 -0.1082607265
C  C36  1  0.08230000  0.22780000  0.76850000  1.0 -0.1082607265
C  C37  1  0.12820000  0.22130000  0.24900000  1.0 -0.0505222025
C  C38  1  0.87180000  0.72130000  0.25100000  1.0 -0.0385972234
C  C39  1  0.87180000  0.77870000  0.75100000  1.0 -0.0505222025
C  C40  1  0.12820000  0.27870000  0.74900000  1.0 -0.0505222025
C  C41  1  0.42940000  0.45080000  0.11210000  1.0 0.1380453036
C  C42  1  0.57060000  0.95080000  0.38790000  1.0 0.1380453036
C  C43  1  0.57060000  0.54920000  0.88790000  1.0 0.1380453036
C  C44  1  0.42940000  0.04920000  0.61210000  1.0 0.1380453036
C  C45  1  0.37130000  0.40120000  0.13670000  1.0 -0.249822108
C  C46  1  0.62870000  0.90120000  0.36330000  1.0 -0.249822108
C  C47  1  0.62870000  0.59880000  0.86330000  1.0 -0.249822108
C  C48  1  0.37130000  0.09880000  0.63670000  1.0 -0.249822108
C  C49  1  0.35920000  0.49870000  0.04370000  1.0 -0.076900741
C  C50  1  0.64080000  0.99870000  0.45630000  1.0 -0.076900741
C  C51  1  0.64080000  0.50130000  0.95630000  1.0 -0.076900741
C  C52  1  0.35920000  0.00130000  0.54370000  1.0 -0.076900741
C  C53  1  0.47940000  0.38670000  0.09270000  1.0 -0.076900741
C  C54  1  0.52060000  0.88670000  0.40730000  1.0 -0.076900741
C  C55  1  0.52060000  0.61330000  0.90730000  1.0 -0.076900741
C  C56  1  0.47940000  0.11330000  0.59270000  1.0 -0.076900741
C  C57  1  0.50850000  0.50130000  0.17230000  1.0 -0.2105955653
C  C58  1  0.49150000  0.00130000  0.32770000  1.0 -0.2012535284
C  C59  1  0.49150000  0.49870000  0.82770000  1.0 -0.2105955653
C  C60  1  0.50850000  0.99870000  0.67230000  1.0 -0.2105955653
C  C61  1  0.46870000  0.56380000  0.25470000  1.0 0.017764411
C  C62  1  0.53130000  0.06380000  0.24530000  1.0 0.017764411
C  C63  1  0.53130000  0.43620000  0.74530000  1.0 0.017764411
C  C64  1  0.46870000  0.93620000  0.75470000  1.0 0.017764411
C  C65  1  0.43430000  0.62530000  0.27750000  1.0 -0.1306467744
C  C66  1  0.56570000  0.12530000  0.22250000  1.0 -0.1306467744
C  C67  1  0.56570000  0.37470000  0.72250000  1.0 -0.1306467744
C  C68  1  0.43430000  0.87470000  0.77750000  1.0 -0.1306467744
C  C69  1  0.40630000  0.69530000  0.23730000  1.0 -0.0336579717
C  C70  1  0.59370000  0.19530000  0.26270000  1.0 -0.0336579717
C  C71  1  0.59370000  0.30470000  0.76270000  1.0 -0.0336579717
C  C72  1  0.40630000  0.80470000  0.73730000  1.0 -0.0336579717
C  C73  1  0.41130000  0.70030000  0.17570000  1.0 -0.1215168516
C  C74  1  0.58870000  0.20030000  0.32430000  1.0 -0.1215168516
C  C75  1  0.58870000  0.29970000  0.82430000  1.0 -0.1215168516
C  C76  1  0.41130000  0.79970000  0.67570000  1.0 -0.1215168516
C  C77  1  0.44480000  0.63610000  0.15790000  1.0 0.0386705344
C  C78  1  0.55520000  0.13610000  0.34210000  1.0 0.0386705344
C  C79  1  0.55520000  0.36390000  0.84210000  1.0 0.0386705344
C  C80  1  0.44480000  0.86390000  0.65790000  1.0 0.0386705344
C  C81  1  0.14580000  0.75220000  0.14190000  1.0 -0.2599811832
C  C82  1  0.85420000  0.25220000  0.35810000  1.0 -0.2599811832
C  C83  1  0.85420000  0.24780000  0.85810000  1.0 -0.2599811832
C  C84  1  0.14580000  0.74780000  0.64190000  1.0 -0.2599811832
C  C85  1  0.27210000  0.95360000  0.95340000  1.0 -0.1866875457
C  C86  1  0.72790000  0.45360000  0.54660000  1.0 -0.1866875457
C  C87  1  0.72790000  0.04640000  0.04660000  1.0 -0.1866875457
C  C88  1  0.27210000  0.54640000  0.45340000  1.0 -0.1866875457
C  C89  1  0.49520000  0.79390000  0.05730000  1.0 -0.2105955653
C  C90  1  0.50480000  0.29390000  0.44270000  1.0 -0.2105955653
C  C91  1  0.50480000  0.20610000  0.94270000  1.0 -0.2105955653
C  C92  1  0.49520000  0.70610000  0.55730000  1.0 -0.2105955653
C  C93  1  0.22450000  0.57810000  0.78750000  1.0 -0.2446557562
C  C94  1  0.77550000  0.07810000  0.71250000  1.0 -0.2446557562
C  C95  1  0.77550000  0.42190000  0.21250000  1.0 -0.249822108
C  C96  1  0.22450000  0.92190000  0.28750000  1.0 -0.249822108
C  C97  1  0.22300000  0.87400000  0.20400000  1.0 -0.2935155312
C  C98  1  0.77700000  0.37400000  0.29600000  1.0 -0.2935155312
C  C99  1  0.77700000  0.12600000  0.79600000  1.0 -0.2935155312
C  C100  1  0.22300000  0.62600000  0.70400000  1.0 -0.2935155312
C  C101  1  0.15630000  0.54760000  0.84030000  1.0 -0.2012535284
C  C102  1  0.84370000  0.04760000  0.65970000  1.0 -0.2012535284
C  C103  1  0.84370000  0.45240000  0.15970000  1.0 -0.2012535284
C  C104  1  0.15630000  0.95240000  0.34030000  1.0 -0.2012535284
Br  Br1  1  0.32707000  0.21338000  0.21333000  1.0 -0.1583356838
Br  Br2  1  0.67293000  0.71338000  0.28667000  1.0 -0.1583356838
Br  Br3  1  0.67293000  0.78662000  0.78667000  1.0 -0.1583356838
Br  Br4  1  0.32707000  0.28662000  0.71333000  1.0 -0.1583356838
Br  Br5  1  0.27472000  0.45694000  0.14689000  1.0 -0.0505222025
Br  Br6  1  0.72528000  0.95694000  0.35311000  1.0 -0.0505222025
Br  Br7  1  0.72528000  0.54306000  0.85311000  1.0 -0.0505222025
Br  Br8  1  0.27472000  0.04306000  0.64689000  1.0 -0.0505222025
Br  Br9  1  0.36713000  0.90973000  0.14514000  1.0 -0.5612227823
Br  Br10  1  0.63287000  0.40973000  0.35486000  1.0 -0.5612227823
Br  Br11  1  0.63287000  0.09027000  0.85486000  1.0 -0.5612227823
Br  Br12  1  0.36713000  0.59027000  0.64514000  1.0 -0.5612227823
Br  Br13  1  0.32336000  0.77207000  0.86251000  1.0 0.0055823558
Br  Br14  1  0.67664000  0.27207000  0.63749000  1.0 0.0055823558
Br  Br15  1  0.67664000  0.22793000  0.13749000  1.0 0.0055823558
Br  Br16  1  0.32336000  0.72793000  0.36251000  1.0 0.0055823558
Br  Br17  1  0.96652000  0.92250000  0.11475000  1.0 -0.5612227823
Br  Br18  1  0.03348000  0.42250000  0.38525000  1.0 -0.5612227823
Br  Br19  1  0.03348000  0.07750000  0.88525000  1.0 -0.5612227823
Br  Br20  1  0.96652000  0.57750000  0.61475000  1.0 -0.5612227823
Br  Br21  1  0.33535000  0.10607000  0.38653000  1.0 0.1475489308
Br  Br22  1  0.66465000  0.60607000  0.11347000  1.0 0.1475489308
Br  Br23  1  0.66465000  0.89393000  0.61347000  1.0 0.1475489308
Br  Br24  1  0.33535000  0.39393000  0.88653000  1.0 0.1475489308
Br  Br25  1  0.27660000  0.72390000  0.81730000  1.0 0.0797299334
Br  Br26  1  0.72340000  0.22390000  0.68270000  1.0 0.0797299334
Br  Br27  1  0.72340000  0.27610000  0.18270000  1.0 0.0797299334
Br  Br28  1  0.27660000  0.77610000  0.31730000  1.0 0.0797299334
Br  Br29  1  0.36100000  0.12860000  0.40690000  1.0 0.2142166366
Br  Br30  1  0.63900000  0.62860000  0.09310000  1.0 0.2142166366
Br  Br31  1  0.63900000  0.87140000  0.59310000  1.0 0.2142166366
Br  Br32  1  0.36100000  0.37140000  0.90690000  1.0 0.2142166366
N  N1  1  0.07790000  0.16630000  0.19660000  1.0 0.1091372537
N  N2  1  0.92210000  0.66630000  0.30340000  1.0 0.1091372537
N  N3  1  0.92210000  0.83370000  0.80340000  1.0 0.1091372537
N  N4  1  0.07790000  0.33370000  0.69660000  1.0 0.1091372537
N  N5  1  0.47290000  0.57010000  0.19580000  1.0 0.1091372537
N  N6  1  0.52710000  0.07010000  0.30420000  1.0 0.0993751546
N  N7  1  0.52710000  0.42990000  0.80420000  1.0 0.0993751546
N  N8  1  0.47290000  0.92990000  0.69580000  1.0 0.1091372537
N  N9  1  0.18400000  0.77700000  0.00760000  1.0 -0.4573628585
N  N10  1  0.81600000  0.27700000  0.49240000  1.0 -0.4573628585
N  N11  1  0.81600000  0.22300000  0.99240000  1.0 -0.4573628585
N  N12  1  0.18400000  0.72300000  0.50760000  1.0 -0.4573628585
N  N13  1  0.22750000  0.72960000  0.99710000  1.0 0.4313542266
N  N14  1  0.77250000  0.22960000  0.50290000  1.0 0.4313542266
N  N15  1  0.77250000  0.27040000  0.00290000  1.0 0.4313542266
N  N16  1  0.22750000  0.77040000  0.49710000  1.0 0.4313542266
N  N17  1  0.26500000  0.67790000  0.98570000  1.0 -0.4339802543
N  N18  1  0.73500000  0.17790000  0.51430000  1.0 -0.4339802543
N  N19  1  0.73500000  0.32210000  0.01430000  1.0 -0.4339802543
N  N20  1  0.26500000  0.82210000  0.48570000  1.0 -0.4339802543
O  O1  1  0.13360000  0.00650000  0.06780000  1.0 -0.5111094395
O  O2  1  0.86640000  0.50650000  0.43220000  1.0 -0.5111094395
O  O3  1  0.86640000  0.99350000  0.93220000  1.0 -0.5111094395
O  O4  1  0.13360000  0.49350000  0.56780000  1.0 -0.5111094395
O  O5  1  0.97160000  0.10170000  0.02130000  1.0 -0.5304418037
O  O6  1  0.02840000  0.60170000  0.47870000  1.0 -0.5304418037
O  O7  1  0.02840000  0.89830000  0.97870000  1.0 -0.5304418037
O  O8  1  0.97160000  0.39830000  0.52130000  1.0 -0.5304418037
O  O9  1  0.40840000  0.54380000  0.01740000  1.0 -0.5190178211
O  O10  1  0.59160000  0.04380000  0.48260000  1.0 -0.5190178211
O  O11  1  0.59160000  0.45620000  0.98260000  1.0 -0.5190178211
O  O12  1  0.40840000  0.95620000  0.51740000  1.0 -0.5190178211
O  O13  1  0.53830000  0.41800000  0.06860000  1.0 -0.5399267058
O  O14  1  0.46170000  0.91800000  0.43140000  1.0 -0.5399267058
O  O15  1  0.46170000  0.58200000  0.93140000  1.0 -0.5399267058
O  O16  1  0.53830000  0.08200000  0.56860000  1.0 -0.5399267058
O  O17  1  0.15470000  0.83640000  0.13000000  1.0 -0.1306467744
O  O18  1  0.84530000  0.33640000  0.37000000  1.0 -0.1306467744
O  O19  1  0.84530000  0.16360000  0.87000000  1.0 -0.1306467744
O  O20  1  0.15470000  0.66360000  0.63000000  1.0 -0.1306467744
O  O21  1  0.19810000  0.95150000  0.96670000  1.0 -0.3394680972
O  O22  1  0.80190000  0.45150000  0.53330000  1.0 -0.3394680972
O  O23  1  0.80190000  0.04850000  0.03330000  1.0 -0.3394680972
O  O24  1  0.19810000  0.54850000  0.46670000  1.0 -0.3394680972
O  O25  1  0.47900000  0.71390000  0.03320000  1.0 -0.5190178211
O  O26  1  0.52100000  0.21390000  0.46680000  1.0 -0.5190178211
O  O27  1  0.52100000  0.28610000  0.96680000  1.0 -0.5190178211
O  O28  1  0.47900000  0.78610000  0.53320000  1.0 -0.5190178211
O  O29  1  0.24750000  0.57060000  0.86100000  1.0 -0.2229405026
O  O30  1  0.75250000  0.07060000  0.63900000  1.0 -0.2229405026
O  O31  1  0.75250000  0.42940000  0.13900000  1.0 -0.2229405026
O  O32  1  0.24750000  0.92940000  0.36100000  1.0 -0.2229405026
