# DDEC6 charges by PACMAN v1.1 (https://github.com/mtap-research/PACMAN-charge/)
data_BISCUF_ASR_pacman
_symmetry_space_group_name_H-M   'P 1'
_cell_length_a   12.84610000
_cell_length_b   12.84610000
_cell_length_c   7.81563000
_cell_angle_alpha   87.55780000
_cell_angle_beta   92.44220000
_cell_angle_gamma   110.32800000
_symmetry_Int_Tables_number   1
_chemical_formula_structural   Hf3C16O19
_chemical_formula_sum   'Hf6 C32 O38'
_cell_volume   1207.79544987
_cell_formula_units_Z   2
loop_
 _symmetry_equiv_pos_site_id
 _symmetry_equiv_pos_as_xyz
  1  'x, y, z'
loop_
 _atom_site_type_symbol
 _atom_site_label
 _atom_site_symmetry_multiplicity
 _atom_site_fract_x
 _atom_site_fract_y
 _atom_site_fract_z
 _atom_site_occupancy
 _atom_site_charge
Hf  Hf1  1  0.19705000  0.04117000  0.94670000  1.0 1.4983848553
Hf  Hf2  1  0.04117000  0.19705000  0.05330000  1.0 1.4983848553
Hf  Hf3  1  0.80295000  0.95883000  0.05330000  1.0 1.4935898205
Hf  Hf4  1  0.95883000  0.80295000  0.94670000  1.0 1.4983848553
Hf  Hf5  1  0.04044000  0.95956000  0.30620000  1.0 1.5339137932
Hf  Hf6  1  0.95956000  0.04044000  0.69380000  1.0 1.536793532
C  C1  1  0.40300000  0.40300000  0.00000000  1.0 -0.0014888214
C  C2  1  0.59700000  0.59700000  0.00000000  1.0 -0.0014888214
C  C3  1  0.46360000  0.43840000  0.15600000  1.0 -0.0136495454
C  C4  1  0.43840000  0.46360000  0.84400000  1.0 -0.0136495454
C  C5  1  0.53640000  0.56160000  0.84400000  1.0 -0.0136495454
C  C6  1  0.56160000  0.53640000  0.15600000  1.0 -0.0136495454
C  C7  1  0.29700000  0.29700000  0.00000000  1.0 0.6578062793
C  C8  1  0.70300000  0.70300000  0.00000000  1.0 0.6578062793
C  C9  1  0.42500000  0.37300000  0.32600000  1.0 0.5998315087
C  C10  1  0.37300000  0.42500000  0.67400000  1.0 0.5998315087
C  C11  1  0.57500000  0.62700000  0.67400000  1.0 0.5998315087
C  C12  1  0.62700000  0.57500000  0.32600000  1.0 0.5998315087
C  C13  1  0.40000000  0.00000000  0.41300000  1.0 -0.0877214277
C  C14  1  0.00000000  0.40000000  0.58700000  1.0 -0.0877214277
C  C15  1  0.60000000  0.00000000  0.58700000  1.0 -0.0877214277
C  C16  1  0.00000000  0.60000000  0.41300000  1.0 -0.0877214277
C  C17  1  0.40900000  0.00300000  0.59500000  1.0 -0.057903338
C  C18  1  0.00300000  0.40900000  0.40500000  1.0 -0.057903338
C  C19  1  0.59100000  0.99700000  0.40500000  1.0 -0.057903338
C  C20  1  0.99700000  0.59100000  0.59500000  1.0 -0.057903338
C  C21  1  0.50900000  0.00300000  0.68200000  1.0 0.1207730791
C  C22  1  0.00300000  0.50900000  0.31800000  1.0 0.1207730791
C  C23  1  0.49100000  0.99700000  0.31800000  1.0 0.1207730791
C  C24  1  0.99700000  0.49100000  0.68200000  1.0 0.1207730791
C  C25  1  0.29700000  0.99900000  0.32400000  1.0 0.6315887889
C  C26  1  0.99900000  0.29700000  0.67600000  1.0 0.6315887889
C  C27  1  0.70300000  0.00100000  0.67600000  1.0 0.6315887889
C  C28  1  0.00100000  0.70300000  0.32400000  1.0 0.6315887889
C  C29  1  0.31500000  0.00500000  0.69400000  1.0 0.5761647543
C  C30  1  0.00500000  0.31500000  0.30600000  1.0 0.5761647543
C  C31  1  0.68500000  0.99500000  0.30600000  1.0 0.5761647543
C  C32  1  0.99500000  0.68500000  0.69400000  1.0 0.5761647543
O  O1  1  0.30650000  0.19950000  0.00700000  1.0 -0.5290242711
O  O2  1  0.19950000  0.30650000  0.99300000  1.0 -0.5290242711
O  O3  1  0.69350000  0.80050000  0.99300000  1.0 -0.5290242711
O  O4  1  0.80050000  0.69350000  0.00700000  1.0 -0.5290242711
O  O5  1  0.31900000  0.32100000  0.34900000  1.0 -0.3371203372
O  O6  1  0.32100000  0.31900000  0.65100000  1.0 -0.3371203372
O  O7  1  0.68100000  0.67900000  0.65100000  1.0 -0.3371203372
O  O8  1  0.67900000  0.68100000  0.34900000  1.0 -0.3371203372
O  O9  1  0.49800000  0.36800000  0.44500000  1.0 -0.3254701177
O  O10  1  0.36800000  0.49800000  0.55500000  1.0 -0.3254701177
O  O11  1  0.50200000  0.63200000  0.55500000  1.0 -0.3254701177
O  O12  1  0.63200000  0.50200000  0.44500000  1.0 -0.3254701177
O  O13  1  0.21120000  0.98220000  0.40600000  1.0 -0.426534144
O  O14  1  0.98220000  0.21120000  0.59400000  1.0 -0.426534144
O  O15  1  0.78880000  0.01780000  0.59400000  1.0 -0.426534144
O  O16  1  0.01780000  0.78880000  0.40600000  1.0 -0.426534144
O  O17  1  0.29510000  0.01510000  0.16500000  1.0 -0.4888846109
O  O18  1  0.01510000  0.29510000  0.83500000  1.0 -0.4888846109
O  O19  1  0.70490000  0.98490000  0.83500000  1.0 -0.4888846109
O  O20  1  0.98490000  0.70490000  0.16500000  1.0 -0.4888846109
O  O21  1  0.27430000  0.07970000  0.66100000  1.0 -0.38635586
O  O22  1  0.07970000  0.27430000  0.33900000  1.0 -0.38635586
O  O23  1  0.72570000  0.92030000  0.33900000  1.0 -0.38635586
O  O24  1  0.92030000  0.72570000  0.66100000  1.0 -0.38635586
O  O25  1  0.27660000  0.93400000  0.81000000  1.0 -0.505282102
O  O26  1  0.93400000  0.27660000  0.19000000  1.0 -0.505282102
O  O27  1  0.72340000  0.06600000  0.19000000  1.0 -0.5038660148
O  O28  1  0.06600000  0.72340000  0.81000000  1.0 -0.5038660148
O  O29  1  0.08100000  0.08100000  0.50000000  1.0 -0.2712366262
O  O30  1  0.91900000  0.91900000  0.50000000  1.0 -0.2598054388
O  O31  1  0.05710000  0.94290000  0.82300000  1.0 -0.6513903121
O  O32  1  0.94290000  0.05710000  0.17700000  1.0 -0.6513903121
O  O33  1  0.10800000  0.89200000  0.10900000  1.0 -0.6216204146
O  O34  1  0.89200000  0.10800000  0.89100000  1.0 -0.6216204146
O  O35  1  0.13580000  0.10340000  0.17000000  1.0 -0.5953745225
O  O36  1  0.10340000  0.13580000  0.83000000  1.0 -0.5953745225
O  O37  1  0.86420000  0.89660000  0.83000000  1.0 -0.5943778733
O  O38  1  0.89660000  0.86420000  0.17000000  1.0 -0.5943778733
