# DDEC6 charges by PACMAN v1.1 (https://github.com/mtap-research/PACMAN-charge/)
data_BISDAM_FSR_pacman
_symmetry_space_group_name_H-M   'P 1'
_cell_length_a   12.87540000
_cell_length_b   12.87540000
_cell_length_c   7.84850000
_cell_angle_alpha   87.56390000
_cell_angle_beta   92.43610000
_cell_angle_gamma   110.24200000
_symmetry_Int_Tables_number   1
_chemical_formula_structural   Zr3C16O19
_chemical_formula_sum   'Zr6 C32 O38'
_cell_volume   1219.09676515
_cell_formula_units_Z   2
loop_
 _symmetry_equiv_pos_site_id
 _symmetry_equiv_pos_as_xyz
  1  'x, y, z'
loop_
 _atom_site_type_symbol
 _atom_site_label
 _atom_site_symmetry_multiplicity
 _atom_site_fract_x
 _atom_site_fract_y
 _atom_site_fract_z
 _atom_site_occupancy
 _atom_site_charge
Zr  Zr1  1  0.19890000  0.04510000  0.94680000  1.0 2.3735020088
Zr  Zr2  1  0.04510000  0.19890000  0.05320000  1.0 2.3735020088
Zr  Zr3  1  0.80110000  0.95490000  0.05320000  1.0 2.3735020088
Zr  Zr4  1  0.95490000  0.80110000  0.94680000  1.0 2.3735020088
Zr  Zr5  1  0.04150000  0.95850000  0.30240000  1.0 2.467165582
Zr  Zr6  1  0.95850000  0.04150000  0.69760000  1.0 2.467165582
C  C1  1  0.40300000  0.40300000  0.00000000  1.0 0.0150229071
C  C2  1  0.59700000  0.59700000  0.00000000  1.0 0.0150229071
C  C3  1  0.46930000  0.43470000  0.15300000  1.0 -0.0167574751
C  C4  1  0.43470000  0.46930000  0.84700000  1.0 -0.0167574751
C  C5  1  0.53070000  0.56530000  0.84700000  1.0 -0.0167574751
C  C6  1  0.56530000  0.53070000  0.15300000  1.0 -0.0167574751
C  C7  1  0.29800000  0.29800000  0.00000000  1.0 0.7109486983
C  C8  1  0.70200000  0.70200000  0.00000000  1.0 0.7109486983
C  C9  1  0.43500000  0.36300000  0.31900000  1.0 0.5513860957
C  C10  1  0.36300000  0.43500000  0.68100000  1.0 0.5513860957
C  C11  1  0.56500000  0.63700000  0.68100000  1.0 0.5513860957
C  C12  1  0.63700000  0.56500000  0.31900000  1.0 0.5513860957
C  C13  1  0.40000000  0.99800000  0.41300000  1.0 -0.0891431345
C  C14  1  0.99800000  0.40000000  0.58700000  1.0 -0.0891431345
C  C15  1  0.60000000  0.00200000  0.58700000  1.0 -0.0891431345
C  C16  1  0.00200000  0.60000000  0.41300000  1.0 -0.0891431345
C  C17  1  0.40900000  0.00100000  0.59500000  1.0 -0.0510763357
C  C18  1  0.00100000  0.40900000  0.40500000  1.0 -0.0510763357
C  C19  1  0.59100000  0.99900000  0.40500000  1.0 -0.0510763357
C  C20  1  0.99900000  0.59100000  0.59500000  1.0 -0.0510763357
C  C21  1  0.50900000  0.00300000  0.68100000  1.0 0.1127275453
C  C22  1  0.00300000  0.50900000  0.31900000  1.0 0.1127275453
C  C23  1  0.49100000  0.99700000  0.31900000  1.0 0.1127275453
C  C24  1  0.99700000  0.49100000  0.68100000  1.0 0.1127275453
C  C25  1  0.29860000  0.99740000  0.32500000  1.0 0.6847174094
C  C26  1  0.99740000  0.29860000  0.67500000  1.0 0.6857290791
C  C27  1  0.70140000  0.00260000  0.67500000  1.0 0.6847174094
C  C28  1  0.00260000  0.70140000  0.32500000  1.0 0.6847174094
C  C29  1  0.31500000  0.00300000  0.69100000  1.0 0.5830139444
C  C30  1  0.00300000  0.31500000  0.30900000  1.0 0.5830139444
C  C31  1  0.68500000  0.99700000  0.30900000  1.0 0.5830139444
C  C32  1  0.99700000  0.68500000  0.69100000  1.0 0.5830139444
O  O1  1  0.30640000  0.20120000  0.98400000  1.0 -0.6041848733
O  O2  1  0.20120000  0.30640000  0.01600000  1.0 -0.6041848733
O  O3  1  0.69360000  0.79880000  0.01600000  1.0 -0.6041848733
O  O4  1  0.79880000  0.69360000  0.98400000  1.0 -0.6041848733
O  O5  1  0.50400000  0.37800000  0.44800000  1.0 -0.2620820178
O  O6  1  0.37800000  0.50400000  0.55200000  1.0 -0.2620820178
O  O7  1  0.49600000  0.62200000  0.55200000  1.0 -0.2620820178
O  O8  1  0.62200000  0.49600000  0.44800000  1.0 -0.2620820178
O  O9  1  0.33600000  0.28800000  0.32900000  1.0 -0.4178001571
O  O10  1  0.28800000  0.33600000  0.67100000  1.0 -0.4178001571
O  O11  1  0.66400000  0.71200000  0.67100000  1.0 -0.4178001571
O  O12  1  0.71200000  0.66400000  0.32900000  1.0 -0.4178001571
O  O13  1  0.21130000  0.97890000  0.40800000  1.0 -0.5086745842
O  O14  1  0.97890000  0.21130000  0.59200000  1.0 -0.5086745842
O  O15  1  0.78870000  0.02110000  0.59200000  1.0 -0.5086745842
O  O16  1  0.02110000  0.78870000  0.40800000  1.0 -0.5086745842
O  O17  1  0.29660000  0.01420000  0.16500000  1.0 -0.5505858137
O  O18  1  0.01420000  0.29660000  0.83500000  1.0 -0.5505858137
O  O19  1  0.70340000  0.98580000  0.83500000  1.0 -0.5505858137
O  O20  1  0.98580000  0.70340000  0.16500000  1.0 -0.5505858137
O  O21  1  0.26630000  0.07050000  0.64800000  1.0 -0.4178001571
O  O22  1  0.07050000  0.26630000  0.35200000  1.0 -0.4178001571
O  O23  1  0.73370000  0.92950000  0.35200000  1.0 -0.4141534938
O  O24  1  0.92950000  0.73370000  0.64800000  1.0 -0.4178001571
O  O25  1  0.28400000  0.93740000  0.81900000  1.0 -0.5027404054
O  O26  1  0.93740000  0.28400000  0.18100000  1.0 -0.5027404054
O  O27  1  0.71600000  0.06260000  0.18100000  1.0 -0.5027404054
O  O28  1  0.06260000  0.71600000  0.81900000  1.0 -0.5027404054
O  O29  1  0.07800000  0.07800000  0.50000000  1.0 -0.6844614222
O  O30  1  0.92200000  0.92200000  0.50000000  1.0 -0.6851364448
O  O31  1  0.06060000  0.93940000  0.79200000  1.0 -1.0336789562
O  O32  1  0.93940000  0.06060000  0.20800000  1.0 -1.0336789562
O  O33  1  0.10100000  0.89900000  0.09900000  1.0 -1.1564270331
O  O34  1  0.89900000  0.10100000  0.90100000  1.0 -1.1564270331
O  O35  1  0.13900000  0.10780000  0.17000000  1.0 -1.0455427243
O  O36  1  0.10780000  0.13900000  0.83000000  1.0 -1.0455427243
O  O37  1  0.86100000  0.89220000  0.83000000  1.0 -1.0440228059
O  O38  1  0.89220000  0.86100000  0.17000000  1.0 -1.0440228059
