# DDEC6 charges by PACMAN v1.1 (https://github.com/mtap-research/PACMAN-charge/)
data_BIWHAQ_ASR_pacman
_symmetry_space_group_name_H-M   'P 1'
_cell_length_a   10.39000000
_cell_length_b   16.08700000
_cell_length_c   18.71700000
_cell_angle_alpha   90.00000000
_cell_angle_beta   90.00000000
_cell_angle_gamma   90.00000000
_symmetry_Int_Tables_number   1
_chemical_formula_structural   Sn3P2O9
_chemical_formula_sum   'Sn24 P16 O72'
_cell_volume   3128.43293781
_cell_formula_units_Z   8
loop_
 _symmetry_equiv_pos_site_id
 _symmetry_equiv_pos_as_xyz
  1  'x, y, z'
loop_
 _atom_site_type_symbol
 _atom_site_label
 _atom_site_symmetry_multiplicity
 _atom_site_fract_x
 _atom_site_fract_y
 _atom_site_fract_z
 _atom_site_occupancy
 _atom_site_charge
Sn  Sn1  1  0.50950000  0.75400000  0.15200000  1.0 1.1183307373
Sn  Sn2  1  0.99050000  0.24600000  0.65200000  1.0 1.1096139554
Sn  Sn3  1  0.00950000  0.74600000  0.84800000  1.0 1.1096139554
Sn  Sn4  1  0.49050000  0.25400000  0.34800000  1.0 1.1096139554
Sn  Sn5  1  0.49050000  0.24600000  0.84800000  1.0 1.1096139554
Sn  Sn6  1  0.00950000  0.75400000  0.34800000  1.0 1.1183307373
Sn  Sn7  1  0.99050000  0.25400000  0.15200000  1.0 1.1096139554
Sn  Sn8  1  0.50950000  0.74600000  0.65200000  1.0 1.1096139554
Sn  Sn9  1  0.65180000  0.35160000  0.06410000  1.0 1.3908190104
Sn  Sn10  1  0.84820000  0.64840000  0.56410000  1.0 1.4210417473
Sn  Sn11  1  0.15180000  0.14840000  0.93590000  1.0 1.3908190104
Sn  Sn12  1  0.34820000  0.85160000  0.43590000  1.0 1.3829092228
Sn  Sn13  1  0.34820000  0.64840000  0.93590000  1.0 1.4210417473
Sn  Sn14  1  0.15180000  0.35160000  0.43590000  1.0 1.3908190104
Sn  Sn15  1  0.84820000  0.85160000  0.06410000  1.0 1.3829092228
Sn  Sn16  1  0.65180000  0.14840000  0.56410000  1.0 1.3908190104
Sn  Sn17  1  0.30740000  0.38540000  0.06760000  1.0 1.3983246489
Sn  Sn18  1  0.19260000  0.61460000  0.56760000  1.0 1.3678472443
Sn  Sn19  1  0.80740000  0.11460000  0.93240000  1.0 1.3678472443
Sn  Sn20  1  0.69260000  0.88540000  0.43240000  1.0 1.3678472443
Sn  Sn21  1  0.69260000  0.61460000  0.93240000  1.0 1.3678472443
Sn  Sn22  1  0.80740000  0.38540000  0.43240000  1.0 1.3983246489
Sn  Sn23  1  0.19260000  0.88540000  0.06760000  1.0 1.3678472443
Sn  Sn24  1  0.30740000  0.11460000  0.56760000  1.0 1.3678472443
P  P1  1  0.51660000  0.55210000  0.09280000  1.0 1.3908190104
P  P2  1  0.98340000  0.44790000  0.59280000  1.0 1.3829092228
P  P3  1  0.01660000  0.94790000  0.90720000  1.0 1.3908190104
P  P4  1  0.48340000  0.05210000  0.40720000  1.0 1.3908190104
P  P5  1  0.48340000  0.44790000  0.90720000  1.0 1.3908190104
P  P6  1  0.01660000  0.55210000  0.40720000  1.0 1.3908190104
P  P7  1  0.98340000  0.05210000  0.09280000  1.0 1.3829092228
P  P8  1  0.51660000  0.94790000  0.59280000  1.0 1.3829092228
P  P9  1  0.25040000  0.80490000  0.24340000  1.0 1.3983246489
P  P10  1  0.24960000  0.19510000  0.74340000  1.0 1.3983246489
P  P11  1  0.75040000  0.69510000  0.75660000  1.0 1.3908190104
P  P12  1  0.74960000  0.30490000  0.25660000  1.0 1.3908190104
P  P13  1  0.74960000  0.19510000  0.75660000  1.0 1.3908190104
P  P14  1  0.75040000  0.80490000  0.25660000  1.0 1.3908190104
P  P15  1  0.24960000  0.30490000  0.24340000  1.0 1.3983246489
P  P16  1  0.25040000  0.69510000  0.74340000  1.0 1.3983246489
O  O1  1  0.33970000  0.73150000  0.21360000  1.0 -0.7011949516
O  O2  1  0.16030000  0.26850000  0.71360000  1.0 -0.7011949516
O  O3  1  0.83970000  0.76850000  0.78640000  1.0 -0.7011949516
O  O4  1  0.66030000  0.23150000  0.28640000  1.0 -0.7011949516
O  O5  1  0.66030000  0.26850000  0.78640000  1.0 -0.7011949516
O  O6  1  0.83970000  0.73150000  0.28640000  1.0 -0.7011949516
O  O7  1  0.16030000  0.23150000  0.21360000  1.0 -0.7011949516
O  O8  1  0.33970000  0.76850000  0.71360000  1.0 -0.7011949516
O  O9  1  0.11230000  0.76520000  0.24800000  1.0 -0.6803924984
O  O10  1  0.38770000  0.23480000  0.74800000  1.0 -0.6803924984
O  O11  1  0.61230000  0.73480000  0.75200000  1.0 -0.6803924984
O  O12  1  0.88770000  0.26520000  0.25200000  1.0 -0.6803924984
O  O13  1  0.88770000  0.23480000  0.75200000  1.0 -0.6803924984
O  O14  1  0.61230000  0.76520000  0.25200000  1.0 -0.6803924984
O  O15  1  0.38770000  0.26520000  0.24800000  1.0 -0.6803924984
O  O16  1  0.11230000  0.73480000  0.74800000  1.0 -0.6803924984
O  O17  1  0.53710000  0.61570000  0.15850000  1.0 -0.6475820339
O  O18  1  0.96290000  0.38430000  0.65850000  1.0 -0.6475820339
O  O19  1  0.03710000  0.88430000  0.84150000  1.0 -0.6475820339
O  O20  1  0.46290000  0.11570000  0.34150000  1.0 -0.6475820339
O  O21  1  0.46290000  0.38430000  0.84150000  1.0 -0.6475820339
O  O22  1  0.03710000  0.61570000  0.34150000  1.0 -0.6475820339
O  O23  1  0.96290000  0.11570000  0.15850000  1.0 -0.6475820339
O  O24  1  0.53710000  0.88430000  0.65850000  1.0 -0.6475820339
O  O25  1  0.47090000  0.31570000  0.10510000  1.0 -0.826503346
O  O26  1  0.02910000  0.68430000  0.60510000  1.0 -0.826503346
O  O27  1  0.97090000  0.18430000  0.89490000  1.0 -0.823405186
O  O28  1  0.52910000  0.81570000  0.39490000  1.0 -0.823405186
O  O29  1  0.52910000  0.68430000  0.89490000  1.0 -0.826503346
O  O30  1  0.97090000  0.31570000  0.39490000  1.0 -0.826503346
O  O31  1  0.02910000  0.81570000  0.10510000  1.0 -0.823405186
O  O32  1  0.47090000  0.18430000  0.60510000  1.0 -0.823405186
O  O33  1  0.62690000  0.48500000  0.09600000  1.0 -0.7113579309
O  O34  1  0.87310000  0.51500000  0.59600000  1.0 -0.7161697842
O  O35  1  0.12690000  0.01500000  0.90400000  1.0 -0.7113579309
O  O36  1  0.37310000  0.98500000  0.40400000  1.0 -0.7113579309
O  O37  1  0.37310000  0.51500000  0.90400000  1.0 -0.7161697842
O  O38  1  0.12690000  0.48500000  0.40400000  1.0 -0.7113579309
O  O39  1  0.87310000  0.98500000  0.09600000  1.0 -0.7113579309
O  O40  1  0.62690000  0.01500000  0.59600000  1.0 -0.7113579309
O  O41  1  0.29160000  0.83420000  0.31880000  1.0 -0.7717542148
O  O42  1  0.20840000  0.16580000  0.81880000  1.0 -0.7717542148
O  O43  1  0.79160000  0.66580000  0.68120000  1.0 -0.7717542148
O  O44  1  0.70840000  0.33420000  0.18120000  1.0 -0.7717542148
O  O45  1  0.70840000  0.16580000  0.68120000  1.0 -0.7717542148
O  O46  1  0.79160000  0.83420000  0.18120000  1.0 -0.7717542148
O  O47  1  0.20840000  0.33420000  0.31880000  1.0 -0.7717542148
O  O48  1  0.29160000  0.66580000  0.81880000  1.0 -0.7717542148
O  O49  1  0.52180000  0.60530000  0.02130000  1.0 -0.8808773852
O  O50  1  0.97820000  0.39470000  0.52130000  1.0 -0.8730822898
O  O51  1  0.02180000  0.89470000  0.97870000  1.0 -0.8808773852
O  O52  1  0.47820000  0.10530000  0.47870000  1.0 -0.8808773852
O  O53  1  0.47820000  0.39470000  0.97870000  1.0 -0.8730822898
O  O54  1  0.02180000  0.60530000  0.47870000  1.0 -0.8808773852
O  O55  1  0.97820000  0.10530000  0.02130000  1.0 -0.8808773852
O  O56  1  0.52180000  0.89470000  0.52130000  1.0 -0.8808773852
O  O57  1  0.38450000  0.50870000  0.10270000  1.0 -0.7011949516
O  O58  1  0.11550000  0.49130000  0.60270000  1.0 -0.6938567357
O  O59  1  0.88450000  0.99130000  0.89730000  1.0 -0.6938567357
O  O60  1  0.61550000  0.00870000  0.39730000  1.0 -0.6938567357
O  O61  1  0.61550000  0.49130000  0.89730000  1.0 -0.6938567357
O  O62  1  0.88450000  0.50870000  0.39730000  1.0 -0.7011949516
O  O63  1  0.11550000  0.00870000  0.10270000  1.0 -0.6938567357
O  O64  1  0.38450000  0.99130000  0.60270000  1.0 -0.6938567357
O  O65  1  0.25070000  0.88200000  0.18990000  1.0 -0.7530229039
O  O66  1  0.24930000  0.11800000  0.68990000  1.0 -0.7530229039
O  O67  1  0.75070000  0.61800000  0.81010000  1.0 -0.7530229039
O  O68  1  0.74930000  0.38200000  0.31010000  1.0 -0.7530229039
O  O69  1  0.74930000  0.11800000  0.81010000  1.0 -0.7530229039
O  O70  1  0.75070000  0.88200000  0.31010000  1.0 -0.7530229039
O  O71  1  0.24930000  0.38200000  0.18990000  1.0 -0.7530229039
O  O72  1  0.25070000  0.61800000  0.68990000  1.0 -0.7530229039
