# DDEC6 charges by PACMAN v1.1 (https://github.com/mtap-research/PACMAN-charge/)
data_BIWVUC_FSR_pacman
_symmetry_space_group_name_H-M   'P 1'
_cell_length_a   10.53200000
_cell_length_b   10.53200000
_cell_length_c   10.53200000
_cell_angle_alpha   123.82200000
_cell_angle_beta   123.82200000
_cell_angle_gamma   83.49840000
_symmetry_Int_Tables_number   1
_chemical_formula_structural   NiH8WC8N4(OF)10
_chemical_formula_sum   'Ni2 H16 W2 C16 N8 O20 F20'
_cell_volume   772.89683128
_cell_formula_units_Z   2
loop_
 _symmetry_equiv_pos_site_id
 _symmetry_equiv_pos_as_xyz
  1  'x, y, z'
loop_
 _atom_site_type_symbol
 _atom_site_label
 _atom_site_symmetry_multiplicity
 _atom_site_fract_x
 _atom_site_fract_y
 _atom_site_fract_z
 _atom_site_occupancy
 _atom_site_charge
Ni  Ni1  1  0.25000000  0.25000000  0.00000000  1.0 0.6684790759
Ni  Ni2  1  0.75000000  0.75000000  0.00000000  1.0 0.6684790759
H  H1  1  0.59194000  0.44428000  0.33536000  1.0 0.0491159972
H  H2  1  0.44428000  0.10892000  0.85234000  1.0 0.0491159972
H  H3  1  0.10892000  0.25658000  0.66464000  1.0 0.0491159972
H  H4  1  0.25658000  0.59194000  0.14766000  1.0 0.0491159972
H  H5  1  0.90806000  0.24342000  0.85234000  1.0 0.0491159972
H  H6  1  0.24342000  0.39108000  0.33536000  1.0 0.0491159972
H  H7  1  0.39108000  0.05572000  0.14766000  1.0 0.0491159972
H  H8  1  0.05572000  0.90806000  0.66464000  1.0 0.0491159972
H  H9  1  0.40806000  0.55572000  0.66464000  1.0 0.0491159972
H  H10  1  0.55572000  0.89108000  0.14766000  1.0 0.0491159972
H  H11  1  0.89108000  0.74342000  0.33536000  1.0 0.0491159972
H  H12  1  0.74342000  0.40806000  0.85234000  1.0 0.0491159972
H  H13  1  0.09194000  0.75658000  0.14766000  1.0 0.0491159972
H  H14  1  0.75658000  0.60892000  0.66464000  1.0 0.0491159972
H  H15  1  0.60892000  0.94428000  0.85234000  1.0 0.0491159972
H  H16  1  0.94428000  0.09194000  0.33536000  1.0 0.0491159972
W  W1  1  0.00000000  0.00000000  0.00000000  1.0 0.7099893002
W  W2  1  0.50000000  0.50000000  0.00000000  1.0 0.7156596689
C  C1  1  0.53849000  0.46114000  0.39753000  1.0 0.0105772527
C  C2  1  0.46114000  0.06361000  0.92265000  1.0 0.0105772527
C  C3  1  0.06361000  0.14096000  0.60247000  1.0 0.0105772527
C  C4  1  0.14096000  0.53849000  0.07735000  1.0 0.0105772527
C  C5  1  0.96151000  0.35904000  0.92265000  1.0 0.0105772527
C  C6  1  0.35904000  0.43639000  0.39753000  1.0 0.0105772527
C  C7  1  0.43639000  0.03886000  0.07735000  1.0 0.0105772527
C  C8  1  0.03886000  0.96151000  0.60247000  1.0 0.0105772527
C  C9  1  0.46151000  0.53886000  0.60247000  1.0 0.0105772527
C  C10  1  0.53886000  0.93639000  0.07735000  1.0 0.0105772527
C  C11  1  0.93639000  0.85904000  0.39753000  1.0 0.0105772527
C  C12  1  0.85904000  0.46151000  0.92265000  1.0 0.0105772527
C  C13  1  0.03849000  0.64096000  0.07735000  1.0 0.0105772527
C  C14  1  0.64096000  0.56361000  0.60247000  1.0 0.0105772527
C  C15  1  0.56361000  0.96114000  0.92265000  1.0 0.0105772527
C  C16  1  0.96114000  0.03849000  0.39753000  1.0 0.0105772527
N  N1  1  0.40343000  0.40343000  0.30686000  1.0 -0.1470008285
N  N2  1  0.40343000  0.09657000  0.00000000  1.0 -0.1470008285
N  N3  1  0.09657000  0.09657000  0.69314000  1.0 -0.1470008285
N  N4  1  0.09657000  0.40343000  0.00000000  1.0 -0.1470008285
N  N5  1  0.59657000  0.59657000  0.69314000  1.0 -0.1470008285
N  N6  1  0.59657000  0.90343000  0.00000000  1.0 -0.1470008285
N  N7  1  0.90343000  0.90343000  0.30686000  1.0 -0.1470008285
N  N8  1  0.90343000  0.59657000  0.00000000  1.0 -0.1470008285
O  O1  1  0.11021000  0.11021000  0.00000000  1.0 -0.6292391808
O  O2  1  0.38979000  0.38979000  0.00000000  1.0 -0.6292391808
O  O3  1  0.88979000  0.88979000  0.00000000  1.0 -0.6292391808
O  O4  1  0.61021000  0.61021000  0.00000000  1.0 -0.6292391808
O  O5  1  0.09277000  0.15226000  0.24503000  1.0 0.0645368778
O  O6  1  0.15226000  0.90723000  0.05949000  1.0 0.0691160916
O  O7  1  0.90723000  0.84774000  0.75497000  1.0 0.0691160916
O  O8  1  0.84774000  0.09277000  0.94051000  1.0 0.0691160916
O  O9  1  0.40723000  0.65226000  0.05949000  1.0 0.0645368778
O  O10  1  0.65226000  0.59277000  0.24503000  1.0 0.0691160916
O  O11  1  0.59277000  0.34774000  0.94051000  1.0 0.0691160916
O  O12  1  0.34774000  0.40723000  0.75497000  1.0 0.0645368778
O  O13  1  0.99698000  0.17545000  0.17243000  1.0 0.0491159972
O  O14  1  0.17545000  0.00302000  0.17847000  1.0 0.0491159972
O  O15  1  0.00302000  0.82455000  0.82757000  1.0 0.0491159972
O  O16  1  0.82455000  0.99698000  0.82153000  1.0 0.0491159972
O  O17  1  0.50302000  0.67545000  0.17847000  1.0 0.0491159972
O  O18  1  0.67545000  0.49698000  0.17243000  1.0 0.0491159972
O  O19  1  0.49698000  0.32455000  0.82153000  1.0 0.0491159972
O  O20  1  0.32455000  0.50302000  0.82757000  1.0 0.0491159972
F  F1  1  0.98398000  0.20229000  0.18627000  1.0 0.0105772527
F  F2  1  0.20229000  0.01602000  0.21831000  1.0 0.0105772527
F  F3  1  0.01602000  0.79771000  0.81373000  1.0 0.0105772527
F  F4  1  0.79771000  0.98398000  0.78169000  1.0 0.0105772527
F  F5  1  0.51602000  0.70229000  0.21831000  1.0 0.0105772527
F  F6  1  0.70229000  0.48398000  0.18627000  1.0 0.0105772527
F  F7  1  0.48398000  0.29771000  0.78169000  1.0 0.0105772527
F  F8  1  0.29771000  0.51602000  0.81373000  1.0 0.0105772527
F  F9  1  0.11304000  0.17809000  0.29113000  1.0 0.0802938829
F  F10  1  0.17809000  0.88696000  0.06505000  1.0 0.0802938829
F  F11  1  0.88696000  0.82191000  0.70887000  1.0 0.0802938829
F  F12  1  0.82191000  0.11304000  0.93495000  1.0 0.0802938829
F  F13  1  0.38696000  0.67809000  0.06505000  1.0 0.0802938829
F  F14  1  0.67809000  0.61304000  0.29113000  1.0 0.0802938829
F  F15  1  0.61304000  0.32191000  0.93495000  1.0 0.0802938829
F  F16  1  0.32191000  0.38696000  0.70887000  1.0 0.0802938829
F  F17  1  0.12451000  0.12451000  0.00000000  1.0 -0.42095598
F  F18  1  0.37549000  0.37549000  0.00000000  1.0 -0.42095598
F  F19  1  0.87549000  0.87549000  0.00000000  1.0 -0.42095598
F  F20  1  0.62451000  0.62451000  0.00000000  1.0 -0.42095598
