# DDEC6 charges by PACMAN v1.1 (https://github.com/mtap-research/PACMAN-charge/)
data_BIZCIA_FSR_pacman
_symmetry_space_group_name_H-M   'P 1'
_cell_length_a   17.07440000
_cell_length_b   17.07440000
_cell_length_c   17.07440000
_cell_angle_alpha   116.19500000
_cell_angle_beta   116.19500000
_cell_angle_gamma   96.72650000
_symmetry_Int_Tables_number   1
_chemical_formula_structural   Th3CuH40C44N8O25
_chemical_formula_sum   'Th6 Cu2 H80 C88 N16 O50'
_cell_volume   3694.70036600
_cell_formula_units_Z   2
loop_
 _symmetry_equiv_pos_site_id
 _symmetry_equiv_pos_as_xyz
  1  'x, y, z'
loop_
 _atom_site_type_symbol
 _atom_site_label
 _atom_site_symmetry_multiplicity
 _atom_site_fract_x
 _atom_site_fract_y
 _atom_site_fract_z
 _atom_site_occupancy
 _atom_site_charge
Th  Th1  1  0.15536000  0.02595000  0.18131000  1.0 1.9881512509
Th  Th2  1  0.84464000  0.97405000  0.81869000  1.0 1.9881512509
Th  Th3  1  0.02595000  0.84464000  0.87059000  1.0 1.9881512509
Th  Th4  1  0.97405000  0.15536000  0.12941000  1.0 1.9881512509
Th  Th5  1  0.87618000  0.87618000  0.00000000  1.0 1.9881512509
Th  Th6  1  0.12382000  0.12382000  0.00000000  1.0 1.9992665635
Cu  Cu1  1  0.00000000  0.50000000  0.50000000  1.0 0.6200254546
Cu  Cu2  1  0.50000000  0.00000000  0.50000000  1.0 0.6200254546
H  H1  1  0.03949000  0.71667000  0.63474000  1.0 0.2621014849
H  H2  1  0.08193000  0.40475000  0.36526000  1.0 0.2621014849
H  H3  1  0.71667000  0.08193000  0.67718000  1.0 0.2621014849
H  H4  1  0.40475000  0.03949000  0.32282000  1.0 0.2621014849
H  H5  1  0.96051000  0.28333000  0.36526000  1.0 0.2621014849
H  H6  1  0.91807000  0.59525000  0.63474000  1.0 0.2621014849
H  H7  1  0.28333000  0.91807000  0.32282000  1.0 0.2621014849
H  H8  1  0.59525000  0.96051000  0.67718000  1.0 0.2621014849
H  H9  1  0.16427000  0.93504000  0.41533000  1.0 0.1072449655
H  H10  1  0.51970000  0.74894000  0.58466000  1.0 0.1072449655
H  H11  1  0.93504000  0.51970000  0.77077000  1.0 0.1072449655
H  H12  1  0.74894000  0.16428000  0.22923000  1.0 0.1072449655
H  H13  1  0.83573000  0.06496000  0.58466000  1.0 0.1072449655
H  H14  1  0.48029000  0.25106000  0.41533000  1.0 0.1072449655
H  H15  1  0.06496000  0.48029000  0.22923000  1.0 0.1072449655
H  H16  1  0.25106000  0.83573000  0.77077000  1.0 0.1072449655
H  H17  1  0.91382000  0.65693000  0.25539000  1.0 0.1072449655
H  H18  1  0.40154000  0.65843000  0.74461000  1.0 0.1072449655
H  H19  1  0.65693000  0.40154000  0.74311000  1.0 0.1072449655
H  H20  1  0.65843000  0.91382000  0.25689000  1.0 0.1072449655
H  H21  1  0.08618000  0.34307000  0.74461000  1.0 0.1072449655
H  H22  1  0.59846000  0.34157000  0.25539000  1.0 0.1072449655
H  H23  1  0.34307000  0.59846000  0.25689000  1.0 0.1072449655
H  H24  1  0.34157000  0.08618000  0.74311000  1.0 0.1072449655
H  H25  1  0.91535000  0.72278000  0.16189000  1.0 0.1072449655
H  H26  1  0.56089000  0.75346000  0.83811000  1.0 0.1072449655
H  H27  1  0.72278000  0.56089000  0.80743000  1.0 0.1072449655
H  H28  1  0.75346000  0.91535000  0.19257000  1.0 0.1072449655
H  H29  1  0.08465000  0.27722000  0.83811000  1.0 0.1072449655
H  H30  1  0.43911000  0.24654000  0.16189000  1.0 0.1072449655
H  H31  1  0.27722000  0.43911000  0.19257000  1.0 0.1072449655
H  H32  1  0.24654000  0.08465000  0.80743000  1.0 0.1072449655
H  H33  1  0.06739000  0.83461000  0.59880000  1.0 0.1072449655
H  H34  1  0.23581000  0.46859000  0.40120000  1.0 0.1072449655
H  H35  1  0.83461000  0.23581000  0.76722000  1.0 0.1072449655
H  H36  1  0.46859000  0.06739000  0.23278000  1.0 0.1072449655
H  H37  1  0.93261000  0.16539000  0.40120000  1.0 0.1072449655
H  H38  1  0.76419000  0.53141000  0.59880000  1.0 0.1072449655
H  H39  1  0.16539000  0.76419000  0.23278000  1.0 0.1072449655
H  H40  1  0.53141000  0.93261000  0.76722000  1.0 0.1072449655
H  H41  1  0.16124000  0.87298000  0.51196000  1.0 0.1072449655
H  H42  1  0.36102000  0.64928000  0.48804000  1.0 0.1072449655
H  H43  1  0.87298000  0.36102000  0.71174000  1.0 0.1072449655
H  H44  1  0.64928000  0.16124000  0.28826000  1.0 0.1072449655
H  H45  1  0.83876000  0.12702000  0.48804000  1.0 0.1072449655
H  H46  1  0.63898000  0.35072000  0.51196000  1.0 0.1072449655
H  H47  1  0.12702000  0.63898000  0.28826000  1.0 0.1072449655
H  H48  1  0.35072000  0.83876000  0.71174000  1.0 0.1072449655
H  H49  1  0.98930000  0.57552000  0.35648000  1.0 0.1161767156
H  H50  1  0.21904000  0.63282000  0.64352000  1.0 0.1161767156
H  H51  1  0.57552000  0.21904000  0.58622000  1.0 0.1161767156
H  H52  1  0.63282000  0.98930000  0.41378000  1.0 0.1161767156
H  H53  1  0.01070000  0.42448000  0.64352000  1.0 0.1161767156
H  H54  1  0.78096000  0.36718000  0.35648000  1.0 0.1161767156
H  H55  1  0.42448000  0.78096000  0.41378000  1.0 0.1161767156
H  H56  1  0.36718000  0.01070000  0.58622000  1.0 0.1161767156
H  H57  1  0.85033000  0.32406000  0.17439000  1.0 0.0991586619
H  H58  1  0.14967000  0.67594000  0.82561000  1.0 0.0991586619
H  H59  1  0.32406000  0.14967000  0.47373000  1.0 0.0991586619
H  H60  1  0.67594000  0.85033000  0.52627000  1.0 0.0991586619
H  H61  1  0.18728000  0.26279000  0.45007000  1.0 0.0991586619
H  H62  1  0.81272000  0.73721000  0.54993000  1.0 0.0991586619
H  H63  1  0.26279000  0.81272000  0.07551000  1.0 0.0991586619
H  H64  1  0.73721000  0.18728000  0.92449000  1.0 0.0991586619
H  H65  1  0.74518000  0.67374000  0.97002000  1.0 0.1930837841
H  H66  1  0.70372000  0.77516000  0.02998000  1.0 0.1930837841
H  H67  1  0.67374000  0.70372000  0.92856000  1.0 0.1930837841
H  H68  1  0.77516000  0.74518000  0.07144000  1.0 0.1930837841
H  H69  1  0.25482000  0.32626000  0.02998000  1.0 0.1930837841
H  H70  1  0.29628000  0.22484000  0.97002000  1.0 0.1930837841
H  H71  1  0.32626000  0.29628000  0.07144000  1.0 0.1930837841
H  H72  1  0.22484000  0.25482000  0.92856000  1.0 0.1930837841
H  H73  1  0.18800000  0.22519000  0.23021000  1.0 0.2987279319
H  H74  1  0.99498000  0.95779000  0.76979000  1.0 0.2987279319
H  H75  1  0.22519000  0.99498000  0.03719000  1.0 0.2987279319
H  H76  1  0.95779000  0.18800000  0.96281000  1.0 0.2987279319
H  H77  1  0.81200000  0.77481000  0.76979000  1.0 0.2987279319
H  H78  1  0.00502000  0.04221000  0.23021000  1.0 0.2987279319
H  H79  1  0.77481000  0.00502000  0.96281000  1.0 0.2987279319
H  H80  1  0.04221000  0.81200000  0.03719000  1.0 0.2987279319
C  C1  1  0.03700000  0.87690000  0.21770000  1.0 0.5592935519
C  C2  1  0.65920000  0.81930000  0.78230000  1.0 0.5592935519
C  C3  1  0.87690000  0.65920000  0.83990000  1.0 0.5592935519
C  C4  1  0.81930000  0.03700000  0.16010000  1.0 0.5592935519
C  C5  1  0.96300000  0.12310000  0.78230000  1.0 0.5592935519
C  C6  1  0.34080000  0.18070000  0.21770000  1.0 0.5592935519
C  C7  1  0.12310000  0.34080000  0.16010000  1.0 0.5592935519
C  C8  1  0.18070000  0.96300000  0.83990000  1.0 0.5592935519
C  C9  1  0.03910000  0.83570000  0.27960000  1.0 -0.0379879273
C  C10  1  0.55610000  0.75950000  0.72040000  1.0 -0.0379879273
C  C11  1  0.83570000  0.55610000  0.79660000  1.0 -0.0379879273
C  C12  1  0.75950000  0.03910000  0.20340000  1.0 -0.0379879273
C  C13  1  0.96090000  0.16430000  0.72040000  1.0 -0.0379879273
C  C14  1  0.44390000  0.24050000  0.27960000  1.0 -0.0379879273
C  C15  1  0.16430000  0.44390000  0.20340000  1.0 -0.0379879273
C  C16  1  0.24050000  0.96090000  0.79660000  1.0 -0.0379879273
C  C17  1  0.11250000  0.87930000  0.38320000  1.0 -0.1302117964
C  C18  1  0.49610000  0.72930000  0.61680000  1.0 -0.1302117964
C  C19  1  0.87930000  0.49610000  0.76680000  1.0 -0.1302117964
C  C20  1  0.72930000  0.11250000  0.23320000  1.0 -0.1302117964
C  C21  1  0.88750000  0.12070000  0.61680000  1.0 -0.1302117964
C  C22  1  0.50390000  0.27070000  0.38320000  1.0 -0.1302117964
C  C23  1  0.12070000  0.50390000  0.23320000  1.0 -0.1302117964
C  C24  1  0.27070000  0.88750000  0.76680000  1.0 -0.1302117964
C  C25  1  0.96410000  0.71460000  0.28910000  1.0 -0.1597014307
C  C26  1  0.42550000  0.67500000  0.71090000  1.0 -0.1597014307
C  C27  1  0.71460000  0.42550000  0.75050000  1.0 -0.1597014307
C  C28  1  0.67500000  0.96410000  0.24950000  1.0 -0.1597014307
C  C29  1  0.03590000  0.28540000  0.71090000  1.0 -0.1597014307
C  C30  1  0.57450000  0.32500000  0.28910000  1.0 -0.1597014307
C  C31  1  0.28540000  0.57450000  0.24950000  1.0 -0.1597014307
C  C32  1  0.32500000  0.03590000  0.75050000  1.0 -0.1597014307
C  C33  1  0.96560000  0.75340000  0.23320000  1.0 -0.1302117964
C  C34  1  0.52020000  0.73240000  0.76680000  1.0 -0.1302117964
C  C35  1  0.75340000  0.52020000  0.78780000  1.0 -0.1302117964
C  C36  1  0.73240000  0.96560000  0.21220000  1.0 -0.1352096661
C  C37  1  0.03440000  0.24660000  0.76680000  1.0 -0.1352096661
C  C38  1  0.47980000  0.26760000  0.23320000  1.0 -0.1302117964
C  C39  1  0.24660000  0.47980000  0.21220000  1.0 -0.1302117964
C  C40  1  0.26760000  0.03440000  0.78780000  1.0 -0.1302117964
C  C41  1  0.04830000  0.76830000  0.55380000  1.0 -0.0917241373
C  C42  1  0.21450000  0.49450000  0.44620000  1.0 -0.0917241373
C  C43  1  0.76830000  0.21450000  0.72000000  1.0 -0.0917241373
C  C44  1  0.49450000  0.04830000  0.28000000  1.0 -0.0917241373
C  C45  1  0.95170000  0.23170000  0.44620000  1.0 -0.0917241373
C  C46  1  0.78550000  0.50550000  0.55380000  1.0 -0.0917241373
C  C47  1  0.23170000  0.78550000  0.28000000  1.0 -0.0917241373
C  C48  1  0.50550000  0.95170000  0.72000000  1.0 -0.0917241373
C  C49  1  0.03110000  0.72140000  0.45470000  1.0 -0.0379879273
C  C50  1  0.26670000  0.57640000  0.54530000  1.0 -0.0379879273
C  C51  1  0.72140000  0.26670000  0.69030000  1.0 -0.0379879273
C  C52  1  0.57640000  0.03110000  0.30970000  1.0 -0.0379879273
C  C53  1  0.96890000  0.27860000  0.54530000  1.0 -0.0379879273
C  C54  1  0.73330000  0.42360000  0.45470000  1.0 -0.0379879273
C  C55  1  0.27860000  0.73330000  0.30970000  1.0 -0.0379879273
C  C56  1  0.42360000  0.96890000  0.69030000  1.0 -0.0379879273
C  C57  1  0.03580000  0.75980000  0.39440000  1.0 0.0789081832
C  C58  1  0.36540000  0.64140000  0.60560000  1.0 0.0789081832
C  C59  1  0.75980000  0.36540000  0.72400000  1.0 0.0789081832
C  C60  1  0.64140000  0.03580000  0.27600000  1.0 0.0789081832
C  C61  1  0.96420000  0.24020000  0.60560000  1.0 0.0789081832
C  C62  1  0.63460000  0.35860000  0.39440000  1.0 0.0789081832
C  C63  1  0.24020000  0.63460000  0.27600000  1.0 0.0789081832
C  C64  1  0.35860000  0.96420000  0.72400000  1.0 0.0789081832
C  C65  1  0.11080000  0.84210000  0.44070000  1.0 -0.1597014307
C  C66  1  0.40140000  0.67010000  0.55930000  1.0 -0.1597014307
C  C67  1  0.84210000  0.40140000  0.73130000  1.0 -0.1597014307
C  C68  1  0.67010000  0.11080000  0.26870000  1.0 -0.1597014307
C  C69  1  0.88920000  0.15790000  0.55930000  1.0 -0.1597014307
C  C70  1  0.59860000  0.32990000  0.44070000  1.0 -0.1597014307
C  C71  1  0.15790000  0.59860000  0.26870000  1.0 -0.1597014307
C  C72  1  0.32990000  0.88920000  0.73130000  1.0 -0.1597014307
C  C73  1  0.00570000  0.62640000  0.42250000  1.0 -0.0785744428
C  C74  1  0.20390000  0.58320000  0.57750000  1.0 -0.0785744428
C  C75  1  0.62640000  0.20390000  0.62070000  1.0 -0.0785744428
C  C76  1  0.58320000  0.00570000  0.37930000  1.0 -0.0785744428
C  C77  1  0.99430000  0.37360000  0.57750000  1.0 -0.0785744428
C  C78  1  0.79610000  0.41680000  0.42250000  1.0 -0.0785744428
C  C79  1  0.37360000  0.79610000  0.37930000  1.0 -0.0785744428
C  C80  1  0.41680000  0.99430000  0.62070000  1.0 -0.0785744428
C  C81  1  0.89870000  0.34490000  0.24360000  1.0 0.4558063434
C  C82  1  0.10130000  0.65510000  0.75640000  1.0 0.4558063434
C  C83  1  0.34490000  0.10130000  0.44620000  1.0 0.4558063434
C  C84  1  0.65510000  0.89870000  0.55380000  1.0 0.4558063434
C  C85  1  0.15560000  0.22070000  0.37630000  1.0 0.4060406373
C  C86  1  0.84440000  0.77930000  0.62370000  1.0 0.4060406373
C  C87  1  0.22070000  0.84440000  0.06510000  1.0 0.4060406373
C  C88  1  0.77930000  0.15560000  0.93490000  1.0 0.4060406373
N  N1  1  0.03320000  0.70330000  0.57570000  1.0 -0.0610277257
N  N2  1  0.12760000  0.45750000  0.42430000  1.0 -0.0610277257
N  N3  1  0.70330000  0.12760000  0.67010000  1.0 -0.0610277257
N  N4  1  0.45750000  0.03320000  0.32990000  1.0 -0.0610277257
N  N5  1  0.96680000  0.29670000  0.42430000  1.0 -0.0610277257
N  N6  1  0.87240000  0.54250000  0.57570000  1.0 -0.0610277257
N  N7  1  0.29670000  0.87240000  0.32990000  1.0 -0.0610277257
N  N8  1  0.54250000  0.96680000  0.67010000  1.0 -0.0610277257
N  N9  1  0.00750000  0.61610000  0.49640000  1.0 -0.1749721481
N  N10  1  0.11970000  0.51110000  0.50360000  1.0 -0.1763977422
N  N11  1  0.61610000  0.11970000  0.60860000  1.0 -0.1763977422
N  N12  1  0.51110000  0.00750000  0.39140000  1.0 -0.1763977422
N  N13  1  0.99250000  0.38390000  0.50360000  1.0 -0.1763977422
N  N14  1  0.88030000  0.48890000  0.49640000  1.0 -0.1763977422
N  N15  1  0.38390000  0.88030000  0.39140000  1.0 -0.1763977422
N  N16  1  0.48890000  0.99250000  0.60860000  1.0 -0.1763977422
O  O1  1  0.11380000  0.93430000  0.24810000  1.0 -0.6273088767
O  O2  1  0.68620000  0.86570000  0.75190000  1.0 -0.6273088767
O  O3  1  0.93430000  0.68620000  0.82050000  1.0 -0.6273088767
O  O4  1  0.86570000  0.11380000  0.17950000  1.0 -0.6273088767
O  O5  1  0.88620000  0.06570000  0.75190000  1.0 -0.6273088767
O  O6  1  0.31380000  0.13430000  0.24810000  1.0 -0.6273088767
O  O7  1  0.06570000  0.31380000  0.17950000  1.0 -0.6273088767
O  O8  1  0.13430000  0.88620000  0.82050000  1.0 -0.6273088767
O  O9  1  0.95740000  0.84950000  0.13790000  1.0 -0.6171756997
O  O10  1  0.71160000  0.81950000  0.86210000  1.0 -0.6171756997
O  O11  1  0.84950000  0.71160000  0.89210000  1.0 -0.6171756997
O  O12  1  0.81950000  0.95740000  0.10790000  1.0 -0.6171756997
O  O13  1  0.04260000  0.15050000  0.86210000  1.0 -0.6171756997
O  O14  1  0.28840000  0.18050000  0.13790000  1.0 -0.6171756997
O  O15  1  0.15050000  0.28840000  0.10790000  1.0 -0.6171756997
O  O16  1  0.18050000  0.04260000  0.89210000  1.0 -0.6171756997
O  O17  1  0.13610000  0.16290000  0.16720000  1.0 -0.2720842375
O  O18  1  0.99570000  0.96890000  0.83280000  1.0 -0.2720842375
O  O19  1  0.16290000  0.99570000  0.02680000  1.0 -0.2720842375
O  O20  1  0.96890000  0.13610000  0.97320000  1.0 -0.2720842375
O  O21  1  0.86390000  0.83710000  0.83280000  1.0 -0.2720842375
O  O22  1  0.00430000  0.03110000  0.16720000  1.0 -0.2720842375
O  O23  1  0.83710000  0.00430000  0.97320000  1.0 -0.2720842375
O  O24  1  0.03110000  0.86390000  0.02680000  1.0 -0.2720842375
O  O25  1  0.95270000  0.29980000  0.25250000  1.0 -0.5495660319
O  O26  1  0.04730000  0.70020000  0.74750000  1.0 -0.5495660319
O  O27  1  0.29980000  0.04730000  0.34710000  1.0 -0.5495660319
O  O28  1  0.70020000  0.95270000  0.65290000  1.0 -0.5495660319
O  O29  1  0.90280000  0.40960000  0.31240000  1.0 -0.4896398796
O  O30  1  0.09720000  0.59040000  0.68760000  1.0 -0.4896398796
O  O31  1  0.40960000  0.09720000  0.50680000  1.0 -0.4896398796
O  O32  1  0.59040000  0.90280000  0.49320000  1.0 -0.4896398796
O  O33  1  0.75970000  0.75970000  0.00000000  1.0 -0.5712078525
O  O34  1  0.24030000  0.24030000  0.00000000  1.0 -0.5712078525
O  O35  1  0.08830000  0.23330000  0.32160000  1.0 -0.558984281
O  O36  1  0.91170000  0.76670000  0.67840000  1.0 -0.558984281
O  O37  1  0.23330000  0.91170000  0.14500000  1.0 -0.558984281
O  O38  1  0.76670000  0.08830000  0.85500000  1.0 -0.558984281
O  O39  1  0.18630000  0.15970000  0.34600000  1.0 -0.5887477859
O  O40  1  0.81370000  0.84030000  0.65400000  1.0 -0.5887477859
O  O41  1  0.15970000  0.81370000  0.97340000  1.0 -0.5887477859
O  O42  1  0.84030000  0.18630000  0.02660000  1.0 -0.5887477859
O  O43  1  0.10460000  0.12480000  0.12840000  1.0 -0.4044571036
O  O44  1  0.99640000  0.97620000  0.87160000  1.0 -0.4044571036
O  O45  1  0.12480000  0.99640000  0.02020000  1.0 -0.4044571036
O  O46  1  0.97620000  0.10460000  0.97980000  1.0 -0.4044571036
O  O47  1  0.89540000  0.87520000  0.87160000  1.0 -0.4044571036
O  O48  1  0.00360000  0.02380000  0.12840000  1.0 -0.405310513
O  O49  1  0.87520000  0.00360000  0.97980000  1.0 -0.4044571036
O  O50  1  0.02380000  0.89540000  0.02020000  1.0 -0.405310513
