# DDEC6 charges by PACMAN v1.1 (https://github.com/mtap-research/PACMAN-charge/)
data_BIZCUM_FSR_pacman
_symmetry_space_group_name_H-M   'P 1'
_cell_length_a   17.12300000
_cell_length_b   17.12300000
_cell_length_c   17.12300000
_cell_angle_alpha   116.82500000
_cell_angle_beta   116.82500000
_cell_angle_gamma   95.59290000
_symmetry_Int_Tables_number   1
_chemical_formula_structural   Th3NiH36C44N8O25
_chemical_formula_sum   'Th6 Ni2 H72 C88 N16 O50'
_cell_volume   3701.25501806
_cell_formula_units_Z   2
loop_
 _symmetry_equiv_pos_site_id
 _symmetry_equiv_pos_as_xyz
  1  'x, y, z'
loop_
 _atom_site_type_symbol
 _atom_site_label
 _atom_site_symmetry_multiplicity
 _atom_site_fract_x
 _atom_site_fract_y
 _atom_site_fract_z
 _atom_site_occupancy
 _atom_site_charge
Th  Th1  1  0.52384000  0.65817000  0.18201000  1.0 2.0186984738
Th  Th2  1  0.47616000  0.34183000  0.81799000  1.0 2.012730221
Th  Th3  1  0.65817000  0.47616000  0.13433000  1.0 2.012730221
Th  Th4  1  0.34183000  0.52384000  0.86567000  1.0 2.012730221
Th  Th5  1  0.37886000  0.37886000  0.00000000  1.0 2.0417993268
Th  Th6  1  0.62114000  0.62114000  0.00000000  1.0 2.0417993268
Ni  Ni1  1  0.50000000  0.00000000  0.50000000  1.0 0.6060163578
Ni  Ni2  1  0.00000000  0.50000000  0.50000000  1.0 0.6060163578
H  H1  1  0.59249000  0.21920000  0.68877000  1.0 0.2621338268
H  H2  1  0.53043000  0.90372000  0.31123000  1.0 0.2621338268
H  H3  1  0.21920000  0.53043000  0.62671000  1.0 0.2621338268
H  H4  1  0.90372000  0.59249000  0.37329000  1.0 0.2621338268
H  H5  1  0.40751000  0.78080000  0.31123000  1.0 0.2621338268
H  H6  1  0.46957000  0.09628000  0.68877000  1.0 0.2621338268
H  H7  1  0.78080000  0.46957000  0.37329000  1.0 0.2621338268
H  H8  1  0.09628000  0.40751000  0.62671000  1.0 0.2621338268
H  H9  1  0.30542000  0.76109000  0.06652000  1.0 0.0959826236
H  H10  1  0.69458000  0.23891000  0.93349000  1.0 0.0959826236
H  H11  1  0.76110000  0.69458000  0.45567000  1.0 0.0959826236
H  H12  1  0.23891000  0.30542000  0.54432000  1.0 0.0959826236
H  H13  1  0.01726000  0.43066000  0.76290000  1.0 0.1088305268
H  H14  1  0.66776000  0.25436000  0.23710000  1.0 0.1088305268
H  H15  1  0.43066000  0.66776000  0.41340000  1.0 0.1088305268
H  H16  1  0.25436000  0.01726000  0.58660000  1.0 0.1088305268
H  H17  1  0.98274000  0.56934000  0.23710000  1.0 0.1088305268
H  H18  1  0.33224000  0.74564000  0.76290000  1.0 0.1088305268
H  H19  1  0.56934000  0.33224000  0.58660000  1.0 0.1088305268
H  H20  1  0.74564000  0.98274000  0.41340000  1.0 0.1088305268
H  H21  1  0.86057000  0.37003000  0.70808000  1.0 0.1088305268
H  H22  1  0.66195000  0.15249000  0.29192000  1.0 0.1088305268
H  H23  1  0.37003000  0.66195000  0.50946000  1.0 0.1088305268
H  H24  1  0.15249000  0.86057000  0.49054000  1.0 0.1088305268
H  H25  1  0.13943000  0.62997000  0.29192000  1.0 0.1088305268
H  H26  1  0.33805000  0.84751000  0.70808000  1.0 0.1088305268
H  H27  1  0.62997000  0.33805000  0.49054000  1.0 0.1088305268
H  H28  1  0.84751000  0.13943000  0.50946000  1.0 0.1088305268
H  H29  1  0.90898000  0.15844000  0.74622000  1.0 0.1088305268
H  H30  1  0.41222000  0.16276000  0.25378000  1.0 0.1088305268
H  H31  1  0.15844000  0.41222000  0.24946000  1.0 0.1088305268
H  H32  1  0.16276000  0.90898000  0.75054000  1.0 0.1088305268
H  H33  1  0.09102000  0.84156000  0.25378000  1.0 0.1088305268
H  H34  1  0.58778000  0.83724000  0.74622000  1.0 0.1088305268
H  H35  1  0.84156000  0.58778000  0.75054000  1.0 0.1088305268
H  H36  1  0.83724000  0.09102000  0.24946000  1.0 0.1088305268
H  H37  1  0.06672000  0.22305000  0.80721000  1.0 0.1196348568
H  H38  1  0.41584000  0.25951000  0.19279000  1.0 0.1196348568
H  H39  1  0.22305000  0.41584000  0.15633000  1.0 0.1196348568
H  H40  1  0.25951000  0.06672000  0.84367000  1.0 0.1196348568
H  H41  1  0.93328000  0.77695000  0.19279000  1.0 0.1196348568
H  H42  1  0.58416000  0.74049000  0.80721000  1.0 0.1196348568
H  H43  1  0.77695000  0.58416000  0.84367000  1.0 0.1196348568
H  H44  1  0.74049000  0.93328000  0.15633000  1.0 0.1196348568
H  H45  1  0.74521000  0.33528000  0.77672000  1.0 0.1196348568
H  H46  1  0.55856000  0.96850000  0.22329000  1.0 0.1196348568
H  H47  1  0.33528000  0.55857000  0.59006000  1.0 0.1196348568
H  H48  1  0.96850000  0.74521000  0.40993000  1.0 0.1196348568
H  H49  1  0.25478000  0.66472000  0.22329000  1.0 0.1196348568
H  H50  1  0.44144000  0.03150000  0.77672000  1.0 0.1196348568
H  H51  1  0.66472000  0.44144000  0.40993000  1.0 0.1196348568
H  H52  1  0.03150000  0.25479000  0.59006000  1.0 0.1196348568
H  H53  1  0.72135000  0.07564000  0.58283000  1.0 0.1196348568
H  H54  1  0.49281000  0.13852000  0.41717000  1.0 0.1196348568
H  H55  1  0.07564000  0.49281000  0.35429000  1.0 0.1196348568
H  H56  1  0.13852000  0.72135000  0.64571000  1.0 0.1196348568
H  H57  1  0.27865000  0.92436000  0.41717000  1.0 0.1196348568
H  H58  1  0.50719000  0.86148000  0.58283000  1.0 0.1196348568
H  H59  1  0.92436000  0.50719000  0.64571000  1.0 0.1196348568
H  H60  1  0.86148000  0.27865000  0.35429000  1.0 0.1196348568
H  H61  1  0.64045000  0.82939000  0.46984000  1.0 0.0893005481
H  H62  1  0.35955000  0.17061000  0.53016000  1.0 0.0893005481
H  H63  1  0.82939000  0.35955000  0.18894000  1.0 0.0893005481
H  H64  1  0.17061000  0.64045000  0.81106000  1.0 0.0893005481
H  H65  1  0.31136000  0.54163000  0.03259000  1.0 0.3137750229
H  H66  1  0.50904000  0.27877000  0.96741000  1.0 0.3137750229
H  H67  1  0.54163000  0.50904000  0.23027000  1.0 0.3137750229
H  H68  1  0.27877000  0.31136000  0.76973000  1.0 0.3137750229
H  H69  1  0.68864000  0.45837000  0.96741000  1.0 0.3137750229
H  H70  1  0.49096000  0.72123000  0.03259000  1.0 0.3137750229
H  H71  1  0.45837000  0.49096000  0.76973000  1.0 0.3137750229
H  H72  1  0.72123000  0.68864000  0.23027000  1.0 0.3137750229
C  C1  1  0.33740000  0.71890000  0.05630000  1.0 0.4198474562
C  C2  1  0.66260000  0.28110000  0.94370000  1.0 0.4198474562
C  C3  1  0.71890000  0.66260000  0.38150000  1.0 0.4198474562
C  C4  1  0.28110000  0.33740000  0.61850000  1.0 0.4198474562
C  C5  1  0.16000000  0.37480000  0.83640000  1.0 0.5627123615
C  C6  1  0.53840000  0.32360000  0.16360000  1.0 0.5627123615
C  C7  1  0.37480000  0.53840000  0.21480000  1.0 0.5627123615
C  C8  1  0.32360000  0.16000000  0.78520000  1.0 0.5627123615
C  C9  1  0.84000000  0.62520000  0.16360000  1.0 0.5627123615
C  C10  1  0.46160000  0.67640000  0.83640000  1.0 0.5627123615
C  C11  1  0.62520000  0.46160000  0.78520000  1.0 0.5627123615
C  C12  1  0.67640000  0.84000000  0.21480000  1.0 0.5627123615
C  C13  1  0.05760000  0.33440000  0.79320000  1.0 -0.0420272296
C  C14  1  0.54120000  0.26440000  0.20680000  1.0 -0.0420272296
C  C15  1  0.33440000  0.54120000  0.27680000  1.0 -0.0420272296
C  C16  1  0.26440000  0.05760000  0.72320000  1.0 -0.0420272296
C  C17  1  0.94240000  0.66560000  0.20680000  1.0 -0.0420272296
C  C18  1  0.45880000  0.73560000  0.79320000  1.0 -0.0420272296
C  C19  1  0.66560000  0.45880000  0.72320000  1.0 -0.0420272296
C  C20  1  0.73560000  0.94240000  0.27680000  1.0 -0.0420272296
C  C21  1  0.99570000  0.37650000  0.76160000  1.0 -0.1193902382
C  C22  1  0.61490000  0.23410000  0.23840000  1.0 -0.1193902382
C  C23  1  0.37650000  0.61490000  0.38080000  1.0 -0.1193902382
C  C24  1  0.23410000  0.99570000  0.61920000  1.0 -0.1193902382
C  C25  1  0.00430000  0.62350000  0.23840000  1.0 -0.1193902382
C  C26  1  0.38510000  0.76590000  0.76160000  1.0 -0.1193902382
C  C27  1  0.62350000  0.38510000  0.61920000  1.0 -0.1193902382
C  C28  1  0.76590000  0.00430000  0.38080000  1.0 -0.1193902382
C  C29  1  0.90220000  0.33980000  0.72800000  1.0 -0.1596499805
C  C30  1  0.61180000  0.17420000  0.27200000  1.0 -0.1596499805
C  C31  1  0.33980000  0.61180000  0.43760000  1.0 -0.1596499805
C  C32  1  0.17420000  0.90220000  0.56240000  1.0 -0.1596499805
C  C33  1  0.09780000  0.66020000  0.27200000  1.0 -0.1596499805
C  C34  1  0.38820000  0.82580000  0.72800000  1.0 -0.1596499805
C  C35  1  0.66020000  0.38820000  0.56240000  1.0 -0.1596499805
C  C36  1  0.82580000  0.09780000  0.43760000  1.0 -0.1596499805
C  C37  1  0.86870000  0.25900000  0.72330000  1.0 0.0843587009
C  C38  1  0.53570000  0.14540000  0.27670000  1.0 0.0843587009
C  C39  1  0.25900000  0.53570000  0.39030000  1.0 0.0843587009
C  C40  1  0.14540000  0.86870000  0.60970000  1.0 0.0843587009
C  C41  1  0.13130000  0.74100000  0.27670000  1.0 0.0843587009
C  C42  1  0.46430000  0.85460000  0.72330000  1.0 0.0843587009
C  C43  1  0.74100000  0.46430000  0.60970000  1.0 0.0843587009
C  C44  1  0.85460000  0.13130000  0.39030000  1.0 0.0843587009
C  C45  1  0.93110000  0.21480000  0.75150000  1.0 -0.1596499805
C  C46  1  0.46330000  0.17960000  0.24850000  1.0 -0.1596499805
C  C47  1  0.21480000  0.46330000  0.28370000  1.0 -0.1596499805
C  C48  1  0.17960000  0.93110000  0.71630000  1.0 -0.1596499805
C  C49  1  0.06890000  0.78520000  0.24850000  1.0 -0.1596499805
C  C50  1  0.53670000  0.82040000  0.75150000  1.0 -0.1596499805
C  C51  1  0.78520000  0.53670000  0.71630000  1.0 -0.1596499805
C  C52  1  0.82040000  0.06890000  0.28370000  1.0 -0.1596499805
C  C53  1  0.02480000  0.25280000  0.78700000  1.0 -0.1193902382
C  C54  1  0.46580000  0.23780000  0.21300000  1.0 -0.1193902382
C  C55  1  0.25280000  0.46580000  0.22800000  1.0 -0.1193902382
C  C56  1  0.23780000  0.02480000  0.77200000  1.0 -0.1193902382
C  C57  1  0.97520000  0.74720000  0.21300000  1.0 -0.1193902382
C  C58  1  0.53420000  0.76220000  0.78700000  1.0 -0.1193902382
C  C59  1  0.74720000  0.53420000  0.77200000  1.0 -0.1193902382
C  C60  1  0.76220000  0.97520000  0.22800000  1.0 -0.1193902382
C  C61  1  0.72260000  0.26920000  0.72720000  1.0 -0.0884243833
C  C62  1  0.54200000  0.99540000  0.27280000  1.0 -0.0884243833
C  C63  1  0.26920000  0.54200000  0.54660000  1.0 -0.0884243833
C  C64  1  0.99540000  0.72260000  0.45340000  1.0 -0.0884243833
C  C65  1  0.27740000  0.73080000  0.27280000  1.0 -0.0884243833
C  C66  1  0.45800000  0.00460000  0.72720000  1.0 -0.0884243833
C  C67  1  0.73080000  0.45800000  0.45340000  1.0 -0.0884243833
C  C68  1  0.00460000  0.27740000  0.54660000  1.0 -0.0884243833
C  C69  1  0.77140000  0.22080000  0.69160000  1.0 -0.0420272296
C  C70  1  0.52920000  0.07980000  0.30840000  1.0 -0.0420272296
C  C71  1  0.22080000  0.52920000  0.44940000  1.0 -0.0420272296
C  C72  1  0.07980000  0.77140000  0.55060000  1.0 -0.0420272296
C  C73  1  0.22860000  0.77920000  0.30840000  1.0 -0.0420272296
C  C74  1  0.47080000  0.92020000  0.69160000  1.0 -0.0420272296
C  C75  1  0.77920000  0.47080000  0.55060000  1.0 -0.0420272296
C  C76  1  0.92020000  0.22860000  0.44940000  1.0 -0.0420272296
C  C77  1  0.70780000  0.12680000  0.62060000  1.0 -0.0694123568
C  C78  1  0.50620000  0.08720000  0.37940000  1.0 -0.0694123568
C  C79  1  0.12680000  0.50620000  0.41900000  1.0 -0.0694123568
C  C80  1  0.08720000  0.70780000  0.58100000  1.0 -0.0694123568
C  C81  1  0.29220000  0.87320000  0.37940000  1.0 -0.0694123568
C  C82  1  0.49380000  0.91280000  0.62060000  1.0 -0.0694123568
C  C83  1  0.87320000  0.49380000  0.58100000  1.0 -0.0694123568
C  C84  1  0.91280000  0.29220000  0.41900000  1.0 -0.0694123568
C  C85  1  0.59120000  0.84880000  0.44000000  1.0 0.4669031104
C  C86  1  0.40880000  0.15120000  0.56000000  1.0 0.4669031104
C  C87  1  0.84880000  0.40880000  0.25760000  1.0 0.4669031104
C  C88  1  0.15120000  0.59120000  0.74240000  1.0 0.4669031104
N  N1  1  0.62600000  0.11800000  0.61260000  1.0 -0.1596499805
N  N2  1  0.50540000  0.01340000  0.38740000  1.0 -0.1596499805
N  N3  1  0.11800000  0.50540000  0.49200000  1.0 -0.1596499805
N  N4  1  0.01340000  0.62600000  0.50800000  1.0 -0.1596499805
N  N5  1  0.37400000  0.88200000  0.38740000  1.0 -0.1596499805
N  N6  1  0.49460000  0.98660000  0.61260000  1.0 -0.1596499805
N  N7  1  0.88200000  0.49460000  0.50800000  1.0 -0.1596499805
N  N8  1  0.98660000  0.37400000  0.49200000  1.0 -0.1596499805
N  N9  1  0.63650000  0.20510000  0.67840000  1.0 -0.0596714976
N  N10  1  0.52670000  0.95810000  0.32160000  1.0 -0.0596714976
N  N11  1  0.20510000  0.52670000  0.56860000  1.0 -0.0596714976
N  N12  1  0.95810000  0.63650000  0.43140000  1.0 -0.0596714976
N  N13  1  0.36350000  0.79490000  0.32160000  1.0 -0.0596714976
N  N14  1  0.47330000  0.04190000  0.67840000  1.0 -0.0596714976
N  N15  1  0.79490000  0.47330000  0.43140000  1.0 -0.0596714976
N  N16  1  0.04190000  0.36350000  0.56860000  1.0 -0.0596714976
O  O1  1  0.21403000  0.34863000  0.89040000  1.0 -0.5951455036
O  O2  1  0.45823000  0.32363000  0.10960000  1.0 -0.5951455036
O  O3  1  0.34863000  0.45823000  0.13460000  1.0 -0.5951455036
O  O4  1  0.32363000  0.21403000  0.86540000  1.0 -0.5951455036
O  O5  1  0.78597000  0.65137000  0.10960000  1.0 -0.5951455036
O  O6  1  0.54177000  0.67637000  0.89040000  1.0 -0.5951455036
O  O7  1  0.65137000  0.54177000  0.86540000  1.0 -0.5951455036
O  O8  1  0.67637000  0.78597000  0.13460000  1.0 -0.5951455036
O  O9  1  0.58500000  0.91840000  0.50340000  1.0 -0.5055081496
O  O10  1  0.41500000  0.08160000  0.49660000  1.0 -0.5055081496
O  O11  1  0.91840000  0.41500000  0.33340000  1.0 -0.5055081496
O  O12  1  0.08160000  0.58500000  0.66666667  1.0 -0.5055081496
O  O13  1  0.53960000  0.80260000  0.34220000  1.0 -0.5334690014
O  O14  1  0.46040000  0.19740000  0.65780000  1.0 -0.5334690014
O  O15  1  0.80260000  0.46040000  0.26300000  1.0 -0.5334690014
O  O16  1  0.19740000  0.53960000  0.73700000  1.0 -0.5334690014
O  O17  1  0.18607000  0.43157000  0.81710000  1.0 -0.6218848029
O  O18  1  0.61447000  0.36897000  0.18290000  1.0 -0.6218848029
O  O19  1  0.43157000  0.61447000  0.24550000  1.0 -0.6218848029
O  O20  1  0.36897000  0.18607000  0.75450000  1.0 -0.6218848029
O  O21  1  0.81393000  0.56843000  0.18290000  1.0 -0.6218848029
O  O22  1  0.38553000  0.63103000  0.81710000  1.0 -0.6218848029
O  O23  1  0.56843000  0.38553000  0.75450000  1.0 -0.6218848029
O  O24  1  0.63103000  0.81393000  0.24550000  1.0 -0.6218848029
O  O25  1  0.39510000  0.52590000  0.01960000  1.0 -0.4008395175
O  O26  1  0.50630000  0.37550000  0.98040000  1.0 -0.4008395175
O  O27  1  0.52590000  0.50630000  0.13080000  1.0 -0.4008395175
O  O28  1  0.37550000  0.39510000  0.86920000  1.0 -0.4008395175
O  O29  1  0.60490000  0.47410000  0.98040000  1.0 -0.4008395175
O  O30  1  0.49370000  0.62450000  0.01960000  1.0 -0.4008395175
O  O31  1  0.47410000  0.49370000  0.86920000  1.0 -0.4008395175
O  O32  1  0.62450000  0.60490000  0.13080000  1.0 -0.4008395175
O  O33  1  0.40700000  0.73170000  0.13870000  1.0 -0.5898572455
O  O34  1  0.59300000  0.26830000  0.86130000  1.0 -0.5898572455
O  O35  1  0.73170000  0.59300000  0.32470000  1.0 -0.5898572455
O  O36  1  0.26830000  0.40700000  0.67530000  1.0 -0.5898572455
O  O37  1  0.30690000  0.65680000  0.96370000  1.0 -0.5898572455
O  O38  1  0.69310000  0.34320000  0.03630000  1.0 -0.5898572455
O  O39  1  0.65680000  0.69310000  0.34990000  1.0 -0.5898572455
O  O40  1  0.34320000  0.30690000  0.65010000  1.0 -0.5898572455
O  O41  1  0.26920000  0.26920000  0.00000000  1.0 -0.3505870352
O  O42  1  0.73080000  0.73080000  0.00000000  1.0 -0.3505870352
O  O43  1  0.36390000  0.53110000  0.02340000  1.0 -0.2793024766
O  O44  1  0.50770000  0.34050000  0.97660000  1.0 -0.2793024766
O  O45  1  0.53110000  0.50770000  0.16720000  1.0 -0.2793024766
O  O46  1  0.34050000  0.36390000  0.83280000  1.0 -0.2793024766
O  O47  1  0.63610000  0.46890000  0.97660000  1.0 -0.2793024766
O  O48  1  0.49230000  0.65950000  0.02340000  1.0 -0.2793024766
O  O49  1  0.46890000  0.49230000  0.83280000  1.0 -0.2793024766
O  O50  1  0.65950000  0.63610000  0.16720000  1.0 -0.2793024766
