# DDEC6 charges by PACMAN v1.1 (https://github.com/mtap-research/PACMAN-charge/)
data_BIZDAT_ASR_pacman
_symmetry_space_group_name_H-M   'P 1'
_cell_length_a   13.16290000
_cell_length_b   13.16290000
_cell_length_c   25.89600000
_cell_angle_alpha   71.26430000
_cell_angle_beta   108.73600000
_cell_angle_gamma   138.21600000
_symmetry_Int_Tables_number   1
_chemical_formula_structural   Zn2H34C50SN8O7
_chemical_formula_sum   'Zn4 H68 C100 S2 N16 O14'
_cell_volume   2807.40639833
_cell_formula_units_Z   2
loop_
 _symmetry_equiv_pos_site_id
 _symmetry_equiv_pos_as_xyz
  1  'x, y, z'
loop_
 _atom_site_type_symbol
 _atom_site_label
 _atom_site_symmetry_multiplicity
 _atom_site_fract_x
 _atom_site_fract_y
 _atom_site_fract_z
 _atom_site_occupancy
 _atom_site_charge
Zn  Zn1  1  0.86962000  0.29838000  0.96053000  1.0 0.6417036908
Zn  Zn2  1  0.52897000  0.35443000  0.51286000  1.0 0.6815173285
Zn  Zn3  1  0.70162000  0.13038000  0.46053000  1.0 0.6417036908
Zn  Zn4  1  0.64557000  0.47103000  0.01286000  1.0 0.6815173285
H  H1  1  0.94252000  0.55774000  0.28763000  1.0 0.1112184472
H  H2  1  0.08785000  0.70451000  0.13517000  1.0 0.1112184472
H  H3  1  0.54980000  0.44538000  0.65279000  1.0 0.1112184472
H  H4  1  0.61691000  0.03877000  0.15373000  1.0 0.1209370343
H  H5  1  0.78057000  0.18615000  0.77459000  1.0 0.1209370343
H  H6  1  0.66753000  0.16619000  0.68375000  1.0 0.1209370343
H  H7  1  0.50218000  0.94068000  0.22861000  1.0 0.1209370343
H  H8  1  0.70375000  0.18411000  0.06654000  1.0 0.1209370343
H  H9  1  0.89070000  0.66922000  0.53441000  1.0 0.1209370343
H  H10  1  0.52505000  0.51919000  0.71506000  1.0 0.1310523991
H  H11  1  0.83367000  0.48367000  0.36324000  1.0 0.1112184472
H  H12  1  0.34256000  0.09262000  0.17868000  1.0 0.1112184472
H  H13  1  0.77117000  0.47339000  0.83320000  1.0 0.1112184472
H  H14  1  0.31374000  0.23846000  0.09926000  1.0 0.1209370343
H  H15  1  0.12721000  0.33813000  0.93245000  1.0 0.1310523991
H  H16  1  0.90342000  0.10710000  0.06004000  1.0 0.1112184472
H  H17  1  0.20435000  0.77543000  0.06076000  1.0 0.1209370343
H  H18  1  0.07300000  0.82326000  0.47317000  1.0 0.1310523991
H  H19  1  0.65848000  0.44000000  0.41030000  1.0 0.1112184472
H  H20  1  0.17203000  0.98235000  0.28292000  1.0 0.1209370343
H  H21  1  0.22327000  0.23885000  0.99360000  1.0 0.1209370343
H  H22  1  0.44704000  0.49026000  0.40280000  1.0 0.1003707605
H  H23  1  0.24051000  0.45281000  0.33862000  1.0 0.1310523991
H  H24  1  0.21625000  0.59093000  0.25523000  1.0 0.1209370343
H  H25  1  0.31488000  0.85300000  0.33723000  1.0 0.1112184472
H  H26  1  0.53283000  0.95995000  0.94404000  1.0 0.1209370343
H  H27  1  0.85919000  0.86991000  0.09722000  1.0 0.1209370343
H  H28  1  0.34377000  0.78591000  0.00798000  1.0 0.1310523991
H  H29  1  0.38263000  0.75977000  0.41838000  1.0 0.1112184472
H  H30  1  0.38857000  0.41829000  0.56063000  1.0 0.1209370343
H  H31  1  0.89549000  0.75551000  0.17503000  1.0 0.1112184472
H  H32  1  0.04845000  0.91593000  0.35820000  1.0 0.142098512
H  H33  1  0.29303000  0.54031000  0.49848000  1.0 0.1112184472
H  H34  1  0.49094000  0.45352000  0.85094000  1.0 0.288007419
H  H35  1  0.44226000  0.05748000  0.78763000  1.0 0.1112184472
H  H36  1  0.29549000  0.91215000  0.63517000  1.0 0.1209370343
H  H37  1  0.55462000  0.45020000  0.15279000  1.0 0.1112184472
H  H38  1  0.96123000  0.38309000  0.65373000  1.0 0.1209370343
H  H39  1  0.81385000  0.21943000  0.27459000  1.0 0.1209370343
H  H40  1  0.83381000  0.33247000  0.18375000  1.0 0.1209370343
H  H41  1  0.05932000  0.49782000  0.72861000  1.0 0.1209370343
H  H42  1  0.81589000  0.29625000  0.56654000  1.0 0.1209370343
H  H43  1  0.33078000  0.10930000  0.03441000  1.0 0.1209370343
H  H44  1  0.48081000  0.47495000  0.21506000  1.0 0.1310523991
H  H45  1  0.51633000  0.16633000  0.86324000  1.0 0.1112184472
H  H46  1  0.90738000  0.65744000  0.67868000  1.0 0.1112184472
H  H47  1  0.52661000  0.22883000  0.33320000  1.0 0.1112184472
H  H48  1  0.76154000  0.68626000  0.59926000  1.0 0.1209370343
H  H49  1  0.66187000  0.87279000  0.43245000  1.0 0.1310523991
H  H50  1  0.89290000  0.09658000  0.56004000  1.0 0.1112184472
H  H51  1  0.22457000  0.79565000  0.56076000  1.0 0.1209370343
H  H52  1  0.17674000  0.92700000  0.97317000  1.0 0.1310523991
H  H53  1  0.56000000  0.34152000  0.91030000  1.0 0.1112184472
H  H54  1  0.01765000  0.82797000  0.78292000  1.0 0.1209370343
H  H55  1  0.76115000  0.77673000  0.49360000  1.0 0.1209370343
H  H56  1  0.50974000  0.55296000  0.90280000  1.0 0.1003707605
H  H57  1  0.54719000  0.75949000  0.83862000  1.0 0.1310523991
H  H58  1  0.40907000  0.78375000  0.75523000  1.0 0.1209370343
H  H59  1  0.14700000  0.68512000  0.83723000  1.0 0.1112184472
H  H60  1  0.04005000  0.46717000  0.44404000  1.0 0.1209370343
H  H61  1  0.13009000  0.14081000  0.59722000  1.0 0.1209370343
H  H62  1  0.21409000  0.65623000  0.50798000  1.0 0.1310523991
H  H63  1  0.24023000  0.61737000  0.91838000  1.0 0.1112184472
H  H64  1  0.58171000  0.61143000  0.06063000  1.0 0.1209370343
H  H65  1  0.24449000  0.10451000  0.67503000  1.0 0.1112184472
H  H66  1  0.08407000  0.95155000  0.85820000  1.0 0.142098512
H  H67  1  0.45969000  0.70697000  0.99848000  1.0 0.1112184472
H  H68  1  0.54648000  0.50906000  0.35094000  1.0 0.288007419
C  C1  1  0.96600000  0.63000000  0.30240000  1.0 -0.1131173303
C  C2  1  0.08160000  0.05840000  0.09010000  1.0 0.1310523991
C  C3  1  0.28450000  0.82750000  0.19030000  1.0 0.0592534788
C  C4  1  0.12240000  0.90360000  0.18310000  1.0 0.0592534788
C  C5  1  0.19350000  0.77050000  0.13910000  1.0 -0.1391778333
C  C6  1  0.42980000  0.92220000  0.09820000  1.0 0.142098512
C  C7  1  0.05940000  0.77260000  0.28030000  1.0 0.0592534788
C  C8  1  0.58290000  0.43910000  0.69010000  1.0 -0.1391778333
C  C9  1  0.51000000  0.96800000  0.14960000  1.0 -0.1892488157
C  C10  1  0.63940000  0.36520000  0.71370000  1.0 0.0506476885
C  C11  1  0.70700000  0.37720000  0.76810000  1.0 0.0506476885
C  C12  1  0.75990000  0.31010000  0.79090000  1.0 -0.0910605179
C  C13  1  0.74520000  0.23100000  0.75930000  1.0 -0.1180862417
C  C14  1  0.67750000  0.21910000  0.70490000  1.0 -0.1391778333
C  C15  1  0.62450000  0.28610000  0.68210000  1.0 -0.0522566871
C  C16  1  0.44310000  0.91690000  0.19430000  1.0 -0.1131173303
C  C17  1  0.56800000  0.27200000  0.61670000  1.0 0.4985941457
C  C18  1  0.63660000  0.10940000  0.04310000  1.0 0.090155478
C  C19  1  0.86740000  0.64460000  0.49980000  1.0 -0.0329796202
C  C20  1  0.58340000  0.49860000  0.72570000  1.0 -0.0910605179
C  C21  1  0.90210000  0.58590000  0.34720000  1.0 -0.1951025767
C  C22  1  0.24470000  0.04730000  0.16210000  1.0 -0.1304037092
C  C23  1  0.14700000  0.82900000  0.23210000  1.0 -0.0120711967
C  C24  1  0.72190000  0.46010000  0.79730000  1.0 -0.149346407
C  C25  1  0.22980000  0.13820000  0.11270000  1.0 -0.1794364942
C  C26  1  0.09260000  0.27740000  0.96600000  1.0 -0.0595894274
C  C27  1  0.96850000  0.15150000  0.03490000  1.0 0.0689864061
C  C28  1  0.26470000  0.81530000  0.09370000  1.0 -0.2195338277
C  C29  1  0.22600000  0.79400000  0.23620000  1.0 -0.0329796202
C  C30  1  0.96830000  0.73370000  0.46700000  1.0 -0.1180862417
C  C31  1  0.73450000  0.51750000  0.43280000  1.0 0.0166141898
C  C32  1  0.09920000  0.88080000  0.29910000  1.0 -0.1180862417
C  C33  1  0.14610000  0.22390000  0.99890000  1.0 -0.0981533719
C  C34  1  0.82300000  0.30700000  0.85040000  1.0 0.4985941457
C  C35  1  0.66510000  0.52490000  0.77460000  1.0 -0.1180862417
C  C36  1  0.42170000  0.48830000  0.43300000  1.0 0.0592534788
C  C37  1  0.26460000  0.53940000  0.33890000  1.0 -0.1553718639
C  C38  1  0.24270000  0.62130000  0.28900000  1.0 -0.149346407
C  C39  1  0.30440000  0.77560000  0.33600000  1.0 -0.1391778333
C  C40  1  0.54360000  0.98440000  0.97660000  1.0 -0.0522566871
C  C41  1  0.95830000  0.91770000  0.11290000  1.0 -0.1732365084
C  C42  1  0.25580000  0.72820000  0.28850000  1.0 0.0689864061
C  C43  1  0.43750000  0.88850000  0.01040000  1.0 -0.149346407
C  C44  1  0.34410000  0.71990000  0.38570000  1.0 -0.1892488157
C  C45  1  0.94230000  0.69770000  0.36790000  1.0 0.1209370343
C  C46  1  0.32090000  0.60310000  0.38210000  1.0 0.142098512
C  C47  1  0.38930000  0.44870000  0.52290000  1.0 -0.0595894274
C  C48  1  0.98170000  0.84830000  0.15870000  1.0 -0.1304037092
C  C49  1  0.03130000  0.84470000  0.34570000  1.0 -0.1553718639
C  C50  1  0.33240000  0.51560000  0.48740000  1.0 -0.1391778333
C  C51  1  0.37000000  0.03400000  0.80240000  1.0 -0.1131173303
C  C52  1  0.94160000  0.91840000  0.59010000  1.0 0.1310523991
C  C53  1  0.17250000  0.71550000  0.69030000  1.0 0.0592534788
C  C54  1  0.09640000  0.87760000  0.68310000  1.0 0.0592534788
C  C55  1  0.22950000  0.80650000  0.63910000  1.0 -0.1391778333
C  C56  1  0.07780000  0.57020000  0.59820000  1.0 0.142098512
C  C57  1  0.22740000  0.94060000  0.78030000  1.0 0.0592534788
C  C58  1  0.56090000  0.41710000  0.19010000  1.0 -0.1391778333
C  C59  1  0.03200000  0.49000000  0.64960000  1.0 -0.1892488157
C  C60  1  0.63480000  0.36060000  0.21370000  1.0 0.0506476885
C  C61  1  0.62280000  0.29300000  0.26810000  1.0 0.0506476885
C  C62  1  0.68990000  0.24010000  0.29090000  1.0 -0.0910605179
C  C63  1  0.76900000  0.25480000  0.25930000  1.0 -0.1180862417
C  C64  1  0.78090000  0.32250000  0.20490000  1.0 -0.1391778333
C  C65  1  0.71390000  0.37550000  0.18210000  1.0 -0.0522566871
C  C66  1  0.08310000  0.55690000  0.69430000  1.0 -0.1131173303
C  C67  1  0.72800000  0.43200000  0.11670000  1.0 0.4985941457
C  C68  1  0.89060000  0.36340000  0.54310000  1.0 0.090155478
C  C69  1  0.35540000  0.13260000  0.99980000  1.0 -0.0329796202
C  C70  1  0.50140000  0.41660000  0.22570000  1.0 -0.0910605179
C  C71  1  0.41410000  0.09790000  0.84720000  1.0 -0.1951025767
C  C72  1  0.95270000  0.75530000  0.66210000  1.0 -0.1304037092
C  C73  1  0.17100000  0.85300000  0.73210000  1.0 -0.0120711967
C  C74  1  0.53990000  0.27810000  0.29730000  1.0 -0.149346407
C  C75  1  0.86180000  0.77020000  0.61270000  1.0 -0.1794364942
C  C76  1  0.72260000  0.90740000  0.46600000  1.0 -0.0595894274
C  C77  1  0.84850000  0.03150000  0.53490000  1.0 0.0689864061
C  C78  1  0.18470000  0.73530000  0.59370000  1.0 -0.2195338277
C  C79  1  0.20600000  0.77400000  0.73620000  1.0 -0.0329796202
C  C80  1  0.26630000  0.03170000  0.96700000  1.0 -0.1180862417
C  C81  1  0.48250000  0.26550000  0.93280000  1.0 0.0166141898
C  C82  1  0.11920000  0.90080000  0.79910000  1.0 -0.1180862417
C  C83  1  0.77610000  0.85390000  0.49890000  1.0 -0.0981533719
C  C84  1  0.69300000  0.17700000  0.35040000  1.0 0.4985941457
C  C85  1  0.47510000  0.33490000  0.27460000  1.0 -0.1180862417
C  C86  1  0.51170000  0.57830000  0.93300000  1.0 0.0592534788
C  C87  1  0.46060000  0.73540000  0.83890000  1.0 -0.1553718639
C  C88  1  0.37870000  0.75730000  0.78900000  1.0 -0.149346407
C  C89  1  0.22440000  0.69560000  0.83600000  1.0 -0.1391778333
C  C90  1  0.01560000  0.45640000  0.47660000  1.0 -0.0522566871
C  C91  1  0.08230000  0.04170000  0.61290000  1.0 -0.1732365084
C  C92  1  0.27180000  0.74420000  0.78850000  1.0 0.0689864061
C  C93  1  0.11150000  0.56250000  0.51040000  1.0 -0.149346407
C  C94  1  0.28010000  0.65590000  0.88570000  1.0 -0.1892488157
C  C95  1  0.30230000  0.05770000  0.86790000  1.0 0.1209370343
C  C96  1  0.39690000  0.67910000  0.88210000  1.0 0.142098512
C  C97  1  0.55130000  0.61070000  0.02290000  1.0 -0.0595894274
C  C98  1  0.15170000  0.01830000  0.65870000  1.0 -0.1304037092
C  C99  1  0.15530000  0.96870000  0.84570000  1.0 -0.149346407
C  C100  1  0.48440000  0.66760000  0.98740000  1.0 -0.1391778333
S  S1  1  0.67660000  0.62100000  0.81690000  1.0 1.1293775695
S  S2  1  0.37900000  0.32340000  0.31690000  1.0 1.1293775695
N  N1  1  0.72830000  0.51570000  0.48290000  1.0 -0.2777326298
N  N2  1  0.50320000  0.98280000  0.05270000  1.0 0.0109301544
N  N3  1  0.06540000  0.14060000  0.04250000  1.0 0.0109301544
N  N4  1  0.97650000  0.23350000  0.98740000  1.0 -0.2962829811
N  N5  1  0.88250000  0.66350000  0.42060000  1.0 0.0268480623
N  N6  1  0.67420000  0.12780000  0.99580000  1.0 -0.3184038816
N  N7  1  0.44530000  0.44070000  0.48700000  1.0 -0.3184038816
N  N8  1  0.35120000  0.53480000  0.43180000  1.0 -0.0120711967
N  N9  1  0.48430000  0.27170000  0.98290000  1.0 -0.2777326298
N  N10  1  0.01720000  0.49680000  0.55270000  1.0 0.0109301544
N  N11  1  0.85940000  0.93460000  0.54250000  1.0 0.0109301544
N  N12  1  0.76650000  0.02350000  0.48740000  1.0 -0.2962829811
N  N13  1  0.33650000  0.11750000  0.92060000  1.0 0.0268480623
N  N14  1  0.87220000  0.32580000  0.49580000  1.0 -0.3184038816
N  N15  1  0.55930000  0.55470000  0.98700000  1.0 -0.3184038816
N  N16  1  0.46520000  0.64880000  0.93180000  1.0 -0.0120711967
O  O1  1  0.58100000  0.38100000  0.59090000  1.0 -0.510403995
O  O2  1  0.76290000  0.62510000  0.86970000  1.0 -0.6231298787
O  O3  1  0.77830000  0.29370000  0.88430000  1.0 -0.3815570814
O  O4  1  0.54400000  0.19600000  0.59470000  1.0 -0.4362898213
O  O5  1  0.74680000  0.76320000  0.78520000  1.0 -0.5364219291
O  O6  1  0.93100000  0.32500000  0.85670000  1.0 -0.4761194927
O  O7  1  0.51270000  0.51530000  0.82300000  1.0 -0.510403995
O  O8  1  0.61900000  0.41900000  0.09090000  1.0 -0.510403995
O  O9  1  0.37490000  0.23710000  0.36970000  1.0 -0.6231298787
O  O10  1  0.70630000  0.22170000  0.38430000  1.0 -0.3815570814
O  O11  1  0.80400000  0.45600000  0.09470000  1.0 -0.4362898213
O  O12  1  0.23680000  0.25320000  0.28520000  1.0 -0.5364219291
O  O13  1  0.67500000  0.06900000  0.35670000  1.0 -0.4761194927
O  O14  1  0.48470000  0.48730000  0.32300000  1.0 -0.510403995
