# DDEC6 charges by PACMAN v1.1 (https://github.com/mtap-research/PACMAN-charge/)
data_BOCTOE04_FSR_pacman
_symmetry_space_group_name_H-M   'P 1'
_cell_length_a   6.30527000
_cell_length_b   6.30527000
_cell_length_c   12.88400000
_cell_angle_alpha   79.83520000
_cell_angle_beta   100.16500000
_cell_angle_gamma   84.18120000
_symmetry_Int_Tables_number   1
_chemical_formula_structural   MnN9
_chemical_formula_sum   'Mn2 N18'
_cell_volume   491.60345670
_cell_formula_units_Z   2
loop_
 _symmetry_equiv_pos_site_id
 _symmetry_equiv_pos_as_xyz
  1  'x, y, z'
loop_
 _atom_site_type_symbol
 _atom_site_label
 _atom_site_symmetry_multiplicity
 _atom_site_fract_x
 _atom_site_fract_y
 _atom_site_fract_z
 _atom_site_occupancy
 _atom_site_charge
Mn  Mn1  1  0.50000000  0.50000000  0.00000000  1.0 0.6007135943
Mn  Mn2  1  0.50000000  0.50000000  0.50000000  1.0 0.6305315927
N  N1  1  0.45450000  0.45450000  0.75000000  1.0 0.4709909394
N  N2  1  0.54550000  0.54550000  0.25000000  1.0 0.4709909394
N  N3  1  0.15220000  0.58940000  0.00250000  1.0 -0.339232482
N  N4  1  0.58940000  0.15220000  0.49750000  1.0 -0.339232482
N  N5  1  0.84780000  0.41060000  0.99750000  1.0 -0.339232482
N  N6  1  0.41060000  0.84780000  0.50250000  1.0 -0.339232482
N  N7  1  0.40070000  0.50270000  0.82479000  1.0 -0.339232482
N  N8  1  0.50270000  0.40070000  0.67521000  1.0 -0.3324330017
N  N9  1  0.59930000  0.49730000  0.17521000  1.0 -0.339232482
N  N10  1  0.49730000  0.59930000  0.32479000  1.0 -0.3324330017
N  N11  1  0.47160000  0.14720000  0.04060000  1.0 -0.339232482
N  N12  1  0.14720000  0.47160000  0.45940000  1.0 -0.339232482
N  N13  1  0.52840000  0.85280000  0.95940000  1.0 -0.339232482
N  N14  1  0.85280000  0.52840000  0.54060000  1.0 -0.339232482
N  N15  1  0.00000000  0.50000000  0.00000000  1.0 0.4709909394
N  N16  1  0.50000000  0.00000000  0.50000000  1.0 0.4709909394
N  N17  1  0.50000000  0.00000000  0.00000000  1.0 0.4709909394
N  N18  1  0.00000000  0.50000000  0.50000000  1.0 0.4709909394
