# DDEC6 charges by PACMAN v1.1 (https://github.com/mtap-research/PACMAN-charge/)
data_BOCTOE05_FSR_pacman
_symmetry_space_group_name_H-M   'P 1'
_cell_length_a   6.34877000
_cell_length_b   6.34877000
_cell_length_c   12.93000000
_cell_angle_alpha   80.17140000
_cell_angle_beta   99.82860000
_cell_angle_gamma   84.06900000
_symmetry_Int_Tables_number   1
_chemical_formula_structural   MnN9
_chemical_formula_sum   'Mn2 N18'
_cell_volume   501.24951920
_cell_formula_units_Z   2
loop_
 _symmetry_equiv_pos_site_id
 _symmetry_equiv_pos_as_xyz
  1  'x, y, z'
loop_
 _atom_site_type_symbol
 _atom_site_label
 _atom_site_symmetry_multiplicity
 _atom_site_fract_x
 _atom_site_fract_y
 _atom_site_fract_z
 _atom_site_occupancy
 _atom_site_charge
Mn  Mn1  1  0.50000000  0.50000000  0.00000000  1.0 0.5679414436
Mn  Mn2  1  0.50000000  0.50000000  0.50000000  1.0 0.5994611546
N  N1  1  0.45640000  0.45640000  0.75000000  1.0 0.4721102878
N  N2  1  0.54360000  0.54360000  0.25000000  1.0 0.4721102878
N  N3  1  0.15200000  0.58900000  0.00190000  1.0 -0.3324534795
N  N4  1  0.58900000  0.15200000  0.49810000  1.0 -0.3324534795
N  N5  1  0.84800000  0.41100000  0.99810000  1.0 -0.3324534795
N  N6  1  0.41100000  0.84800000  0.50190000  1.0 -0.3359943365
N  N7  1  0.40330000  0.50410000  0.82500000  1.0 -0.3324534795
N  N8  1  0.50410000  0.40330000  0.67500000  1.0 -0.3324534795
N  N9  1  0.59670000  0.49590000  0.17500000  1.0 -0.3324534795
N  N10  1  0.49590000  0.59670000  0.32500000  1.0 -0.3324534795
N  N11  1  0.47290000  0.14750000  0.04030000  1.0 -0.3324534795
N  N12  1  0.14750000  0.47290000  0.45970000  1.0 -0.3359943365
N  N13  1  0.52710000  0.85250000  0.95970000  1.0 -0.3324534795
N  N14  1  0.85250000  0.52710000  0.54030000  1.0 -0.3359943365
N  N15  1  0.00000000  0.50000000  0.00000000  1.0 0.4721102878
N  N16  1  0.50000000  0.00000000  0.50000000  1.0 0.4721102878
N  N17  1  0.50000000  0.00000000  0.00000000  1.0 0.4721102878
N  N18  1  0.00000000  0.50000000  0.50000000  1.0 0.4721102878
