# DDEC6 charges by PACMAN v1.1 (https://github.com/mtap-research/PACMAN-charge/)
data_BOFBII_ASR_pacman
_symmetry_space_group_name_H-M   'P 1'
_cell_length_a   8.21122000
_cell_length_b   8.21122000
_cell_length_c   11.06700000
_cell_angle_alpha   67.32680000
_cell_angle_beta   112.67300000
_cell_angle_gamma   94.09610000
_symmetry_Int_Tables_number   1
_chemical_formula_structural   NaBi2(CO2)8
_chemical_formula_sum   'Na1 Bi2 C8 O16'
_cell_volume   632.69378542
_cell_formula_units_Z   1
loop_
 _symmetry_equiv_pos_site_id
 _symmetry_equiv_pos_as_xyz
  1  'x, y, z'
loop_
 _atom_site_type_symbol
 _atom_site_label
 _atom_site_symmetry_multiplicity
 _atom_site_fract_x
 _atom_site_fract_y
 _atom_site_fract_z
 _atom_site_occupancy
 _atom_site_charge
Na  Na1  1  0.50000000  0.50000000  0.50000000  1.0 0.8636366979
Bi  Bi1  1  0.85682000  0.14318000  0.66013000  1.0 1.5665021197
Bi  Bi2  1  0.14318000  0.85682000  0.33987000  1.0 1.5665021197
C  C1  1  0.93140000  0.93140000  0.00000000  1.0 0.5320146934
C  C2  1  0.06860000  0.06860000  0.00000000  1.0 0.5320146934
C  C3  1  0.45040000  0.09420000  0.46600000  1.0 0.5198478953
C  C4  1  0.09420000  0.45040000  0.53400000  1.0 0.5198478953
C  C5  1  0.54960000  0.90580000  0.53400000  1.0 0.5198478953
C  C6  1  0.90580000  0.54960000  0.46600000  1.0 0.5198478953
C  C7  1  0.06570000  0.93430000  0.57220000  1.0 0.4960439757
C  C8  1  0.93430000  0.06570000  0.42780000  1.0 0.4960439757
O  O1  1  0.84640000  0.91440000  0.88580000  1.0 -0.5074722116
O  O2  1  0.91440000  0.84640000  0.11420000  1.0 -0.5074722116
O  O3  1  0.15360000  0.08560000  0.11420000  1.0 -0.5045357888
O  O4  1  0.08560000  0.15360000  0.88580000  1.0 -0.5045357888
O  O5  1  0.53220000  0.20940000  0.50610000  1.0 -0.5769144638
O  O6  1  0.20940000  0.53220000  0.49390000  1.0 -0.5769144638
O  O7  1  0.46780000  0.79060000  0.49390000  1.0 -0.5769144638
O  O8  1  0.79060000  0.46780000  0.50610000  1.0 -0.5769144638
O  O9  1  0.06410000  0.93590000  0.68450000  1.0 -0.4510969564
O  O10  1  0.93590000  0.06410000  0.31550000  1.0 -0.4510969564
O  O11  1  0.29690000  0.11630000  0.37480000  1.0 -0.4715685218
O  O12  1  0.11630000  0.29690000  0.62520000  1.0 -0.4715685218
O  O13  1  0.70310000  0.88370000  0.62520000  1.0 -0.4715685218
O  O14  1  0.88370000  0.70310000  0.37480000  1.0 -0.4715685218
O  O15  1  0.16830000  0.83170000  0.56880000  1.0 -0.5074722116
O  O16  1  0.83170000  0.16830000  0.43120000  1.0 -0.5045357888
