# DDEC6 charges by PACMAN v1.1 (https://github.com/mtap-research/PACMAN-charge/)
data_BOFLIS_ASR_pacman
_symmetry_space_group_name_H-M   'P 1'
_cell_length_a   7.53500000
_cell_length_b   11.46370000
_cell_length_c   17.23500000
_cell_angle_alpha   82.28600000
_cell_angle_beta   88.01600000
_cell_angle_gamma   84.34300000
_symmetry_Int_Tables_number   1
_chemical_formula_structural   Ag8H6C12N10O21
_chemical_formula_sum   'Ag16 H12 C24 N20 O42'
_cell_volume   1467.73904828
_cell_formula_units_Z   2
loop_
 _symmetry_equiv_pos_site_id
 _symmetry_equiv_pos_as_xyz
  1  'x, y, z'
loop_
 _atom_site_type_symbol
 _atom_site_label
 _atom_site_symmetry_multiplicity
 _atom_site_fract_x
 _atom_site_fract_y
 _atom_site_fract_z
 _atom_site_occupancy
 _atom_site_charge
Ag  Ag1  1  0.63356000  0.52004000  0.16250000  1.0 0.458473637
Ag  Ag2  1  0.36644000  0.47996000  0.83750000  1.0 0.458473637
Ag  Ag3  1  0.71267000  0.80336000  0.08977000  1.0 0.5873502412
Ag  Ag4  1  0.28733000  0.19664000  0.91023000  1.0 0.5873502412
Ag  Ag5  1  0.14857000  0.75524000  0.12758000  1.0 0.618420563
Ag  Ag6  1  0.85143000  0.24476000  0.87242000  1.0 0.618420563
Ag  Ag7  1  0.87708000  0.64970000  0.98844000  1.0 0.4482006349
Ag  Ag8  1  0.12292000  0.35030000  0.01156000  1.0 0.4482006349
Ag  Ag9  1  0.34732000  0.06013000  0.58257000  1.0 0.4017564573
Ag  Ag10  1  0.65268000  0.93987000  0.41743000  1.0 0.4017564573
Ag  Ag11  1  0.64734000  0.19393000  0.59511000  1.0 0.5144445815
Ag  Ag12  1  0.35266000  0.80607000  0.40489000  1.0 0.5144445815
Ag  Ag13  1  0.25063000  0.29376000  0.61301000  1.0 0.4197190323
Ag  Ag14  1  0.74937000  0.70624000  0.38699000  1.0 0.4197190323
Ag  Ag15  1  0.13831000  0.26959000  0.44767000  1.0 0.458473637
Ag  Ag16  1  0.86169000  0.73041000  0.55233000  1.0 0.458473637
H  H1  1  0.98808000  0.48642000  0.30360000  1.0 0.1210477295
H  H2  1  0.01192000  0.51358000  0.69640000  1.0 0.1210477295
H  H3  1  0.25227000  0.13908000  0.29796000  1.0 0.1099448942
H  H4  1  0.74773000  0.86092000  0.70204000  1.0 0.1099448942
H  H5  1  0.25815000  0.17224000  0.14843000  1.0 0.1287784346
H  H6  1  0.74185000  0.82776000  0.85157000  1.0 0.1287784346
H  H7  1  0.51681000  0.41523000  0.34310000  1.0 0.1210477295
H  H8  1  0.48319000  0.58477000  0.65690000  1.0 0.1210477295
H  H9  1  0.75347000  0.23807000  0.15780000  1.0 0.1099448942
H  H10  1  0.24653000  0.76193000  0.84220000  1.0 0.1099448942
H  H11  1  0.75845000  0.04046000  0.24540000  1.0 0.1210477295
H  H12  1  0.24155000  0.95954000  0.75460000  1.0 0.1210477295
C  C1  1  0.87925000  0.63052000  0.10524000  1.0 -0.5372191451
C  C2  1  0.12075000  0.36948000  0.89476000  1.0 -0.5372191451
C  C3  1  0.94200000  0.53548000  0.14621000  1.0 0.0037768327
C  C4  1  0.05800000  0.46452000  0.85379000  1.0 0.0037768327
C  C5  1  0.03758000  0.43068000  0.18836000  1.0 0.1866622933
C  C6  1  0.96242000  0.56932000  0.81164000  1.0 0.1866622933
C  C7  1  0.04429000  0.41577000  0.26959000  1.0 0.0628775798
C  C8  1  0.95571000  0.58423000  0.73041000  1.0 0.0628775798
C  C9  1  0.19396000  0.22395000  0.26484000  1.0 0.0249614932
C  C10  1  0.80604000  0.77605000  0.73516000  1.0 0.0249614932
C  C11  1  0.19498000  0.24017000  0.18479000  1.0 0.0678910755
C  C12  1  0.80502000  0.75983000  0.81521000  1.0 0.0678910755
C  C13  1  0.41554000  0.21956000  0.51489000  1.0 -0.4925532273
C  C14  1  0.58446000  0.78044000  0.48511000  1.0 -0.4925532273
C  C15  1  0.47133000  0.22044000  0.44406000  1.0 0.0249614932
C  C16  1  0.52867000  0.77956000  0.55594000  1.0 0.0249614932
C  C17  1  0.55644000  0.22503000  0.36703000  1.0 0.1866622933
C  C18  1  0.44356000  0.77497000  0.63297000  1.0 0.1866622933
C  C19  1  0.56362000  0.33222000  0.32070000  1.0 0.049008935
C  C20  1  0.43638000  0.66778000  0.67930000  1.0 0.049008935
C  C21  1  0.69886000  0.23137000  0.21914000  1.0 0.0408340835
C  C22  1  0.30114000  0.76863000  0.78086000  1.0 0.0408340835
C  C23  1  0.69928000  0.12524000  0.26574000  1.0 0.0678910755
C  C24  1  0.30072000  0.87476000  0.73426000  1.0 0.0678910755
N  N1  1  0.11682000  0.34268000  0.14651000  1.0 -0.1855375252
N  N2  1  0.88318000  0.65732000  0.85349000  1.0 -0.1855375252
N  N3  1  0.12004000  0.31506000  0.30546000  1.0 -0.1744330159
N  N4  1  0.87996000  0.68494000  0.69454000  1.0 -0.1744330159
N  N5  1  0.62642000  0.12140000  0.33856000  1.0 -0.1773370735
N  N6  1  0.37358000  0.87860000  0.66144000  1.0 -0.1773370735
N  N7  1  0.63084000  0.33413000  0.24804000  1.0 -0.1744330159
N  N8  1  0.36916000  0.66587000  0.75196000  1.0 -0.1744330159
N  N9  1  0.14806000  0.91729000  0.95099000  1.0 0.7104499035
N  N10  1  0.85194000  0.08271000  0.04901000  1.0 0.7104499035
N  N11  1  0.38591000  0.63291000  0.98712000  1.0 0.7155449309
N  N12  1  0.61409000  0.36709000  0.01288000  1.0 0.7155449309
N  N13  1  0.60549000  0.36508000  0.72389000  1.0 0.6972162046
N  N14  1  0.39451000  0.63492000  0.27611000  1.0 0.6972162046
N  N15  1  0.93770000  0.99231000  0.58774000  1.0 0.7104499035
N  N16  1  0.06230000  0.00769000  0.41226000  1.0 0.7104499035
N  N17  1  0.80641000  0.44047000  0.49926000  1.0 0.7104499035
N  N18  1  0.19359000  0.55953000  0.50074000  1.0 0.7104499035
N  N19  1  0.48480000  0.89923000  0.21343000  1.0 0.7104499035
N  N20  1  0.51520000  0.10077000  0.78657000  1.0 0.7104499035
O  O1  1  0.01695000  0.86157000  0.93841000  1.0 -0.4174912728
O  O2  1  0.98305000  0.13843000  0.06159000  1.0 -0.4174912728
O  O3  1  0.21561000  0.90691000  0.01989000  1.0 -0.3708016358
O  O4  1  0.78439000  0.09309000  0.98011000  1.0 -0.3708016358
O  O5  1  0.21648000  0.98600000  0.89540000  1.0 -0.4063608281
O  O6  1  0.78352000  0.01400000  0.10460000  1.0 -0.401500561
O  O7  1  0.53183000  0.61613000  0.94994000  1.0 -0.401500561
O  O8  1  0.46817000  0.38387000  0.05006000  1.0 -0.401500561
O  O9  1  0.38789000  0.65828000  0.05722000  1.0 -0.4278934878
O  O10  1  0.61211000  0.34172000  0.94278000  1.0 -0.4278934878
O  O11  1  0.23892000  0.62305000  0.95493000  1.0 -0.4476935448
O  O12  1  0.76108000  0.37695000  0.04507000  1.0 -0.4476935448
O  O13  1  0.71552000  0.29258000  0.69418000  1.0 -0.3352410279
O  O14  1  0.28448000  0.70742000  0.30582000  1.0 -0.3352410279
O  O15  1  0.65096000  0.40542000  0.78712000  1.0 -0.4174912728
O  O16  1  0.34904000  0.59458000  0.21288000  1.0 -0.4174912728
O  O17  1  0.45173000  0.39904000  0.69692000  1.0 -0.4063608281
O  O18  1  0.54827000  0.60096000  0.30308000  1.0 -0.4063608281
O  O19  1  0.76708000  0.99138000  0.58336000  1.0 -0.4476935448
O  O20  1  0.23292000  0.00862000  0.41664000  1.0 -0.4476935448
O  O21  1  0.04002000  0.90106000  0.57544000  1.0 -0.401500561
O  O22  1  0.95998000  0.09894000  0.42456000  1.0 -0.4063608281
O  O23  1  0.00037000  0.08528000  0.60413000  1.0 -0.401500561
O  O24  1  0.99963000  0.91472000  0.39587000  1.0 -0.401500561
O  O25  1  0.70944000  0.48941000  0.54804000  1.0 -0.3923052631
O  O26  1  0.29056000  0.51059000  0.45196000  1.0 -0.3923052631
O  O27  1  0.84820000  0.49421000  0.43177000  1.0 -0.4278934878
O  O28  1  0.15180000  0.50579000  0.56823000  1.0 -0.4278934878
O  O29  1  0.87183000  0.32858000  0.51648000  1.0 -0.4476935448
O  O30  1  0.12817000  0.67142000  0.48352000  1.0 -0.4476935448
O  O31  1  0.37290000  0.96638000  0.24675000  1.0 -0.401500561
O  O32  1  0.62710000  0.03362000  0.75325000  1.0 -0.401500561
O  O33  1  0.44459000  0.86440000  0.14626000  1.0 -0.401500561
O  O34  1  0.55541000  0.13560000  0.85374000  1.0 -0.401500561
O  O35  1  0.63712000  0.86193000  0.24063000  1.0 -0.4278934878
O  O36  1  0.36288000  0.13807000  0.75937000  1.0 -0.4278934878
O  O37  1  0.63720000  0.84998000  0.98574000  1.0 -0.2314003415
O  O38  1  0.36280000  0.15002000  0.01426000  1.0 -0.2314003415
O  O39  1  0.07055000  0.28586000  0.71369000  1.0 -0.0041083831
O  O40  1  0.92945000  0.71414000  0.28631000  1.0 -0.0041083831
O  O41  1  0.98415000  0.79392000  0.21236000  1.0 -0.2314003415
O  O42  1  0.01585000  0.20608000  0.78764000  1.0 -0.2314003415
