# DDEC6 charges by PACMAN v1.1 (https://github.com/mtap-research/PACMAN-charge/)
data_BOHJUF_FSR_pacman
_symmetry_space_group_name_H-M   'P 1'
_cell_length_a   17.80900000
_cell_length_b   17.81200000
_cell_length_c   17.83100000
_cell_angle_alpha   89.96900000
_cell_angle_beta   89.99900000
_cell_angle_gamma   89.81800000
_symmetry_Int_Tables_number   1
_chemical_formula_structural   Zr3H6(C3O5)4
_chemical_formula_sum   'Zr24 H48 C96 O160'
_cell_volume   5656.21182883
_cell_formula_units_Z   8
loop_
 _symmetry_equiv_pos_site_id
 _symmetry_equiv_pos_as_xyz
  1  'x, y, z'
loop_
 _atom_site_type_symbol
 _atom_site_label
 _atom_site_symmetry_multiplicity
 _atom_site_fract_x
 _atom_site_fract_y
 _atom_site_fract_z
 _atom_site_occupancy
 _atom_site_charge
Zr  Zr1  1  0.63777000  0.48901000  0.51040000  1.0 2.029534444
Zr  Zr2  1  0.36223000  0.51099000  0.48960000  1.0 2.029534444
Zr  Zr3  1  0.13768000  0.98882000  0.48959000  1.0 2.0227005052
Zr  Zr4  1  0.86232000  0.01118000  0.51041000  1.0 2.0227005052
Zr  Zr5  1  0.86239000  0.48889000  0.98946000  1.0 2.0383770633
Zr  Zr6  1  0.13761000  0.51111000  0.01054000  1.0 2.0383770633
Zr  Zr7  1  0.48907000  0.48944000  0.63770000  1.0 2.029534444
Zr  Zr8  1  0.51093000  0.51056000  0.36230000  1.0 2.029534444
Zr  Zr9  1  0.01061000  0.36220000  0.01106000  1.0 2.0458306241
Zr  Zr10  1  0.98939000  0.63780000  0.98894000  1.0 2.0383770633
Zr  Zr11  1  0.98940000  0.86228000  0.51104000  1.0 2.029534444
Zr  Zr12  1  0.01060000  0.13772000  0.48896000  1.0 2.029534444
Zr  Zr13  1  0.01098000  0.48953000  0.86235000  1.0 2.0383770633
Zr  Zr14  1  0.98902000  0.51047000  0.13765000  1.0 2.029534444
Zr  Zr15  1  0.98905000  0.98952000  0.36236000  1.0 2.0227005052
Zr  Zr16  1  0.01095000  0.01048000  0.63764000  1.0 2.0227005052
Zr  Zr17  1  0.48950000  0.36226000  0.48877000  1.0 2.029534444
Zr  Zr18  1  0.51050000  0.63774000  0.51123000  1.0 2.029534444
Zr  Zr19  1  0.63767000  0.01092000  0.98952000  1.0 2.029534444
Zr  Zr20  1  0.36233000  0.98908000  0.01048000  1.0 2.029534444
Zr  Zr21  1  0.51107000  0.98954000  0.13769000  1.0 2.029534444
Zr  Zr22  1  0.48893000  0.01046000  0.86231000  1.0 2.029534444
Zr  Zr23  1  0.51067000  0.86237000  0.98900000  1.0 2.029534444
Zr  Zr24  1  0.48933000  0.13763000  0.01100000  1.0 2.029534444
H  H1  1  0.99940000  0.19330000  0.19520000  1.0 0.1537013952
H  H2  1  0.00060000  0.80670000  0.80480000  1.0 0.1537013952
H  H3  1  0.49620000  0.30840000  0.19540000  1.0 0.1601397526
H  H4  1  0.50380000  0.69160000  0.80460000  1.0 0.1601397526
H  H5  1  0.69260000  0.30360000  0.99870000  1.0 0.1601397526
H  H6  1  0.30740000  0.69640000  0.00130000  1.0 0.1601397526
H  H7  1  0.50120000  0.19400000  0.30430000  1.0 0.1601397526
H  H8  1  0.49880000  0.80600000  0.69570000  1.0 0.1601397526
H  H9  1  0.00070000  0.30920000  0.30590000  1.0 0.1601397526
H  H10  1  0.99930000  0.69080000  0.69410000  1.0 0.1601397526
H  H11  1  0.30640000  0.50220000  0.80840000  1.0 0.1601397526
H  H12  1  0.69360000  0.49780000  0.19160000  1.0 0.1601397526
H  H13  1  0.19350000  0.98810000  0.19740000  1.0 0.1601397526
H  H14  1  0.80650000  0.01190000  0.80260000  1.0 0.1601397526
H  H15  1  0.30540000  0.19300000  0.47860000  1.0 0.1537013952
H  H16  1  0.69460000  0.80700000  0.52140000  1.0 0.1537013952
H  H17  1  0.80800000  0.19240000  0.99790000  1.0 0.1537013952
H  H18  1  0.19200000  0.80760000  0.00210000  1.0 0.1537013952
H  H19  1  0.19470000  0.00350000  0.80860000  1.0 0.1601397526
H  H20  1  0.80530000  0.99650000  0.19140000  1.0 0.1601397526
H  H21  1  0.19550000  0.30550000  0.48800000  1.0 0.1601397526
H  H22  1  0.80450000  0.69450000  0.51200000  1.0 0.1601397526
H  H23  1  0.19340000  0.49970000  0.69100000  1.0 0.1601397526
H  H24  1  0.80660000  0.50030000  0.30900000  1.0 0.1601397526
H  H25  1  0.30660000  0.98520000  0.30390000  1.0 0.1601397526
H  H26  1  0.69340000  0.01480000  0.69610000  1.0 0.1537013952
H  H27  1  0.30500000  0.99870000  0.69280000  1.0 0.1537013952
H  H28  1  0.69500000  0.00130000  0.30720000  1.0 0.1537013952
H  H29  1  0.80730000  0.30490000  0.50160000  1.0 0.1601397526
H  H30  1  0.19270000  0.69510000  0.49840000  1.0 0.1601397526
H  H31  1  0.69410000  0.19670000  0.50310000  1.0 0.1601397526
H  H32  1  0.30590000  0.80330000  0.49690000  1.0 0.1601397526
H  H33  1  0.80500000  0.47990000  0.69540000  1.0 0.1537013952
H  H34  1  0.19500000  0.52010000  0.30460000  1.0 0.1537013952
H  H35  1  0.69160000  0.48170000  0.80420000  1.0 0.1601397526
H  H36  1  0.30840000  0.51830000  0.19580000  1.0 0.1601397526
H  H37  1  0.48350000  0.30400000  0.80580000  1.0 0.1601397526
H  H38  1  0.51650000  0.69600000  0.19420000  1.0 0.1601397526
H  H39  1  0.48730000  0.19570000  0.69380000  1.0 0.1601397526
H  H40  1  0.51270000  0.80430000  0.30620000  1.0 0.1601397526
H  H41  1  0.01070000  0.30370000  0.69160000  1.0 0.1601397526
H  H42  1  0.98930000  0.69630000  0.30840000  1.0 0.1601397526
H  H43  1  0.02120000  0.19620000  0.80810000  1.0 0.1601397526
H  H44  1  0.97880000  0.80380000  0.19190000  1.0 0.1601397526
H  H45  1  0.69380000  0.69550000  0.97710000  1.0 0.1601397526
H  H46  1  0.30620000  0.30450000  0.02290000  1.0 0.1601397526
H  H47  1  0.80590000  0.80430000  0.99250000  1.0 0.1601397526
H  H48  1  0.19410000  0.19570000  0.00750000  1.0 0.1601397526
C  C1  1  0.99800000  0.21200000  0.24500000  1.0 -0.1807041064
C  C2  1  0.00200000  0.78800000  0.75500000  1.0 -0.1807041064
C  C3  1  0.50400000  0.33830000  0.30920000  1.0 0.6818763913
C  C4  1  0.49600000  0.66170000  0.69080000  1.0 0.6818763913
C  C5  1  0.50000000  0.28820000  0.24450000  1.0 -0.1912743564
C  C6  1  0.50000000  0.71180000  0.75550000  1.0 -0.1912743564
C  C7  1  0.99500000  0.34100000  0.19200000  1.0 0.6818763913
C  C8  1  0.00500000  0.65900000  0.80800000  1.0 0.6818763913
C  C9  1  0.84110000  0.31000000  0.00200000  1.0 0.6871917499
C  C10  1  0.15890000  0.69000000  0.99800000  1.0 0.6871917499
C  C11  1  0.66000000  0.19000000  0.00500000  1.0 0.6818763913
C  C12  1  0.34000000  0.81000000  0.99500000  1.0 0.6871917499
C  C13  1  0.71190000  0.25400000  0.00100000  1.0 -0.2018146902
C  C14  1  0.28810000  0.74600000  0.99900000  1.0 -0.2018146902
C  C15  1  0.50200000  0.21310000  0.25450000  1.0 -0.1912743564
C  C16  1  0.49800000  0.78690000  0.74550000  1.0 -0.1912743564
C  C17  1  0.99700000  0.15800000  0.30900000  1.0 0.6818763913
C  C18  1  0.00300000  0.84200000  0.69100000  1.0 0.6818763913
C  C19  1  0.19080000  0.50400000  0.84020000  1.0 0.6818763913
C  C20  1  0.80920000  0.49600000  0.15980000  1.0 0.6818763913
C  C21  1  0.99800000  0.29000000  0.25600000  1.0 -0.2300549387
C  C22  1  0.00200000  0.71000000  0.74400000  1.0 -0.2300549387
C  C23  1  0.25670000  0.50300000  0.78910000  1.0 -0.2128435951
C  C24  1  0.74330000  0.49700000  0.21090000  1.0 -0.2128435951
C  C25  1  0.21300000  0.98500000  0.24670000  1.0 -0.1807041064
C  C26  1  0.78700000  0.01500000  0.75330000  1.0 -0.1807041064
C  C27  1  0.25560000  0.21200000  0.48100000  1.0 -0.1588723154
C  C28  1  0.74440000  0.78800000  0.51900000  1.0 -0.1588723154
C  C29  1  0.18960000  0.15800000  0.48000000  1.0 0.6818763913
C  C30  1  0.81040000  0.84200000  0.52000000  1.0 0.6818763913
C  C31  1  0.78820000  0.24200000  0.00000000  1.0 -0.1714924202
C  C32  1  0.21180000  0.75800000  0.00000000  1.0 -0.1714924202
C  C33  1  0.24430000  0.00000000  0.78920000  1.0 -0.1912743564
C  C34  1  0.75570000  0.00000000  0.21080000  1.0 -0.1912743564
C  C35  1  0.31000000  0.99700000  0.84160000  1.0 0.6871917499
C  C36  1  0.69000000  0.00300000  0.15840000  1.0 0.6871917499
C  C37  1  0.31210000  0.33900000  0.48300000  1.0 0.6871917499
C  C38  1  0.68790000  0.66100000  0.51700000  1.0 0.6871917499
C  C39  1  0.16000000  0.98000000  0.31080000  1.0 0.6871917499
C  C40  1  0.84000000  0.02000000  0.68920000  1.0 0.6871917499
C  C41  1  0.24500000  0.28600000  0.48500000  1.0 -0.1714924202
C  C42  1  0.75500000  0.71400000  0.51500000  1.0 -0.1714924202
C  C43  1  0.24300000  0.50100000  0.71030000  1.0 -0.2402841878
C  C44  1  0.75700000  0.49900000  0.28970000  1.0 -0.2402841878
C  C45  1  0.34100000  0.98200000  0.18930000  1.0 0.6871917499
C  C46  1  0.65900000  0.01800000  0.81070000  1.0 0.6871917499
C  C47  1  0.30800000  0.50300000  0.65990000  1.0 0.6871917499
C  C48  1  0.69200000  0.49700000  0.34010000  1.0 0.6871917499
C  C49  1  0.28700000  0.98400000  0.25450000  1.0 -0.1588723154
C  C50  1  0.71300000  0.01600000  0.74550000  1.0 -0.1588723154
C  C51  1  0.18800000  0.99600000  0.65800000  1.0 0.6818763913
C  C52  1  0.81200000  0.00400000  0.34200000  1.0 0.6818763913
C  C53  1  0.25540000  0.99800000  0.71240000  1.0 -0.1807041064
C  C54  1  0.74460000  0.00200000  0.28760000  1.0 -0.1807041064
C  C55  1  0.50400000  0.15960000  0.19200000  1.0 0.6818763913
C  C56  1  0.49600000  0.84040000  0.80800000  1.0 0.6818763913
C  C57  1  0.66030000  0.30900000  0.49400000  1.0 0.6871917499
C  C58  1  0.33970000  0.69100000  0.50600000  1.0 0.6871917499
C  C59  1  0.78760000  0.25540000  0.50010000  1.0 -0.1714924202
C  C60  1  0.21240000  0.74460000  0.49990000  1.0 -0.1714924202
C  C61  1  0.71400000  0.24600000  0.50000000  1.0 -0.1807041064
C  C62  1  0.28600000  0.75400000  0.50000000  1.0 -0.1807041064
C  C63  1  0.84000000  0.19100000  0.49800000  1.0 0.6818763913
C  C64  1  0.16000000  0.80900000  0.50200000  1.0 0.6818763913
C  C65  1  0.84200000  0.48200000  0.80970000  1.0 0.6818763913
C  C66  1  0.15800000  0.51800000  0.19030000  1.0 0.6818763913
C  C67  1  0.66000000  0.48400000  0.69000000  1.0 0.6871917499
C  C68  1  0.34000000  0.51600000  0.31000000  1.0 0.6871917499
C  C69  1  0.78600000  0.48100000  0.74500000  1.0 -0.1588723154
C  C70  1  0.21400000  0.51900000  0.25500000  1.0 -0.1588723154
C  C71  1  0.71200000  0.48200000  0.75500000  1.0 -0.1807041064
C  C72  1  0.28800000  0.51800000  0.24500000  1.0 -0.1807041064
C  C73  1  0.48300000  0.25400000  0.78600000  1.0 -0.1588723154
C  C74  1  0.51700000  0.74600000  0.21400000  1.0 -0.1588723154
C  C75  1  0.48200000  0.31130000  0.66100000  1.0 0.6871917499
C  C76  1  0.51800000  0.68870000  0.33900000  1.0 0.6871917499
C  C77  1  0.48500000  0.24500000  0.71400000  1.0 -0.1588723154
C  C78  1  0.51500000  0.75500000  0.28600000  1.0 -0.1588723154
C  C79  1  0.48000000  0.19000000  0.84100000  1.0 0.6818763913
C  C80  1  0.52000000  0.81000000  0.15900000  1.0 0.6818763913
C  C81  1  0.01500000  0.25500000  0.71200000  1.0 -0.1912743564
C  C82  1  0.98500000  0.74500000  0.28800000  1.0 -0.1912743564
C  C83  1  0.01800000  0.18970000  0.66100000  1.0 0.6871917499
C  C84  1  0.98200000  0.81030000  0.33900000  1.0 0.6871917499
C  C85  1  0.01700000  0.31100000  0.83880000  1.0 0.6818763913
C  C86  1  0.98300000  0.68900000  0.16120000  1.0 0.6818763913
C  C87  1  0.01800000  0.24500000  0.78800000  1.0 -0.1807041064
C  C88  1  0.98200000  0.75500000  0.21200000  1.0 -0.1807041064
C  C89  1  0.74400000  0.71400000  0.98200000  1.0 -0.1519471091
C  C90  1  0.25600000  0.28600000  0.01800000  1.0 -0.1519471091
C  C91  1  0.81150000  0.65930000  0.98500000  1.0 0.6818763913
C  C92  1  0.18850000  0.34070000  0.01500000  1.0 0.6818763913
C  C93  1  0.75700000  0.78500000  0.98600000  1.0 -0.1588723154
C  C94  1  0.24300000  0.21500000  0.01400000  1.0 -0.1519471091
C  C95  1  0.68870000  0.83700000  0.97900000  1.0 0.6818763913
C  C96  1  0.31130000  0.16300000  0.02100000  1.0 0.6818763913
O  O1  1  0.12560000  0.19170000  0.48040000  1.0 -0.6230140281
O  O2  1  0.87440000  0.80830000  0.51960000  1.0 -0.6230140281
O  O3  1  0.81110000  0.37600000  0.99170000  1.0 -0.6590964806
O  O4  1  0.18890000  0.62400000  0.00830000  1.0 -0.6590964806
O  O5  1  0.05960000  0.04920000  0.43430000  1.0 -0.3320766297
O  O6  1  0.94040000  0.95080000  0.56570000  1.0 -0.3320766297
O  O7  1  0.58300000  0.42100000  0.42000000  1.0 -0.2018146902
O  O8  1  0.41700000  0.57900000  0.58000000  1.0 -0.1912743564
O  O9  1  0.37690000  0.49130000  0.68970000  1.0 -0.7078362537
O  O10  1  0.62310000  0.50870000  0.31030000  1.0 -0.7046294642
O  O11  1  0.94940000  0.43150000  0.93980000  1.0 -0.3208206502
O  O12  1  0.05060000  0.56850000  0.06020000  1.0 -0.3208206502
O  O13  1  0.92150000  0.56590000  0.91090000  1.0 -0.2453976256
O  O14  1  0.07850000  0.43410000  0.08910000  1.0 -0.2453976256
O  O15  1  0.29150000  0.50730000  0.58910000  1.0 -0.6509056776
O  O16  1  0.70850000  0.49270000  0.41090000  1.0 -0.6509056776
O  O17  1  0.41080000  0.42240000  0.56510000  1.0 -0.265867306
O  O18  1  0.58920000  0.57760000  0.43490000  1.0 -0.265867306
O  O19  1  0.05240000  0.93300000  0.44130000  1.0 -0.3074351904
O  O20  1  0.94760000  0.06700000  0.55870000  1.0 -0.3074351904
O  O21  1  0.54920000  0.43360000  0.56010000  1.0 -0.3074351904
O  O22  1  0.45080000  0.56640000  0.43990000  1.0 -0.3074351904
O  O23  1  0.19150000  0.97870000  0.37650000  1.0 -0.6509056776
O  O24  1  0.80850000  0.02130000  0.62350000  1.0 -0.6509056776
O  O25  1  0.09040000  0.42180000  0.93450000  1.0 -0.2300549387
O  O26  1  0.90960000  0.57820000  0.06550000  1.0 -0.2300549387
O  O27  1  0.69000000  0.12430000  0.99170000  1.0 -0.6590964806
O  O28  1  0.31000000  0.87570000  0.00830000  1.0 -0.6590964806
O  O29  1  0.49030000  0.30890000  0.37600000  1.0 -0.6803469789
O  O30  1  0.50970000  0.69110000  0.62400000  1.0 -0.6803469789
O  O31  1  0.50910000  0.40970000  0.29110000  1.0 -0.6590964806
O  O32  1  0.49090000  0.59030000  0.70890000  1.0 -0.6590964806
O  O33  1  0.49230000  0.18980000  0.12430000  1.0 -0.6893000853
O  O34  1  0.50770000  0.81020000  0.87570000  1.0 -0.6893000853
O  O35  1  0.00850000  0.31120000  0.12470000  1.0 -0.6893000853
O  O36  1  0.99150000  0.68880000  0.87530000  1.0 -0.6893000853
O  O37  1  0.99280000  0.09050000  0.29120000  1.0 -0.6034588647
O  O38  1  0.00720000  0.90950000  0.70880000  1.0 -0.6034588647
O  O39  1  0.29040000  0.40900000  0.48010000  1.0 -0.6509056776
O  O40  1  0.70960000  0.59100000  0.51990000  1.0 -0.6401814562
O  O41  1  0.20840000  0.99060000  0.59100000  1.0 -0.6068288815
O  O42  1  0.79160000  0.00940000  0.40900000  1.0 -0.6068288815
O  O43  1  0.37690000  0.00780000  0.81090000  1.0 -0.6672137571
O  O44  1  0.62310000  0.99220000  0.18910000  1.0 -0.6672137571
O  O45  1  0.12290000  0.00860000  0.68970000  1.0 -0.6590964806
O  O46  1  0.87710000  0.99140000  0.31030000  1.0 -0.6590964806
O  O47  1  0.30860000  0.98080000  0.12470000  1.0 -0.6322941986
O  O48  1  0.69140000  0.01920000  0.87530000  1.0 -0.6322941986
O  O49  1  0.40880000  0.98170000  0.21050000  1.0 -0.6068288815
O  O50  1  0.59120000  0.01830000  0.78950000  1.0 -0.6068288815
O  O51  1  0.50970000  0.08970000  0.20910000  1.0 -0.6401814562
O  O52  1  0.49030000  0.91030000  0.79090000  1.0 -0.6401814562
O  O53  1  0.08000000  0.92100000  0.58200000  1.0 -0.2018146902
O  O54  1  0.92000000  0.07900000  0.41800000  1.0 -0.2018146902
O  O55  1  0.29030000  0.99270000  0.90820000  1.0 -0.5878580493
O  O56  1  0.70970000  0.00730000  0.09180000  1.0 -0.5878580493
O  O57  1  0.59020000  0.20880000  0.00790000  1.0 -0.6401814562
O  O58  1  0.40980000  0.79120000  0.99210000  1.0 -0.6401814562
O  O59  1  0.00690000  0.18980000  0.37600000  1.0 -0.6803469789
O  O60  1  0.99310000  0.81020000  0.62400000  1.0 -0.6803469789
O  O61  1  0.90980000  0.29070000  0.00850000  1.0 -0.6322941986
O  O62  1  0.09020000  0.70930000  0.99150000  1.0 -0.6230140281
O  O63  1  0.37730000  0.30770000  0.48000000  1.0 -0.6401814562
O  O64  1  0.62270000  0.69230000  0.52000000  1.0 -0.6401814562
O  O65  1  0.99100000  0.41130000  0.20970000  1.0 -0.6401814562
O  O66  1  0.00900000  0.58870000  0.79030000  1.0 -0.6401814562
O  O67  1  0.09090000  0.98090000  0.28950000  1.0 -0.6322941986
O  O68  1  0.90910000  0.01910000  0.71050000  1.0 -0.6322941986
O  O69  1  0.12200000  0.49280000  0.81000000  1.0 -0.7046294642
O  O70  1  0.87800000  0.50720000  0.19000000  1.0 -0.7046294642
O  O71  1  0.20970000  0.09180000  0.48120000  1.0 -0.5765721631
O  O72  1  0.79030000  0.90820000  0.51880000  1.0 -0.5765721631
O  O73  1  0.55940000  0.54930000  0.56660000  1.0 -0.3208206502
O  O74  1  0.44060000  0.45070000  0.43340000  1.0 -0.3208206502
O  O75  1  0.92000000  0.41900000  0.08200000  1.0 -0.1714924202
O  O76  1  0.08000000  0.58100000  0.91800000  1.0 -0.1714924202
O  O77  1  0.20890000  0.50820000  0.91160000  1.0 -0.6672137571
O  O78  1  0.79110000  0.49180000  0.08840000  1.0 -0.6672137571
O  O79  1  0.93460000  0.94060000  0.45010000  1.0 -0.3490323953
O  O80  1  0.06540000  0.05940000  0.54990000  1.0 -0.3490323953
O  O81  1  0.43900000  0.93800000  0.94000000  1.0 -0.3789319304
O  O82  1  0.56100000  0.06200000  0.06000000  1.0 -0.3789319304
O  O83  1  0.44960000  0.93330000  0.06070000  1.0 -0.3567705584
O  O84  1  0.55040000  0.06670000  0.93930000  1.0 -0.3567705584
O  O85  1  0.59100000  0.92210000  0.06580000  1.0 -0.2402841878
O  O86  1  0.40900000  0.07790000  0.93420000  1.0 -0.2402841878
O  O87  1  0.55700000  0.94950000  0.93380000  1.0 -0.3320766297
O  O88  1  0.44300000  0.05050000  0.06620000  1.0 -0.3320766297
O  O89  1  0.80980000  0.12340000  0.51000000  1.0 -0.6893000853
O  O90  1  0.19020000  0.87660000  0.49000000  1.0 -0.6893000853
O  O91  1  0.68910000  0.37610000  0.50640000  1.0 -0.6672137571
O  O92  1  0.31090000  0.62390000  0.49360000  1.0 -0.6672137571
O  O93  1  0.59040000  0.29060000  0.49090000  1.0 -0.6401814562
O  O94  1  0.40960000  0.70940000  0.50910000  1.0 -0.6401814562
O  O95  1  0.90950000  0.21080000  0.49160000  1.0 -0.6401814562
O  O96  1  0.09050000  0.78920000  0.50840000  1.0 -0.6401814562
O  O97  1  0.69120000  0.47950000  0.62230000  1.0 -0.6803469789
O  O98  1  0.30880000  0.52050000  0.37770000  1.0 -0.6803469789
O  O99  1  0.80730000  0.48010000  0.87580000  1.0 -0.6672137571
O  O100  1  0.19270000  0.51990000  0.12420000  1.0 -0.6672137571
O  O101  1  0.59030000  0.48120000  0.71120000  1.0 -0.6401814562
O  O102  1  0.40970000  0.51880000  0.28880000  1.0 -0.6401814562
O  O103  1  0.91010000  0.48110000  0.78990000  1.0 -0.6068288815
O  O104  1  0.08990000  0.51890000  0.21010000  1.0 -0.6068288815
O  O105  1  0.47900000  0.12170000  0.80700000  1.0 -0.6893000853
O  O106  1  0.52100000  0.87830000  0.19300000  1.0 -0.6893000853
O  O107  1  0.47980000  0.37680000  0.69020000  1.0 -0.6230140281
O  O108  1  0.52020000  0.62320000  0.30980000  1.0 -0.6230140281
O  O109  1  0.48100000  0.21020000  0.90780000  1.0 -0.5878580493
O  O110  1  0.51900000  0.78980000  0.09220000  1.0 -0.5878580493
O  O111  1  0.48170000  0.28860000  0.59180000  1.0 -0.6322941986
O  O112  1  0.51830000  0.71140000  0.40820000  1.0 -0.6322941986
O  O113  1  0.02050000  0.37630000  0.80740000  1.0 -0.6401814562
O  O114  1  0.97950000  0.62370000  0.19260000  1.0 -0.6401814562
O  O115  1  0.02060000  0.28930000  0.90880000  1.0 -0.6590964806
O  O116  1  0.97940000  0.71070000  0.09120000  1.0 -0.6590964806
O  O117  1  0.01660000  0.21090000  0.59130000  1.0 -0.6509056776
O  O118  1  0.98340000  0.78910000  0.40870000  1.0 -0.6509056776
O  O119  1  0.01930000  0.12290000  0.69140000  1.0 -0.6672137571
O  O120  1  0.98070000  0.87710000  0.30860000  1.0 -0.6672137571
O  O121  1  0.78890000  0.58940000  0.98130000  1.0 -0.6401814562
O  O122  1  0.21110000  0.41060000  0.01870000  1.0 -0.6401814562
O  O123  1  0.71110000  0.90980000  0.98190000  1.0 -0.6893000853
O  O124  1  0.28890000  0.09020000  0.01810000  1.0 -0.6893000853
O  O125  1  0.87710000  0.69000000  0.98130000  1.0 -0.6322941986
O  O126  1  0.12290000  0.31000000  0.01870000  1.0 -0.6401814562
O  O127  1  0.62410000  0.80840000  0.97920000  1.0 -0.6068288815
O  O128  1  0.37590000  0.19160000  0.02080000  1.0 -0.6068288815
O  O129  1  0.90950000  0.92180000  0.43440000  1.0 -0.2402841878
O  O130  1  0.09050000  0.07820000  0.56560000  1.0 -0.2402841878
O  O131  1  0.56000000  0.44100000  0.44100000  1.0 -0.3789319304
O  O132  1  0.44000000  0.55900000  0.55900000  1.0 -0.3789319304
O  O133  1  0.57890000  0.56680000  0.59130000  1.0 -0.2300549387
O  O134  1  0.42110000  0.43320000  0.40870000  1.0 -0.2300549387
O  O135  1  0.43640000  0.44110000  0.54720000  1.0 -0.2934921813
O  O136  1  0.56360000  0.55890000  0.45280000  1.0 -0.2934921813
O  O137  1  0.56600000  0.41000000  0.57960000  1.0 -0.2402841878
O  O138  1  0.43400000  0.59000000  0.42040000  1.0 -0.2402841878
O  O139  1  0.93900000  0.43900000  0.06000000  1.0 -0.3934891504
O  O140  1  0.06100000  0.56100000  0.94000000  1.0 -0.3934891504
O  O141  1  0.06620000  0.43980000  0.95020000  1.0 -0.3490323953
O  O142  1  0.93380000  0.56020000  0.04980000  1.0 -0.3490323953
O  O143  1  0.94140000  0.54610000  0.93270000  1.0 -0.3379959893
O  O144  1  0.05860000  0.45390000  0.06730000  1.0 -0.3379959893
O  O145  1  0.93100000  0.41000000  0.92300000  1.0 -0.2402841878
O  O146  1  0.06900000  0.59000000  0.07700000  1.0 -0.2453976256
O  O147  1  0.56690000  0.94140000  0.04880000  1.0 -0.3490323953
O  O148  1  0.43310000  0.05860000  0.95120000  1.0 -0.3490323953
O  O149  1  0.57830000  0.93200000  0.91000000  1.0 -0.2402841878
O  O150  1  0.42170000  0.06800000  0.09000000  1.0 -0.2402841878
O  O151  1  0.42000000  0.92100000  0.91900000  1.0 -0.2018146902
O  O152  1  0.58000000  0.07900000  0.08100000  1.0 -0.2018146902
O  O153  1  0.43310000  0.90900000  0.07800000  1.0 -0.2402841878
O  O154  1  0.56690000  0.09100000  0.92200000  1.0 -0.2300549387
O  O155  1  0.06000000  0.93900000  0.55800000  1.0 -0.3742046934
O  O156  1  0.94000000  0.06100000  0.44200000  1.0 -0.3742046934
O  O157  1  0.06490000  0.90800000  0.42290000  1.0 -0.2453976256
O  O158  1  0.93510000  0.09200000  0.57710000  1.0 -0.2402841878
O  O159  1  0.07840000  0.06580000  0.41160000  1.0 -0.2585297507
O  O160  1  0.92160000  0.93420000  0.58840000  1.0 -0.2585297507
