# DDEC6 charges by PACMAN v1.1 (https://github.com/mtap-research/PACMAN-charge/)
data_BOHJOZ_ASR_pacman
_symmetry_space_group_name_H-M   'P 1'
_cell_length_a   17.93090000
_cell_length_b   17.93090000
_cell_length_c   17.93090000
_cell_angle_alpha   90.00000000
_cell_angle_beta   90.00000000
_cell_angle_gamma   90.00000000
_symmetry_Int_Tables_number   1
_chemical_formula_structural   Zr3H6(C3O5)4
_chemical_formula_sum   'Zr24 H48 C96 O160'
_cell_volume   5765.09230980
_cell_formula_units_Z   8
loop_
 _symmetry_equiv_pos_site_id
 _symmetry_equiv_pos_as_xyz
  1  'x, y, z'
loop_
 _atom_site_type_symbol
 _atom_site_label
 _atom_site_symmetry_multiplicity
 _atom_site_fract_x
 _atom_site_fract_y
 _atom_site_fract_z
 _atom_site_occupancy
 _atom_site_charge
Zr  Zr1  1  0.11231000  0.26117000  0.76197000  1.0 2.0506203886
Zr  Zr2  1  0.88769000  0.73883000  0.76197000  1.0 2.0506203886
Zr  Zr3  1  0.88769000  0.26117000  0.23803000  1.0 2.0506203886
Zr  Zr4  1  0.11231000  0.73883000  0.23803000  1.0 2.0506203886
Zr  Zr5  1  0.76197000  0.11231000  0.26117000  1.0 2.0506203886
Zr  Zr6  1  0.76197000  0.88769000  0.73883000  1.0 2.0506203886
Zr  Zr7  1  0.23803000  0.88769000  0.26117000  1.0 2.0506203886
Zr  Zr8  1  0.23803000  0.11231000  0.73883000  1.0 2.0506203886
Zr  Zr9  1  0.26117000  0.76197000  0.11231000  1.0 2.0506203886
Zr  Zr10  1  0.73883000  0.76197000  0.88769000  1.0 2.0506203886
Zr  Zr11  1  0.26117000  0.23803000  0.88769000  1.0 2.0506203886
Zr  Zr12  1  0.73883000  0.23803000  0.11231000  1.0 2.0506203886
Zr  Zr13  1  0.38769000  0.23883000  0.73803000  1.0 2.0506203886
Zr  Zr14  1  0.61231000  0.76117000  0.73803000  1.0 2.0506203886
Zr  Zr15  1  0.61231000  0.23883000  0.26197000  1.0 2.0506203886
Zr  Zr16  1  0.38769000  0.76117000  0.26197000  1.0 2.0506203886
Zr  Zr17  1  0.73803000  0.38769000  0.23883000  1.0 2.0506203886
Zr  Zr18  1  0.73803000  0.61231000  0.76117000  1.0 2.0506203886
Zr  Zr19  1  0.26197000  0.61231000  0.23883000  1.0 2.0506203886
Zr  Zr20  1  0.26197000  0.38769000  0.76117000  1.0 2.0506203886
Zr  Zr21  1  0.23883000  0.73803000  0.38769000  1.0 2.0506203886
Zr  Zr22  1  0.76117000  0.73803000  0.61231000  1.0 2.0506203886
Zr  Zr23  1  0.23883000  0.26197000  0.61231000  1.0 2.0506203886
Zr  Zr24  1  0.76117000  0.26197000  0.38769000  1.0 2.0506203886
H  H1  1  0.05670000  0.55420000  0.77560000  1.0 0.156620894
H  H2  1  0.94330000  0.44580000  0.77560000  1.0 0.156620894
H  H3  1  0.94330000  0.55420000  0.22440000  1.0 0.156620894
H  H4  1  0.05670000  0.44580000  0.22440000  1.0 0.156620894
H  H5  1  0.77560000  0.05670000  0.55420000  1.0 0.156620894
H  H6  1  0.77560000  0.94330000  0.44580000  1.0 0.156620894
H  H7  1  0.22440000  0.94330000  0.55420000  1.0 0.156620894
H  H8  1  0.22440000  0.05670000  0.44580000  1.0 0.156620894
H  H9  1  0.55420000  0.77560000  0.05670000  1.0 0.156620894
H  H10  1  0.44580000  0.77560000  0.94330000  1.0 0.156620894
H  H11  1  0.55420000  0.22440000  0.94330000  1.0 0.156620894
H  H12  1  0.44580000  0.22440000  0.05670000  1.0 0.156620894
H  H13  1  0.44330000  0.94580000  0.72440000  1.0 0.156620894
H  H14  1  0.55670000  0.05420000  0.72440000  1.0 0.156620894
H  H15  1  0.55670000  0.94580000  0.27560000  1.0 0.156620894
H  H16  1  0.44330000  0.05420000  0.27560000  1.0 0.156620894
H  H17  1  0.72440000  0.44330000  0.94580000  1.0 0.156620894
H  H18  1  0.72440000  0.55670000  0.05420000  1.0 0.156620894
H  H19  1  0.27560000  0.55670000  0.94580000  1.0 0.156620894
H  H20  1  0.27560000  0.44330000  0.05420000  1.0 0.156620894
H  H21  1  0.94580000  0.72440000  0.44330000  1.0 0.156620894
H  H22  1  0.05420000  0.72440000  0.55670000  1.0 0.156620894
H  H23  1  0.94580000  0.27560000  0.55670000  1.0 0.156620894
H  H24  1  0.05420000  0.27560000  0.44330000  1.0 0.156620894
H  H25  1  0.94530000  0.05650000  0.74990000  1.0 0.156620894
H  H26  1  0.05470000  0.94350000  0.74990000  1.0 0.156620894
H  H27  1  0.05470000  0.05650000  0.25010000  1.0 0.156620894
H  H28  1  0.94530000  0.94350000  0.25010000  1.0 0.156620894
H  H29  1  0.74990000  0.94530000  0.05650000  1.0 0.156620894
H  H30  1  0.74990000  0.05470000  0.94350000  1.0 0.156620894
H  H31  1  0.25010000  0.05470000  0.05650000  1.0 0.156620894
H  H32  1  0.25010000  0.94530000  0.94350000  1.0 0.156620894
H  H33  1  0.05650000  0.74990000  0.94530000  1.0 0.156620894
H  H34  1  0.94350000  0.74990000  0.05470000  1.0 0.156620894
H  H35  1  0.05650000  0.25010000  0.05470000  1.0 0.156620894
H  H36  1  0.94350000  0.25010000  0.94530000  1.0 0.156620894
H  H37  1  0.55470000  0.44350000  0.75010000  1.0 0.156620894
H  H38  1  0.44530000  0.55650000  0.75010000  1.0 0.156620894
H  H39  1  0.44530000  0.44350000  0.24990000  1.0 0.156620894
H  H40  1  0.55470000  0.55650000  0.24990000  1.0 0.156620894
H  H41  1  0.75010000  0.55470000  0.44350000  1.0 0.156620894
H  H42  1  0.75010000  0.44530000  0.55650000  1.0 0.156620894
H  H43  1  0.24990000  0.44530000  0.44350000  1.0 0.156620894
H  H44  1  0.24990000  0.55470000  0.55650000  1.0 0.156620894
H  H45  1  0.44350000  0.75010000  0.55470000  1.0 0.156620894
H  H46  1  0.55650000  0.75010000  0.44530000  1.0 0.156620894
H  H47  1  0.44350000  0.24990000  0.44530000  1.0 0.156620894
H  H48  1  0.55650000  0.24990000  0.55470000  1.0 0.156620894
C  C1  1  0.08980000  0.43950000  0.77410000  1.0 0.6908780353
C  C2  1  0.91020000  0.56050000  0.77410000  1.0 0.6908780353
C  C3  1  0.91020000  0.43950000  0.22590000  1.0 0.6908780353
C  C4  1  0.08980000  0.56050000  0.22590000  1.0 0.6908780353
C  C5  1  0.77410000  0.08980000  0.43950000  1.0 0.6908780353
C  C6  1  0.77410000  0.91020000  0.56050000  1.0 0.6908780353
C  C7  1  0.22590000  0.91020000  0.43950000  1.0 0.6908780353
C  C8  1  0.22590000  0.08980000  0.56050000  1.0 0.6908780353
C  C9  1  0.43950000  0.77410000  0.08980000  1.0 0.6908780353
C  C10  1  0.56050000  0.77410000  0.91020000  1.0 0.6908780353
C  C11  1  0.43950000  0.22590000  0.91020000  1.0 0.6908780353
C  C12  1  0.56050000  0.22590000  0.08980000  1.0 0.6908780353
C  C13  1  0.41020000  0.06050000  0.72590000  1.0 0.6908780353
C  C14  1  0.58980000  0.93950000  0.72590000  1.0 0.6908780353
C  C15  1  0.58980000  0.06050000  0.27410000  1.0 0.6908780353
C  C16  1  0.41020000  0.93950000  0.27410000  1.0 0.6908780353
C  C17  1  0.72590000  0.41020000  0.06050000  1.0 0.6908780353
C  C18  1  0.72590000  0.58980000  0.93950000  1.0 0.6908780353
C  C19  1  0.27410000  0.58980000  0.06050000  1.0 0.6908780353
C  C20  1  0.27410000  0.41020000  0.93950000  1.0 0.6908780353
C  C21  1  0.06050000  0.72590000  0.41020000  1.0 0.6908780353
C  C22  1  0.93950000  0.72590000  0.58980000  1.0 0.6908780353
C  C23  1  0.06050000  0.27410000  0.58980000  1.0 0.6908780353
C  C24  1  0.93950000  0.27410000  0.41020000  1.0 0.6908780353
C  C25  1  0.03710000  0.50500000  0.77500000  1.0 -0.1790653622
C  C26  1  0.96290000  0.49500000  0.77500000  1.0 -0.1790653622
C  C27  1  0.96290000  0.50500000  0.22500000  1.0 -0.1790653622
C  C28  1  0.03710000  0.49500000  0.22500000  1.0 -0.1790653622
C  C29  1  0.77500000  0.03710000  0.50500000  1.0 -0.1790653622
C  C30  1  0.77500000  0.96290000  0.49500000  1.0 -0.1790653622
C  C31  1  0.22500000  0.96290000  0.50500000  1.0 -0.1790653622
C  C32  1  0.22500000  0.03710000  0.49500000  1.0 -0.1790653622
C  C33  1  0.50500000  0.77500000  0.03710000  1.0 -0.1790653622
C  C34  1  0.49500000  0.77500000  0.96290000  1.0 -0.1790653622
C  C35  1  0.50500000  0.22500000  0.96290000  1.0 -0.1790653622
C  C36  1  0.49500000  0.22500000  0.03710000  1.0 -0.1790653622
C  C37  1  0.46290000  0.99500000  0.72500000  1.0 -0.1790653622
C  C38  1  0.53710000  0.00500000  0.72500000  1.0 -0.1790653622
C  C39  1  0.53710000  0.99500000  0.27500000  1.0 -0.1790653622
C  C40  1  0.46290000  0.00500000  0.27500000  1.0 -0.1790653622
C  C41  1  0.72500000  0.46290000  0.99500000  1.0 -0.1790653622
C  C42  1  0.72500000  0.53710000  0.00500000  1.0 -0.1790653622
C  C43  1  0.27500000  0.53710000  0.99500000  1.0 -0.1790653622
C  C44  1  0.27500000  0.46290000  0.00500000  1.0 -0.1790653622
C  C45  1  0.99500000  0.72500000  0.46290000  1.0 -0.1790653622
C  C46  1  0.00500000  0.72500000  0.53710000  1.0 -0.1790653622
C  C47  1  0.99500000  0.27500000  0.53710000  1.0 -0.1790653622
C  C48  1  0.00500000  0.27500000  0.46290000  1.0 -0.1790653622
C  C49  1  0.06010000  0.09010000  0.75040000  1.0 0.6908780353
C  C50  1  0.93990000  0.90990000  0.75040000  1.0 0.6908780353
C  C51  1  0.93990000  0.09010000  0.24960000  1.0 0.6908780353
C  C52  1  0.06010000  0.90990000  0.24960000  1.0 0.6908780353
C  C53  1  0.75040000  0.06010000  0.09010000  1.0 0.6908780353
C  C54  1  0.75040000  0.93990000  0.90990000  1.0 0.6908780353
C  C55  1  0.24960000  0.93990000  0.09010000  1.0 0.6908780353
C  C56  1  0.24960000  0.06010000  0.90990000  1.0 0.6908780353
C  C57  1  0.09010000  0.75040000  0.06010000  1.0 0.6908780353
C  C58  1  0.90990000  0.75040000  0.93990000  1.0 0.6908780353
C  C59  1  0.09010000  0.24960000  0.93990000  1.0 0.6908780353
C  C60  1  0.90990000  0.24960000  0.06010000  1.0 0.6908780353
C  C61  1  0.43990000  0.40990000  0.74960000  1.0 0.6908780353
C  C62  1  0.56010000  0.59010000  0.74960000  1.0 0.6908780353
C  C63  1  0.56010000  0.40990000  0.25040000  1.0 0.6908780353
C  C64  1  0.43990000  0.59010000  0.25040000  1.0 0.6908780353
C  C65  1  0.74960000  0.43990000  0.40990000  1.0 0.6908780353
C  C66  1  0.74960000  0.56010000  0.59010000  1.0 0.6908780353
C  C67  1  0.25040000  0.56010000  0.40990000  1.0 0.6908780353
C  C68  1  0.25040000  0.43990000  0.59010000  1.0 0.6908780353
C  C69  1  0.40990000  0.74960000  0.43990000  1.0 0.6908780353
C  C70  1  0.59010000  0.74960000  0.56010000  1.0 0.6908780353
C  C71  1  0.40990000  0.25040000  0.56010000  1.0 0.6908780353
C  C72  1  0.59010000  0.25040000  0.43990000  1.0 0.6908780353
C  C73  1  0.99470000  0.03720000  0.75010000  1.0 -0.1790653622
C  C74  1  0.00530000  0.96280000  0.75010000  1.0 -0.1790653622
C  C75  1  0.00530000  0.03720000  0.24990000  1.0 -0.1790653622
C  C76  1  0.99470000  0.96280000  0.24990000  1.0 -0.1790653622
C  C77  1  0.75010000  0.99470000  0.03720000  1.0 -0.1790653622
C  C78  1  0.75010000  0.00530000  0.96280000  1.0 -0.1790653622
C  C79  1  0.24990000  0.00530000  0.03720000  1.0 -0.1790653622
C  C80  1  0.24990000  0.99470000  0.96280000  1.0 -0.1790653622
C  C81  1  0.03720000  0.75010000  0.99470000  1.0 -0.1790653622
C  C82  1  0.96280000  0.75010000  0.00530000  1.0 -0.1790653622
C  C83  1  0.03720000  0.24990000  0.00530000  1.0 -0.1790653622
C  C84  1  0.96280000  0.24990000  0.99470000  1.0 -0.1790653622
C  C85  1  0.50530000  0.46280000  0.74990000  1.0 -0.1790653622
C  C86  1  0.49470000  0.53720000  0.74990000  1.0 -0.1790653622
C  C87  1  0.49470000  0.46280000  0.25010000  1.0 -0.1790653622
C  C88  1  0.50530000  0.53720000  0.25010000  1.0 -0.1790653622
C  C89  1  0.74990000  0.50530000  0.46280000  1.0 -0.1790653622
C  C90  1  0.74990000  0.49470000  0.53720000  1.0 -0.1790653622
C  C91  1  0.25010000  0.49470000  0.46280000  1.0 -0.1790653622
C  C92  1  0.25010000  0.50530000  0.53720000  1.0 -0.1790653622
C  C93  1  0.46280000  0.74990000  0.50530000  1.0 -0.1790653622
C  C94  1  0.53720000  0.74990000  0.49470000  1.0 -0.1790653622
C  C95  1  0.46280000  0.25010000  0.49470000  1.0 -0.1790653622
C  C96  1  0.53720000  0.25010000  0.50530000  1.0 -0.1790653622
O  O1  1  0.20070000  0.30900000  0.81870000  1.0 -0.3638906065
O  O2  1  0.79930000  0.69100000  0.81870000  1.0 -0.3638906065
O  O3  1  0.79930000  0.30900000  0.18130000  1.0 -0.3638906065
O  O4  1  0.20070000  0.69100000  0.18130000  1.0 -0.3638906065
O  O5  1  0.81870000  0.20070000  0.30900000  1.0 -0.3638906065
O  O6  1  0.81870000  0.79930000  0.69100000  1.0 -0.3638906065
O  O7  1  0.18130000  0.79930000  0.30900000  1.0 -0.3638906065
O  O8  1  0.18130000  0.20070000  0.69100000  1.0 -0.3638906065
O  O9  1  0.30900000  0.81870000  0.20070000  1.0 -0.3638906065
O  O10  1  0.69100000  0.81870000  0.79930000  1.0 -0.3638906065
O  O11  1  0.30900000  0.18130000  0.79930000  1.0 -0.3638906065
O  O12  1  0.69100000  0.18130000  0.20070000  1.0 -0.3638906065
O  O13  1  0.29930000  0.19100000  0.68130000  1.0 -0.3638906065
O  O14  1  0.70070000  0.80900000  0.68130000  1.0 -0.3638906065
O  O15  1  0.70070000  0.19100000  0.31870000  1.0 -0.3638906065
O  O16  1  0.29930000  0.80900000  0.31870000  1.0 -0.3638906065
O  O17  1  0.68130000  0.29930000  0.19100000  1.0 -0.3638906065
O  O18  1  0.68130000  0.70070000  0.80900000  1.0 -0.3638906065
O  O19  1  0.31870000  0.70070000  0.19100000  1.0 -0.3638906065
O  O20  1  0.31870000  0.29930000  0.80900000  1.0 -0.3638906065
O  O21  1  0.19100000  0.68130000  0.29930000  1.0 -0.3638906065
O  O22  1  0.80900000  0.68130000  0.70070000  1.0 -0.3638906065
O  O23  1  0.19100000  0.31870000  0.70070000  1.0 -0.3638906065
O  O24  1  0.80900000  0.31870000  0.29930000  1.0 -0.3638906065
O  O25  1  0.06060000  0.37350000  0.77400000  1.0 -0.6558809082
O  O26  1  0.93940000  0.62650000  0.77400000  1.0 -0.6558809082
O  O27  1  0.93940000  0.37350000  0.22600000  1.0 -0.6558809082
O  O28  1  0.06060000  0.62650000  0.22600000  1.0 -0.6558809082
O  O29  1  0.77400000  0.06060000  0.37350000  1.0 -0.6558809082
O  O30  1  0.77400000  0.93940000  0.62650000  1.0 -0.6558809082
O  O31  1  0.22600000  0.93940000  0.37350000  1.0 -0.6558809082
O  O32  1  0.22600000  0.06060000  0.62650000  1.0 -0.6558809082
O  O33  1  0.37350000  0.77400000  0.06060000  1.0 -0.6558809082
O  O34  1  0.62650000  0.77400000  0.93940000  1.0 -0.6558809082
O  O35  1  0.37350000  0.22600000  0.93940000  1.0 -0.6558809082
O  O36  1  0.62650000  0.22600000  0.06060000  1.0 -0.6558809082
O  O37  1  0.43940000  0.12650000  0.72600000  1.0 -0.6558809082
O  O38  1  0.56060000  0.87350000  0.72600000  1.0 -0.6558809082
O  O39  1  0.56060000  0.12650000  0.27400000  1.0 -0.6558809082
O  O40  1  0.43940000  0.87350000  0.27400000  1.0 -0.6558809082
O  O41  1  0.72600000  0.43940000  0.12650000  1.0 -0.6558809082
O  O42  1  0.72600000  0.56060000  0.87350000  1.0 -0.6558809082
O  O43  1  0.27400000  0.56060000  0.12650000  1.0 -0.6558809082
O  O44  1  0.27400000  0.43940000  0.87350000  1.0 -0.6558809082
O  O45  1  0.12650000  0.72600000  0.43940000  1.0 -0.6558809082
O  O46  1  0.87350000  0.72600000  0.56060000  1.0 -0.6558809082
O  O47  1  0.12650000  0.27400000  0.56060000  1.0 -0.6558809082
O  O48  1  0.87350000  0.27400000  0.43940000  1.0 -0.6558809082
O  O49  1  0.17110000  0.17110000  0.82890000  1.0 -0.2101573666
O  O50  1  0.82890000  0.82890000  0.82890000  1.0 -0.2101573666
O  O51  1  0.82890000  0.17110000  0.17110000  1.0 -0.2101573666
O  O52  1  0.17110000  0.82890000  0.17110000  1.0 -0.2101573666
O  O53  1  0.32890000  0.32890000  0.67110000  1.0 -0.2101573666
O  O54  1  0.67110000  0.67110000  0.67110000  1.0 -0.2101573666
O  O55  1  0.67110000  0.32890000  0.32890000  1.0 -0.2101573666
O  O56  1  0.32890000  0.67110000  0.32890000  1.0 -0.2101573666
O  O57  1  0.04080000  0.15950000  0.75860000  1.0 -0.6506374984
O  O58  1  0.95920000  0.84050000  0.75860000  1.0 -0.6506374984
O  O59  1  0.95920000  0.15950000  0.24140000  1.0 -0.6506374984
O  O60  1  0.04080000  0.84050000  0.24140000  1.0 -0.6506374984
O  O61  1  0.75860000  0.04080000  0.15950000  1.0 -0.6506374984
O  O62  1  0.75860000  0.95920000  0.84050000  1.0 -0.6506374984
O  O63  1  0.24140000  0.95920000  0.15950000  1.0 -0.6506374984
O  O64  1  0.24140000  0.04080000  0.84050000  1.0 -0.6506374984
O  O65  1  0.15950000  0.75860000  0.04080000  1.0 -0.6506374984
O  O66  1  0.84050000  0.75860000  0.95920000  1.0 -0.6506374984
O  O67  1  0.15950000  0.24140000  0.95920000  1.0 -0.6506374984
O  O68  1  0.84050000  0.24140000  0.04080000  1.0 -0.6506374984
O  O69  1  0.45920000  0.34050000  0.74140000  1.0 -0.6506374984
O  O70  1  0.54080000  0.65950000  0.74140000  1.0 -0.6506374984
O  O71  1  0.54080000  0.34050000  0.25860000  1.0 -0.6506374984
O  O72  1  0.45920000  0.65950000  0.25860000  1.0 -0.6506374984
O  O73  1  0.74140000  0.45920000  0.34050000  1.0 -0.6506374984
O  O74  1  0.74140000  0.54080000  0.65950000  1.0 -0.6506374984
O  O75  1  0.25860000  0.54080000  0.34050000  1.0 -0.6506374984
O  O76  1  0.25860000  0.45920000  0.65950000  1.0 -0.6506374984
O  O77  1  0.34050000  0.74140000  0.45920000  1.0 -0.6506374984
O  O78  1  0.65950000  0.74140000  0.54080000  1.0 -0.6506374984
O  O79  1  0.34050000  0.25860000  0.54080000  1.0 -0.6506374984
O  O80  1  0.65950000  0.25860000  0.45920000  1.0 -0.6506374984
O  O81  1  0.16010000  0.45820000  0.77390000  1.0 -0.6558809082
O  O82  1  0.83990000  0.54180000  0.77390000  1.0 -0.6558809082
O  O83  1  0.83990000  0.45820000  0.22610000  1.0 -0.6558809082
O  O84  1  0.16010000  0.54180000  0.22610000  1.0 -0.6558809082
O  O85  1  0.77390000  0.16010000  0.45820000  1.0 -0.6558809082
O  O86  1  0.77390000  0.83990000  0.54180000  1.0 -0.6558809082
O  O87  1  0.22610000  0.83990000  0.45820000  1.0 -0.6558809082
O  O88  1  0.22610000  0.16010000  0.54180000  1.0 -0.6558809082
O  O89  1  0.45820000  0.77390000  0.16010000  1.0 -0.6558809082
O  O90  1  0.54180000  0.77390000  0.83990000  1.0 -0.6558809082
O  O91  1  0.45820000  0.22610000  0.83990000  1.0 -0.6558809082
O  O92  1  0.54180000  0.22610000  0.16010000  1.0 -0.6558809082
O  O93  1  0.33990000  0.04180000  0.72610000  1.0 -0.6558809082
O  O94  1  0.66010000  0.95820000  0.72610000  1.0 -0.6558809082
O  O95  1  0.66010000  0.04180000  0.27390000  1.0 -0.6558809082
O  O96  1  0.33990000  0.95820000  0.27390000  1.0 -0.6558809082
O  O97  1  0.72610000  0.33990000  0.04180000  1.0 -0.6558809082
O  O98  1  0.72610000  0.66010000  0.95820000  1.0 -0.6558809082
O  O99  1  0.27390000  0.66010000  0.04180000  1.0 -0.6558809082
O  O100  1  0.27390000  0.33990000  0.95820000  1.0 -0.6558809082
O  O101  1  0.04180000  0.72610000  0.33990000  1.0 -0.6558809082
O  O102  1  0.95820000  0.72610000  0.66010000  1.0 -0.6558809082
O  O103  1  0.04180000  0.27390000  0.66010000  1.0 -0.6558809082
O  O104  1  0.95820000  0.27390000  0.33990000  1.0 -0.6558809082
O  O105  1  0.12560000  0.06050000  0.74280000  1.0 -0.6558809082
O  O106  1  0.87440000  0.93950000  0.74280000  1.0 -0.6558809082
O  O107  1  0.87440000  0.06050000  0.25720000  1.0 -0.6558809082
O  O108  1  0.12560000  0.93950000  0.25720000  1.0 -0.6558809082
O  O109  1  0.74280000  0.12560000  0.06050000  1.0 -0.6558809082
O  O110  1  0.74280000  0.87440000  0.93950000  1.0 -0.6558809082
O  O111  1  0.25720000  0.87440000  0.06050000  1.0 -0.6558809082
O  O112  1  0.25720000  0.12560000  0.93950000  1.0 -0.6558809082
O  O113  1  0.06050000  0.74280000  0.12560000  1.0 -0.6558809082
O  O114  1  0.93950000  0.74280000  0.87440000  1.0 -0.6558809082
O  O115  1  0.06050000  0.25720000  0.87440000  1.0 -0.6558809082
O  O116  1  0.93950000  0.25720000  0.12560000  1.0 -0.6558809082
O  O117  1  0.37440000  0.43950000  0.75720000  1.0 -0.6558809082
O  O118  1  0.62560000  0.56050000  0.75720000  1.0 -0.6558809082
O  O119  1  0.62560000  0.43950000  0.24280000  1.0 -0.6558809082
O  O120  1  0.37440000  0.56050000  0.24280000  1.0 -0.6558809082
O  O121  1  0.75720000  0.37440000  0.43950000  1.0 -0.6558809082
O  O122  1  0.75720000  0.62560000  0.56050000  1.0 -0.6558809082
O  O123  1  0.24280000  0.62560000  0.43950000  1.0 -0.6558809082
O  O124  1  0.24280000  0.37440000  0.56050000  1.0 -0.6558809082
O  O125  1  0.43950000  0.75720000  0.37440000  1.0 -0.6558809082
O  O126  1  0.56050000  0.75720000  0.62560000  1.0 -0.6558809082
O  O127  1  0.43950000  0.24280000  0.62560000  1.0 -0.6558809082
O  O128  1  0.56050000  0.24280000  0.37440000  1.0 -0.6558809082
O  O129  1  0.18500000  0.32770000  0.84180000  1.0 -0.2101573666
O  O130  1  0.81500000  0.67230000  0.84180000  1.0 -0.2101573666
O  O131  1  0.81500000  0.32770000  0.15820000  1.0 -0.2101573666
O  O132  1  0.18500000  0.67230000  0.15820000  1.0 -0.2101573666
O  O133  1  0.84180000  0.18500000  0.32770000  1.0 -0.2101573666
O  O134  1  0.84180000  0.81500000  0.67230000  1.0 -0.2101573666
O  O135  1  0.15820000  0.81500000  0.32770000  1.0 -0.2101573666
O  O136  1  0.15820000  0.18500000  0.67230000  1.0 -0.2101573666
O  O137  1  0.32770000  0.84180000  0.18500000  1.0 -0.2101573666
O  O138  1  0.67230000  0.84180000  0.81500000  1.0 -0.2101573666
O  O139  1  0.32770000  0.15820000  0.81500000  1.0 -0.2101573666
O  O140  1  0.67230000  0.15820000  0.18500000  1.0 -0.2101573666
O  O141  1  0.31500000  0.17230000  0.65820000  1.0 -0.2101573666
O  O142  1  0.68500000  0.82770000  0.65820000  1.0 -0.2101573666
O  O143  1  0.68500000  0.17230000  0.34180000  1.0 -0.2101573666
O  O144  1  0.31500000  0.82770000  0.34180000  1.0 -0.2101573666
O  O145  1  0.65820000  0.31500000  0.17230000  1.0 -0.2101573666
O  O146  1  0.65820000  0.68500000  0.82770000  1.0 -0.2101573666
O  O147  1  0.34180000  0.68500000  0.17230000  1.0 -0.2101573666
O  O148  1  0.34180000  0.31500000  0.82770000  1.0 -0.2101573666
O  O149  1  0.17230000  0.65820000  0.31500000  1.0 -0.2101573666
O  O150  1  0.82770000  0.65820000  0.68500000  1.0 -0.2101573666
O  O151  1  0.17230000  0.34180000  0.68500000  1.0 -0.2101573666
O  O152  1  0.82770000  0.34180000  0.31500000  1.0 -0.2101573666
O  O153  1  0.19020000  0.19020000  0.80980000  1.0 -0.3755780045
O  O154  1  0.80980000  0.80980000  0.80980000  1.0 -0.3748916272
O  O155  1  0.80980000  0.19020000  0.19020000  1.0 -0.3755780045
O  O156  1  0.19020000  0.80980000  0.19020000  1.0 -0.3755780045
O  O157  1  0.30980000  0.30980000  0.69020000  1.0 -0.3755780045
O  O158  1  0.69020000  0.69020000  0.69020000  1.0 -0.3748916272
O  O159  1  0.69020000  0.30980000  0.30980000  1.0 -0.3755780045
O  O160  1  0.30980000  0.69020000  0.30980000  1.0 -0.3748916272
