# DDEC6 charges by PACMAN v1.1 (https://github.com/mtap-research/PACMAN-charge/)
data_BOHWOM_ASR_pacman
_symmetry_space_group_name_H-M   'P 1'
_cell_length_a   18.92020000
_cell_length_b   18.92020000
_cell_length_c   17.35450000
_cell_angle_alpha   86.01430000
_cell_angle_beta   93.98570000
_cell_angle_gamma   78.59120000
_symmetry_Int_Tables_number   1
_chemical_formula_structural   Zr6C87O40
_chemical_formula_sum   'Zr12 C174 O80'
_cell_volume   6052.91898297
_cell_formula_units_Z   2
loop_
 _symmetry_equiv_pos_site_id
 _symmetry_equiv_pos_as_xyz
  1  'x, y, z'
loop_
 _atom_site_type_symbol
 _atom_site_label
 _atom_site_symmetry_multiplicity
 _atom_site_fract_x
 _atom_site_fract_y
 _atom_site_fract_z
 _atom_site_occupancy
 _atom_site_charge
Zr  Zr1  1  0.62662000  0.95872000  0.46643000  1.0 2.051702466
Zr  Zr2  1  0.95872000  0.62662000  0.03357000  1.0 2.055199181
Zr  Zr3  1  0.37338000  0.04128000  0.53357000  1.0 2.051702466
Zr  Zr4  1  0.04128000  0.37338000  0.96643000  1.0 2.051702466
Zr  Zr5  1  0.47085000  0.06693000  0.37064000  1.0 2.051702466
Zr  Zr6  1  0.06693000  0.47085000  0.12936000  1.0 2.051702466
Zr  Zr7  1  0.52915000  0.93307000  0.62936000  1.0 2.051702466
Zr  Zr8  1  0.93307000  0.52915000  0.87064000  1.0 2.051702466
Zr  Zr9  1  0.46403000  0.89217000  0.44742000  1.0 2.0343418468
Zr  Zr10  1  0.89217000  0.46403000  0.05258000  1.0 2.0363374898
Zr  Zr11  1  0.53597000  0.10783000  0.55258000  1.0 2.0363374898
Zr  Zr12  1  0.10783000  0.53597000  0.94742000  1.0 2.0363374898
C  C1  1  0.28730000  0.88910000  0.12220000  1.0 -0.0516121922
C  C2  1  0.88910000  0.28730000  0.37780000  1.0 -0.0516121922
C  C3  1  0.71270000  0.11090000  0.87780000  1.0 -0.0516121922
C  C4  1  0.11090000  0.71270000  0.62220000  1.0 -0.0516121922
C  C5  1  0.37050000  0.94450000  0.19690000  1.0 -0.0516121922
C  C6  1  0.94450000  0.37050000  0.30310000  1.0 -0.0516121922
C  C7  1  0.62950000  0.05550000  0.80310000  1.0 -0.0516121922
C  C8  1  0.05550000  0.62950000  0.69690000  1.0 -0.0516121922
C  C9  1  0.37920000  0.96860000  0.70690000  1.0 0.6894615937
C  C10  1  0.96860000  0.37920000  0.79310000  1.0 0.6894615937
C  C11  1  0.62080000  0.03140000  0.29310000  1.0 0.6894615937
C  C12  1  0.03140000  0.62080000  0.20690000  1.0 0.6894615937
C  C13  1  0.22960000  0.95000000  0.98870000  1.0 0.1575776387
C  C14  1  0.95000000  0.22960000  0.51130000  1.0 0.1575776387
C  C15  1  0.77040000  0.05000000  0.01130000  1.0 0.1546639253
C  C16  1  0.05000000  0.77040000  0.48870000  1.0 0.1575776387
C  C17  1  0.33990000  0.96050000  0.77840000  1.0 -0.0597442246
C  C18  1  0.96050000  0.33990000  0.72160000  1.0 -0.0597442246
C  C19  1  0.66010000  0.03950000  0.22160000  1.0 -0.0597442246
C  C20  1  0.03950000  0.66010000  0.27840000  1.0 -0.0597442246
C  C21  1  0.41200000  0.95120000  0.27210000  1.0 0.6832910328
C  C22  1  0.95120000  0.41200000  0.22790000  1.0 0.6832910328
C  C23  1  0.58800000  0.04880000  0.72790000  1.0 0.6832910328
C  C24  1  0.04880000  0.58800000  0.77210000  1.0 0.6832910328
C  C25  1  0.19080000  0.88600000  0.98350000  1.0 0.0408484876
C  C26  1  0.88600000  0.19080000  0.51650000  1.0 0.0408484876
C  C27  1  0.80920000  0.11400000  0.01650000  1.0 0.0408484876
C  C28  1  0.11400000  0.80920000  0.48350000  1.0 0.0408484876
C  C29  1  0.26970000  0.95210000  0.91440000  1.0 0.0408484876
C  C30  1  0.95210000  0.26970000  0.58560000  1.0 0.0475152641
C  C31  1  0.73030000  0.04790000  0.08560000  1.0 0.0475152641
C  C32  1  0.04790000  0.73030000  0.41440000  1.0 0.0408484876
C  C33  1  0.09090000  0.70030000  0.97910000  1.0 0.6832910328
C  C34  1  0.70030000  0.09090000  0.52090000  1.0 0.6832910328
C  C35  1  0.90910000  0.29970000  0.02090000  1.0 0.6832910328
C  C36  1  0.29970000  0.90910000  0.47910000  1.0 0.6832910328
C  C37  1  0.12490000  0.76510000  0.97950000  1.0 -0.0516121922
C  C38  1  0.76510000  0.12490000  0.52050000  1.0 -0.0597442246
C  C39  1  0.87510000  0.23490000  0.02050000  1.0 -0.0516121922
C  C40  1  0.23490000  0.87510000  0.47950000  1.0 -0.0597442246
C  C41  1  0.33180000  0.89000000  0.19020000  1.0 0.0408484876
C  C42  1  0.89000000  0.33180000  0.30980000  1.0 0.0408484876
C  C43  1  0.66820000  0.11000000  0.80980000  1.0 0.0475152641
C  C44  1  0.11000000  0.66820000  0.69020000  1.0 0.0408484876
C  C45  1  0.28350000  0.94170000  0.06110000  1.0 0.0408484876
C  C46  1  0.94170000  0.28350000  0.43890000  1.0 0.0408484876
C  C47  1  0.71650000  0.05830000  0.93890000  1.0 0.0408484876
C  C48  1  0.05830000  0.71650000  0.56110000  1.0 0.0408484876
C  C49  1  0.36870000  0.99570000  0.13450000  1.0 0.0408484876
C  C50  1  0.99570000  0.36870000  0.36550000  1.0 0.0408484876
C  C51  1  0.63130000  0.00430000  0.86550000  1.0 0.0408484876
C  C52  1  0.00430000  0.63130000  0.63450000  1.0 0.0408484876
C  C53  1  0.32530000  0.99430000  0.06800000  1.0 -0.0597442246
C  C54  1  0.99430000  0.32530000  0.43200000  1.0 -0.0597442246
C  C55  1  0.67470000  0.00570000  0.93200000  1.0 -0.0597442246
C  C56  1  0.00570000  0.67470000  0.56800000  1.0 -0.0597442246
C  C57  1  0.17820000  0.02220000  0.99880000  1.0 0.0290524577
C  C58  1  0.02220000  0.17820000  0.50120000  1.0 0.0290524577
C  C59  1  0.82180000  0.97780000  0.00120000  1.0 0.0290524577
C  C60  1  0.97780000  0.82180000  0.49880000  1.0 0.0290524577
C  C61  1  0.34340000  0.92740000  0.91550000  1.0 -0.0597442246
C  C62  1  0.92740000  0.34340000  0.58450000  1.0 -0.0597442246
C  C63  1  0.65660000  0.07260000  0.08450000  1.0 -0.0597442246
C  C64  1  0.07260000  0.65660000  0.41550000  1.0 -0.0597442246
C  C65  1  0.23070000  0.97410000  0.84340000  1.0 -0.0679855484
C  C66  1  0.97410000  0.23070000  0.65660000  1.0 -0.0679855484
C  C67  1  0.76930000  0.02590000  0.15660000  1.0 -0.0679855484
C  C68  1  0.02590000  0.76930000  0.34340000  1.0 -0.0679855484
C  C69  1  0.23070000  0.81890000  0.97290000  1.0 -0.0315940262
C  C70  1  0.81890000  0.23070000  0.52710000  1.0 -0.0315940262
C  C71  1  0.76930000  0.18110000  0.02710000  1.0 -0.0315940262
C  C72  1  0.18110000  0.76930000  0.47290000  1.0 -0.0315940262
C  C73  1  0.19790000  0.75750000  0.97060000  1.0 0.0475152641
C  C74  1  0.75750000  0.19790000  0.52940000  1.0 0.0475152641
C  C75  1  0.80210000  0.24250000  0.02940000  1.0 0.0475152641
C  C76  1  0.24250000  0.80210000  0.47060000  1.0 0.0475152641
C  C77  1  0.26500000  0.97920000  0.77650000  1.0 0.0290524577
C  C78  1  0.97920000  0.26500000  0.72350000  1.0 0.0290524577
C  C79  1  0.73500000  0.02080000  0.22350000  1.0 0.0290524577
C  C80  1  0.02080000  0.73500000  0.27650000  1.0 0.0290524577
C  C81  1  0.37840000  0.92940000  0.84800000  1.0 0.0408484876
C  C82  1  0.92940000  0.37840000  0.65200000  1.0 0.0408484876
C  C83  1  0.62160000  0.07060000  0.15200000  1.0 0.0408484876
C  C84  1  0.07060000  0.62160000  0.34800000  1.0 0.0408484876
C  C85  1  0.14310000  0.02690000  0.06620000  1.0 -0.0597442246
C  C86  1  0.02690000  0.14310000  0.43380000  1.0 -0.0597442246
C  C87  1  0.85690000  0.97310000  0.93380000  1.0 -0.0597442246
C  C88  1  0.97310000  0.85690000  0.56620000  1.0 -0.0597442246
C  C89  1  0.08600000  0.83240000  0.99110000  1.0 0.0408484876
C  C90  1  0.83240000  0.08600000  0.50890000  1.0 0.0475152641
C  C91  1  0.91400000  0.16760000  0.00890000  1.0 0.0408484876
C  C92  1  0.16760000  0.91400000  0.49110000  1.0 0.0408484876
C  C93  1  0.11960000  0.89220000  0.99390000  1.0 -0.0516121922
C  C94  1  0.89220000  0.11960000  0.50610000  1.0 -0.0516121922
C  C95  1  0.88040000  0.10780000  0.00610000  1.0 -0.0516121922
C  C96  1  0.10780000  0.88040000  0.49390000  1.0 -0.0516121922
C  C97  1  0.11770000  0.15410000  0.04340000  1.0 -0.0197403982
C  C98  1  0.15410000  0.11770000  0.45660000  1.0 -0.0197403982
C  C99  1  0.88230000  0.84590000  0.95660000  1.0 -0.0197403982
C  C100  1  0.84590000  0.88230000  0.54340000  1.0 -0.0197403982
C  C101  1  0.18510000  0.08450000  0.95870000  1.0 -0.0679855484
C  C102  1  0.08450000  0.18510000  0.54130000  1.0 -0.0679855484
C  C103  1  0.81490000  0.91550000  0.04130000  1.0 -0.0679855484
C  C104  1  0.91550000  0.81490000  0.45870000  1.0 -0.0679855484
C  C105  1  0.15210000  0.14990000  0.98050000  1.0 -0.0516121922
C  C106  1  0.14990000  0.15210000  0.51950000  1.0 -0.0516121922
C  C107  1  0.84790000  0.85010000  0.01950000  1.0 -0.0597442246
C  C108  1  0.85010000  0.84790000  0.48050000  1.0 -0.0516121922
C  C109  1  0.09320000  0.23020000  0.07430000  1.0 0.6587960322
C  C110  1  0.23020000  0.09320000  0.42570000  1.0 0.6587960322
C  C111  1  0.90680000  0.76980000  0.92570000  1.0 0.6587960322
C  C112  1  0.76980000  0.90680000  0.57430000  1.0 0.6587960322
C  C113  1  0.11130000  0.09190000  0.09210000  1.0 0.0475152641
C  C114  1  0.09190000  0.11130000  0.40790000  1.0 0.0475152641
C  C115  1  0.88870000  0.90810000  0.90790000  1.0 0.0475152641
C  C116  1  0.90810000  0.88870000  0.59210000  1.0 0.0475152641
C  C117  1  0.51650000  0.43010000  0.29280000  1.0 0.0408484876
C  C118  1  0.43010000  0.51650000  0.20720000  1.0 0.0408484876
C  C119  1  0.48350000  0.56990000  0.70720000  1.0 0.0408484876
C  C120  1  0.56990000  0.48350000  0.79280000  1.0 0.0408484876
C  C121  1  0.51400000  0.56520000  0.30500000  1.0 0.0408484876
C  C122  1  0.56520000  0.51400000  0.19500000  1.0 0.0408484876
C  C123  1  0.48600000  0.43480000  0.69500000  1.0 0.0408484876
C  C124  1  0.43480000  0.48600000  0.80500000  1.0 0.0408484876
C  C125  1  0.59440000  0.61220000  0.39360000  1.0 0.0475152641
C  C126  1  0.61220000  0.59440000  0.10640000  1.0 0.0475152641
C  C127  1  0.40560000  0.38780000  0.60640000  1.0 0.0475152641
C  C128  1  0.38780000  0.40560000  0.89360000  1.0 0.0475152641
C  C129  1  0.48120000  0.68760000  0.33920000  1.0 0.0475152641
C  C130  1  0.68760000  0.48120000  0.16080000  1.0 0.0408484876
C  C131  1  0.51880000  0.31240000  0.66080000  1.0 0.0475152641
C  C132  1  0.31240000  0.51880000  0.83920000  1.0 0.0408484876
C  C133  1  0.54580000  0.67980000  0.38510000  1.0 -0.0826753701
C  C134  1  0.67980000  0.54580000  0.11490000  1.0 -0.0826753701
C  C135  1  0.45420000  0.32020000  0.61490000  1.0 -0.0826753701
C  C136  1  0.32020000  0.45420000  0.88510000  1.0 -0.0826753701
C  C137  1  0.50590000  0.50590000  0.25000000  1.0 0.1367834632
C  C138  1  0.49410000  0.49410000  0.75000000  1.0 0.1367834632
C  C139  1  0.51650000  0.34910000  0.40770000  1.0 0.0290524577
C  C140  1  0.34910000  0.51650000  0.09230000  1.0 0.0290524577
C  C141  1  0.48350000  0.65090000  0.59230000  1.0 0.0290524577
C  C142  1  0.65090000  0.48350000  0.90770000  1.0 0.0290524577
C  C143  1  0.57780000  0.55600000  0.35400000  1.0 -0.0597442246
C  C144  1  0.55600000  0.57780000  0.14600000  1.0 -0.0597442246
C  C145  1  0.42220000  0.44400000  0.64600000  1.0 -0.0597442246
C  C146  1  0.44400000  0.42220000  0.85400000  1.0 -0.0597442246
C  C147  1  0.51640000  0.41840000  0.37160000  1.0 -0.0360816948
C  C148  1  0.41840000  0.51640000  0.12840000  1.0 -0.0315940262
C  C149  1  0.48360000  0.58160000  0.62840000  1.0 -0.0315940262
C  C150  1  0.58160000  0.48360000  0.87160000  1.0 -0.0315940262
C  C151  1  0.51780000  0.37160000  0.24710000  1.0 -0.0597442246
C  C152  1  0.37160000  0.51780000  0.25290000  1.0 -0.0516121922
C  C153  1  0.48220000  0.62840000  0.75290000  1.0 -0.0516121922
C  C154  1  0.62840000  0.48220000  0.74710000  1.0 -0.0516121922
C  C155  1  0.46480000  0.63060000  0.29910000  1.0 -0.0516121922
C  C156  1  0.63060000  0.46480000  0.20090000  1.0 -0.0516121922
C  C157  1  0.53520000  0.36940000  0.70090000  1.0 -0.0516121922
C  C158  1  0.36940000  0.53520000  0.79910000  1.0 -0.0516121922
C  C159  1  0.51510000  0.29270000  0.36130000  1.0 -0.0597442246
C  C160  1  0.29270000  0.51510000  0.13870000  1.0 -0.0597442246
C  C161  1  0.48490000  0.70730000  0.63870000  1.0 -0.0597442246
C  C162  1  0.70730000  0.48490000  0.86130000  1.0 -0.0597442246
C  C163  1  0.51120000  0.21960000  0.39790000  1.0 0.6832910328
C  C164  1  0.21960000  0.51120000  0.10210000  1.0 0.6832910328
C  C165  1  0.48880000  0.78040000  0.60210000  1.0 0.6832910328
C  C166  1  0.78040000  0.48880000  0.89790000  1.0 0.6832910328
C  C167  1  0.51590000  0.30330000  0.28090000  1.0 0.0408484876
C  C168  1  0.30330000  0.51590000  0.21910000  1.0 0.0408484876
C  C169  1  0.48410000  0.69670000  0.71910000  1.0 0.0408484876
C  C170  1  0.69670000  0.48410000  0.78090000  1.0 0.0408484876
C  C171  1  0.56520000  0.74260000  0.42100000  1.0 0.6378926982
C  C172  1  0.74260000  0.56520000  0.07900000  1.0 0.6378926982
C  C173  1  0.43480000  0.25740000  0.57900000  1.0 0.6378926982
C  C174  1  0.25740000  0.43480000  0.92100000  1.0 0.6378926982
O  O1  1  0.41520000  0.00040000  0.43410000  1.0 -0.399586479
O  O2  1  0.00040000  0.41520000  0.06590000  1.0 -0.399586479
O  O3  1  0.58480000  0.99960000  0.56590000  1.0 -0.399586479
O  O4  1  0.99960000  0.58480000  0.93410000  1.0 -0.399586479
O  O5  1  0.52543000  0.80343000  0.39660000  1.0 -0.6405567254
O  O6  1  0.80343000  0.52543000  0.10340000  1.0 -0.6405567254
O  O7  1  0.47457000  0.19657000  0.60340000  1.0 -0.6405567254
O  O8  1  0.19657000  0.47457000  0.89660000  1.0 -0.6405567254
O  O9  1  0.42108000  0.89968000  0.32250000  1.0 -0.5740438154
O  O10  1  0.89968000  0.42108000  0.17750000  1.0 -0.5740438154
O  O11  1  0.57892000  0.10032000  0.67750000  1.0 -0.5740438154
O  O12  1  0.10032000  0.57892000  0.82250000  1.0 -0.5751183282
O  O13  1  0.43111000  0.01291000  0.27440000  1.0 -0.6482462238
O  O14  1  0.01291000  0.43111000  0.22560000  1.0 -0.6482462238
O  O15  1  0.56889000  0.98709000  0.72560000  1.0 -0.6482462238
O  O16  1  0.98709000  0.56889000  0.77440000  1.0 -0.6482462238
O  O17  1  0.42680000  0.92560000  0.56210000  1.0 -0.2547504853
O  O18  1  0.92560000  0.42680000  0.93790000  1.0 -0.2547504853
O  O19  1  0.57320000  0.07440000  0.43790000  1.0 -0.2584418953
O  O20  1  0.07440000  0.57320000  0.06210000  1.0 -0.2584418953
O  O21  1  0.53540000  0.94940000  0.38010000  1.0 -0.2584418953
O  O22  1  0.94940000  0.53540000  0.11990000  1.0 -0.2584418953
O  O23  1  0.46460000  0.05060000  0.61990000  1.0 -0.2584418953
O  O24  1  0.05060000  0.46460000  0.88010000  1.0 -0.2584418953
O  O25  1  0.56990000  0.87910000  0.52940000  1.0 -0.350426686
O  O26  1  0.87910000  0.56990000  0.97060000  1.0 -0.350426686
O  O27  1  0.43010000  0.12090000  0.47060000  1.0 -0.350426686
O  O28  1  0.12090000  0.43010000  0.02940000  1.0 -0.3562443505
O  O29  1  0.34256000  0.00776000  0.64970000  1.0 -0.6240000974
O  O30  1  0.00776000  0.34256000  0.85030000  1.0 -0.6240000974
O  O31  1  0.65744000  0.99224000  0.35030000  1.0 -0.6240000974
O  O32  1  0.99224000  0.65744000  0.14970000  1.0 -0.6240000974
O  O33  1  0.44629000  0.93729000  0.71320000  1.0 -0.630505773
O  O34  1  0.93729000  0.44629000  0.78680000  1.0 -0.630505773
O  O35  1  0.55371000  0.06271000  0.28680000  1.0 -0.630505773
O  O36  1  0.06271000  0.55371000  0.21320000  1.0 -0.630505773
O  O37  1  0.48659000  0.17879000  0.35280000  1.0 -0.630505773
O  O38  1  0.17879000  0.48659000  0.14720000  1.0 -0.630505773
O  O39  1  0.51341000  0.82121000  0.64720000  1.0 -0.630505773
O  O40  1  0.82121000  0.51341000  0.85280000  1.0 -0.630505773
O  O41  1  0.12650000  0.64670000  0.94930000  1.0 -0.6240000974
O  O42  1  0.64670000  0.12650000  0.55070000  1.0 -0.6240000974
O  O43  1  0.87350000  0.35330000  0.05070000  1.0 -0.6240000974
O  O44  1  0.35330000  0.87350000  0.44930000  1.0 -0.6240000974
O  O45  1  0.52891000  0.20631000  0.46970000  1.0 -0.6240000974
O  O46  1  0.20631000  0.52891000  0.03030000  1.0 -0.6240000974
O  O47  1  0.47109000  0.79369000  0.53030000  1.0 -0.6240000974
O  O48  1  0.79369000  0.47109000  0.96970000  1.0 -0.6240000974
O  O49  1  0.02740000  0.70760000  0.00990000  1.0 -0.701660196
O  O50  1  0.70760000  0.02740000  0.49010000  1.0 -0.701660196
O  O51  1  0.97260000  0.29240000  0.99010000  1.0 -0.701660196
O  O52  1  0.29240000  0.97260000  0.50990000  1.0 -0.701660196
O  O53  1  0.10740000  0.28420000  0.03730000  1.0 -0.6405567254
O  O54  1  0.28420000  0.10740000  0.46270000  1.0 -0.6405567254
O  O55  1  0.89260000  0.71580000  0.96270000  1.0 -0.6405567254
O  O56  1  0.71580000  0.89260000  0.53730000  1.0 -0.6405567254
O  O57  1  0.62130000  0.73430000  0.46620000  1.0 -0.4705903779
O  O58  1  0.73430000  0.62130000  0.03380000  1.0 -0.4705903779
O  O59  1  0.37870000  0.26570000  0.53380000  1.0 -0.4705903779
O  O60  1  0.26570000  0.37870000  0.96620000  1.0 -0.4705903779
O  O61  1  0.06020000  0.23700000  0.13840000  1.0 -0.5577472102
O  O62  1  0.23700000  0.06020000  0.36160000  1.0 -0.5577472102
O  O63  1  0.93980000  0.76300000  0.86160000  1.0 -0.5577472102
O  O64  1  0.76300000  0.93980000  0.63840000  1.0 -0.5577472102
O  O65  1  0.55620000  0.90040000  0.51320000  1.0 -0.4569716181
O  O66  1  0.90040000  0.55620000  0.98680000  1.0 -0.4569716181
O  O67  1  0.44380000  0.09960000  0.48680000  1.0 -0.4569716181
O  O68  1  0.09960000  0.44380000  0.01320000  1.0 -0.4569716181
O  O69  1  0.38980000  0.00740000  0.41420000  1.0 -0.227638873
O  O70  1  0.00740000  0.38980000  0.08580000  1.0 -0.227638873
O  O71  1  0.61020000  0.99260000  0.58580000  1.0 -0.227638873
O  O72  1  0.99260000  0.61020000  0.91420000  1.0 -0.227638873
O  O73  1  0.44470000  0.94550000  0.54520000  1.0 -0.3916146036
O  O74  1  0.94550000  0.44470000  0.95480000  1.0 -0.3916146036
O  O75  1  0.55530000  0.05450000  0.45480000  1.0 -0.3916146036
O  O76  1  0.05450000  0.55530000  0.04520000  1.0 -0.3916146036
O  O77  1  0.52600000  0.96340000  0.40750000  1.0 -0.350426686
O  O78  1  0.96340000  0.52600000  0.09250000  1.0 -0.350426686
O  O79  1  0.47400000  0.03660000  0.59250000  1.0 -0.350426686
O  O80  1  0.03660000  0.47400000  0.90750000  1.0 -0.350426686
