# DDEC6 charges by PACMAN v1.1 (https://github.com/mtap-research/PACMAN-charge/)
data_BOHWIG_ASR_pacman
_symmetry_space_group_name_H-M   'P 1'
_cell_length_a   17.42840000
_cell_length_b   17.42840000
_cell_length_c   17.42840000
_cell_angle_alpha   130.19800000
_cell_angle_beta   130.19800000
_cell_angle_gamma   73.09120000
_symmetry_Int_Tables_number   1
_chemical_formula_structural   Zr3H16C29O16
_chemical_formula_sum   'Zr6 H32 C58 O32'
_cell_volume   3015.96315223
_cell_formula_units_Z   2
loop_
 _symmetry_equiv_pos_site_id
 _symmetry_equiv_pos_as_xyz
  1  'x, y, z'
loop_
 _atom_site_type_symbol
 _atom_site_label
 _atom_site_symmetry_multiplicity
 _atom_site_fract_x
 _atom_site_fract_y
 _atom_site_fract_z
 _atom_site_occupancy
 _atom_site_charge
Zr  Zr1  1  0.08772000  0.08772000  0.00000000  1.0 2.0212138323
Zr  Zr2  1  0.91228000  0.91228000  0.00000000  1.0 2.0212138323
Zr  Zr3  1  0.05358000  0.16211000  0.21569000  1.0 2.0303725628
Zr  Zr4  1  0.94642000  0.83789000  0.78431000  1.0 2.0303725628
Zr  Zr5  1  0.16211000  0.94642000  0.10853000  1.0 2.0303725628
Zr  Zr6  1  0.83789000  0.05358000  0.89147000  1.0 2.0303725628
H  H1  1  0.16400000  0.40130000  0.17070000  1.0 0.1098376902
H  H2  1  0.23060000  0.99330000  0.82930000  1.0 0.1098376902
H  H3  1  0.40130000  0.23060000  0.23730000  1.0 0.1098376902
H  H4  1  0.99330000  0.16400000  0.76270000  1.0 0.1098376902
H  H5  1  0.83600000  0.59870000  0.82930000  1.0 0.1098376902
H  H6  1  0.76940000  0.00670000  0.17070000  1.0 0.1098376902
H  H7  1  0.59870000  0.76940000  0.76270000  1.0 0.1098376902
H  H8  1  0.00670000  0.83600000  0.23730000  1.0 0.1098376902
H  H9  1  0.19490000  0.57440000  0.26570000  1.0 0.1031867881
H  H10  1  0.30870000  0.92920000  0.73430000  1.0 0.1031867881
H  H11  1  0.57440000  0.30870000  0.37950000  1.0 0.1031867881
H  H12  1  0.92920000  0.19490000  0.62050000  1.0 0.1031867881
H  H13  1  0.80510000  0.42560000  0.73430000  1.0 0.1031867881
H  H14  1  0.69130000  0.07080000  0.26570000  1.0 0.1031867881
H  H15  1  0.42560000  0.69130000  0.62050000  1.0 0.1031867881
H  H16  1  0.07080000  0.80510000  0.37950000  1.0 0.1031867881
H  H17  1  0.27330000  0.65990000  0.59040000  1.0 0.1031867881
H  H18  1  0.06950000  0.68290000  0.40960000  1.0 0.1031867881
H  H19  1  0.65990000  0.06950000  0.38660000  1.0 0.1031867881
H  H20  1  0.68290000  0.27330000  0.61340000  1.0 0.1031867881
H  H21  1  0.72670000  0.34010000  0.40960000  1.0 0.1031867881
H  H22  1  0.93050000  0.31710000  0.59040000  1.0 0.1031867881
H  H23  1  0.34010000  0.93050000  0.61340000  1.0 0.1031867881
H  H24  1  0.31710000  0.72670000  0.38660000  1.0 0.1031867881
H  H25  1  0.24230000  0.48680000  0.49530000  1.0 0.1098376902
H  H26  1  0.99150000  0.74700000  0.50470000  1.0 0.1098376902
H  H27  1  0.48680000  0.99150000  0.24450000  1.0 0.1031867881
H  H28  1  0.74700000  0.24230000  0.75550000  1.0 0.1098376902
H  H29  1  0.75770000  0.51320000  0.50470000  1.0 0.1098376902
H  H30  1  0.00850000  0.25300000  0.49530000  1.0 0.1098376902
H  H31  1  0.51320000  0.00850000  0.75550000  1.0 0.1098376902
H  H32  1  0.25300000  0.75770000  0.24450000  1.0 0.1031867881
C  C1  1  0.25000000  0.75000000  0.50000000  1.0 -0.0253647239
C  C2  1  0.75000000  0.25000000  0.50000000  1.0 -0.0253647239
C  C3  1  0.20022000  0.42782000  0.32400000  1.0 -0.0408124908
C  C4  1  0.10382000  0.87622000  0.67600000  1.0 -0.0408124908
C  C5  1  0.42782000  0.10382000  0.22760000  1.0 -0.0408124908
C  C6  1  0.87622000  0.20022000  0.77240000  1.0 -0.0408124908
C  C7  1  0.79978000  0.57218000  0.67600000  1.0 -0.0408124908
C  C8  1  0.89618000  0.12378000  0.32400000  1.0 -0.0408124908
C  C9  1  0.57218000  0.89618000  0.77240000  1.0 -0.0408124908
C  C10  1  0.12378000  0.79978000  0.22760000  1.0 -0.0408124908
C  C11  1  0.18617000  0.45380000  0.25583000  1.0 -0.1030012988
C  C12  1  0.19797000  0.93034000  0.74417000  1.0 -0.1030012988
C  C13  1  0.45380000  0.19797000  0.26763000  1.0 -0.1030012988
C  C14  1  0.93034000  0.18617000  0.73237000  1.0 -0.1030012988
C  C15  1  0.81383000  0.54620000  0.74417000  1.0 -0.1030012988
C  C16  1  0.80203000  0.06966000  0.25583000  1.0 -0.1030012988
C  C17  1  0.54620000  0.80203000  0.73237000  1.0 -0.1030012988
C  C18  1  0.06966000  0.81383000  0.26763000  1.0 -0.1030012988
C  C19  1  0.20453000  0.55660000  0.31227000  1.0 -0.1844792338
C  C20  1  0.24433000  0.89226000  0.68773000  1.0 -0.1844792338
C  C21  1  0.55660000  0.24433000  0.35207000  1.0 -0.1844792338
C  C22  1  0.89226000  0.20453000  0.64793000  1.0 -0.1844792338
C  C23  1  0.79547000  0.44340000  0.68773000  1.0 -0.1844792338
C  C24  1  0.75567000  0.10774000  0.31227000  1.0 -0.1844792338
C  C25  1  0.44340000  0.75567000  0.64793000  1.0 -0.1844792338
C  C26  1  0.10774000  0.79547000  0.35207000  1.0 -0.1844792338
C  C27  1  0.23704000  0.63342000  0.43698000  1.0 0.0547791673
C  C28  1  0.19644000  0.80006000  0.56302000  1.0 0.0547791673
C  C29  1  0.63342000  0.19644000  0.39638000  1.0 0.0547791673
C  C30  1  0.80006000  0.23704000  0.60362000  1.0 0.0547791673
C  C31  1  0.76296000  0.36658000  0.56302000  1.0 0.0547791673
C  C32  1  0.80356000  0.19994000  0.43698000  1.0 0.0547791673
C  C33  1  0.36658000  0.80356000  0.60362000  1.0 0.0547791673
C  C34  1  0.19994000  0.76296000  0.39638000  1.0 0.0547791673
C  C35  1  0.25108000  0.60743000  0.50515000  1.0 -0.1914744517
C  C36  1  0.10228000  0.74593000  0.49485000  1.0 -0.1914744517
C  C37  1  0.60743000  0.10228000  0.35635000  1.0 -0.1914744517
C  C38  1  0.74593000  0.25108000  0.64365000  1.0 -0.1914744517
C  C39  1  0.74892000  0.39257000  0.49485000  1.0 -0.1914744517
C  C40  1  0.89772000  0.25407000  0.50515000  1.0 -0.1914744517
C  C41  1  0.39257000  0.89772000  0.64365000  1.0 -0.1914744517
C  C42  1  0.25407000  0.74892000  0.35635000  1.0 -0.1914744517
C  C43  1  0.23272000  0.50463000  0.44871000  1.0 -0.1030012988
C  C44  1  0.05592000  0.78401000  0.55129000  1.0 -0.1030012988
C  C45  1  0.50463000  0.05592000  0.27191000  1.0 -0.1030012988
C  C46  1  0.78401000  0.23272000  0.72809000  1.0 -0.1030012988
C  C47  1  0.76728000  0.49537000  0.55129000  1.0 -0.1030012988
C  C48  1  0.94408000  0.21599000  0.44871000  1.0 -0.1030012988
C  C49  1  0.49537000  0.94408000  0.72809000  1.0 -0.1030012988
C  C50  1  0.21599000  0.76728000  0.27191000  1.0 -0.1030012988
C  C51  1  0.16805000  0.31735000  0.25630000  1.0 0.6195196016
C  C52  1  0.06105000  0.91175000  0.74370000  1.0 0.6195196016
C  C53  1  0.31735000  0.06105000  0.14930000  1.0 0.6195196016
C  C54  1  0.91175000  0.16805000  0.85070000  1.0 0.6195196016
C  C55  1  0.83195000  0.68265000  0.74370000  1.0 0.6195196016
C  C56  1  0.93895000  0.08825000  0.25630000  1.0 0.6195196016
C  C57  1  0.68265000  0.93895000  0.85070000  1.0 0.6195196016
C  C58  1  0.08825000  0.83195000  0.14930000  1.0 0.6195196016
O  O1  1  0.16411000  0.25081000  0.15890000  1.0 -0.6170496391
O  O2  1  0.09191000  0.00521000  0.84110000  1.0 -0.6170496391
O  O3  1  0.25081000  0.09191000  0.08670000  1.0 -0.6170496391
O  O4  1  0.00521000  0.16411000  0.91330000  1.0 -0.6170496391
O  O5  1  0.83589000  0.74919000  0.84110000  1.0 -0.6170496391
O  O6  1  0.90809000  0.99479000  0.15890000  1.0 -0.6170496391
O  O7  1  0.74919000  0.90809000  0.91330000  1.0 -0.6170496391
O  O8  1  0.99479000  0.83589000  0.08670000  1.0 -0.6170496391
O  O9  1  0.11030000  0.92340000  0.93890000  1.0 -0.3459546538
O  O10  1  0.98450000  0.17140000  0.06110000  1.0 -0.3449695976
O  O11  1  0.92340000  0.98450000  0.81310000  1.0 -0.3449695976
O  O12  1  0.17140000  0.11030000  0.18690000  1.0 -0.3459546538
O  O13  1  0.88970000  0.07660000  0.06110000  1.0 -0.3449695976
O  O14  1  0.01550000  0.82860000  0.93890000  1.0 -0.3459546538
O  O15  1  0.07660000  0.01550000  0.18690000  1.0 -0.3459546538
O  O16  1  0.82860000  0.88970000  0.81310000  1.0 -0.3449695976
O  O17  1  0.14620000  0.29960000  0.29960000  1.0 -0.6499844761
O  O18  1  0.00000000  0.84660000  0.70040000  1.0 -0.6499844761
O  O19  1  0.29960000  0.00000000  0.15340000  1.0 -0.6499844761
O  O20  1  0.84660000  0.14620000  0.84660000  1.0 -0.6499844761
O  O21  1  0.85380000  0.70040000  0.70040000  1.0 -0.6499844761
O  O22  1  0.00000000  0.15340000  0.29960000  1.0 -0.6499844761
O  O23  1  0.70040000  0.00000000  0.84660000  1.0 -0.6499844761
O  O24  1  0.15340000  0.85380000  0.15340000  1.0 -0.6499844761
O  O25  1  0.08250000  0.94780000  0.95630000  1.0 -0.3775685438
O  O26  1  0.99150000  0.12620000  0.04370000  1.0 -0.3775685438
O  O27  1  0.94780000  0.99150000  0.86530000  1.0 -0.3775685438
O  O28  1  0.12620000  0.08250000  0.13470000  1.0 -0.3775685438
O  O29  1  0.91750000  0.05220000  0.04370000  1.0 -0.3775685438
O  O30  1  0.00850000  0.87380000  0.95630000  1.0 -0.3775685438
O  O31  1  0.05220000  0.00850000  0.13470000  1.0 -0.3775685438
O  O32  1  0.87380000  0.91750000  0.86530000  1.0 -0.3775685438
