# DDEC6 charges by PACMAN v1.1 (https://github.com/mtap-research/PACMAN-charge/)
data_BOHXED_FSR_pacman
_symmetry_space_group_name_H-M   'P 1'
_cell_length_a   24.06270000
_cell_length_b   23.53350000
_cell_length_c   19.06970000
_cell_angle_alpha   67.84580000
_cell_angle_beta   64.93180000
_cell_angle_gamma   47.22230000
_symmetry_Int_Tables_number   1
_chemical_formula_structural   Zr6H9C31N11O36
_chemical_formula_sum   'Zr24 H36 C124 N44 O144'
_cell_volume   7114.50167208
_cell_formula_units_Z   4
loop_
 _symmetry_equiv_pos_site_id
 _symmetry_equiv_pos_as_xyz
  1  'x, y, z'
loop_
 _atom_site_type_symbol
 _atom_site_label
 _atom_site_symmetry_multiplicity
 _atom_site_fract_x
 _atom_site_fract_y
 _atom_site_fract_z
 _atom_site_occupancy
 _atom_site_charge
Zr  Zr1  1  0.62021000  0.90485000  0.97777000  1.0 2.3021017442
Zr  Zr2  1  0.97777000  0.49717000  0.62021000  1.0 2.3021017442
Zr  Zr3  1  0.75283000  0.27223000  0.34515000  1.0 2.3021017442
Zr  Zr4  1  0.34515000  0.62979000  0.75283000  1.0 2.3021017442
Zr  Zr5  1  0.58771000  0.79177000  0.14581000  1.0 2.3399253319
Zr  Zr6  1  0.14581000  0.47471000  0.58771000  1.0 2.3399253319
Zr  Zr7  1  0.77529000  0.10419000  0.45823000  1.0 2.3399253319
Zr  Zr8  1  0.45823000  0.66229000  0.77529000  1.0 2.3399253319
Zr  Zr9  1  0.76454000  0.76010000  0.08570000  1.0 2.361423565
Zr  Zr10  1  0.08570000  0.38966000  0.76454000  1.0 2.361423565
Zr  Zr11  1  0.86034000  0.16430000  0.48990000  1.0 2.361423565
Zr  Zr12  1  0.48990000  0.48546000  0.86034000  1.0 2.361423565
Zr  Zr13  1  0.48358000  0.98970000  0.14806000  1.0 2.361423565
Zr  Zr14  1  0.14806000  0.37866000  0.48358000  1.0 2.361423565
Zr  Zr15  1  0.87134000  0.10194000  0.26030000  1.0 2.361423565
Zr  Zr16  1  0.26030000  0.76642000  0.87134000  1.0 2.361423565
Zr  Zr17  1  0.66022000  0.95908000  0.08644000  1.0 2.3399253319
Zr  Zr18  1  0.08644000  0.29426000  0.66022000  1.0 2.3399253319
Zr  Zr19  1  0.95574000  0.16356000  0.29092000  1.0 2.3399253319
Zr  Zr20  1  0.29092000  0.58978000  0.95574000  1.0 2.3399253319
Zr  Zr21  1  0.62779000  0.84601000  0.25443000  1.0 2.361423565
Zr  Zr22  1  0.25443000  0.27177000  0.62779000  1.0 2.361423565
Zr  Zr23  1  0.97823000  0.99557000  0.40399000  1.0 2.361423565
Zr  Zr24  1  0.40399000  0.62221000  0.97823000  1.0 2.361423565
H  H1  1  0.48130000  0.92210000  0.05590000  1.0 0.4263152444
H  H2  1  0.05590000  0.54070000  0.48130000  1.0 0.4263152444
H  H3  1  0.70930000  0.19410000  0.32790000  1.0 0.4263152444
H  H4  1  0.32790000  0.76870000  0.70930000  1.0 0.4263152444
H  H5  1  0.76560000  0.86900000  0.95440000  1.0 0.3915506135
H  H6  1  0.95440000  0.41100000  0.76560000  1.0 0.3915506135
H  H7  1  0.83900000  0.29560000  0.38100000  1.0 0.3915506135
H  H8  1  0.38100000  0.48440000  0.83900000  1.0 0.3915506135
H  H9  1  0.70770000  0.69510000  0.22550000  1.0 0.4263152444
H  H10  1  0.22550000  0.37170000  0.70770000  1.0 0.4263152444
H  H11  1  0.87830000  0.02450000  0.55490000  1.0 0.4263152444
H  H12  1  0.55490000  0.54230000  0.87830000  1.0 0.4263152444
H  H13  1  0.54050000  0.01030000  0.23130000  1.0 0.4110898803
H  H14  1  0.23130000  0.21790000  0.54050000  1.0 0.4110898803
H  H15  1  0.03210000  0.01870000  0.23970000  1.0 0.4110898803
H  H16  1  0.23970000  0.70950000  0.03210000  1.0 0.4110898803
H  H17  1  0.52720000  0.70620000  0.01700000  1.0 0.1700020338
H  H18  1  0.01700000  0.74960000  0.52720000  1.0 0.1700020338
H  H19  1  0.50040000  0.23300000  0.54380000  1.0 0.1700020338
H  H20  1  0.54380000  0.72280000  0.50040000  1.0 0.1700020338
H  H21  1  0.71410000  0.51110000  0.19430000  1.0 0.1617745905
H  H22  1  0.19430000  0.58050000  0.71410000  1.0 0.1617745905
H  H23  1  0.66950000  0.05570000  0.73890000  1.0 0.1617745905
H  H24  1  0.73890000  0.53590000  0.66950000  1.0 0.1617745905
H  H25  1  0.82690000  0.65290000  0.41010000  1.0 0.1617745905
H  H26  1  0.41010000  0.11010000  0.82690000  1.0 0.1617745905
H  H27  1  0.13990000  0.83990000  0.59710000  1.0 0.1617745905
H  H28  1  0.59710000  0.42310000  0.13990000  1.0 0.1617745905
H  H29  1  0.53590000  0.23670000  0.01530000  1.0 0.1755067836
H  H30  1  0.01530000  0.21210000  0.53590000  1.0 0.1755067836
H  H31  1  0.03790000  0.23470000  0.01330000  1.0 0.1755067836
H  H32  1  0.01330000  0.71410000  0.03790000  1.0 0.1755067836
H  H33  1  0.74460000  0.02400000  0.21340000  1.0 0.1700020338
H  H34  1  0.21340000  0.01800000  0.74460000  1.0 0.1700020338
H  H35  1  0.23200000  0.03660000  0.22600000  1.0 0.1700020338
H  H36  1  0.22600000  0.50540000  0.23200000  1.0 0.1700020338
C  C1  1  0.57710000  0.79950000  0.98210000  1.0 0.6321067072
C  C2  1  0.98210000  0.64130000  0.57710000  1.0 0.6321067072
C  C3  1  0.60870000  0.26790000  0.45050000  1.0 0.6321067072
C  C4  1  0.45050000  0.67290000  0.60870000  1.0 0.6321067072
C  C5  1  0.56250000  0.77310000  0.93650000  1.0 0.0543846245
C  C6  1  0.93650000  0.72790000  0.56250000  1.0 0.0543846245
C  C7  1  0.52210000  0.31350000  0.47690000  1.0 0.05965344
C  C8  1  0.47690000  0.68750000  0.52210000  1.0 0.05965344
C  C9  1  0.75060000  0.62320000  0.11920000  1.0 0.6230189036
C  C10  1  0.11920000  0.50700000  0.75060000  1.0 0.6230189036
C  C11  1  0.74300000  0.13080000  0.62680000  1.0 0.6230189036
C  C12  1  0.62680000  0.49940000  0.74300000  1.0 0.6230189036
C  C13  1  0.80830000  0.69410000  0.24830000  1.0 0.6373935386
C  C14  1  0.24830000  0.24930000  0.80830000  1.0 0.6373935386
C  C15  1  0.00070000  0.00170000  0.55590000  1.0 0.6373935386
C  C16  1  0.55590000  0.44170000  0.00070000  1.0 0.6373935386
C  C17  1  0.89630000  0.72490000  0.92870000  1.0 0.6641570906
C  C18  1  0.92870000  0.45010000  0.89630000  1.0 0.6641570906
C  C19  1  0.79990000  0.32130000  0.52510000  1.0 0.6641570906
C  C20  1  0.52510000  0.35370000  0.79990000  1.0 0.6641570906
C  C21  1  0.49790000  0.12870000  0.10030000  1.0 0.6373935386
C  C22  1  0.10030000  0.27310000  0.49790000  1.0 0.6373935386
C  C23  1  0.97690000  0.14970000  0.12130000  1.0 0.6373935386
C  C24  1  0.12130000  0.75210000  0.97690000  1.0 0.6373935386
C  C25  1  0.53830000  0.72770000  0.96450000  1.0 -0.2299166081
C  C26  1  0.96450000  0.76950000  0.53830000  1.0 -0.2299166081
C  C27  1  0.48050000  0.28550000  0.52230000  1.0 -0.2299166081
C  C28  1  0.52230000  0.71170000  0.48050000  1.0 -0.2299166081
C  C29  1  0.68220000  0.94180000  0.24920000  1.0 0.6373935386
C  C30  1  0.24920000  0.12680000  0.68220000  1.0 0.6373935386
C  C31  1  0.12320000  0.00080000  0.30820000  1.0 0.6373935386
C  C32  1  0.30820000  0.56780000  0.12320000  1.0 0.6373935386
C  C33  1  0.79156000  0.53916000  0.13744000  1.0 0.017491704
C  C34  1  0.13744000  0.53184000  0.79156000  1.0 0.0116517942
C  C35  1  0.71816000  0.11256000  0.71084000  1.0 0.017491704
C  C36  1  0.71084000  0.45844000  0.71816000  1.0 0.017491704
C  C37  1  0.86930000  0.63450000  0.29270000  1.0 0.0410644784
C  C38  1  0.29270000  0.20350000  0.86930000  1.0 0.0410644784
C  C39  1  0.04650000  0.95730000  0.61550000  1.0 0.0410644784
C  C40  1  0.61550000  0.38070000  0.04650000  1.0 0.0410644784
C  C41  1  0.45640000  0.21440000  0.07660000  1.0 0.05965344
C  C42  1  0.07660000  0.25260000  0.45640000  1.0 0.05965344
C  C43  1  0.99740000  0.17340000  0.03560000  1.0 0.0696596901
C  C44  1  0.03560000  0.79360000  0.99740000  1.0 0.05965344
C  C45  1  0.53430000  0.72110000  0.89930000  1.0 0.05965344
C  C46  1  0.89930000  0.84530000  0.53430000  1.0 0.05965344
C  C47  1  0.40470000  0.35070000  0.52890000  1.0 0.05965344
C  C48  1  0.52890000  0.71570000  0.40470000  1.0 0.05965344
C  C49  1  0.70030000  0.96550000  0.29270000  1.0 0.0278822683
C  C50  1  0.29270000  0.04150000  0.70030000  1.0 0.0278822683
C  C51  1  0.20850000  0.95730000  0.28450000  1.0 0.0278822683
C  C52  1  0.28450000  0.54970000  0.20850000  1.0 0.0278822683
C  C53  1  0.48030000  0.91850000  0.40290000  1.0 0.8114802669
C  C54  1  0.40290000  0.19830000  0.48030000  1.0 0.8114802669
C  C55  1  0.05170000  0.84710000  0.33150000  1.0 0.8114802669
C  C56  1  0.33150000  0.76970000  0.05170000  1.0 0.8114802669
C  C57  1  0.76671000  0.49251000  0.17709000  1.0 -0.1923871395
C  C58  1  0.17709000  0.56369000  0.76671000  1.0 -0.1923871395
C  C59  1  0.68631000  0.07291000  0.75749000  1.0 -0.1923871395
C  C60  1  0.75749000  0.48329000  0.68631000  1.0 -0.1923871395
C  C61  1  0.86950000  0.62270000  0.36990000  1.0 -0.2170311605
C  C62  1  0.36990000  0.13790000  0.86950000  1.0 -0.2170311605
C  C63  1  0.11210000  0.88010000  0.62730000  1.0 -0.2170311605
C  C64  1  0.62730000  0.38050000  0.11210000  1.0 -0.2170311605
C  C65  1  0.48320000  0.25560000  0.03540000  1.0 -0.2299166081
C  C66  1  0.03540000  0.22580000  0.48320000  1.0 -0.2299166081
C  C67  1  0.02420000  0.21460000  0.99440000  1.0 -0.2299166081
C  C68  1  0.99440000  0.76680000  0.02420000  1.0 -0.2299166081
C  C69  1  0.50810000  0.68250000  0.88950000  1.0 0.6373935386
C  C70  1  0.88950000  0.91990000  0.50810000  1.0 0.6373935386
C  C71  1  0.33010000  0.36050000  0.56750000  1.0 0.6373935386
C  C72  1  0.56750000  0.74190000  0.33010000  1.0 0.6373935386
C  C73  1  0.73030000  0.00530000  0.26610000  1.0 -0.210993441
C  C74  1  0.26610000  0.99830000  0.73030000  1.0 -0.210993441
C  C75  1  0.25170000  0.98390000  0.24470000  1.0 -0.210993441
C  C76  1  0.24470000  0.51970000  0.25170000  1.0 -0.210993441
C  C77  1  0.83394000  0.41354000  0.18646000  1.0 -0.0088758402
C  C78  1  0.18646000  0.56606000  0.83394000  1.0 -0.0088758402
C  C79  1  0.68394000  0.06354000  0.83646000  1.0 -0.0088758402
C  C80  1  0.83646000  0.41606000  0.68394000  1.0 -0.0088758402
C  C81  1  0.94330000  0.55890000  0.37550000  1.0 0.0410644784
C  C82  1  0.37550000  0.12230000  0.94330000  1.0 0.0410644784
C  C83  1  0.12770000  0.87450000  0.69110000  1.0 0.0410644784
C  C84  1  0.69110000  0.30670000  0.12770000  1.0 0.0410644784
C  C85  1  0.41570000  0.33210000  0.02890000  1.0 0.0886133368
C  C86  1  0.02890000  0.22330000  0.41570000  1.0 0.0886133368
C  C87  1  0.02670000  0.22110000  0.91790000  1.0 0.0886133368
C  C88  1  0.91790000  0.83430000  0.02670000  1.0 0.0886133368
C  C89  1  0.73540000  0.01220000  0.33100000  1.0 0.0116517942
C  C90  1  0.33100000  0.92140000  0.73540000  1.0 0.0116517942
C  C91  1  0.32860000  0.91900000  0.23780000  1.0 0.0116517942
C  C92  1  0.23780000  0.51460000  0.32860000  1.0 0.0116517942
C  C93  1  0.84330000  0.34390000  0.22530000  1.0 0.6093916426
C  C94  1  0.22530000  0.58750000  0.84330000  1.0 0.6093916426
C  C95  1  0.66250000  0.02470000  0.90610000  1.0 0.6093916426
C  C96  1  0.90610000  0.40670000  0.66250000  1.0 0.6093916426
C  C97  1  0.98420000  0.51560000  0.43920000  1.0 0.6373935386
C  C98  1  0.43920000  0.06100000  0.98420000  1.0 0.6373935386
C  C99  1  0.18900000  0.81080000  0.73440000  1.0 0.6373935386
C  C100  1  0.73440000  0.26580000  0.18900000  1.0 0.6373935386
C  C101  1  0.40730000  0.40490000  0.98690000  1.0 0.6321067072
C  C102  1  0.98690000  0.20090000  0.40730000  1.0 0.6321067072
C  C103  1  0.04910000  0.26310000  0.84510000  1.0 0.6321067072
C  C104  1  0.84510000  0.84270000  0.04910000  1.0 0.6321067072
C  C105  1  0.76220000  0.04840000  0.34080000  1.0 0.6321067072
C  C106  1  0.34080000  0.84860000  0.76220000  1.0 0.6373935386
C  C107  1  0.40140000  0.90920000  0.20160000  1.0 0.6321067072
C  C108  1  0.20160000  0.48780000  0.40140000  1.0 0.6321067072
C  C109  1  0.75690000  0.86570000  0.82330000  1.0 0.4263152444
C  C110  1  0.82330000  0.55410000  0.75690000  1.0 0.4247630666
C  C111  1  0.69590000  0.42670000  0.38430000  1.0 0.4247630666
C  C112  1  0.38430000  0.49310000  0.69590000  1.0 0.4247630666
C  C113  1  0.40290000  0.08090000  0.28890000  1.0 0.8222341071
C  C114  1  0.28890000  0.22730000  0.40290000  1.0 0.8222341071
C  C115  1  0.02270000  0.96110000  0.16910000  1.0 0.8222341071
C  C116  1  0.16910000  0.84710000  0.02270000  1.0 0.8222341071
C  C117  1  0.75860000  0.78040000  0.86380000  1.0 0.1446912418
C  C118  1  0.86380000  0.59720000  0.75860000  1.0 0.1446912418
C  C119  1  0.65280000  0.38620000  0.46960000  1.0 0.1446912418
C  C120  1  0.46960000  0.49140000  0.65280000  1.0 0.1446912418
C  C121  1  0.84050000  0.80330000  0.74150000  1.0 -0.0303970008
C  C122  1  0.74150000  0.61470000  0.84050000  1.0 -0.0303970008
C  C123  1  0.63530000  0.50850000  0.44670000  1.0 -0.0303970008
C  C124  1  0.44670000  0.40950000  0.63530000  1.0 -0.0303970008
N  N1  1  0.57210000  0.79090000  0.85990000  1.0 0.0003943889
N  N2  1  0.85990000  0.77710000  0.57210000  1.0 0.0116517942
N  N3  1  0.47290000  0.39010000  0.45910000  1.0 -0.0020349502
N  N4  1  0.45910000  0.67790000  0.47290000  1.0 0.0003943889
N  N5  1  0.55450000  0.75990000  0.83630000  1.0 -0.1574932803
N  N6  1  0.83630000  0.84930000  0.55450000  1.0 -0.1574932803
N  N7  1  0.40070000  0.41370000  0.49010000  1.0 -0.1574932803
N  N8  1  0.49010000  0.69550000  0.40070000  1.0 -0.1574932803
N  N9  1  0.87429000  0.48889000  0.12231000  1.0 -0.0606157222
N  N10  1  0.12231000  0.51451000  0.87429000  1.0 -0.0606157222
N  N11  1  0.73549000  0.12769000  0.76111000  1.0 -0.0606157222
N  N12  1  0.76111000  0.37571000  0.73549000  1.0 -0.0606157222
N  N13  1  0.94230000  0.57690000  0.25410000  1.0 -0.129559378
N  N14  1  0.25410000  0.22670000  0.94230000  1.0 -0.1247445513
N  N15  1  0.02330000  0.99590000  0.67310000  1.0 -0.129559378
N  N16  1  0.67310000  0.30770000  0.02330000  1.0 -0.129559378
N  N17  1  0.37910000  0.26450000  0.09250000  1.0 0.0696596901
N  N18  1  0.09250000  0.26390000  0.37910000  1.0 0.0696596901
N  N19  1  0.98610000  0.15750000  0.98550000  1.0 0.0696596901
N  N20  1  0.98550000  0.87090000  0.98610000  1.0 0.0696596901
N  N21  1  0.68460000  0.95020000  0.37240000  1.0 -0.1247445513
N  N22  1  0.37240000  0.99280000  0.68460000  1.0 -0.1393136153
N  N23  1  0.25720000  0.87760000  0.29980000  1.0 -0.1393136153
N  N24  1  0.29980000  0.56540000  0.25720000  1.0 -0.1393136153
N  N25  1  0.90046000  0.41126000  0.15254000  1.0 -0.129559378
N  N26  1  0.15254000  0.53574000  0.90046000  1.0 -0.129559378
N  N27  1  0.71426000  0.09746000  0.83874000  1.0 -0.129559378
N  N28  1  0.83874000  0.34954000  0.71426000  1.0 -0.129559378
N  N29  1  0.98660000  0.53180000  0.30540000  1.0 -0.129559378
N  N30  1  0.30540000  0.17620000  0.98660000  1.0 -0.129559378
N  N31  1  0.07380000  0.94460000  0.71820000  1.0 -0.129559378
N  N32  1  0.71820000  0.26340000  0.07380000  1.0 -0.129559378
N  N33  1  0.35270000  0.33710000  0.06430000  1.0 -0.1812903368
N  N34  1  0.06430000  0.24590000  0.35270000  1.0 -0.1812903368
N  N35  1  0.00410000  0.18570000  0.91290000  1.0 -0.1812903368
N  N36  1  0.91290000  0.89730000  0.00410000  1.0 -0.1812903368
N  N37  1  0.70600000  0.97900000  0.39500000  1.0 0.0116517942
N  N38  1  0.39500000  0.92000000  0.70600000  1.0 0.0278822683
N  N39  1  0.33000000  0.85500000  0.27100000  1.0 0.017491704
N  N40  1  0.27100000  0.54400000  0.33000000  1.0 0.0278822683
N  N41  1  0.81710000  0.75590000  0.79890000  1.0 -0.0874962826
N  N42  1  0.79890000  0.62810000  0.81710000  1.0 -0.0874962826
N  N43  1  0.62190000  0.45110000  0.49410000  1.0 -0.0874962826
N  N44  1  0.49410000  0.43290000  0.62190000  1.0 -0.0874962826
O  O1  1  0.66829000  0.80189000  0.05491000  1.0 -1.1280369467
O  O2  1  0.05491000  0.47491000  0.66829000  1.0 -1.1280369467
O  O3  1  0.77509000  0.19509000  0.44811000  1.0 -1.1280369467
O  O4  1  0.44811000  0.58171000  0.77509000  1.0 -1.1280369467
O  O5  1  0.52303000  0.90883000  0.07337000  1.0 -1.0707483758
O  O6  1  0.07337000  0.49477000  0.52303000  1.0 -1.0707483758
O  O7  1  0.75523000  0.17663000  0.34117000  1.0 -1.0707483758
O  O8  1  0.34117000  0.72697000  0.75523000  1.0 -1.0707483758
O  O9  1  0.59454000  0.84434000  0.94366000  1.0 -0.6012957414
O  O10  1  0.94366000  0.61746000  0.59454000  1.0 -0.6012957414
O  O11  1  0.63254000  0.30634000  0.40566000  1.0 -0.6012957414
O  O12  1  0.40566000  0.65546000  0.63254000  1.0 -0.6012957414
O  O13  1  0.71016000  0.85236000  0.87324000  1.0 -0.3693590333
O  O14  1  0.87324000  0.56424000  0.71016000  1.0 -0.3693590333
O  O15  1  0.68576000  0.37676000  0.39764000  1.0 -0.3693590333
O  O16  1  0.39764000  0.53984000  0.68576000  1.0 -0.3693590333
O  O17  1  0.57940000  0.97140000  0.05820000  1.0 -1.1280369467
O  O18  1  0.05820000  0.39100000  0.57940000  1.0 -1.1280369467
O  O19  1  0.85900000  0.19180000  0.27860000  1.0 -1.1280369467
O  O20  1  0.27860000  0.67060000  0.85900000  1.0 -1.1280369467
O  O21  1  0.72477000  0.86997000  0.00103000  1.0 -1.0807305564
O  O22  1  0.00103000  0.40423000  0.72477000  1.0 -1.0707483758
O  O23  1  0.84577000  0.24897000  0.38003000  1.0 -1.0707483758
O  O24  1  0.38003000  0.52523000  0.84577000  1.0 -1.0707483758
O  O25  1  0.63697000  0.99577000  0.89843000  1.0 -0.5797529128
O  O26  1  0.89843000  0.46883000  0.63697000  1.0 -0.5797529128
O  O27  1  0.78117000  0.35157000  0.25423000  1.0 -0.5797529128
O  O28  1  0.25423000  0.61303000  0.78117000  1.0 -0.5797529128
O  O29  1  0.50620000  0.01040000  0.94420000  1.0 -0.5797529128
O  O30  1  0.94420000  0.53920000  0.50620000  1.0 -0.5797529128
O  O31  1  0.71080000  0.30580000  0.23960000  1.0 -0.5797529128
O  O32  1  0.23960000  0.74380000  0.71080000  1.0 -0.5797529128
O  O33  1  0.54778000  0.87658000  0.20382000  1.0 -1.1560391953
O  O34  1  0.20382000  0.37182000  0.54778000  1.0 -1.1560391953
O  O35  1  0.87818000  0.04618000  0.37342000  1.0 -1.1560391953
O  O36  1  0.37342000  0.70222000  0.87818000  1.0 -1.1560391953
O  O37  1  0.67708000  0.66568000  0.13552000  1.0 -0.5797529128
O  O38  1  0.13552000  0.52172000  0.67708000  1.0 -0.5797529128
O  O39  1  0.72828000  0.11448000  0.58432000  1.0 -0.5797529128
O  O40  1  0.58432000  0.57292000  0.72828000  1.0 -0.5797529128
O  O41  1  0.57184000  0.77304000  0.05316000  1.0 -0.5724548965
O  O42  1  0.05316000  0.60196000  0.57184000  1.0 -0.5724548965
O  O43  1  0.64804000  0.19684000  0.47696000  1.0 -0.5724548965
O  O44  1  0.47696000  0.67816000  0.64804000  1.0 -0.5724548965
O  O45  1  0.68353000  0.74793000  0.19347000  1.0 -1.0807305564
O  O46  1  0.19347000  0.37507000  0.68353000  1.0 -1.0807305564
O  O47  1  0.87493000  0.05653000  0.50207000  1.0 -1.0807305564
O  O48  1  0.50207000  0.56647000  0.87493000  1.0 -1.0807305564
O  O49  1  0.56751000  0.73591000  0.26709000  1.0 -0.5797529128
O  O50  1  0.26709000  0.42949000  0.56751000  1.0 -0.5797529128
O  O51  1  0.82051000  0.98291000  0.51409000  1.0 -0.5797529128
O  O52  1  0.51409000  0.68249000  0.82051000  1.0 -0.5797529128
O  O53  1  0.46298000  0.84138000  0.18682000  1.0 -0.5899544949
O  O54  1  0.18682000  0.50882000  0.46298000  1.0 -0.5899544949
O  O55  1  0.74118000  0.06318000  0.40862000  1.0 -0.5899544949
O  O56  1  0.40862000  0.78702000  0.74118000  1.0 -0.5899544949
O  O57  1  0.83075000  0.68655000  0.17605000  1.0 -0.6012957414
O  O58  1  0.17605000  0.30665000  0.83075000  1.0 -0.6012957414
O  O59  1  0.94335000  0.07395000  0.56345000  1.0 -0.6012957414
O  O60  1  0.56345000  0.41925000  0.94335000  1.0 -0.6012957414
O  O61  1  0.85390000  0.70890000  0.98290000  1.0 -0.5899544949
O  O62  1  0.98290000  0.45430000  0.85390000  1.0 -0.5899544949
O  O63  1  0.79570000  0.26710000  0.54110000  1.0 -0.5899544949
O  O64  1  0.54110000  0.39610000  0.79570000  1.0 -0.5899544949
O  O65  1  0.69838000  0.85178000  0.14842000  1.0 -1.1244035234
O  O66  1  0.14842000  0.30142000  0.69838000  1.0 -1.1280369467
O  O67  1  0.94858000  0.10158000  0.39822000  1.0 -1.1280369467
O  O68  1  0.39822000  0.55162000  0.94858000  1.0 -1.1280369467
O  O69  1  0.79164000  0.64524000  0.09236000  1.0 -0.5724548965
O  O70  1  0.09236000  0.47076000  0.79164000  1.0 -0.5724548965
O  O71  1  0.77924000  0.15764000  0.60476000  1.0 -0.5724548965
O  O72  1  0.60476000  0.45836000  0.77924000  1.0 -0.5724548965
O  O73  1  0.85120000  0.78240000  0.06320000  1.0 -0.5797529128
O  O74  1  0.06320000  0.30320000  0.85120000  1.0 -0.5797529128
O  O75  1  0.94680000  0.18680000  0.46760000  1.0 -0.5797529128
O  O76  1  0.46760000  0.39880000  0.94680000  1.0 -0.5797529128
O  O77  1  0.56419000  0.97079000  0.19841000  1.0 -1.0942468812
O  O78  1  0.19841000  0.26661000  0.56419000  1.0 -1.0942468812
O  O79  1  0.98339000  0.05159000  0.27921000  1.0 -1.0942468812
O  O80  1  0.27921000  0.68581000  0.98339000  1.0 -1.0942468812
O  O81  1  0.45652000  0.10812000  0.12348000  1.0 -0.5602023845
O  O82  1  0.12348000  0.31188000  0.45652000  1.0 -0.5602023845
O  O83  1  0.93812000  0.12652000  0.14188000  1.0 -0.5602023845
O  O84  1  0.14188000  0.79348000  0.93812000  1.0 -0.5602023845
O  O85  1  0.40180000  0.04500000  0.25260000  1.0 -0.6529119929
O  O86  1  0.25260000  0.30060000  0.40180000  1.0 -0.6529119929
O  O87  1  0.94940000  0.99740000  0.20500000  1.0 -0.6529119929
O  O88  1  0.20500000  0.84820000  0.94940000  1.0 -0.6529119929
O  O89  1  0.41911000  0.06251000  0.05789000  1.0 -0.5899544949
O  O90  1  0.05789000  0.46049000  0.41911000  1.0 -0.5899544949
O  O91  1  0.78951000  0.19211000  0.18749000  1.0 -0.5899544949
O  O92  1  0.18749000  0.83089000  0.78951000  1.0 -0.5899544949
O  O93  1  0.39468000  0.97008000  0.19052000  1.0 -0.5797529128
O  O94  1  0.19052000  0.44472000  0.39468000  1.0 -0.5797529128
O  O95  1  0.80528000  0.05948000  0.27992000  1.0 -0.5797529128
O  O96  1  0.27992000  0.85532000  0.80528000  1.0 -0.5797529128
O  O97  1  0.57139000  0.08559000  0.09241000  1.0 -0.5899544949
O  O98  1  0.09241000  0.25061000  0.57139000  1.0 -0.5899544949
O  O99  1  0.99939000  0.15759000  0.16441000  1.0 -0.5899544949
O  O100  1  0.16441000  0.67861000  0.99939000  1.0 -0.5899544949
O  O101  1  0.68150000  0.97350000  0.17830000  1.0 -0.5899544949
O  O102  1  0.17830000  0.16670000  0.68150000  1.0 -0.5899544949
O  O103  1  0.08330000  0.07170000  0.27650000  1.0 -0.5899544949
O  O104  1  0.27650000  0.56850000  0.08330000  1.0 -0.5899544949
O  O105  1  0.78213000  0.91273000  0.04907000  1.0 -0.5797529128
O  O106  1  0.04907000  0.25607000  0.78213000  1.0 -0.5797529128
O  O107  1  0.99393000  0.20093000  0.33727000  1.0 -0.5797529128
O  O108  1  0.33727000  0.46787000  0.99393000  1.0 -0.5797529128
O  O109  1  0.67378000  0.02058000  0.96722000  1.0 -0.5724548965
O  O110  1  0.96722000  0.33842000  0.67378000  1.0 -0.5724548965
O  O111  1  0.91158000  0.28278000  0.22942000  1.0 -0.5724548965
O  O112  1  0.22942000  0.57622000  0.91158000  1.0 -0.5724548965
O  O113  1  0.54110000  0.90510000  0.35630000  1.0 -0.5602023845
O  O114  1  0.35630000  0.19750000  0.54110000  1.0 -0.5602023845
O  O115  1  0.05250000  0.89370000  0.34490000  1.0 -0.5602023845
O  O116  1  0.34490000  0.70890000  0.05250000  1.0 -0.5602023845
O  O117  1  0.74090000  0.74390000  0.28970000  1.0 -0.5899544949
O  O118  1  0.28970000  0.22550000  0.74090000  1.0 -0.5899544949
O  O119  1  0.02450000  0.96030000  0.50610000  1.0 -0.5899544949
O  O120  1  0.50610000  0.50910000  0.02450000  1.0 -0.5899544949
O  O121  1  0.66772000  0.89432000  0.28548000  1.0 -0.5797529128
O  O122  1  0.28548000  0.15248000  0.66772000  1.0 -0.5797529128
O  O123  1  0.09752000  0.96452000  0.35568000  1.0 -0.5797529128
O  O124  1  0.35568000  0.58228000  0.09752000  1.0 -0.5797529128
O  O125  1  0.59354000  0.77074000  0.33786000  1.0 -0.6012957414
O  O126  1  0.33786000  0.29786000  0.59354000  1.0 -0.6012957414
O  O127  1  0.95214000  0.91214000  0.47926000  1.0 -0.6012957414
O  O128  1  0.47926000  0.65646000  0.95214000  1.0 -0.6012957414
O  O129  1  0.87390000  0.79490000  0.89790000  1.0 -0.3122771849
O  O130  1  0.89790000  0.43330000  0.87390000  1.0 -0.3122771849
O  O131  1  0.81670000  0.35210000  0.45510000  1.0 -0.3122771849
O  O132  1  0.45510000  0.37610000  0.81670000  1.0 -0.3122771849
O  O133  1  0.45300000  0.91620000  0.47540000  1.0 -0.3783760165
O  O134  1  0.47540000  0.15540000  0.45300000  1.0 -0.3783760165
O  O135  1  0.09460000  0.77460000  0.33380000  1.0 -0.3783760165
O  O136  1  0.33380000  0.79700000  0.09460000  1.0 -0.3783760165
O  O137  1  0.79950000  0.86710000  0.84510000  1.0 -0.1812903368
O  O138  1  0.84510000  0.48830000  0.79950000  1.0 -0.1812903368
O  O139  1  0.76170000  0.40490000  0.38290000  1.0 -0.1701725592
O  O140  1  0.38290000  0.45050000  0.76170000  1.0 -0.1812903368
O  O141  1  0.45360000  0.08680000  0.29160000  1.0 -0.5452989806
O  O142  1  0.29160000  0.16800000  0.45360000  1.0 -0.5452989806
O  O143  1  0.08200000  0.95840000  0.16320000  1.0 -0.5452989806
O  O144  1  0.16320000  0.79640000  0.08200000  1.0 -0.5452989806
