# DDEC6 charges by PACMAN v1.1 (https://github.com/mtap-research/PACMAN-charge/)
data_BOJDAG_FSR_pacman
_symmetry_space_group_name_H-M   'P 1'
_cell_length_a   6.61804000
_cell_length_b   15.14280000
_cell_length_c   19.15950000
_cell_angle_alpha   90.00000000
_cell_angle_beta   90.00000000
_cell_angle_gamma   90.00000000
_symmetry_Int_Tables_number   1
_chemical_formula_structural   Zr3P5H2O17F2
_chemical_formula_sum   'Zr12 P20 H8 O68 F8'
_cell_volume   1920.08186328
_cell_formula_units_Z   4
loop_
 _symmetry_equiv_pos_site_id
 _symmetry_equiv_pos_as_xyz
  1  'x, y, z'
loop_
 _atom_site_type_symbol
 _atom_site_label
 _atom_site_symmetry_multiplicity
 _atom_site_fract_x
 _atom_site_fract_y
 _atom_site_fract_z
 _atom_site_occupancy
 _atom_site_charge
Zr  Zr1  1  0.00000000  0.60463000  0.11320000  1.0 2.3044824431
Zr  Zr2  1  0.50000000  0.89537000  0.61320000  1.0 2.3044824431
Zr  Zr3  1  0.50000000  0.10463000  0.38680000  1.0 2.3044824431
Zr  Zr4  1  0.00000000  0.39537000  0.88680000  1.0 2.3044824431
Zr  Zr5  1  0.50000000  0.51094000  0.31685000  1.0 2.5535941352
Zr  Zr6  1  0.00000000  0.98906000  0.81685000  1.0 2.5551856587
Zr  Zr7  1  0.00000000  0.01094000  0.18315000  1.0 2.5535941352
Zr  Zr8  1  0.50000000  0.48906000  0.68315000  1.0 2.5535941352
Zr  Zr9  1  0.00000000  0.27578000  0.22056000  1.0 2.4532735178
Zr  Zr10  1  0.50000000  0.22422000  0.72056000  1.0 2.4532735178
Zr  Zr11  1  0.50000000  0.77578000  0.27944000  1.0 2.4532735178
Zr  Zr12  1  0.00000000  0.72422000  0.77944000  1.0 2.4532735178
P  P1  1  0.50000000  0.61420000  0.15320000  1.0 1.5714669058
P  P2  1  0.00000000  0.88580000  0.65320000  1.0 1.5714669058
P  P3  1  0.00000000  0.11420000  0.34680000  1.0 1.5714669058
P  P4  1  0.50000000  0.38580000  0.84680000  1.0 1.5714669058
P  P5  1  0.00000000  0.49920000  0.27730000  1.0 1.6459706455
P  P6  1  0.50000000  0.00080000  0.77730000  1.0 1.6459706455
P  P7  1  0.50000000  0.99920000  0.22270000  1.0 1.6416570971
P  P8  1  0.00000000  0.50080000  0.72270000  1.0 1.6459706455
P  P9  1  0.00000000  0.78360000  0.22670000  1.0 1.6737906366
P  P10  1  0.50000000  0.71640000  0.72670000  1.0 1.6737906366
P  P11  1  0.50000000  0.28360000  0.27330000  1.0 1.6737906366
P  P12  1  0.00000000  0.21640000  0.77330000  1.0 1.6764234135
P  P13  1  0.07830000  0.38750000  0.05990000  1.0 0.7153375277
P  P14  1  0.42170000  0.11250000  0.55990000  1.0 0.7153375277
P  P15  1  0.42170000  0.88750000  0.44010000  1.0 0.7153375277
P  P16  1  0.07830000  0.61250000  0.94010000  1.0 0.7153375277
P  P17  1  0.92170000  0.61250000  0.94010000  1.0 0.7153375277
P  P18  1  0.57830000  0.88750000  0.44010000  1.0 0.7153375277
P  P19  1  0.57830000  0.11250000  0.55990000  1.0 0.7153375277
P  P20  1  0.92170000  0.38750000  0.05990000  1.0 0.7153375277
H  H1  1  0.41690000  0.42300000  0.04100000  1.0 0.3345375935
H  H2  1  0.08310000  0.07700000  0.54100000  1.0 0.3345375935
H  H3  1  0.08310000  0.92300000  0.45900000  1.0 0.3345375935
H  H4  1  0.41690000  0.57700000  0.95900000  1.0 0.3345375935
H  H5  1  0.58310000  0.57700000  0.95900000  1.0 0.3345375935
H  H6  1  0.91690000  0.92300000  0.45900000  1.0 0.3345375935
H  H7  1  0.91690000  0.07700000  0.54100000  1.0 0.3345375935
H  H8  1  0.58310000  0.42300000  0.04100000  1.0 0.3345375935
O  O1  1  0.00000000  0.55160000  0.20930000  1.0 -0.8596863916
O  O2  1  0.50000000  0.94840000  0.70930000  1.0 -0.8596863916
O  O3  1  0.50000000  0.05160000  0.29070000  1.0 -0.8596863916
O  O4  1  0.00000000  0.44840000  0.79070000  1.0 -0.8596863916
O  O5  1  0.00000000  0.47940000  0.07770000  1.0 -0.6023486426
O  O6  1  0.50000000  0.02060000  0.57770000  1.0 -0.6023486426
O  O7  1  0.50000000  0.97940000  0.42230000  1.0 -0.6023486426
O  O8  1  0.00000000  0.52060000  0.92230000  1.0 -0.6023486426
O  O9  1  0.00000000  0.71800000  0.15840000  1.0 -0.8419605067
O  O10  1  0.50000000  0.78200000  0.65840000  1.0 -0.8419605067
O  O11  1  0.50000000  0.21800000  0.34160000  1.0 -0.8419605067
O  O12  1  0.00000000  0.28200000  0.84160000  1.0 -0.8419605067
O  O13  1  0.00000000  0.40180000  0.26170000  1.0 -0.8823669424
O  O14  1  0.50000000  0.09820000  0.76170000  1.0 -0.8823669424
O  O15  1  0.50000000  0.90180000  0.23830000  1.0 -0.8823669424
O  O16  1  0.00000000  0.59820000  0.73830000  1.0 -0.8823669424
O  O17  1  0.00000000  0.32520000  0.11480000  1.0 -0.5495581498
O  O18  1  0.50000000  0.17480000  0.61480000  1.0 -0.5495581498
O  O19  1  0.50000000  0.82520000  0.38520000  1.0 -0.5495581498
O  O20  1  0.00000000  0.67480000  0.88520000  1.0 -0.5495581498
O  O21  1  0.50000000  0.70730000  0.18830000  1.0 -0.8823669424
O  O22  1  0.00000000  0.79270000  0.68830000  1.0 -0.8823669424
O  O23  1  0.00000000  0.20730000  0.31170000  1.0 -0.8823669424
O  O24  1  0.50000000  0.29270000  0.81170000  1.0 -0.8823669424
O  O25  1  0.50000000  0.54840000  0.21070000  1.0 -0.8746820709
O  O26  1  0.00000000  0.95160000  0.71070000  1.0 -0.8746820709
O  O27  1  0.00000000  0.04840000  0.28930000  1.0 -0.8746820709
O  O28  1  0.50000000  0.45160000  0.78930000  1.0 -0.8746820709
O  O29  1  0.18920000  0.51790000  0.31940000  1.0 -0.8526426127
O  O30  1  0.31080000  0.98210000  0.81940000  1.0 -0.8526426127
O  O31  1  0.31080000  0.01790000  0.18060000  1.0 -0.8526426127
O  O32  1  0.18920000  0.48210000  0.68060000  1.0 -0.8526426127
O  O33  1  0.81080000  0.48210000  0.68060000  1.0 -0.8526426127
O  O34  1  0.68920000  0.01790000  0.18060000  1.0 -0.8526426127
O  O35  1  0.68920000  0.98210000  0.81940000  1.0 -0.8526426127
O  O36  1  0.81080000  0.51790000  0.31940000  1.0 -0.8526426127
O  O37  1  0.31570000  0.60460000  0.10730000  1.0 -0.8162960282
O  O38  1  0.18430000  0.89540000  0.60730000  1.0 -0.8162960282
O  O39  1  0.18430000  0.10460000  0.39270000  1.0 -0.8162960282
O  O40  1  0.31570000  0.39540000  0.89270000  1.0 -0.8162960282
O  O41  1  0.68430000  0.39540000  0.89270000  1.0 -0.8162960282
O  O42  1  0.81570000  0.10460000  0.39270000  1.0 -0.8162960282
O  O43  1  0.81570000  0.89540000  0.60730000  1.0 -0.8162960282
O  O44  1  0.68430000  0.60460000  0.10730000  1.0 -0.8162960282
O  O45  1  0.18680000  0.77040000  0.27510000  1.0 -0.8419605067
O  O46  1  0.31320000  0.72960000  0.77510000  1.0 -0.8419605067
O  O47  1  0.31320000  0.27040000  0.22490000  1.0 -0.8419605067
O  O48  1  0.18680000  0.22960000  0.72490000  1.0 -0.8419605067
O  O49  1  0.81320000  0.22960000  0.72490000  1.0 -0.8419605067
O  O50  1  0.68680000  0.27040000  0.22490000  1.0 -0.8419605067
O  O51  1  0.68680000  0.72960000  0.77510000  1.0 -0.8419605067
O  O52  1  0.81320000  0.77040000  0.27510000  1.0 -0.8419605067
O  O53  1  0.00000000  0.35150000  0.98780000  1.0 -0.5781609735
O  O54  1  0.50000000  0.14850000  0.48780000  1.0 -0.5781609735
O  O55  1  0.50000000  0.85150000  0.51220000  1.0 -0.5781609735
O  O56  1  0.00000000  0.64850000  0.01220000  1.0 -0.5781609735
O  O57  1  0.00000000  0.88090000  0.20370000  1.0 -0.8823669424
O  O58  1  0.50000000  0.61910000  0.70370000  1.0 -0.8823669424
O  O59  1  0.50000000  0.38090000  0.29630000  1.0 -0.8823669424
O  O60  1  0.00000000  0.11910000  0.79630000  1.0 -0.8823669424
O  O61  1  0.31910000  0.38370000  0.06600000  1.0 -0.516985031
O  O62  1  0.18090000  0.11630000  0.56600000  1.0 -0.516985031
O  O63  1  0.18090000  0.88370000  0.43400000  1.0 -0.516985031
O  O64  1  0.31910000  0.61630000  0.93400000  1.0 -0.516985031
O  O65  1  0.68090000  0.61630000  0.93400000  1.0 -0.516985031
O  O66  1  0.81910000  0.88370000  0.43400000  1.0 -0.516985031
O  O67  1  0.81910000  0.11630000  0.56600000  1.0 -0.516985031
O  O68  1  0.68090000  0.38370000  0.06600000  1.0 -0.516985031
F  F1  1  0.50000000  0.65020000  0.33090000  1.0 -0.7146996429
F  F2  1  0.00000000  0.84980000  0.83090000  1.0 -0.7154183557
F  F3  1  0.00000000  0.15020000  0.16910000  1.0 -0.7146996429
F  F4  1  0.50000000  0.34980000  0.66910000  1.0 -0.7146996429
F  F5  1  0.50000000  0.51050000  0.41840000  1.0 -0.5781609735
F  F6  1  0.00000000  0.98950000  0.91840000  1.0 -0.5781609735
F  F7  1  0.00000000  0.01050000  0.08160000  1.0 -0.5781609735
F  F8  1  0.50000000  0.48950000  0.58160000  1.0 -0.5781609735
