# DDEC6 charges by PACMAN v1.1 (https://github.com/mtap-research/PACMAN-charge/)
data_BOMVUX_ion_pacman
_symmetry_space_group_name_H-M   'P 1'
_cell_length_a   12.33700000
_cell_length_b   32.66400000
_cell_length_c   12.96400000
_cell_angle_alpha   90.00000000
_cell_angle_beta   93.65000000
_cell_angle_gamma   90.00000000
_symmetry_Int_Tables_number   1
_chemical_formula_structural   Mn4H66C78Br2(N4O5)3
_chemical_formula_sum   'Mn8 H132 C156 Br4 N24 O30'
_cell_volume   5213.58089028
_cell_formula_units_Z   2
loop_
 _symmetry_equiv_pos_site_id
 _symmetry_equiv_pos_as_xyz
  1  'x, y, z'
loop_
 _atom_site_type_symbol
 _atom_site_label
 _atom_site_symmetry_multiplicity
 _atom_site_fract_x
 _atom_site_fract_y
 _atom_site_fract_z
 _atom_site_occupancy
 _atom_site_charge
Mn  Mn1  1  0.70175000  0.92895000  0.59063000  1.0 0.887192365
Mn  Mn2  1  0.29825000  0.42895000  0.40937000  1.0 0.887192365
Mn  Mn3  1  0.29825000  0.07105000  0.40937000  1.0 0.887192365
Mn  Mn4  1  0.70175000  0.57105000  0.59063000  1.0 0.887192365
Mn  Mn5  1  0.22329000  0.25000000  0.70754000  1.0 0.0118582046
Mn  Mn6  1  0.77671000  0.75000000  0.29246000  1.0 0.0118582046
Mn  Mn7  1  0.50000000  0.00000000  0.50000000  1.0 1.0852743948
Mn  Mn8  1  0.50000000  0.50000000  0.50000000  1.0 1.0852743948
H  H1  1  0.17780000  0.13530000  0.64200000  1.0 0.1600477031
H  H2  1  0.05690000  0.13720000  0.58950000  1.0 0.1600477031
H  H3  1  0.13900000  0.17440000  0.57500000  1.0 0.1517250627
H  H4  1  0.87490000  0.21600000  0.94360000  1.0 0.1390321049
H  H5  1  0.82150000  0.17470000  0.89730000  1.0 0.1600477031
H  H6  1  0.91370000  0.17260000  0.98970000  1.0 0.1600477031
H  H7  1  0.00880000  0.07910000  0.80270000  1.0 0.1192575349
H  H8  1  0.77430000  0.15180000  0.71970000  1.0 0.1309102408
H  H9  1  0.91030000  0.02430000  0.73730000  1.0 0.1309102408
H  H10  1  0.66590000  0.09750000  0.65600000  1.0 0.1309102408
H  H11  1  0.82260000  0.91880000  0.26530000  1.0 0.1192575349
H  H12  1  0.51580000  0.95710000  0.19860000  1.0 0.1309102408
H  H13  1  0.84610000  0.90560000  0.09350000  1.0 0.1123264992
H  H14  1  0.53460000  0.93960000  0.02460000  1.0 0.1192575349
H  H15  1  0.66140000  0.99130000  0.85190000  1.0 0.1600477031
H  H16  1  0.57470000  0.97250000  0.76790000  1.0 0.1696900876
H  H17  1  0.55360000  0.96990000  0.88820000  1.0 0.1390321049
H  H18  1  0.81660000  0.84230000  0.02780000  1.0 0.1390321049
H  H19  1  0.87380000  0.82990000  0.92500000  1.0 0.1390321049
H  H20  1  0.75670000  0.81180000  0.94620000  1.0 0.1600477031
H  H21  1  0.80000000  0.81880000  0.75060000  1.0 0.1309102408
H  H22  1  0.72190000  0.84050000  0.66360000  1.0 0.1517250627
H  H23  1  0.95330000  0.97000000  0.56270000  1.0 0.1600477031
H  H24  1  0.04620000  0.94790000  0.50240000  1.0 0.1517250627
H  H25  1  0.92190000  0.94420000  0.46020000  1.0 0.1600477031
H  H26  1  0.10020000  0.81890000  0.76450000  1.0 0.1517250627
H  H27  1  0.98360000  0.81390000  0.81040000  1.0 0.1390321049
H  H28  1  0.01010000  0.79020000  0.70700000  1.0 0.1600477031
H  H29  1  0.18910000  0.82710000  0.57430000  1.0 0.1192575349
H  H30  1  0.16300000  0.94550000  0.66920000  1.0 0.1192575349
H  H31  1  0.37460000  0.83730000  0.55730000  1.0 0.1309102408
H  H32  1  0.34560000  0.95540000  0.64670000  1.0 0.1309102408
H  H33  1  0.82220000  0.63530000  0.35800000  1.0 0.1600477031
H  H34  1  0.94310000  0.63720000  0.41050000  1.0 0.1600477031
H  H35  1  0.86100000  0.67440000  0.42500000  1.0 0.1517250627
H  H36  1  0.12510000  0.71600000  0.05640000  1.0 0.1390321049
H  H37  1  0.17850000  0.67470000  0.10270000  1.0 0.1600477031
H  H38  1  0.08630000  0.67260000  0.01030000  1.0 0.1600477031
H  H39  1  0.99120000  0.57910000  0.19730000  1.0 0.1192575349
H  H40  1  0.22570000  0.65180000  0.28030000  1.0 0.1309102408
H  H41  1  0.08970000  0.52430000  0.26270000  1.0 0.1309102408
H  H42  1  0.33410000  0.59750000  0.34400000  1.0 0.1390321049
H  H43  1  0.17740000  0.41880000  0.73470000  1.0 0.1192575349
H  H44  1  0.48420000  0.45710000  0.80140000  1.0 0.1309102408
H  H45  1  0.15390000  0.40560000  0.90650000  1.0 0.1123264992
H  H46  1  0.46540000  0.43960000  0.97540000  1.0 0.1192575349
H  H47  1  0.33860000  0.49130000  0.14810000  1.0 0.1600477031
H  H48  1  0.42530000  0.47250000  0.23210000  1.0 0.1696900876
H  H49  1  0.44640000  0.46990000  0.11180000  1.0 0.1390321049
H  H50  1  0.18340000  0.34230000  0.97220000  1.0 0.1390321049
H  H51  1  0.12620000  0.32990000  0.07500000  1.0 0.1390321049
H  H52  1  0.24330000  0.31180000  0.05380000  1.0 0.1600477031
H  H53  1  0.20000000  0.31880000  0.24940000  1.0 0.1309102408
H  H54  1  0.27810000  0.34050000  0.33640000  1.0 0.1517250627
H  H55  1  0.04670000  0.47000000  0.43730000  1.0 0.1600477031
H  H56  1  0.95380000  0.44790000  0.49760000  1.0 0.1517250627
H  H57  1  0.07810000  0.44420000  0.53980000  1.0 0.1600477031
H  H58  1  0.89980000  0.31890000  0.23550000  1.0 0.1517250627
H  H59  1  0.01640000  0.31390000  0.18960000  1.0 0.1390321049
H  H60  1  0.98990000  0.29020000  0.29300000  1.0 0.1600477031
H  H61  1  0.81090000  0.32710000  0.42570000  1.0 0.1192575349
H  H62  1  0.83700000  0.44550000  0.33080000  1.0 0.1192575349
H  H63  1  0.62540000  0.33730000  0.44270000  1.0 0.1309102408
H  H64  1  0.65440000  0.45540000  0.35330000  1.0 0.1309102408
H  H65  1  0.82220000  0.86470000  0.35800000  1.0 0.1600477031
H  H66  1  0.94310000  0.86280000  0.41050000  1.0 0.1600477031
H  H67  1  0.86100000  0.82560000  0.42500000  1.0 0.1517250627
H  H68  1  0.12510000  0.78400000  0.05640000  1.0 0.1390321049
H  H69  1  0.17850000  0.82530000  0.10270000  1.0 0.1600477031
H  H70  1  0.08630000  0.82740000  0.01030000  1.0 0.1600477031
H  H71  1  0.99120000  0.92090000  0.19730000  1.0 0.1192575349
H  H72  1  0.22570000  0.84820000  0.28030000  1.0 0.1309102408
H  H73  1  0.08970000  0.97570000  0.26270000  1.0 0.1309102408
H  H74  1  0.33410000  0.90250000  0.34400000  1.0 0.1390321049
H  H75  1  0.17740000  0.08120000  0.73470000  1.0 0.1192575349
H  H76  1  0.48420000  0.04290000  0.80140000  1.0 0.1309102408
H  H77  1  0.15390000  0.09440000  0.90650000  1.0 0.1123264992
H  H78  1  0.46540000  0.06040000  0.97540000  1.0 0.1192575349
H  H79  1  0.33860000  0.00870000  0.14810000  1.0 0.1600477031
H  H80  1  0.42530000  0.02750000  0.23210000  1.0 0.1696900876
H  H81  1  0.44640000  0.03010000  0.11180000  1.0 0.1390321049
H  H82  1  0.18340000  0.15770000  0.97220000  1.0 0.1390321049
H  H83  1  0.12620000  0.17010000  0.07500000  1.0 0.1390321049
H  H84  1  0.24330000  0.18820000  0.05380000  1.0 0.1600477031
H  H85  1  0.20000000  0.18120000  0.24940000  1.0 0.1309102408
H  H86  1  0.27810000  0.15950000  0.33640000  1.0 0.1517250627
H  H87  1  0.04670000  0.03000000  0.43730000  1.0 0.1600477031
H  H88  1  0.95380000  0.05210000  0.49760000  1.0 0.1517250627
H  H89  1  0.07810000  0.05580000  0.53980000  1.0 0.1600477031
H  H90  1  0.89980000  0.18110000  0.23550000  1.0 0.1517250627
H  H91  1  0.01640000  0.18610000  0.18960000  1.0 0.1390321049
H  H92  1  0.98990000  0.20980000  0.29300000  1.0 0.1600477031
H  H93  1  0.81090000  0.17290000  0.42570000  1.0 0.1192575349
H  H94  1  0.83700000  0.05450000  0.33080000  1.0 0.1192575349
H  H95  1  0.62540000  0.16270000  0.44270000  1.0 0.1309102408
H  H96  1  0.65440000  0.04460000  0.35330000  1.0 0.1309102408
H  H97  1  0.17780000  0.36470000  0.64200000  1.0 0.1600477031
H  H98  1  0.05690000  0.36280000  0.58950000  1.0 0.1600477031
H  H99  1  0.13900000  0.32560000  0.57500000  1.0 0.1517250627
H  H100  1  0.87490000  0.28400000  0.94360000  1.0 0.1390321049
H  H101  1  0.82150000  0.32530000  0.89730000  1.0 0.1600477031
H  H102  1  0.91370000  0.32740000  0.98970000  1.0 0.1600477031
H  H103  1  0.00880000  0.42090000  0.80270000  1.0 0.1192575349
H  H104  1  0.77430000  0.34820000  0.71970000  1.0 0.1309102408
H  H105  1  0.91030000  0.47570000  0.73730000  1.0 0.1309102408
H  H106  1  0.66590000  0.40250000  0.65600000  1.0 0.1309102408
H  H107  1  0.82260000  0.58120000  0.26530000  1.0 0.1192575349
H  H108  1  0.51580000  0.54290000  0.19860000  1.0 0.1309102408
H  H109  1  0.84610000  0.59440000  0.09350000  1.0 0.1123264992
H  H110  1  0.53460000  0.56040000  0.02460000  1.0 0.1192575349
H  H111  1  0.66140000  0.50870000  0.85190000  1.0 0.1600477031
H  H112  1  0.57470000  0.52750000  0.76790000  1.0 0.1696900876
H  H113  1  0.55360000  0.53010000  0.88820000  1.0 0.1390321049
H  H114  1  0.81660000  0.65770000  0.02780000  1.0 0.1390321049
H  H115  1  0.87380000  0.67010000  0.92500000  1.0 0.1390321049
H  H116  1  0.75670000  0.68820000  0.94620000  1.0 0.1600477031
H  H117  1  0.80000000  0.68120000  0.75060000  1.0 0.1309102408
H  H118  1  0.72190000  0.65950000  0.66360000  1.0 0.1517250627
H  H119  1  0.95330000  0.53000000  0.56270000  1.0 0.1600477031
H  H120  1  0.04620000  0.55210000  0.50240000  1.0 0.1517250627
H  H121  1  0.92190000  0.55580000  0.46020000  1.0 0.1600477031
H  H122  1  0.10020000  0.68110000  0.76450000  1.0 0.1517250627
H  H123  1  0.98360000  0.68610000  0.81040000  1.0 0.1390321049
H  H124  1  0.01010000  0.70980000  0.70700000  1.0 0.1600477031
H  H125  1  0.18910000  0.67290000  0.57430000  1.0 0.1192575349
H  H126  1  0.16300000  0.55450000  0.66920000  1.0 0.1192575349
H  H127  1  0.37460000  0.66270000  0.55730000  1.0 0.1309102408
H  H128  1  0.34560000  0.54460000  0.64670000  1.0 0.1309102408
H  H129  1  0.02370000  0.25000000  0.96310000  1.0 0.1309102408
H  H130  1  0.14780000  0.25000000  0.93310000  1.0 0.1517250627
H  H131  1  0.97630000  0.75000000  0.03690000  1.0 0.1309102408
H  H132  1  0.85220000  0.75000000  0.06690000  1.0 0.1517250627
C  C1  1  0.32030000  0.21190000  0.66890000  1.0 0.1390321049
C  C2  1  0.07880000  0.17290000  0.71600000  1.0 0.2519299651
C  C3  1  0.97430000  0.18507000  0.84970000  1.0 0.1696900876
C  C4  1  0.98490000  0.15770000  0.77220000  1.0 -0.1583626951
C  C5  1  0.11620000  0.15340000  0.62290000  1.0 -0.5211292243
C  C6  1  0.88860000  0.18730000  0.92670000  1.0 -0.5015462474
C  C7  1  0.91830000  0.12190000  0.74020000  1.0 0.1192575349
C  C8  1  0.94410000  0.08430000  0.76090000  1.0 -0.1583626951
C  C9  1  0.80670000  0.12570000  0.71330000  1.0 -0.1822987324
C  C10  1  0.88240000  0.05110000  0.72520000  1.0 -0.0919622935
C  C11  1  0.74000000  0.09330000  0.67750000  1.0 -0.0806950347
C  C12  1  0.78600000  0.05520000  0.67490000  1.0 -0.0367301253
C  C13  1  0.72470000  0.01982000  0.62820000  1.0 0.5918143953
C  C14  1  0.65640000  0.94896000  0.36270000  1.0 0.5813392962
C  C15  1  0.67200000  0.93872000  0.25120000  1.0 -0.0209821782
C  C16  1  0.76320000  0.92350000  0.21650000  1.0 -0.1009454949
C  C17  1  0.58160000  0.94560000  0.17750000  1.0 -0.1105633916
C  C18  1  0.77710000  0.91420000  0.11410000  1.0 -0.1408326959
C  C19  1  0.59290000  0.93510000  0.07480000  1.0 -0.1408326959
C  C20  1  0.69350000  0.91730000  0.04450000  1.0 0.1123264992
C  C21  1  0.70370000  0.90635000  0.93440000  1.0 -0.1724015957
C  C22  1  0.66750000  0.92854000  0.84480000  1.0 0.2589943672
C  C23  1  0.75200000  0.87116000  0.89940000  1.0 0.1783703977
C  C24  1  0.60920000  0.96910000  0.83760000  1.0 -0.4914397633
C  C25  1  0.80420000  0.83580000  0.95430000  1.0 -0.5211292243
C  C26  1  0.78090000  0.84540000  0.71750000  1.0 -0.0806950347
C  C27  1  0.95870000  0.90758000  0.58740000  1.0 0.2519299651
C  C28  1  0.98110000  0.85131000  0.68370000  1.0 0.1783703977
C  C29  1  0.03790000  0.88067000  0.63240000  1.0 -0.1822987324
C  C30  1  0.97110000  0.94580000  0.52240000  1.0 -0.4914397633
C  C31  1  0.02230000  0.81550000  0.74680000  1.0 -0.5015462474
C  C32  1  0.15650000  0.88550000  0.62460000  1.0 0.1192575349
C  C33  1  0.22100000  0.85300000  0.59020000  1.0 -0.1583626951
C  C34  1  0.20540000  0.92344000  0.64590000  1.0 -0.1475088085
C  C35  1  0.33100000  0.85910000  0.57960000  1.0 -0.1009454949
C  C36  1  0.31410000  0.92925000  0.63340000  1.0 -0.0919622935
C  C37  1  0.37810000  0.89756000  0.60170000  1.0 -0.0209821782
C  C38  1  0.49560000  0.90437000  0.58660000  1.0 0.5642189348
C  C39  1  0.67970000  0.71190000  0.33110000  1.0 0.1390321049
C  C40  1  0.92120000  0.67290000  0.28400000  1.0 0.2519299651
C  C41  1  0.02570000  0.68507000  0.15030000  1.0 0.1696900876
C  C42  1  0.01510000  0.65770000  0.22780000  1.0 -0.1583626951
C  C43  1  0.88380000  0.65340000  0.37710000  1.0 -0.5211292243
C  C44  1  0.11140000  0.68730000  0.07330000  1.0 -0.5015462474
C  C45  1  0.08170000  0.62190000  0.25980000  1.0 0.1192575349
C  C46  1  0.05590000  0.58430000  0.23910000  1.0 -0.1583626951
C  C47  1  0.19330000  0.62570000  0.28670000  1.0 -0.1822987324
C  C48  1  0.11760000  0.55110000  0.27480000  1.0 -0.0919622935
C  C49  1  0.26000000  0.59330000  0.32250000  1.0 -0.0806950347
C  C50  1  0.21400000  0.55520000  0.32510000  1.0 -0.0367301253
C  C51  1  0.27530000  0.51982000  0.37180000  1.0 0.5918143953
C  C52  1  0.34360000  0.44896000  0.63730000  1.0 0.5813392962
C  C53  1  0.32800000  0.43872000  0.74880000  1.0 -0.0209821782
C  C54  1  0.23680000  0.42350000  0.78350000  1.0 -0.1009454949
C  C55  1  0.41840000  0.44560000  0.82250000  1.0 -0.1105633916
C  C56  1  0.22290000  0.41420000  0.88590000  1.0 -0.1408326959
C  C57  1  0.40710000  0.43510000  0.92520000  1.0 -0.1408326959
C  C58  1  0.30650000  0.41730000  0.95550000  1.0 0.1123264992
C  C59  1  0.29630000  0.40635000  0.06560000  1.0 -0.1724015957
C  C60  1  0.33250000  0.42854000  0.15520000  1.0 0.2589943672
C  C61  1  0.24800000  0.37116000  0.10060000  1.0 0.1783703977
C  C62  1  0.39080000  0.46910000  0.16240000  1.0 -0.4914397633
C  C63  1  0.19580000  0.33580000  0.04570000  1.0 -0.5211292243
C  C64  1  0.21910000  0.34540000  0.28250000  1.0 -0.0806950347
C  C65  1  0.04130000  0.40758000  0.41260000  1.0 0.2519299651
C  C66  1  0.01890000  0.35131000  0.31630000  1.0 0.1783703977
C  C67  1  0.96210000  0.38067000  0.36760000  1.0 -0.1862190749
C  C68  1  0.02890000  0.44580000  0.47760000  1.0 -0.4914397633
C  C69  1  0.97770000  0.31550000  0.25320000  1.0 -0.5015462474
C  C70  1  0.84350000  0.38550000  0.37540000  1.0 0.1192575349
C  C71  1  0.77900000  0.35300000  0.40980000  1.0 -0.1583626951
C  C72  1  0.79460000  0.42344000  0.35410000  1.0 -0.1475088085
C  C73  1  0.66900000  0.35910000  0.42040000  1.0 -0.1009454949
C  C74  1  0.68590000  0.42925000  0.36660000  1.0 -0.0919622935
C  C75  1  0.62190000  0.39756000  0.39830000  1.0 -0.0209821782
C  C76  1  0.50440000  0.40437000  0.41340000  1.0 0.5642189348
C  C77  1  0.67970000  0.78810000  0.33110000  1.0 0.1390321049
C  C78  1  0.92120000  0.82710000  0.28400000  1.0 0.2519299651
C  C79  1  0.02570000  0.81493000  0.15030000  1.0 0.1696900876
C  C80  1  0.01510000  0.84230000  0.22780000  1.0 -0.1583626951
C  C81  1  0.88380000  0.84660000  0.37710000  1.0 -0.5211292243
C  C82  1  0.11140000  0.81270000  0.07330000  1.0 -0.5015462474
C  C83  1  0.08170000  0.87810000  0.25980000  1.0 0.1192575349
C  C84  1  0.05590000  0.91570000  0.23910000  1.0 -0.1583626951
C  C85  1  0.19330000  0.87430000  0.28670000  1.0 -0.1822987324
C  C86  1  0.11760000  0.94890000  0.27480000  1.0 -0.0919622935
C  C87  1  0.26000000  0.90670000  0.32250000  1.0 -0.0806950347
C  C88  1  0.21400000  0.94480000  0.32510000  1.0 -0.0367301253
C  C89  1  0.27530000  0.98018000  0.37180000  1.0 0.5918143953
C  C90  1  0.34360000  0.05104000  0.63730000  1.0 0.5813392962
C  C91  1  0.32800000  0.06128000  0.74880000  1.0 -0.0209821782
C  C92  1  0.23680000  0.07650000  0.78350000  1.0 -0.1009454949
C  C93  1  0.41840000  0.05440000  0.82250000  1.0 -0.1105633916
C  C94  1  0.22290000  0.08580000  0.88590000  1.0 -0.1408326959
C  C95  1  0.40710000  0.06490000  0.92520000  1.0 -0.1408326959
C  C96  1  0.30650000  0.08270000  0.95550000  1.0 0.1123264992
C  C97  1  0.29630000  0.09365000  0.06560000  1.0 -0.1724015957
C  C98  1  0.33250000  0.07146000  0.15520000  1.0 0.2589943672
C  C99  1  0.24800000  0.12884000  0.10060000  1.0 0.1783703977
C  C100  1  0.39080000  0.03090000  0.16240000  1.0 -0.4914397633
C  C101  1  0.19580000  0.16420000  0.04570000  1.0 -0.5211292243
C  C102  1  0.21910000  0.15460000  0.28250000  1.0 -0.0806950347
C  C103  1  0.04130000  0.09242000  0.41260000  1.0 0.2519299651
C  C104  1  0.01890000  0.14869000  0.31630000  1.0 0.1783703977
C  C105  1  0.96210000  0.11933000  0.36760000  1.0 -0.1862190749
C  C106  1  0.02890000  0.05420000  0.47760000  1.0 -0.4914397633
C  C107  1  0.97770000  0.18450000  0.25320000  1.0 -0.5015462474
C  C108  1  0.84350000  0.11450000  0.37540000  1.0 0.1192575349
C  C109  1  0.77900000  0.14700000  0.40980000  1.0 -0.1583626951
C  C110  1  0.79460000  0.07656000  0.35410000  1.0 -0.1475088085
C  C111  1  0.66900000  0.14090000  0.42040000  1.0 -0.1009454949
C  C112  1  0.68590000  0.07075000  0.36660000  1.0 -0.0919622935
C  C113  1  0.62190000  0.10244000  0.39830000  1.0 -0.0209821782
C  C114  1  0.50440000  0.09563000  0.41340000  1.0 0.5642189348
C  C115  1  0.32030000  0.28810000  0.66890000  1.0 0.1390321049
C  C116  1  0.07880000  0.32710000  0.71600000  1.0 0.2519299651
C  C117  1  0.97430000  0.31493000  0.84970000  1.0 0.1696900876
C  C118  1  0.98490000  0.34230000  0.77220000  1.0 -0.1583626951
C  C119  1  0.11620000  0.34660000  0.62290000  1.0 -0.5211292243
C  C120  1  0.88860000  0.31270000  0.92670000  1.0 -0.5015462474
C  C121  1  0.91830000  0.37810000  0.74020000  1.0 0.1192575349
C  C122  1  0.94410000  0.41570000  0.76090000  1.0 -0.1583626951
C  C123  1  0.80670000  0.37430000  0.71330000  1.0 -0.1822987324
C  C124  1  0.88240000  0.44890000  0.72520000  1.0 -0.0919622935
C  C125  1  0.74000000  0.40670000  0.67750000  1.0 -0.0806950347
C  C126  1  0.78600000  0.44480000  0.67490000  1.0 -0.0367301253
C  C127  1  0.72470000  0.48018000  0.62820000  1.0 0.5918143953
C  C128  1  0.65640000  0.55104000  0.36270000  1.0 0.5813392962
C  C129  1  0.67200000  0.56128000  0.25120000  1.0 -0.0209821782
C  C130  1  0.76320000  0.57650000  0.21650000  1.0 -0.1009454949
C  C131  1  0.58160000  0.55440000  0.17750000  1.0 -0.1105633916
C  C132  1  0.77710000  0.58580000  0.11410000  1.0 -0.1408326959
C  C133  1  0.59290000  0.56490000  0.07480000  1.0 -0.1408326959
C  C134  1  0.69350000  0.58270000  0.04450000  1.0 0.1123264992
C  C135  1  0.70370000  0.59365000  0.93440000  1.0 -0.1724015957
C  C136  1  0.66750000  0.57146000  0.84480000  1.0 0.2589943672
C  C137  1  0.75200000  0.62884000  0.89940000  1.0 0.1783703977
C  C138  1  0.60920000  0.53090000  0.83760000  1.0 -0.4914397633
C  C139  1  0.80420000  0.66420000  0.95430000  1.0 -0.5211292243
C  C140  1  0.78090000  0.65460000  0.71750000  1.0 -0.0806950347
C  C141  1  0.95870000  0.59242000  0.58740000  1.0 0.2519299651
C  C142  1  0.98110000  0.64869000  0.68370000  1.0 0.1783703977
C  C143  1  0.03790000  0.61933000  0.63240000  1.0 -0.1862190749
C  C144  1  0.97110000  0.55420000  0.52240000  1.0 -0.4914397633
C  C145  1  0.02230000  0.68450000  0.74680000  1.0 -0.5015462474
C  C146  1  0.15650000  0.61450000  0.62460000  1.0 0.1192575349
C  C147  1  0.22100000  0.64700000  0.59020000  1.0 -0.1583626951
C  C148  1  0.20540000  0.57656000  0.64590000  1.0 -0.1475088085
C  C149  1  0.33100000  0.64090000  0.57960000  1.0 -0.1009454949
C  C150  1  0.31410000  0.57075000  0.63340000  1.0 -0.0919622935
C  C151  1  0.37810000  0.60244000  0.60170000  1.0 -0.0209821782
C  C152  1  0.49560000  0.59563000  0.58660000  1.0 0.5642189348
C  C153  1  0.14860000  0.25000000  0.57790000  1.0 0.1390321049
C  C154  1  0.07140000  0.25000000  0.90450000  1.0 -0.0595330129
C  C155  1  0.85140000  0.75000000  0.42210000  1.0 0.1390321049
C  C156  1  0.92860000  0.75000000  0.09550000  1.0 -0.0595330129
Br  Br1  1  0.34034000  0.25000000  0.87884000  1.0 -0.3409079349
Br  Br2  1  0.65966000  0.75000000  0.12116000  1.0 -0.3409079349
Br  Br3  1  0.30310000  0.25000000  0.26250000  1.0 -0.5728917753
Br  Br4  1  0.69690000  0.75000000  0.73750000  1.0 -0.5728917753
N  N1  1  0.11430000  0.20688000  0.75810000  1.0 -0.1991480475
N  N2  1  0.05080000  0.21351000  0.84170000  1.0 0.053127751
N  N3  1  0.69250000  0.90858000  0.76090000  1.0 -0.3075353538
N  N4  1  0.86010000  0.89619000  0.60960000  1.0 -0.2956502101
N  N5  1  0.74290000  0.87284000  0.79360000  1.0 0.0862973223
N  N6  1  0.87450000  0.86158000  0.67000000  1.0 0.0862973223
N  N7  1  0.88570000  0.70688000  0.24190000  1.0 -0.1991480475
N  N8  1  0.94920000  0.71351000  0.15830000  1.0 0.053127751
N  N9  1  0.30750000  0.40858000  0.23910000  1.0 -0.3075353538
N  N10  1  0.13990000  0.39619000  0.39040000  1.0 -0.2956502101
N  N11  1  0.25710000  0.37284000  0.20640000  1.0 0.0862973223
N  N12  1  0.12550000  0.36158000  0.33000000  1.0 0.0862973223
N  N13  1  0.88570000  0.79312000  0.24190000  1.0 -0.1991480475
N  N14  1  0.94920000  0.78649000  0.15830000  1.0 0.053127751
N  N15  1  0.30750000  0.09142000  0.23910000  1.0 -0.3075353538
N  N16  1  0.13990000  0.10381000  0.39040000  1.0 -0.2956502101
N  N17  1  0.25710000  0.12716000  0.20640000  1.0 0.0862973223
N  N18  1  0.12550000  0.13842000  0.33000000  1.0 0.0862973223
N  N19  1  0.11430000  0.29312000  0.75810000  1.0 -0.1991480475
N  N20  1  0.05080000  0.28649000  0.84170000  1.0 0.053127751
N  N21  1  0.69250000  0.59142000  0.76090000  1.0 -0.3075353538
N  N22  1  0.86010000  0.60381000  0.60960000  1.0 -0.2956502101
N  N23  1  0.74290000  0.62716000  0.79360000  1.0 0.0862973223
N  N24  1  0.87450000  0.63842000  0.67000000  1.0 0.0862973223
O  O1  1  0.38030000  0.19060000  0.63670000  1.0 -0.1105633916
O  O2  1  0.76760000  0.98485000  0.63890000  1.0 -0.5304081699
O  O3  1  0.63310000  0.02721000  0.58500000  1.0 -0.5473137235
O  O4  1  0.52960000  0.94222000  0.58980000  1.0 -0.6019491291
O  O5  1  0.71160000  0.92811000  0.42940000  1.0 -0.5362344271
O  O6  1  0.59530000  0.97699000  0.38210000  1.0 -0.5304081699
O  O7  1  0.55850000  0.87571000  0.57660000  1.0 -0.5015462474
O  O8  1  0.61970000  0.69060000  0.36330000  1.0 -0.1105633916
O  O9  1  0.23240000  0.48485000  0.36110000  1.0 -0.5304081699
O  O10  1  0.36690000  0.52721000  0.41500000  1.0 -0.5473137235
O  O11  1  0.47040000  0.44222000  0.41020000  1.0 -0.6019491291
O  O12  1  0.28840000  0.42811000  0.57060000  1.0 -0.5362344271
O  O13  1  0.40470000  0.47699000  0.61790000  1.0 -0.5304081699
O  O14  1  0.44150000  0.37571000  0.42340000  1.0 -0.5015462474
O  O15  1  0.61970000  0.80940000  0.36330000  1.0 -0.1105633916
O  O16  1  0.23240000  0.01515000  0.36110000  1.0 -0.5304081699
O  O17  1  0.36690000  0.97279000  0.41500000  1.0 -0.5473137235
O  O18  1  0.47040000  0.05778000  0.41020000  1.0 -0.6019491291
O  O19  1  0.28840000  0.07189000  0.57060000  1.0 -0.5362344271
O  O20  1  0.40470000  0.02301000  0.61790000  1.0 -0.5304081699
O  O21  1  0.44150000  0.12429000  0.42340000  1.0 -0.5015462474
O  O22  1  0.38030000  0.30940000  0.63670000  1.0 -0.1105633916
O  O23  1  0.76760000  0.51515000  0.63890000  1.0 -0.5304081699
O  O24  1  0.63310000  0.47279000  0.58500000  1.0 -0.5473137235
O  O25  1  0.52960000  0.55778000  0.58980000  1.0 -0.6019491291
O  O26  1  0.71160000  0.57189000  0.42940000  1.0 -0.5362344271
O  O27  1  0.59530000  0.52301000  0.38210000  1.0 -0.5304081699
O  O28  1  0.55850000  0.62429000  0.57660000  1.0 -0.5015462474
O  O29  1  0.10340000  0.25000000  0.50920000  1.0 -0.1475088085
O  O30  1  0.89660000  0.75000000  0.49080000  1.0 -0.1475088085
