# DDEC6 charges by PACMAN v1.1 (https://github.com/mtap-research/PACMAN-charge/)
data_BOMWAE_ASR_pacman
_symmetry_space_group_name_H-M   'P 1'
_cell_length_a   12.41900000
_cell_length_b   32.99400000
_cell_length_c   12.98600000
_cell_angle_alpha   90.00000000
_cell_angle_beta   94.89000000
_cell_angle_gamma   90.00000000
_symmetry_Int_Tables_number   1
_chemical_formula_structural   Mn4H66C78Br(N4O5)3
_chemical_formula_sum   'Mn8 H132 C156 Br2 N24 O30'
_cell_volume   5301.67818265
_cell_formula_units_Z   2
loop_
 _symmetry_equiv_pos_site_id
 _symmetry_equiv_pos_as_xyz
  1  'x, y, z'
loop_
 _atom_site_type_symbol
 _atom_site_label
 _atom_site_symmetry_multiplicity
 _atom_site_fract_x
 _atom_site_fract_y
 _atom_site_fract_z
 _atom_site_occupancy
 _atom_site_charge
Mn  Mn1  1  0.29819000  0.93013000  0.89931000  1.0 0.8765937768
Mn  Mn2  1  0.70181000  0.43013000  0.10069000  1.0 0.8765937768
Mn  Mn3  1  0.70181000  0.06987000  0.10069000  1.0 0.8765937768
Mn  Mn4  1  0.29819000  0.56987000  0.89931000  1.0 0.8765937768
Mn  Mn5  1  0.50000000  0.00000000  0.00000000  1.0 1.0824140392
Mn  Mn6  1  0.50000000  0.50000000  0.00000000  1.0 1.0824140392
Mn  Mn7  1  0.76714000  0.25000000  0.80881000  1.0 -0.0034612882
Mn  Mn8  1  0.23286000  0.75000000  0.19119000  1.0 -0.0034612882
H  H1  1  0.65120000  0.96300000  0.84320000  1.0 0.1292844141
H  H2  1  0.83600000  0.95410000  0.82620000  1.0 0.1199583715
H  H3  1  0.62140000  0.84240000  0.89400000  1.0 0.1199583715
H  H4  1  0.47470000  0.93440000  0.46920000  1.0 0.1199583715
H  H5  1  0.09690000  0.02600000  0.74160000  1.0 0.1292844141
H  H6  1  0.26830000  0.84290000  0.83060000  1.0 0.1602545493
H  H7  1  0.18980000  0.82160000  0.74220000  1.0 0.1292844141
H  H8  1  0.80660000  0.83380000  0.87930000  1.0 0.1199583715
H  H9  1  0.02670000  0.97250000  0.93230000  1.0 0.1602545493
H  H10  1  0.96380000  0.94430000  0.00750000  1.0 0.1395584499
H  H11  1  0.09270000  0.94800000  0.02340000  1.0 0.1602545493
H  H12  1  0.48950000  0.95310000  0.29790000  1.0 0.1292844141
H  H13  1  0.99430000  0.08230000  0.68650000  1.0 0.1199583715
H  H14  1  0.14030000  0.83230000  0.52060000  1.0 0.1395584499
H  H15  1  0.25650000  0.82490000  0.47930000  1.0 0.1602545493
H  H16  1  0.23000000  0.80670000  0.58850000  1.0 0.1395584499
H  H17  1  0.46260000  0.96470000  0.65240000  1.0 0.1494806147
H  H18  1  0.35990000  0.98350000  0.58630000  1.0 0.1494806147
H  H19  1  0.36350000  0.98230000  0.70970000  1.0 0.1602545493
H  H20  1  0.17710000  0.88850000  0.38900000  1.0 0.1124436491
H  H21  1  0.19380000  0.90570000  0.21680000  1.0 0.1199583715
H  H22  1  0.28470000  0.09770000  0.93380000  1.0 0.1199583715
H  H23  1  0.13720000  0.20970000  0.59710000  1.0 0.1494806147
H  H24  1  0.13580000  0.16120000  0.59510000  1.0 0.1602545493
H  H25  1  0.05030000  0.18630000  0.52100000  1.0 0.1395584499
H  H26  1  0.97120000  0.80110000  0.75780000  1.0 0.1494806147
H  H27  1  0.89470000  0.83340000  0.69550000  1.0 0.1602545493
H  H28  1  0.01440000  0.82550000  0.66310000  1.0 0.1292844141
H  H29  1  0.17800000  0.15320000  0.88360000  1.0 0.1199583715
H  H30  1  0.80900000  0.15700000  0.90470000  1.0 0.1494806147
H  H31  1  0.91610000  0.12990000  0.91690000  1.0 0.1494806147
H  H32  1  0.91690000  0.17460000  0.96480000  1.0 0.1395584499
H  H33  1  0.34880000  0.46300000  0.15680000  1.0 0.1292844141
H  H34  1  0.16400000  0.45410000  0.17380000  1.0 0.1199583715
H  H35  1  0.37860000  0.34240000  0.10600000  1.0 0.1292844141
H  H36  1  0.52530000  0.43440000  0.53080000  1.0 0.1199583715
H  H37  1  0.90310000  0.52600000  0.25840000  1.0 0.1292844141
H  H38  1  0.73170000  0.34290000  0.16940000  1.0 0.1602545493
H  H39  1  0.81020000  0.32160000  0.25780000  1.0 0.1292844141
H  H40  1  0.19340000  0.33380000  0.12070000  1.0 0.1199583715
H  H41  1  0.97330000  0.47250000  0.06770000  1.0 0.1602545493
H  H42  1  0.03620000  0.44430000  0.99250000  1.0 0.1395584499
H  H43  1  0.90730000  0.44800000  0.97660000  1.0 0.1602545493
H  H44  1  0.51050000  0.45310000  0.70210000  1.0 0.1292844141
H  H45  1  0.00570000  0.58230000  0.31350000  1.0 0.1199583715
H  H46  1  0.85970000  0.33230000  0.47940000  1.0 0.1395584499
H  H47  1  0.74350000  0.32490000  0.52070000  1.0 0.1602545493
H  H48  1  0.77000000  0.30670000  0.41150000  1.0 0.1395584499
H  H49  1  0.53740000  0.46470000  0.34760000  1.0 0.1494806147
H  H50  1  0.64010000  0.48350000  0.41370000  1.0 0.1494806147
H  H51  1  0.63650000  0.48230000  0.29030000  1.0 0.1602545493
H  H52  1  0.82290000  0.38850000  0.61100000  1.0 0.1124436491
H  H53  1  0.80620000  0.40570000  0.78320000  1.0 0.1199583715
H  H54  1  0.71530000  0.59770000  0.06620000  1.0 0.1199583715
H  H55  1  0.86280000  0.70970000  0.40290000  1.0 0.1494806147
H  H56  1  0.86420000  0.66120000  0.40490000  1.0 0.1602545493
H  H57  1  0.94970000  0.68630000  0.47900000  1.0 0.1395584499
H  H58  1  0.02880000  0.30110000  0.24220000  1.0 0.1494806147
H  H59  1  0.10530000  0.33340000  0.30450000  1.0 0.1602545493
H  H60  1  0.98560000  0.32550000  0.33690000  1.0 0.1292844141
H  H61  1  0.82200000  0.65320000  0.11640000  1.0 0.1292844141
H  H62  1  0.19100000  0.65700000  0.09530000  1.0 0.1494806147
H  H63  1  0.08390000  0.62990000  0.08310000  1.0 0.1494806147
H  H64  1  0.08310000  0.67460000  0.03520000  1.0 0.1395584499
H  H65  1  0.34880000  0.03700000  0.15680000  1.0 0.1292844141
H  H66  1  0.16400000  0.04590000  0.17380000  1.0 0.1199583715
H  H67  1  0.37860000  0.15760000  0.10600000  1.0 0.1292844141
H  H68  1  0.52530000  0.06560000  0.53080000  1.0 0.1199583715
H  H69  1  0.90310000  0.97400000  0.25840000  1.0 0.1292844141
H  H70  1  0.73170000  0.15710000  0.16940000  1.0 0.1602545493
H  H71  1  0.81020000  0.17840000  0.25780000  1.0 0.1292844141
H  H72  1  0.19340000  0.16620000  0.12070000  1.0 0.1199583715
H  H73  1  0.97330000  0.02750000  0.06770000  1.0 0.1602545493
H  H74  1  0.03620000  0.05570000  0.99250000  1.0 0.1395584499
H  H75  1  0.90730000  0.05200000  0.97660000  1.0 0.1602545493
H  H76  1  0.51050000  0.04690000  0.70210000  1.0 0.1292844141
H  H77  1  0.00570000  0.91770000  0.31350000  1.0 0.1199583715
H  H78  1  0.85970000  0.16770000  0.47940000  1.0 0.1395584499
H  H79  1  0.74350000  0.17510000  0.52070000  1.0 0.1602545493
H  H80  1  0.77000000  0.19330000  0.41150000  1.0 0.1395584499
H  H81  1  0.53740000  0.03530000  0.34760000  1.0 0.1494806147
H  H82  1  0.64010000  0.01650000  0.41370000  1.0 0.1494806147
H  H83  1  0.63650000  0.01770000  0.29030000  1.0 0.1602545493
H  H84  1  0.82290000  0.11150000  0.61100000  1.0 0.1124436491
H  H85  1  0.80620000  0.09430000  0.78320000  1.0 0.1199583715
H  H86  1  0.71530000  0.90230000  0.06620000  1.0 0.1199583715
H  H87  1  0.86280000  0.79030000  0.40290000  1.0 0.1494806147
H  H88  1  0.86420000  0.83880000  0.40490000  1.0 0.1602545493
H  H89  1  0.94970000  0.81370000  0.47900000  1.0 0.1395584499
H  H90  1  0.02880000  0.19890000  0.24220000  1.0 0.1494806147
H  H91  1  0.10530000  0.16660000  0.30450000  1.0 0.1602545493
H  H92  1  0.98560000  0.17450000  0.33690000  1.0 0.1395584499
H  H93  1  0.82200000  0.84680000  0.11640000  1.0 0.1292844141
H  H94  1  0.19100000  0.84300000  0.09530000  1.0 0.1494806147
H  H95  1  0.08390000  0.87010000  0.08310000  1.0 0.1494806147
H  H96  1  0.08310000  0.82540000  0.03520000  1.0 0.1395584499
H  H97  1  0.65120000  0.53700000  0.84320000  1.0 0.1292844141
H  H98  1  0.83600000  0.54590000  0.82620000  1.0 0.1199583715
H  H99  1  0.62140000  0.65760000  0.89400000  1.0 0.1199583715
H  H100  1  0.47470000  0.56560000  0.46920000  1.0 0.1199583715
H  H101  1  0.09690000  0.47400000  0.74160000  1.0 0.1292844141
H  H102  1  0.26830000  0.65710000  0.83060000  1.0 0.1602545493
H  H103  1  0.18980000  0.67840000  0.74220000  1.0 0.1292844141
H  H104  1  0.80660000  0.66620000  0.87930000  1.0 0.1199583715
H  H105  1  0.02670000  0.52750000  0.93230000  1.0 0.1602545493
H  H106  1  0.96380000  0.55570000  0.00750000  1.0 0.1395584499
H  H107  1  0.09270000  0.55200000  0.02340000  1.0 0.1602545493
H  H108  1  0.48950000  0.54690000  0.29790000  1.0 0.1292844141
H  H109  1  0.99430000  0.41770000  0.68650000  1.0 0.1199583715
H  H110  1  0.14030000  0.66770000  0.52060000  1.0 0.1395584499
H  H111  1  0.25650000  0.67510000  0.47930000  1.0 0.1602545493
H  H112  1  0.23000000  0.69330000  0.58850000  1.0 0.1395584499
H  H113  1  0.46260000  0.53530000  0.65240000  1.0 0.1494806147
H  H114  1  0.35990000  0.51650000  0.58630000  1.0 0.1494806147
H  H115  1  0.36350000  0.51770000  0.70970000  1.0 0.1602545493
H  H116  1  0.17710000  0.61150000  0.38900000  1.0 0.1124436491
H  H117  1  0.19380000  0.59430000  0.21680000  1.0 0.1199583715
H  H118  1  0.28470000  0.40230000  0.93380000  1.0 0.1199583715
H  H119  1  0.13720000  0.29030000  0.59710000  1.0 0.1494806147
H  H120  1  0.13580000  0.33880000  0.59510000  1.0 0.1602545493
H  H121  1  0.05030000  0.31370000  0.52100000  1.0 0.1395584499
H  H122  1  0.97120000  0.69890000  0.75780000  1.0 0.1494806147
H  H123  1  0.89470000  0.66666667  0.69550000  1.0 0.1602545493
H  H124  1  0.01440000  0.67450000  0.66310000  1.0 0.1292844141
H  H125  1  0.17800000  0.34680000  0.88360000  1.0 0.1199583715
H  H126  1  0.80900000  0.34300000  0.90470000  1.0 0.1494806147
H  H127  1  0.91610000  0.37010000  0.91690000  1.0 0.1494806147
H  H128  1  0.91690000  0.32540000  0.96480000  1.0 0.1395584499
H  H129  1  0.96220000  0.25000000  0.55810000  1.0 0.1199583715
H  H130  1  0.83920000  0.25000000  0.58670000  1.0 0.1395584499
H  H131  1  0.03780000  0.75000000  0.44190000  1.0 0.1199583715
H  H132  1  0.16080000  0.75000000  0.41330000  1.0 0.1395584499
C  C1  1  0.50360000  0.90974000  0.89240000  1.0 0.5688718341
C  C2  1  0.04050000  0.91223000  0.90100000  1.0 0.2382875316
C  C3  1  0.26810000  0.02025000  0.88010000  1.0 0.5838553732
C  C4  1  0.33160000  0.92716000  0.64280000  1.0 0.2382875316
C  C5  1  0.95800000  0.88858000  0.84820000  1.0 -0.1665166162
C  C6  1  0.68270000  0.93683000  0.85130000  1.0 -0.0903582566
C  C7  1  0.61930000  0.90360000  0.87310000  1.0 -0.0315968452
C  C8  1  0.79290000  0.93143000  0.84120000  1.0 -0.1418632187
C  C9  1  0.84030000  0.89344000  0.85290000  1.0 0.1124436491
C  C10  1  0.66520000  0.86520000  0.88170000  1.0 -0.1020882308
C  C11  1  0.34240000  0.93190000  0.24040000  1.0 -0.0224162817
C  C12  1  0.25890000  0.86791000  0.59370000  1.0 0.1602545493
C  C13  1  0.01140000  0.85976000  0.79380000  1.0 0.1602545493
C  C14  1  0.41650000  0.92922000  0.41860000  1.0 -0.1507509517
C  C15  1  0.11470000  0.05198000  0.76980000  1.0 -0.1020882308
C  C16  1  0.21150000  0.84802000  0.77380000  1.0 -0.0821623931
C  C17  1  0.07470000  0.12339000  0.78020000  1.0 0.1124436491
C  C18  1  0.00550000  0.15943000  0.75250000  1.0 -0.1796750866
C  C19  1  0.35380000  0.94400000  0.12970000  1.0 0.5853096925
C  C20  1  0.32280000  0.91087000  0.44740000  1.0 0.1124436491
C  C21  1  0.77540000  0.86008000  0.87240000  1.0 -0.1593569385
C  C22  1  0.01400000  0.18552000  0.67130000  1.0 0.1602545493
C  C23  1  0.20190000  0.05621000  0.84210000  1.0 -0.0315968452
C  C24  1  0.03000000  0.94727000  0.97220000  1.0 -0.4997203665
C  C25  1  0.30770000  0.90157000  0.55640000  1.0 -0.1665166162
C  C26  1  0.42570000  0.94005000  0.31630000  1.0 -0.1109972328
C  C27  1  0.05270000  0.08548000  0.73810000  1.0 -0.1507509517
C  C28  1  0.21790000  0.82959000  0.54090000  1.0 -0.5186319865
C  C29  1  0.38390000  0.96793000  0.64830000  1.0 -0.4815068163
C  C30  1  0.24060000  0.90187000  0.37080000  1.0 -0.1507509517
C  C31  1  0.92190000  0.17424000  0.80830000  1.0 0.2080484115
C  C32  1  0.25030000  0.91215000  0.26820000  1.0 -0.1020882308
C  C33  1  0.22490000  0.09434000  0.88390000  1.0 -0.0903582566
C  C34  1  0.09090000  0.18571000  0.58910000  1.0 -0.4997203665
C  C35  1  0.96930000  0.82712000  0.72130000  1.0 -0.4997203665
C  C36  1  0.16170000  0.12746000  0.85370000  1.0 -0.1418632187
C  C37  1  0.88810000  0.15750000  0.90710000  1.0 -0.5136420049
C  C38  1  0.67360000  0.21170000  0.84570000  1.0 0.1395584499
C  C39  1  0.49640000  0.40974000  0.10760000  1.0 0.5688718341
C  C40  1  0.95950000  0.41223000  0.09900000  1.0 0.2382875316
C  C41  1  0.73190000  0.52025000  0.11990000  1.0 0.5838553732
C  C42  1  0.66840000  0.42716000  0.35720000  1.0 0.2382875316
C  C43  1  0.04200000  0.38858000  0.15180000  1.0 -0.1665166162
C  C44  1  0.31730000  0.43683000  0.14870000  1.0 -0.0903582566
C  C45  1  0.38070000  0.40360000  0.12690000  1.0 -0.0315968452
C  C46  1  0.20710000  0.43143000  0.15880000  1.0 -0.1418632187
C  C47  1  0.15970000  0.39344000  0.14710000  1.0 0.1124436491
C  C48  1  0.33480000  0.36520000  0.11830000  1.0 -0.1020882308
C  C49  1  0.65760000  0.43190000  0.75960000  1.0 -0.0224162817
C  C50  1  0.74110000  0.36791000  0.40630000  1.0 0.1602545493
C  C51  1  0.98860000  0.35976000  0.20620000  1.0 0.1602545493
C  C52  1  0.58350000  0.42922000  0.58140000  1.0 -0.1507509517
C  C53  1  0.88530000  0.55198000  0.23020000  1.0 -0.1020882308
C  C54  1  0.78850000  0.34802000  0.22620000  1.0 -0.0821623931
C  C55  1  0.92530000  0.62339000  0.21980000  1.0 0.1124436491
C  C56  1  0.99450000  0.65943000  0.24750000  1.0 -0.1796750866
C  C57  1  0.64620000  0.44400000  0.87030000  1.0 0.5838553732
C  C58  1  0.67720000  0.41087000  0.55260000  1.0 0.1124436491
C  C59  1  0.22460000  0.36008000  0.12760000  1.0 -0.1593569385
C  C60  1  0.98600000  0.68552000  0.32870000  1.0 0.1602545493
C  C61  1  0.79810000  0.55621000  0.15790000  1.0 -0.0315968452
C  C62  1  0.97000000  0.44727000  0.02780000  1.0 -0.4997203665
C  C63  1  0.69230000  0.40157000  0.44360000  1.0 -0.1665166162
C  C64  1  0.57430000  0.44005000  0.68370000  1.0 -0.1109972328
C  C65  1  0.94730000  0.58548000  0.26190000  1.0 -0.1507509517
C  C66  1  0.78210000  0.32959000  0.45910000  1.0 -0.5186319865
C  C67  1  0.61610000  0.46793000  0.35170000  1.0 -0.4815068163
C  C68  1  0.75940000  0.40187000  0.62920000  1.0 -0.1507509517
C  C69  1  0.07810000  0.67424000  0.19170000  1.0 0.2080484115
C  C70  1  0.74970000  0.41215000  0.73180000  1.0 -0.1020882308
C  C71  1  0.77510000  0.59434000  0.11610000  1.0 -0.0903582566
C  C72  1  0.90910000  0.68571000  0.41090000  1.0 -0.4997203665
C  C73  1  0.03070000  0.32712000  0.27870000  1.0 -0.4947399713
C  C74  1  0.83830000  0.62746000  0.14630000  1.0 -0.1418632187
C  C75  1  0.11190000  0.65750000  0.09290000  1.0 -0.5136420049
C  C76  1  0.32640000  0.71170000  0.15430000  1.0 0.1395584499
C  C77  1  0.49640000  0.09026000  0.10760000  1.0 0.5688718341
C  C78  1  0.95950000  0.08777000  0.09900000  1.0 0.2382875316
C  C79  1  0.73190000  0.97975000  0.11990000  1.0 0.5838553732
C  C80  1  0.66840000  0.07284000  0.35720000  1.0 0.2382875316
C  C81  1  0.04200000  0.11142000  0.15180000  1.0 -0.1665166162
C  C82  1  0.31730000  0.06317000  0.14870000  1.0 -0.0903582566
C  C83  1  0.38070000  0.09640000  0.12690000  1.0 -0.0315968452
C  C84  1  0.20710000  0.06857000  0.15880000  1.0 -0.1418632187
C  C85  1  0.15970000  0.10656000  0.14710000  1.0 0.1124436491
C  C86  1  0.33480000  0.13480000  0.11830000  1.0 -0.1020882308
C  C87  1  0.65760000  0.06810000  0.75960000  1.0 -0.0224162817
C  C88  1  0.74110000  0.13209000  0.40630000  1.0 0.1602545493
C  C89  1  0.98860000  0.14024000  0.20620000  1.0 0.1602545493
C  C90  1  0.58350000  0.07078000  0.58140000  1.0 -0.1507509517
C  C91  1  0.88530000  0.94802000  0.23020000  1.0 -0.1020882308
C  C92  1  0.78850000  0.15198000  0.22620000  1.0 -0.0821623931
C  C93  1  0.92530000  0.87661000  0.21980000  1.0 0.1124436491
C  C94  1  0.99450000  0.84057000  0.24750000  1.0 -0.1796750866
C  C95  1  0.64620000  0.05600000  0.87030000  1.0 0.5838553732
C  C96  1  0.67720000  0.08913000  0.55260000  1.0 0.1124436491
C  C97  1  0.22460000  0.13992000  0.12760000  1.0 -0.1593569385
C  C98  1  0.98600000  0.81448000  0.32870000  1.0 0.1602545493
C  C99  1  0.79810000  0.94379000  0.15790000  1.0 -0.0315968452
C  C100  1  0.97000000  0.05273000  0.02780000  1.0 -0.4997203665
C  C101  1  0.69230000  0.09843000  0.44360000  1.0 -0.1665166162
C  C102  1  0.57430000  0.05995000  0.68370000  1.0 -0.1109972328
C  C103  1  0.94730000  0.91452000  0.26190000  1.0 -0.1507509517
C  C104  1  0.78210000  0.17041000  0.45910000  1.0 -0.5186319865
C  C105  1  0.61610000  0.03207000  0.35170000  1.0 -0.4815068163
C  C106  1  0.75940000  0.09813000  0.62920000  1.0 -0.1507509517
C  C107  1  0.07810000  0.82576000  0.19170000  1.0 0.2080484115
C  C108  1  0.74970000  0.08785000  0.73180000  1.0 -0.1020882308
C  C109  1  0.77510000  0.90566000  0.11610000  1.0 -0.0903582566
C  C110  1  0.90910000  0.81429000  0.41090000  1.0 -0.4997203665
C  C111  1  0.03070000  0.17288000  0.27870000  1.0 -0.4947399713
C  C112  1  0.83830000  0.87254000  0.14630000  1.0 -0.1418632187
C  C113  1  0.11190000  0.84250000  0.09290000  1.0 -0.5136420049
C  C114  1  0.32640000  0.78830000  0.15430000  1.0 0.1395584499
C  C115  1  0.50360000  0.59026000  0.89240000  1.0 0.5688718341
C  C116  1  0.04050000  0.58777000  0.90100000  1.0 0.2382875316
C  C117  1  0.26810000  0.47975000  0.88010000  1.0 0.5838553732
C  C118  1  0.33160000  0.57284000  0.64280000  1.0 0.2382875316
C  C119  1  0.95800000  0.61142000  0.84820000  1.0 -0.1665166162
C  C120  1  0.68270000  0.56317000  0.85130000  1.0 -0.0903582566
C  C121  1  0.61930000  0.59640000  0.87310000  1.0 -0.0315968452
C  C122  1  0.79290000  0.56857000  0.84120000  1.0 -0.1418632187
C  C123  1  0.84030000  0.60656000  0.85290000  1.0 0.1124436491
C  C124  1  0.66520000  0.63480000  0.88170000  1.0 -0.1020882308
C  C125  1  0.34240000  0.56810000  0.24040000  1.0 -0.0224162817
C  C126  1  0.25890000  0.63209000  0.59370000  1.0 0.1602545493
C  C127  1  0.01140000  0.64024000  0.79380000  1.0 0.1602545493
C  C128  1  0.41650000  0.57078000  0.41860000  1.0 -0.1507509517
C  C129  1  0.11470000  0.44802000  0.76980000  1.0 -0.1020882308
C  C130  1  0.21150000  0.65198000  0.77380000  1.0 -0.0821623931
C  C131  1  0.07470000  0.37661000  0.78020000  1.0 0.1124436491
C  C132  1  0.00550000  0.34057000  0.75250000  1.0 -0.1796750866
C  C133  1  0.35380000  0.55600000  0.12970000  1.0 0.5838553732
C  C134  1  0.32280000  0.58913000  0.44740000  1.0 0.1124436491
C  C135  1  0.77540000  0.63992000  0.87240000  1.0 -0.1593569385
C  C136  1  0.01400000  0.31448000  0.67130000  1.0 0.1602545493
C  C137  1  0.20190000  0.44379000  0.84210000  1.0 -0.0315968452
C  C138  1  0.03000000  0.55273000  0.97220000  1.0 -0.4997203665
C  C139  1  0.30770000  0.59843000  0.55640000  1.0 -0.1665166162
C  C140  1  0.42570000  0.55995000  0.31630000  1.0 -0.1109972328
C  C141  1  0.05270000  0.41452000  0.73810000  1.0 -0.1507509517
C  C142  1  0.21790000  0.67041000  0.54090000  1.0 -0.5186319865
C  C143  1  0.38390000  0.53207000  0.64830000  1.0 -0.4815068163
C  C144  1  0.24060000  0.59813000  0.37080000  1.0 -0.1507509517
C  C145  1  0.92190000  0.32576000  0.80830000  1.0 0.2080484115
C  C146  1  0.25030000  0.58785000  0.26820000  1.0 -0.1020882308
C  C147  1  0.22490000  0.40566000  0.88390000  1.0 -0.0903582566
C  C148  1  0.09090000  0.31429000  0.58910000  1.0 -0.4997203665
C  C149  1  0.96930000  0.67288000  0.72130000  1.0 -0.4947399713
C  C150  1  0.16170000  0.37254000  0.85370000  1.0 -0.1418632187
C  C151  1  0.88810000  0.34250000  0.90710000  1.0 -0.5136420049
C  C152  1  0.67360000  0.28830000  0.84570000  1.0 0.1395584499
C  C153  1  0.91540000  0.25000000  0.61610000  1.0 -0.0821623931
C  C154  1  0.82330000  0.25000000  0.94450000  1.0 0.1494806147
C  C155  1  0.08460000  0.75000000  0.38390000  1.0 -0.0821623931
C  C156  1  0.17670000  0.75000000  0.05550000  1.0 0.1494806147
Br  Br1  1  0.65094000  0.25000000  0.63497000  1.0 -0.3712660588
Br  Br2  1  0.34906000  0.75000000  0.36503000  1.0 -0.3712660588
N  N1  1  0.13790000  0.89864000  0.88050000  1.0 -0.2859528877
N  N2  1  0.11900000  0.86671000  0.81550000  1.0 0.0813266581
N  N3  1  0.25480000  0.87372000  0.69670000  1.0 0.0813266581
N  N4  1  0.29860000  0.90995000  0.72770000  1.0 -0.3016139485
N  N5  1  0.93620000  0.21404000  0.67820000  1.0 0.0572477214
N  N6  1  0.87900000  0.20768000  0.76180000  1.0 -0.1796750866
N  N7  1  0.86210000  0.39864000  0.11950000  1.0 -0.2859528877
N  N8  1  0.88100000  0.36671000  0.18450000  1.0 0.0746301942
N  N9  1  0.74520000  0.37372000  0.30330000  1.0 0.0813266581
N  N10  1  0.70140000  0.40995000  0.27230000  1.0 -0.3016139485
N  N11  1  0.06380000  0.71404000  0.32180000  1.0 0.0572477214
N  N12  1  0.12100000  0.70768000  0.23820000  1.0 -0.1796750866
N  N13  1  0.86210000  0.10136000  0.11950000  1.0 -0.2859528877
N  N14  1  0.88100000  0.13329000  0.18450000  1.0 0.0746301942
N  N15  1  0.74520000  0.12628000  0.30330000  1.0 0.0813266581
N  N16  1  0.70140000  0.09005000  0.27230000  1.0 -0.3016139485
N  N17  1  0.06380000  0.78596000  0.32180000  1.0 0.0572477214
N  N18  1  0.12100000  0.79232000  0.23820000  1.0 -0.1796750866
N  N19  1  0.13790000  0.60136000  0.88050000  1.0 -0.2859528877
N  N20  1  0.11900000  0.63329000  0.81550000  1.0 0.0813266581
N  N21  1  0.25480000  0.62628000  0.69670000  1.0 0.0813266581
N  N22  1  0.29860000  0.59005000  0.72770000  1.0 -0.3016139485
N  N23  1  0.93620000  0.28596000  0.67820000  1.0 0.0572477214
N  N24  1  0.87900000  0.29232000  0.76180000  1.0 -0.1796750866
O  O1  1  0.23089000  0.98583000  0.85451000  1.0 -0.5430169222
O  O2  1  0.44197000  0.88035000  0.90230000  1.0 -0.5335832752
O  O3  1  0.29100000  0.92744000  0.06105000  1.0 -0.5430169222
O  O4  1  0.46836000  0.94641000  0.89538000  1.0 -0.5800237871
O  O5  1  0.42560000  0.96916000  0.11670000  1.0 -0.5529377379
O  O6  1  0.35370000  0.02695000  0.93400000  1.0 -0.5430169222
O  O7  1  0.61250000  0.18940000  0.87050000  1.0 -0.1109972328
O  O8  1  0.76911000  0.48583000  0.14549000  1.0 -0.5430169222
O  O9  1  0.55803000  0.38035000  0.09770000  1.0 -0.5335832752
O  O10  1  0.70900000  0.42744000  0.93895000  1.0 -0.5430169222
O  O11  1  0.53164000  0.44641000  0.10462000  1.0 -0.5800237871
O  O12  1  0.57440000  0.46916000  0.88330000  1.0 -0.5529377379
O  O13  1  0.64630000  0.52695000  0.06600000  1.0 -0.5430169222
O  O14  1  0.38750000  0.68940000  0.12950000  1.0 -0.1109972328
O  O15  1  0.76911000  0.01417000  0.14549000  1.0 -0.5430169222
O  O16  1  0.55803000  0.11965000  0.09770000  1.0 -0.5335832752
O  O17  1  0.70900000  0.07256000  0.93895000  1.0 -0.5430169222
O  O18  1  0.53164000  0.05359000  0.10462000  1.0 -0.5800237871
O  O19  1  0.57440000  0.03084000  0.88330000  1.0 -0.5529377379
O  O20  1  0.64630000  0.97305000  0.06600000  1.0 -0.5430169222
O  O21  1  0.38750000  0.81060000  0.12950000  1.0 -0.1109972328
O  O22  1  0.23089000  0.51417000  0.85451000  1.0 -0.5430169222
O  O23  1  0.44197000  0.61965000  0.90230000  1.0 -0.5335832752
O  O24  1  0.29100000  0.57256000  0.06105000  1.0 -0.5430169222
O  O25  1  0.46836000  0.55359000  0.89538000  1.0 -0.5800237871
O  O26  1  0.42560000  0.53084000  0.11670000  1.0 -0.5529377379
O  O27  1  0.35370000  0.47305000  0.93400000  1.0 -0.5430169222
O  O28  1  0.61250000  0.31060000  0.87050000  1.0 -0.1109972328
O  O29  1  0.85870000  0.25000000  0.01390000  1.0 -0.1593569385
O  O30  1  0.14130000  0.75000000  0.98610000  1.0 -0.1593569385
