# DDEC6 charges by PACMAN v1.1 (https://github.com/mtap-research/PACMAN-charge/)
data_BOMWUY_FSR_pacman
_symmetry_space_group_name_H-M   'P 1'
_cell_length_a   13.41200000
_cell_length_b   13.41200000
_cell_length_c   29.91100000
_cell_angle_alpha   72.92290000
_cell_angle_beta   107.07700000
_cell_angle_gamma   119.95400000
_symmetry_Int_Tables_number   1
_chemical_formula_structural   Tb4H29C23(SO10)3
_chemical_formula_sum   'Tb16 H116 C92 S12 O120'
_cell_volume   4385.44156605
_cell_formula_units_Z   4
loop_
 _symmetry_equiv_pos_site_id
 _symmetry_equiv_pos_as_xyz
  1  'x, y, z'
loop_
 _atom_site_type_symbol
 _atom_site_label
 _atom_site_symmetry_multiplicity
 _atom_site_fract_x
 _atom_site_fract_y
 _atom_site_fract_z
 _atom_site_occupancy
 _atom_site_charge
Tb  Tb1  1  0.99798000  0.47938000  0.34795000  1.0 2.102050233
Tb  Tb2  1  0.71928000  0.49630000  0.34164000  1.0 2.1397357465
Tb  Tb3  1  0.71481000  0.20777000  0.33983000  1.0 2.1865733148
Tb  Tb4  1  0.83736000  0.33466000  0.45556000  1.0 2.1466680051
Tb  Tb5  1  0.47938000  0.99798000  0.15205000  1.0 2.102050233
Tb  Tb6  1  0.49630000  0.71928000  0.15836000  1.0 2.1397357465
Tb  Tb7  1  0.20777000  0.71481000  0.16017000  1.0 2.1865733148
Tb  Tb8  1  0.33466000  0.83736000  0.04444000  1.0 2.1466680051
Tb  Tb9  1  0.00202000  0.52062000  0.65205000  1.0 2.102050233
Tb  Tb10  1  0.28072000  0.50370000  0.65836000  1.0 2.1397357465
Tb  Tb11  1  0.28519000  0.79223000  0.66017000  1.0 2.1865733148
Tb  Tb12  1  0.16264000  0.66534000  0.54444000  1.0 2.1466680051
Tb  Tb13  1  0.52062000  0.00202000  0.84795000  1.0 2.102050233
Tb  Tb14  1  0.50370000  0.28072000  0.84164000  1.0 2.1397357465
Tb  Tb15  1  0.79223000  0.28519000  0.83983000  1.0 2.1865733148
Tb  Tb16  1  0.66534000  0.16264000  0.95556000  1.0 2.1466680051
H  H1  1  0.51024000  0.56190000  0.29707000  1.0 0.3136604906
H  H2  1  0.55855000  0.60699000  0.32574000  1.0 0.2911159278
H  H3  1  0.54692000  0.41698000  0.37936000  1.0 0.3136604906
H  H4  1  0.57664000  0.46478000  0.41956000  1.0 0.3956423582
H  H5  1  0.83705000  0.04791000  0.38116000  1.0 0.2975686149
H  H6  1  0.73797000  0.98491000  0.39136000  1.0 0.3185274185
H  H7  1  0.55544000  0.05830000  0.26689000  1.0 0.3442469121
H  H8  1  0.65709000  0.07715000  0.26040000  1.0 0.3576836468
H  H9  1  0.63976000  0.17884000  0.50919000  1.0 0.3902713553
H  H10  1  0.58296000  0.16954000  0.46258000  1.0 0.3825660677
H  H11  1  0.90267000  0.25913000  0.55686000  1.0 0.3733343364
H  H12  1  0.84988000  0.32584000  0.55720000  1.0 0.3825660677
H  H13  1  0.90138000  0.14924000  0.47913000  1.0 0.4144432426
H  H14  1  0.79190000  0.09248000  0.49860000  1.0 0.4285743118
H  H15  1  0.92100000  0.56100000  0.39980000  1.0 0.3902713553
H  H16  1  0.92957000  0.26501000  0.40576000  1.0 0.3902713553
H  H17  1  0.61460000  0.27480000  0.39080000  1.0 0.3902713553
H  H18  1  0.79479000  0.42511000  0.28110000  1.0 0.3902713553
H  H19  1  0.78800000  0.72800000  0.19930000  1.0 0.1515294493
H  H20  1  0.00800000  0.02800000  0.12700000  1.0 0.129828466
H  H21  1  0.15600000  0.02800000  0.18890000  1.0 0.1207451628
H  H22  1  0.06800000  0.88600000  0.31890000  1.0 0.1207451628
H  H23  1  0.21500000  0.93100000  0.38200000  1.0 0.129828466
H  H24  1  0.44357000  0.97679000  0.30830000  1.0 0.1391902857
H  H25  1  0.47300000  0.23300000  0.19360000  1.0 0.1515294493
H  H26  1  0.20000000  0.27600000  0.11800000  1.0 0.1391902857
H  H27  1  0.18500000  0.31700000  0.18500000  1.0 0.129828466
H  H28  1  0.30486000  0.71268000  0.37905000  1.0 0.1049010114
H  H29  1  0.17200000  0.40800000  0.49210000  1.0 0.0922929918
H  H30  1  0.56190000  0.51024000  0.20293000  1.0 0.3136604906
H  H31  1  0.60699000  0.55855000  0.17426000  1.0 0.2911159278
H  H32  1  0.41698000  0.54692000  0.12064000  1.0 0.3136604906
H  H33  1  0.46478000  0.57664000  0.08044000  1.0 0.3956423582
H  H34  1  0.04791000  0.83705000  0.11884000  1.0 0.2975686149
H  H35  1  0.98491000  0.73797000  0.10864000  1.0 0.3185274185
H  H36  1  0.05830000  0.55544000  0.23311000  1.0 0.3442469121
H  H37  1  0.07715000  0.65709000  0.23960000  1.0 0.3576836468
H  H38  1  0.17884000  0.63976000  0.99081000  1.0 0.3902713553
H  H39  1  0.16954000  0.58296000  0.03742000  1.0 0.3825660677
H  H40  1  0.25913000  0.90267000  0.94314000  1.0 0.3733343364
H  H41  1  0.32584000  0.84988000  0.94280000  1.0 0.3825660677
H  H42  1  0.14924000  0.90138000  0.02087000  1.0 0.4144432426
H  H43  1  0.09248000  0.79190000  0.00140000  1.0 0.4285743118
H  H44  1  0.56100000  0.92100000  0.10020000  1.0 0.3902713553
H  H45  1  0.26501000  0.92957000  0.09424000  1.0 0.3902713553
H  H46  1  0.27480000  0.61460000  0.10920000  1.0 0.3902713553
H  H47  1  0.42511000  0.79479000  0.21890000  1.0 0.3902713553
H  H48  1  0.72800000  0.78800000  0.30070000  1.0 0.1515294493
H  H49  1  0.02800000  0.00800000  0.37300000  1.0 0.129828466
H  H50  1  0.02800000  0.15600000  0.31110000  1.0 0.1207451628
H  H51  1  0.88600000  0.06800000  0.18110000  1.0 0.1207451628
H  H52  1  0.93100000  0.21500000  0.11800000  1.0 0.129828466
H  H53  1  0.97679000  0.44357000  0.19170000  1.0 0.1391902857
H  H54  1  0.23300000  0.47300000  0.30640000  1.0 0.1515294493
H  H55  1  0.27600000  0.20000000  0.38200000  1.0 0.1391902857
H  H56  1  0.31700000  0.18500000  0.31500000  1.0 0.129828466
H  H57  1  0.71268000  0.30486000  0.12095000  1.0 0.1049010114
H  H58  1  0.40800000  0.17200000  0.00790000  1.0 0.0922929918
H  H59  1  0.48976000  0.43810000  0.70293000  1.0 0.3136604906
H  H60  1  0.44145000  0.39301000  0.67426000  1.0 0.2911159278
H  H61  1  0.45308000  0.58302000  0.62064000  1.0 0.3136604906
H  H62  1  0.42336000  0.53522000  0.58044000  1.0 0.3956423582
H  H63  1  0.16295000  0.95209000  0.61884000  1.0 0.2975686149
H  H64  1  0.26203000  0.01509000  0.60864000  1.0 0.3185274185
H  H65  1  0.44456000  0.94170000  0.73311000  1.0 0.3442469121
H  H66  1  0.34291000  0.92285000  0.73960000  1.0 0.3576836468
H  H67  1  0.36024000  0.82116000  0.49081000  1.0 0.3902713553
H  H68  1  0.41704000  0.83046000  0.53742000  1.0 0.3825660677
H  H69  1  0.09733000  0.74087000  0.44314000  1.0 0.3733343364
H  H70  1  0.15012000  0.67416000  0.44280000  1.0 0.3825660677
H  H71  1  0.09862000  0.85076000  0.52087000  1.0 0.4150562168
H  H72  1  0.20810000  0.90752000  0.50140000  1.0 0.4285743118
H  H73  1  0.07900000  0.43900000  0.60020000  1.0 0.3902713553
H  H74  1  0.07043000  0.73499000  0.59424000  1.0 0.3902713553
H  H75  1  0.38540000  0.72520000  0.60920000  1.0 0.3902713553
H  H76  1  0.20521000  0.57489000  0.71890000  1.0 0.3902713553
H  H77  1  0.21200000  0.27200000  0.80070000  1.0 0.1515294493
H  H78  1  0.99200000  0.97200000  0.87300000  1.0 0.129828466
H  H79  1  0.84400000  0.97200000  0.81110000  1.0 0.1207451628
H  H80  1  0.93200000  0.11400000  0.68110000  1.0 0.1207451628
H  H81  1  0.78500000  0.06900000  0.61800000  1.0 0.129828466
H  H82  1  0.55643000  0.02321000  0.69170000  1.0 0.1391902857
H  H83  1  0.52700000  0.76700000  0.80640000  1.0 0.1515294493
H  H84  1  0.80000000  0.72400000  0.88200000  1.0 0.1391902857
H  H85  1  0.81500000  0.68300000  0.81500000  1.0 0.129828466
H  H86  1  0.69514000  0.28732000  0.62095000  1.0 0.1049010114
H  H87  1  0.82800000  0.59200000  0.50790000  1.0 0.0922929918
H  H88  1  0.43810000  0.48976000  0.79707000  1.0 0.3136604906
H  H89  1  0.39301000  0.44145000  0.82574000  1.0 0.2911159278
H  H90  1  0.58302000  0.45308000  0.87936000  1.0 0.3136604906
H  H91  1  0.53522000  0.42336000  0.91956000  1.0 0.3956423582
H  H92  1  0.95209000  0.16295000  0.88116000  1.0 0.2975686149
H  H93  1  0.01509000  0.26203000  0.89136000  1.0 0.3185274185
H  H94  1  0.94170000  0.44456000  0.76689000  1.0 0.3442469121
H  H95  1  0.92285000  0.34291000  0.76040000  1.0 0.3576836468
H  H96  1  0.82116000  0.36024000  0.00919000  1.0 0.3902713553
H  H97  1  0.83046000  0.41704000  0.96258000  1.0 0.3825660677
H  H98  1  0.74087000  0.09733000  0.05686000  1.0 0.3733343364
H  H99  1  0.67416000  0.15012000  0.05720000  1.0 0.3825660677
H  H100  1  0.85076000  0.09862000  0.97913000  1.0 0.4144432426
H  H101  1  0.90752000  0.20810000  0.99860000  1.0 0.4285743118
H  H102  1  0.43900000  0.07900000  0.89980000  1.0 0.3902713553
H  H103  1  0.73499000  0.07043000  0.90576000  1.0 0.3902713553
H  H104  1  0.72520000  0.38540000  0.89080000  1.0 0.3902713553
H  H105  1  0.57489000  0.20521000  0.78110000  1.0 0.3902713553
H  H106  1  0.27200000  0.21200000  0.69930000  1.0 0.1515294493
H  H107  1  0.97200000  0.99200000  0.62700000  1.0 0.129828466
H  H108  1  0.97200000  0.84400000  0.68890000  1.0 0.1207451628
H  H109  1  0.11400000  0.93200000  0.81890000  1.0 0.1207451628
H  H110  1  0.06900000  0.78500000  0.88200000  1.0 0.129828466
H  H111  1  0.02321000  0.55643000  0.80830000  1.0 0.1391902857
H  H112  1  0.76700000  0.52700000  0.69360000  1.0 0.1515294493
H  H113  1  0.72400000  0.80000000  0.61800000  1.0 0.1391902857
H  H114  1  0.68300000  0.81500000  0.68500000  1.0 0.129828466
H  H115  1  0.28732000  0.69514000  0.87905000  1.0 0.1050219418
H  H116  1  0.59200000  0.82800000  0.99210000  1.0 0.0922929918
C  C1  1  0.92510000  0.68870000  0.27523000  1.0 0.6360681088
C  C2  1  0.95470000  0.79150000  0.23419000  1.0 -0.0576851803
C  C3  1  0.86380000  0.78980000  0.19645000  1.0 -0.1106251665
C  C4  1  0.88590000  0.87630000  0.15611000  1.0 -0.1007303093
C  C5  1  0.99730000  0.96670000  0.15346000  1.0 -0.1268942744
C  C6  1  0.08600000  0.97140000  0.19115000  1.0 -0.1106251665
C  C7  1  0.06870000  0.88370000  0.23192000  1.0 0.063500996
C  C8  1  0.16660000  0.90300000  0.27323000  1.0 0.0697024551
C  C9  1  0.14470000  0.90290000  0.31643000  1.0 -0.1193486645
C  C10  1  0.23320000  0.93280000  0.35527000  1.0 -0.087476094
C  C11  1  0.34530000  0.96170000  0.35156000  1.0 -0.1007303093
C  C12  1  0.36820000  0.95920000  0.30992000  1.0 -0.1007303093
C  C13  1  0.28070000  0.93110000  0.27055000  1.0 -0.0576851803
C  C14  1  0.31330000  0.92770000  0.22655000  1.0 0.6305377961
C  C15  1  0.51780000  0.30400000  0.27153000  1.0 0.6305377961
C  C16  1  0.41770000  0.28390000  0.23001000  1.0 -0.0724893584
C  C17  1  0.42560000  0.25540000  0.19056000  1.0 -0.1106251665
C  C18  1  0.34290000  0.25170000  0.14925000  1.0 -0.0724893584
C  C19  1  0.25290000  0.27750000  0.14668000  1.0 -0.1193486645
C  C20  1  0.24370000  0.30250000  0.18630000  1.0 -0.1268942744
C  C21  1  0.32520000  0.30720000  0.22860000  1.0 0.0518688032
C  C22  1  0.22960000  0.65660000  0.36949000  1.0 0.4762277411
C  C23  1  0.13960000  0.45220000  0.49798000  1.0 0.5831605972
C  C24  1  0.68870000  0.92510000  0.22477000  1.0 0.6360681088
C  C25  1  0.79150000  0.95470000  0.26581000  1.0 -0.0576851803
C  C26  1  0.78980000  0.86380000  0.30355000  1.0 -0.1106251665
C  C27  1  0.87630000  0.88590000  0.34389000  1.0 -0.1007303093
C  C28  1  0.96670000  0.99730000  0.34654000  1.0 -0.1268942744
C  C29  1  0.97140000  0.08600000  0.30885000  1.0 -0.1106251665
C  C30  1  0.88370000  0.06870000  0.26808000  1.0 0.063500996
C  C31  1  0.90300000  0.16660000  0.22677000  1.0 0.0697024551
C  C32  1  0.90290000  0.14470000  0.18357000  1.0 -0.1193486645
C  C33  1  0.93280000  0.23320000  0.14473000  1.0 -0.087476094
C  C34  1  0.96170000  0.34530000  0.14844000  1.0 -0.1007303093
C  C35  1  0.95920000  0.36820000  0.19008000  1.0 -0.1007303093
C  C36  1  0.93110000  0.28070000  0.22945000  1.0 -0.0576851803
C  C37  1  0.92770000  0.31330000  0.27345000  1.0 0.6305377961
C  C38  1  0.30400000  0.51780000  0.22847000  1.0 0.6305377961
C  C39  1  0.28390000  0.41770000  0.26999000  1.0 -0.0724893584
C  C40  1  0.25540000  0.42560000  0.30944000  1.0 -0.1106251665
C  C41  1  0.25170000  0.34290000  0.35075000  1.0 -0.0754260763
C  C42  1  0.27750000  0.25290000  0.35332000  1.0 -0.1193486645
C  C43  1  0.30250000  0.24370000  0.31370000  1.0 -0.1268942744
C  C44  1  0.30720000  0.32520000  0.27140000  1.0 0.0518688032
C  C45  1  0.65660000  0.22960000  0.13051000  1.0 0.4762277411
C  C46  1  0.45220000  0.13960000  0.00202000  1.0 0.5831605972
C  C47  1  0.07490000  0.31130000  0.72477000  1.0 0.6360681088
C  C48  1  0.04530000  0.20850000  0.76581000  1.0 -0.0576851803
C  C49  1  0.13620000  0.21020000  0.80355000  1.0 -0.1106251665
C  C50  1  0.11410000  0.12370000  0.84389000  1.0 -0.1007303093
C  C51  1  0.00270000  0.03330000  0.84654000  1.0 -0.1268942744
C  C52  1  0.91400000  0.02860000  0.80885000  1.0 -0.1106251665
C  C53  1  0.93130000  0.11630000  0.76808000  1.0 0.063500996
C  C54  1  0.83340000  0.09700000  0.72677000  1.0 0.0697024551
C  C55  1  0.85530000  0.09710000  0.68357000  1.0 -0.1193486645
C  C56  1  0.76680000  0.06720000  0.64473000  1.0 -0.087476094
C  C57  1  0.65470000  0.03830000  0.64844000  1.0 -0.1007303093
C  C58  1  0.63180000  0.04080000  0.69008000  1.0 -0.1007303093
C  C59  1  0.71930000  0.06890000  0.72945000  1.0 -0.0576851803
C  C60  1  0.68670000  0.07230000  0.77345000  1.0 0.6305377961
C  C61  1  0.48220000  0.69600000  0.72847000  1.0 0.6305377961
C  C62  1  0.58230000  0.71610000  0.76999000  1.0 -0.0724893584
C  C63  1  0.57440000  0.74460000  0.80944000  1.0 -0.1106251665
C  C64  1  0.65710000  0.74830000  0.85075000  1.0 -0.0754260763
C  C65  1  0.74710000  0.72250000  0.85332000  1.0 -0.1193486645
C  C66  1  0.75630000  0.69750000  0.81370000  1.0 -0.1268942744
C  C67  1  0.67480000  0.69280000  0.77140000  1.0 0.0518688032
C  C68  1  0.77040000  0.34340000  0.63051000  1.0 0.4762277411
C  C69  1  0.86040000  0.54780000  0.50202000  1.0 0.5831605972
C  C70  1  0.31130000  0.07490000  0.77523000  1.0 0.6360681088
C  C71  1  0.20850000  0.04530000  0.73419000  1.0 -0.0576851803
C  C72  1  0.21020000  0.13620000  0.69645000  1.0 -0.1106251665
C  C73  1  0.12370000  0.11410000  0.65611000  1.0 -0.1007303093
C  C74  1  0.03330000  0.00270000  0.65346000  1.0 -0.1268942744
C  C75  1  0.02860000  0.91400000  0.69115000  1.0 -0.1106251665
C  C76  1  0.11630000  0.93130000  0.73192000  1.0 0.063500996
C  C77  1  0.09700000  0.83340000  0.77323000  1.0 0.0697024551
C  C78  1  0.09710000  0.85530000  0.81643000  1.0 -0.1193486645
C  C79  1  0.06720000  0.76680000  0.85527000  1.0 -0.087476094
C  C80  1  0.03830000  0.65470000  0.85156000  1.0 -0.1007303093
C  C81  1  0.04080000  0.63180000  0.80992000  1.0 -0.1007303093
C  C82  1  0.06890000  0.71930000  0.77055000  1.0 -0.0576851803
C  C83  1  0.07230000  0.68670000  0.72655000  1.0 0.6305377961
C  C84  1  0.69600000  0.48220000  0.77153000  1.0 0.6305377961
C  C85  1  0.71610000  0.58230000  0.73001000  1.0 -0.0724893584
C  C86  1  0.74460000  0.57440000  0.69056000  1.0 -0.1106251665
C  C87  1  0.74830000  0.65710000  0.64925000  1.0 -0.0754260763
C  C88  1  0.72250000  0.74710000  0.64668000  1.0 -0.1193486645
C  C89  1  0.69750000  0.75630000  0.68630000  1.0 -0.1268942744
C  C90  1  0.69280000  0.67480000  0.72860000  1.0 0.0518688032
C  C91  1  0.34340000  0.77040000  0.86949000  1.0 0.4762277411
C  C92  1  0.54780000  0.86040000  0.99798000  1.0 0.5831605972
S  S1  1  0.77085000  0.87405000  0.10794000  1.0 1.2085263015
S  S2  1  0.46033000  0.00167000  0.40040000  1.0 1.2085263015
S  S3  1  0.35815000  0.21899000  0.09904000  1.0 1.2003320933
S  S4  1  0.87405000  0.77085000  0.39206000  1.0 1.2085263015
S  S5  1  0.00167000  0.46033000  0.09960000  1.0 1.2085263015
S  S6  1  0.21899000  0.35815000  0.40096000  1.0 1.2003320933
S  S7  1  0.22915000  0.12595000  0.89206000  1.0 1.2085263015
S  S8  1  0.53967000  0.99833000  0.59960000  1.0 1.2085263015
S  S9  1  0.64185000  0.78101000  0.90096000  1.0 1.2003320933
S  S10  1  0.12595000  0.22915000  0.60794000  1.0 1.2085263015
S  S11  1  0.99833000  0.53967000  0.90040000  1.0 1.2085263015
S  S12  1  0.78101000  0.64185000  0.59904000  1.0 1.2003320933
O  O1  1  0.66236000  0.78264000  0.12295000  1.0 -0.7136195751
O  O2  1  0.79270000  0.85330000  0.06906000  1.0 -0.5730431198
O  O3  1  0.77360000  0.98760000  0.10020000  1.0 -0.6020048727
O  O4  1  0.58319000  0.58421000  0.30907000  1.0 -0.7407042304
O  O5  1  0.44180000  0.89660000  0.43553000  1.0 -0.5806787132
O  O6  1  0.60097000  0.44043000  0.40337000  1.0 -0.7407042304
O  O7  1  0.45410000  0.09150000  0.41612000  1.0 -0.5936337529
O  O8  1  0.56742000  0.04778000  0.38247000  1.0 -0.7136195751
O  O9  1  0.77412000  0.05468000  0.37640000  1.0 -0.7407042304
O  O10  1  0.99709000  0.64791000  0.29307000  1.0 -0.6431176383
O  O11  1  0.62841000  0.08979000  0.27918000  1.0 -0.7803825854
O  O12  1  0.82885000  0.65015000  0.28750000  1.0 -0.6431176383
O  O13  1  0.64840000  0.20700000  0.48002000  1.0 -0.7987947582
O  O14  1  0.41603000  0.99577000  0.21911000  1.0 -0.6304371103
O  O15  1  0.85639000  0.28861000  0.54006000  1.0 -0.7987947582
O  O16  1  0.23717000  0.85723000  0.20031000  1.0 -0.6546899795
O  O17  1  0.83800000  0.14900000  0.48045000  1.0 -0.7940001308
O  O18  1  0.46230000  0.31810000  0.08219000  1.0 -0.6199586957
O  O19  1  0.25353000  0.20267000  0.06467000  1.0 -0.6020048727
O  O20  1  0.37462000  0.11418000  0.11652000  1.0 -0.7136195751
O  O21  1  0.54683000  0.22437000  0.29101000  1.0 -0.6304371103
O  O22  1  0.56644000  0.40376000  0.28261000  1.0 -0.665519607
O  O23  1  0.15397000  0.61783000  0.39523000  1.0 -0.6020048727
O  O24  1  0.20641000  0.62199000  0.33159000  1.0 -0.5624774217
O  O25  1  0.19658000  0.53042000  0.52320000  1.0 -0.6199586957
O  O26  1  0.03688000  0.41592000  0.47861000  1.0 -0.6431176383
O  O27  1  0.89477000  0.50583000  0.39240000  1.0 -1.0077684341
O  O28  1  0.88744000  0.29836000  0.39329000  1.0 -1.1204424619
O  O29  1  0.68478000  0.30522000  0.38675000  1.0 -1.1419020414
O  O30  1  0.79891000  0.40989000  0.31104000  1.0 -1.1597065447
O  O31  1  0.78264000  0.66236000  0.37705000  1.0 -0.7136195751
O  O32  1  0.85330000  0.79270000  0.43094000  1.0 -0.5730431198
O  O33  1  0.98760000  0.77360000  0.39980000  1.0 -0.6020048727
O  O34  1  0.58421000  0.58319000  0.19093000  1.0 -0.7407042304
O  O35  1  0.89660000  0.44180000  0.06447000  1.0 -0.5806787132
O  O36  1  0.44043000  0.60097000  0.09663000  1.0 -0.7407042304
O  O37  1  0.09150000  0.45410000  0.08388000  1.0 -0.5936337529
O  O38  1  0.04778000  0.56742000  0.11753000  1.0 -0.7136195751
O  O39  1  0.05468000  0.77412000  0.12360000  1.0 -0.7407042304
O  O40  1  0.64791000  0.99709000  0.20693000  1.0 -0.6431176383
O  O41  1  0.08979000  0.62841000  0.22082000  1.0 -0.7803825854
O  O42  1  0.65015000  0.82885000  0.21250000  1.0 -0.6431176383
O  O43  1  0.20700000  0.64840000  0.01998000  1.0 -0.7987947582
O  O44  1  0.99577000  0.41603000  0.28089000  1.0 -0.6304371103
O  O45  1  0.28861000  0.85639000  0.95994000  1.0 -0.7987947582
O  O46  1  0.85723000  0.23717000  0.29969000  1.0 -0.6546899795
O  O47  1  0.14900000  0.83800000  0.01955000  1.0 -0.7940001308
O  O48  1  0.31810000  0.46230000  0.41781000  1.0 -0.6199586957
O  O49  1  0.20267000  0.25353000  0.43533000  1.0 -0.6020048727
O  O50  1  0.11418000  0.37462000  0.38348000  1.0 -0.7136195751
O  O51  1  0.22437000  0.54683000  0.20899000  1.0 -0.6304371103
O  O52  1  0.40376000  0.56644000  0.21739000  1.0 -0.665519607
O  O53  1  0.61783000  0.15397000  0.10477000  1.0 -0.6020048727
O  O54  1  0.62199000  0.20641000  0.16841000  1.0 -0.5624774217
O  O55  1  0.53042000  0.19658000  0.97680000  1.0 -0.6199586957
O  O56  1  0.41592000  0.03688000  0.02139000  1.0 -0.6431176383
O  O57  1  0.50583000  0.89477000  0.10760000  1.0 -1.0077684341
O  O58  1  0.29836000  0.88744000  0.10671000  1.0 -1.1204424619
O  O59  1  0.30522000  0.68478000  0.11325000  1.0 -1.1419020414
O  O60  1  0.40989000  0.79891000  0.18896000  1.0 -1.1597065447
O  O61  1  0.33764000  0.21736000  0.87705000  1.0 -0.7136195751
O  O62  1  0.20730000  0.14670000  0.93094000  1.0 -0.5730431198
O  O63  1  0.22640000  0.01240000  0.89980000  1.0 -0.6020048727
O  O64  1  0.41681000  0.41579000  0.69093000  1.0 -0.7407042304
O  O65  1  0.55820000  0.10340000  0.56447000  1.0 -0.5806787132
O  O66  1  0.39903000  0.55957000  0.59663000  1.0 -0.7407042304
O  O67  1  0.54590000  0.90850000  0.58388000  1.0 -0.5936337529
O  O68  1  0.43258000  0.95222000  0.61753000  1.0 -0.7150952338
O  O69  1  0.22588000  0.94532000  0.62360000  1.0 -0.7407042304
O  O70  1  0.00291000  0.35209000  0.70693000  1.0 -0.6431176383
O  O71  1  0.37159000  0.91021000  0.72082000  1.0 -0.7803825854
O  O72  1  0.17115000  0.34985000  0.71250000  1.0 -0.6431176383
O  O73  1  0.35160000  0.79300000  0.51998000  1.0 -0.7987947582
O  O74  1  0.58397000  0.00423000  0.78089000  1.0 -0.6304371103
O  O75  1  0.14361000  0.71139000  0.45994000  1.0 -0.7987947582
O  O76  1  0.76283000  0.14277000  0.79969000  1.0 -0.6546899795
O  O77  1  0.16200000  0.85100000  0.51955000  1.0 -0.7940001308
O  O78  1  0.53770000  0.68190000  0.91781000  1.0 -0.6199586957
O  O79  1  0.74647000  0.79733000  0.93533000  1.0 -0.6020048727
O  O80  1  0.62538000  0.88582000  0.88348000  1.0 -0.7150952338
O  O81  1  0.45317000  0.77563000  0.70899000  1.0 -0.6304371103
O  O82  1  0.43356000  0.59624000  0.71739000  1.0 -0.665519607
O  O83  1  0.84603000  0.38217000  0.60477000  1.0 -0.6020048727
O  O84  1  0.79359000  0.37801000  0.66841000  1.0 -0.5624774217
O  O85  1  0.80342000  0.46958000  0.47680000  1.0 -0.6199586957
O  O86  1  0.96312000  0.58408000  0.52139000  1.0 -0.6431176383
O  O87  1  0.10523000  0.49417000  0.60760000  1.0 -1.0077684341
O  O88  1  0.11256000  0.70164000  0.60671000  1.0 -1.1204424619
O  O89  1  0.31522000  0.69478000  0.61325000  1.0 -1.1419020414
O  O90  1  0.20109000  0.59011000  0.68896000  1.0 -1.1597065447
O  O91  1  0.21736000  0.33764000  0.62295000  1.0 -0.7136195751
O  O92  1  0.14670000  0.20730000  0.56906000  1.0 -0.5730431198
O  O93  1  0.01240000  0.22640000  0.60020000  1.0 -0.6020048727
O  O94  1  0.41579000  0.41681000  0.80907000  1.0 -0.7407042304
O  O95  1  0.10340000  0.55820000  0.93553000  1.0 -0.5806787132
O  O96  1  0.55957000  0.39903000  0.90337000  1.0 -0.7407042304
O  O97  1  0.90850000  0.54590000  0.91612000  1.0 -0.5936337529
O  O98  1  0.95222000  0.43258000  0.88247000  1.0 -0.7150952338
O  O99  1  0.94532000  0.22588000  0.87640000  1.0 -0.7407042304
O  O100  1  0.35209000  0.00291000  0.79307000  1.0 -0.6431176383
O  O101  1  0.91021000  0.37159000  0.77918000  1.0 -0.7803825854
O  O102  1  0.34985000  0.17115000  0.78750000  1.0 -0.6431176383
O  O103  1  0.79300000  0.35160000  0.98002000  1.0 -0.7987947582
O  O104  1  0.00423000  0.58397000  0.71911000  1.0 -0.6304371103
O  O105  1  0.71139000  0.14361000  0.04006000  1.0 -0.7987947582
O  O106  1  0.14277000  0.76283000  0.70031000  1.0 -0.6551059603
O  O107  1  0.85100000  0.16200000  0.98045000  1.0 -0.7940001308
O  O108  1  0.68190000  0.53770000  0.58219000  1.0 -0.6199586957
O  O109  1  0.79733000  0.74647000  0.56467000  1.0 -0.6020048727
O  O110  1  0.88582000  0.62538000  0.61652000  1.0 -0.7136195751
O  O111  1  0.77563000  0.45317000  0.79101000  1.0 -0.6304371103
O  O112  1  0.59624000  0.43356000  0.78261000  1.0 -0.665519607
O  O113  1  0.38217000  0.84603000  0.89523000  1.0 -0.6020048727
O  O114  1  0.37801000  0.79359000  0.83159000  1.0 -0.5624774217
O  O115  1  0.46958000  0.80342000  0.02320000  1.0 -0.6199586957
O  O116  1  0.58408000  0.96312000  0.97861000  1.0 -0.6431176383
O  O117  1  0.49417000  0.10523000  0.89240000  1.0 -1.0077684341
O  O118  1  0.70164000  0.11256000  0.89329000  1.0 -1.1204424619
O  O119  1  0.69478000  0.31522000  0.88675000  1.0 -1.1419020414
O  O120  1  0.59011000  0.20109000  0.81104000  1.0 -1.1597065447
