# DDEC6 charges by PACMAN v1.1 (https://github.com/mtap-research/PACMAN-charge/)
data_BONFES_FSR_pacman
_symmetry_space_group_name_H-M   'P 1'
_cell_length_a   9.00150000
_cell_length_b   14.29920000
_cell_length_c   18.66860000
_cell_angle_alpha   90.00000000
_cell_angle_beta   92.04100000
_cell_angle_gamma   90.00000000
_symmetry_Int_Tables_number   1
_chemical_formula_structural   CdH25C18(NO)4
_chemical_formula_sum   'Cd4 H100 C72 N16 O16'
_cell_volume   2401.39041019
_cell_formula_units_Z   4
loop_
 _symmetry_equiv_pos_site_id
 _symmetry_equiv_pos_as_xyz
  1  'x, y, z'
loop_
 _atom_site_type_symbol
 _atom_site_label
 _atom_site_symmetry_multiplicity
 _atom_site_fract_x
 _atom_site_fract_y
 _atom_site_fract_z
 _atom_site_occupancy
 _atom_site_charge
Cd  Cd1  1  0.39625000  0.37177000  0.26164000  1.0 0.8322160988
Cd  Cd2  1  0.60375000  0.62823000  0.73836000  1.0 0.8322160988
Cd  Cd3  1  0.60375000  0.87177000  0.23836000  1.0 0.8322160988
Cd  Cd4  1  0.39625000  0.12823000  0.76164000  1.0 0.8322160988
H  H1  1  0.55843000  0.08473000  0.47282000  1.0 0.1108651397
H  H2  1  0.42748000  0.08083000  0.52604000  1.0 0.1044179513
H  H3  1  0.54282000  0.02288000  0.07164000  1.0 0.1216196014
H  H4  1  0.37771000  0.00390000  0.04563000  1.0 0.1108651397
H  H5  1  0.13435000  0.31191000  0.38336000  1.0 0.1306811765
H  H6  1  0.55165000  0.08791000  0.32878000  1.0 0.1515353916
H  H7  1  0.60397000  0.19188000  0.32106000  1.0 0.1582125768
H  H8  1  0.50392000  0.14568000  0.26039000  1.0 0.1582125768
H  H9  1  0.27629000  0.00651000  0.43952000  1.0 0.1108651397
H  H10  1  0.40771000  0.00428000  0.38659000  1.0 0.1216196014
H  H11  1  0.13120000  0.16598000  0.45100000  1.0 0.1306811765
H  H12  1  0.14305000  0.26828000  0.15742000  1.0 0.1306811765
H  H13  1  0.39125000  0.13452000  0.96773000  1.0 0.1108651397
H  H14  1  0.55195000  0.15505000  0.99902000  1.0 0.1108651397
H  H15  1  0.16547000  0.16235000  0.05767000  1.0 0.1306811765
H  H16  1  0.67268000  0.21576000  0.08391000  1.0 0.1515353916
H  H17  1  0.66701000  0.23230000  0.16678000  1.0 0.1582125768
H  H18  1  0.65233000  0.31720000  0.11387000  1.0 0.1582125768
H  H19  1  0.89767000  0.50731000  0.20810000  1.0 0.1108651397
H  H20  1  0.81961000  0.57981000  0.25692000  1.0 0.1044179513
H  H21  1  0.17585000  0.68071000  0.24727000  1.0 0.1364256514
H  H22  1  0.00639000  0.70468000  0.23752000  1.0 0.1216196014
H  H23  1  0.08234000  0.63902000  0.18241000  1.0 0.1364256514
H  H24  1  0.91634000  0.40343000  0.29785000  1.0 0.1216196014
H  H25  1  0.85985000  0.47670000  0.35264000  1.0 0.1216196014
H  H26  1  0.44157000  0.91527000  0.52718000  1.0 0.1108651397
H  H27  1  0.57252000  0.91917000  0.47396000  1.0 0.1044179513
H  H28  1  0.45718000  0.97712000  0.92836000  1.0 0.1216196014
H  H29  1  0.62229000  0.99610000  0.95437000  1.0 0.1108651397
H  H30  1  0.86565000  0.68809000  0.61664000  1.0 0.1306811765
H  H31  1  0.44835000  0.91209000  0.67122000  1.0 0.1515353916
H  H32  1  0.39603000  0.80812000  0.67894000  1.0 0.1582125768
H  H33  1  0.49608000  0.85432000  0.73961000  1.0 0.1582125768
H  H34  1  0.72371000  0.99349000  0.56048000  1.0 0.1108651397
H  H35  1  0.59229000  0.99572000  0.61341000  1.0 0.1216196014
H  H36  1  0.86880000  0.83402000  0.54900000  1.0 0.1306811765
H  H37  1  0.85695000  0.73172000  0.84258000  1.0 0.1306811765
H  H38  1  0.60875000  0.86548000  0.03227000  1.0 0.1108651397
H  H39  1  0.44805000  0.84495000  0.00098000  1.0 0.1108651397
H  H40  1  0.83453000  0.83765000  0.94233000  1.0 0.1306811765
H  H41  1  0.32732000  0.78424000  0.91609000  1.0 0.1515353916
H  H42  1  0.33299000  0.76770000  0.83322000  1.0 0.1582125768
H  H43  1  0.34767000  0.68280000  0.88613000  1.0 0.1582125768
H  H44  1  0.10233000  0.49269000  0.79190000  1.0 0.1044179513
H  H45  1  0.18039000  0.42019000  0.74308000  1.0 0.1044179513
H  H46  1  0.82415000  0.31929000  0.75273000  1.0 0.1364256514
H  H47  1  0.99361000  0.29532000  0.76248000  1.0 0.1216196014
H  H48  1  0.91766000  0.36098000  0.81759000  1.0 0.1364256514
H  H49  1  0.08366000  0.59657000  0.70215000  1.0 0.1216196014
H  H50  1  0.14015000  0.52330000  0.64736000  1.0 0.1216196014
H  H51  1  0.44157000  0.58473000  0.02718000  1.0 0.1108651397
H  H52  1  0.57252000  0.58083000  0.97396000  1.0 0.1044179513
H  H53  1  0.45718000  0.52288000  0.42836000  1.0 0.1216196014
H  H54  1  0.62229000  0.50390000  0.45437000  1.0 0.1108651397
H  H55  1  0.86565000  0.81191000  0.11664000  1.0 0.1306811765
H  H56  1  0.44835000  0.58791000  0.17122000  1.0 0.1515353916
H  H57  1  0.39603000  0.69188000  0.17894000  1.0 0.1582125768
H  H58  1  0.49608000  0.64568000  0.23961000  1.0 0.1582125768
H  H59  1  0.72371000  0.50651000  0.06048000  1.0 0.1108651397
H  H60  1  0.59229000  0.50428000  0.11341000  1.0 0.1216196014
H  H61  1  0.86880000  0.66598000  0.04900000  1.0 0.1306811765
H  H62  1  0.85695000  0.76828000  0.34258000  1.0 0.1306811765
H  H63  1  0.60875000  0.63452000  0.53227000  1.0 0.1108651397
H  H64  1  0.44805000  0.65505000  0.50098000  1.0 0.1108651397
H  H65  1  0.83453000  0.66235000  0.44233000  1.0 0.1306811765
H  H66  1  0.32732000  0.71576000  0.41609000  1.0 0.1515353916
H  H67  1  0.33299000  0.73230000  0.33322000  1.0 0.1582125768
H  H68  1  0.34767000  0.81720000  0.38613000  1.0 0.1582125768
H  H69  1  0.10233000  0.00731000  0.29190000  1.0 0.1044179513
H  H70  1  0.18039000  0.07981000  0.24308000  1.0 0.1044179513
H  H71  1  0.82415000  0.18071000  0.25273000  1.0 0.1364256514
H  H72  1  0.99361000  0.20468000  0.26248000  1.0 0.1216196014
H  H73  1  0.91766000  0.13902000  0.31759000  1.0 0.1364256514
H  H74  1  0.08366000  0.90343000  0.20215000  1.0 0.1216196014
H  H75  1  0.14015000  0.97670000  0.14736000  1.0 0.1216196014
H  H76  1  0.55843000  0.41527000  0.97282000  1.0 0.1108651397
H  H77  1  0.42748000  0.41917000  0.02604000  1.0 0.1044179513
H  H78  1  0.54282000  0.47712000  0.57164000  1.0 0.1216196014
H  H79  1  0.37771000  0.49610000  0.54563000  1.0 0.1108651397
H  H80  1  0.13435000  0.18809000  0.88336000  1.0 0.1306811765
H  H81  1  0.55165000  0.41209000  0.82878000  1.0 0.1515353916
H  H82  1  0.60397000  0.30812000  0.82106000  1.0 0.1582125768
H  H83  1  0.50392000  0.35432000  0.76039000  1.0 0.1582125768
H  H84  1  0.27629000  0.49349000  0.93952000  1.0 0.1108651397
H  H85  1  0.40771000  0.49572000  0.88659000  1.0 0.1216196014
H  H86  1  0.13120000  0.33402000  0.95100000  1.0 0.1306811765
H  H87  1  0.14305000  0.23172000  0.65742000  1.0 0.1306811765
H  H88  1  0.39125000  0.36548000  0.46773000  1.0 0.1108651397
H  H89  1  0.55195000  0.34495000  0.49902000  1.0 0.1108651397
H  H90  1  0.16547000  0.33765000  0.55767000  1.0 0.1306811765
H  H91  1  0.67268000  0.28424000  0.58391000  1.0 0.1515353916
H  H92  1  0.66701000  0.26770000  0.66678000  1.0 0.1582125768
H  H93  1  0.65233000  0.18280000  0.61387000  1.0 0.1582125768
H  H94  1  0.89767000  0.99269000  0.70810000  1.0 0.1108651397
H  H95  1  0.81961000  0.92019000  0.75692000  1.0 0.1044179513
H  H96  1  0.17585000  0.81929000  0.74727000  1.0 0.1364256514
H  H97  1  0.00639000  0.79532000  0.73752000  1.0 0.1216196014
H  H98  1  0.08234000  0.86098000  0.68241000  1.0 0.1364256514
H  H99  1  0.91634000  0.09657000  0.79785000  1.0 0.1216196014
H  H100  1  0.85985000  0.02330000  0.85264000  1.0 0.1216196014
C  C1  1  0.38950000  0.18100000  0.34710000  1.0 0.3334757237
C  C2  1  0.47350000  0.04820000  0.48700000  1.0 -0.189995438
C  C3  1  0.47260000  0.02830000  0.03120000  1.0 -0.1754355134
C  C4  1  0.20230000  0.26330000  0.37990000  1.0 -0.049199518
C  C5  1  0.46400000  0.23990000  0.11670000  1.0 0.3351295589
C  C6  1  0.52410000  0.14880000  0.31120000  1.0 -0.5540528895
C  C7  1  0.36340000  0.04010000  0.42440000  1.0 -0.1088797452
C  C8  1  0.20000000  0.18300000  0.41740000  1.0 -0.1226406956
C  C9  1  0.23170000  0.25060000  0.13710000  1.0 -0.049199518
C  C10  1  0.45550000  0.12990000  0.01040000  1.0 -0.1088797452
C  C11  1  0.24300000  0.19290000  0.08220000  1.0 -0.1226406956
C  C12  1  0.62870000  0.25240000  0.12070000  1.0 -0.529174626
C  C13  1  0.89480000  0.53120000  0.25670000  1.0 -0.2063788028
C  C14  1  0.17010000  0.50300000  0.27690000  1.0 0.500551775
C  C15  1  0.69060000  0.41840000  0.29210000  1.0 0.571822822
C  C16  1  0.04310000  0.57500000  0.27570000  1.0 0.0699096171
C  C17  1  0.08020000  0.65700000  0.23190000  1.0 -0.4570069016
C  C18  1  0.84830000  0.45530000  0.30340000  1.0 -0.3089864255
C  C19  1  0.61050000  0.81900000  0.65290000  1.0 0.3334757237
C  C20  1  0.52650000  0.95180000  0.51300000  1.0 -0.189995438
C  C21  1  0.52740000  0.97170000  0.96880000  1.0 -0.1754355134
C  C22  1  0.79770000  0.73670000  0.62010000  1.0 -0.049199518
C  C23  1  0.53600000  0.76010000  0.88330000  1.0 0.3351295589
C  C24  1  0.47590000  0.85120000  0.68880000  1.0 -0.5540528895
C  C25  1  0.63660000  0.95990000  0.57560000  1.0 -0.1088797452
C  C26  1  0.80000000  0.81700000  0.58260000  1.0 -0.1226406956
C  C27  1  0.76830000  0.74940000  0.86290000  1.0 -0.049199518
C  C28  1  0.54450000  0.87010000  0.98960000  1.0 -0.1088797452
C  C29  1  0.75700000  0.80710000  0.91780000  1.0 -0.1226406956
C  C30  1  0.37130000  0.74760000  0.87930000  1.0 -0.529174626
C  C31  1  0.10520000  0.46880000  0.74330000  1.0 -0.2063788028
C  C32  1  0.82990000  0.49700000  0.72310000  1.0 0.500551775
C  C33  1  0.30940000  0.58160000  0.70790000  1.0 0.571822822
C  C34  1  0.95690000  0.42500000  0.72430000  1.0 0.0699096171
C  C35  1  0.91980000  0.34300000  0.76810000  1.0 -0.4570069016
C  C36  1  0.15170000  0.54470000  0.69660000  1.0 -0.3089864255
C  C37  1  0.61050000  0.68100000  0.15290000  1.0 0.3334757237
C  C38  1  0.52650000  0.54820000  0.01300000  1.0 -0.189995438
C  C39  1  0.52740000  0.52830000  0.46880000  1.0 -0.1754355134
C  C40  1  0.79770000  0.76330000  0.12010000  1.0 -0.049199518
C  C41  1  0.53600000  0.73990000  0.38330000  1.0 0.3351295589
C  C42  1  0.47590000  0.64880000  0.18880000  1.0 -0.5540528895
C  C43  1  0.63660000  0.54010000  0.07560000  1.0 -0.1088797452
C  C44  1  0.80000000  0.68300000  0.08260000  1.0 -0.1226406956
C  C45  1  0.76830000  0.75060000  0.36290000  1.0 -0.049199518
C  C46  1  0.54450000  0.62990000  0.48960000  1.0 -0.1088797452
C  C47  1  0.75700000  0.69290000  0.41780000  1.0 -0.1226406956
C  C48  1  0.37130000  0.75240000  0.37930000  1.0 -0.529174626
C  C49  1  0.10520000  0.03120000  0.24330000  1.0 -0.2063788028
C  C50  1  0.82990000  0.00300000  0.22310000  1.0 0.500551775
C  C51  1  0.30940000  0.91840000  0.20790000  1.0 0.571822822
C  C52  1  0.95690000  0.07500000  0.22430000  1.0 0.0699096171
C  C53  1  0.91980000  0.15700000  0.26810000  1.0 -0.4570069016
C  C54  1  0.15170000  0.95530000  0.19660000  1.0 -0.3089864255
C  C55  1  0.38950000  0.31900000  0.84710000  1.0 0.3334757237
C  C56  1  0.47350000  0.45180000  0.98700000  1.0 -0.189995438
C  C57  1  0.47260000  0.47170000  0.53120000  1.0 -0.1754355134
C  C58  1  0.20230000  0.23670000  0.87990000  1.0 -0.049199518
C  C59  1  0.46400000  0.26010000  0.61670000  1.0 0.3351295589
C  C60  1  0.52410000  0.35120000  0.81120000  1.0 -0.5540528895
C  C61  1  0.36340000  0.45990000  0.92440000  1.0 -0.1088797452
C  C62  1  0.20000000  0.31700000  0.91740000  1.0 -0.1226406956
C  C63  1  0.23170000  0.24940000  0.63710000  1.0 -0.049199518
C  C64  1  0.45550000  0.37010000  0.51040000  1.0 -0.1088797452
C  C65  1  0.24300000  0.30710000  0.58220000  1.0 -0.1226406956
C  C66  1  0.62870000  0.24760000  0.62070000  1.0 -0.529174626
C  C67  1  0.89480000  0.96880000  0.75670000  1.0 -0.2063788028
C  C68  1  0.17010000  0.99700000  0.77690000  1.0 0.500551775
C  C69  1  0.69060000  0.08160000  0.79210000  1.0 0.571822822
C  C70  1  0.04310000  0.92500000  0.77570000  1.0 0.0699096171
C  C71  1  0.08020000  0.84300000  0.73190000  1.0 -0.4570069016
C  C72  1  0.84830000  0.04470000  0.80340000  1.0 -0.3089864255
N  N1  1  0.31810000  0.13150000  0.39643000  1.0 -0.0131249021
N  N2  1  0.32140000  0.26180000  0.33560000  1.0 -0.3570564689
N  N3  1  0.37220000  0.28090000  0.15983000  1.0 -0.3698471488
N  N4  1  0.39190000  0.18670000  0.06854000  1.0 -0.0131249021
N  N5  1  0.68190000  0.86850000  0.60357000  1.0 -0.0131249021
N  N6  1  0.67860000  0.73820000  0.66440000  1.0 -0.3570564689
N  N7  1  0.62780000  0.71910000  0.84017000  1.0 -0.3698471488
N  N8  1  0.60810000  0.81330000  0.93146000  1.0 -0.0131249021
N  N9  1  0.68190000  0.63150000  0.10357000  1.0 -0.0131249021
N  N10  1  0.67860000  0.76180000  0.16440000  1.0 -0.3570564689
N  N11  1  0.62780000  0.78090000  0.34017000  1.0 -0.3698471488
N  N12  1  0.60810000  0.68670000  0.43146000  1.0 -0.0131249021
N  N13  1  0.31810000  0.36850000  0.89643000  1.0 -0.0131249021
N  N14  1  0.32140000  0.23820000  0.83560000  1.0 -0.3570564689
N  N15  1  0.37220000  0.21910000  0.65983000  1.0 -0.3698471488
N  N16  1  0.39190000  0.31330000  0.56854000  1.0 -0.0131249021
O  O1  1  0.24110000  0.48940000  0.33270000  1.0 -0.5403584691
O  O2  1  0.64810000  0.35930000  0.33350000  1.0 -0.529174626
O  O3  1  0.20060000  0.46130000  0.22058000  1.0 -0.529174626
O  O4  1  0.60660000  0.45000000  0.24359000  1.0 -0.5191721918
O  O5  1  0.75890000  0.51060000  0.66730000  1.0 -0.5403584691
O  O6  1  0.35190000  0.64070000  0.66650000  1.0 -0.529174626
O  O7  1  0.79940000  0.53870000  0.77942000  1.0 -0.529174626
O  O8  1  0.39340000  0.55000000  0.75641000  1.0 -0.5191721918
O  O9  1  0.75890000  0.98940000  0.16730000  1.0 -0.5403584691
O  O10  1  0.35190000  0.85930000  0.16650000  1.0 -0.529174626
O  O11  1  0.79940000  0.96130000  0.27942000  1.0 -0.529174626
O  O12  1  0.39340000  0.95000000  0.25641000  1.0 -0.5191721918
O  O13  1  0.24110000  0.01060000  0.83270000  1.0 -0.5403584691
O  O14  1  0.64810000  0.14070000  0.83350000  1.0 -0.529174626
O  O15  1  0.20060000  0.03870000  0.72058000  1.0 -0.529174626
O  O16  1  0.60660000  0.05000000  0.74359000  1.0 -0.5191721918
