# DDEC6 charges by PACMAN v1.1 (https://github.com/mtap-research/PACMAN-charge/)
data_BOSHIC_ASR_pacman
_symmetry_space_group_name_H-M   'P 1'
_cell_length_a   16.79180000
_cell_length_b   16.79180000
_cell_length_c   16.79180000
_cell_angle_alpha   67.60790000
_cell_angle_beta   67.60790000
_cell_angle_gamma   67.60790000
_symmetry_Int_Tables_number   1
_chemical_formula_structural   CuH10C21O4
_chemical_formula_sum   'Cu6 H60 C126 O24'
_cell_volume   3890.55310247
_cell_formula_units_Z   6
loop_
 _symmetry_equiv_pos_site_id
 _symmetry_equiv_pos_as_xyz
  1  'x, y, z'
loop_
 _atom_site_type_symbol
 _atom_site_label
 _atom_site_symmetry_multiplicity
 _atom_site_fract_x
 _atom_site_fract_y
 _atom_site_fract_z
 _atom_site_occupancy
 _atom_site_charge
Cu  Cu1  1  0.42486000  0.99520000  0.99520000  1.0 0.8778112493
Cu  Cu2  1  0.99520000  0.99520000  0.42486000  1.0 0.8778112493
Cu  Cu3  1  0.99520000  0.42486000  0.99520000  1.0 0.8778112493
Cu  Cu4  1  0.57514000  0.00480000  0.00480000  1.0 0.8778112493
Cu  Cu5  1  0.00480000  0.57514000  0.00480000  1.0 0.8778112493
Cu  Cu6  1  0.00480000  0.00480000  0.57514000  1.0 0.8778112493
H  H1  1  0.27135000  0.27135000  0.97120000  1.0 0.1485850377
H  H2  1  0.27135000  0.97120000  0.27135000  1.0 0.1485850377
H  H3  1  0.97120000  0.27135000  0.27135000  1.0 0.1485850377
H  H4  1  0.72865000  0.02880000  0.72865000  1.0 0.1485850377
H  H5  1  0.72865000  0.72865000  0.02880000  1.0 0.1485850377
H  H6  1  0.02880000  0.72865000  0.72865000  1.0 0.1485850377
H  H7  1  0.50040000  0.28560000  0.98080000  1.0 0.1430056008
H  H8  1  0.28560000  0.98080000  0.50040000  1.0 0.1430056008
H  H9  1  0.98080000  0.50040000  0.28560000  1.0 0.1430056008
H  H10  1  0.49960000  0.01920000  0.71440000  1.0 0.1430056008
H  H11  1  0.71440000  0.49960000  0.01920000  1.0 0.1430056008
H  H12  1  0.01920000  0.71440000  0.49960000  1.0 0.1430056008
H  H13  1  0.49960000  0.71440000  0.01920000  1.0 0.1430056008
H  H14  1  0.71440000  0.01920000  0.49960000  1.0 0.1430056008
H  H15  1  0.01920000  0.49960000  0.71440000  1.0 0.1430056008
H  H16  1  0.50040000  0.98080000  0.28560000  1.0 0.1430056008
H  H17  1  0.28560000  0.50040000  0.98080000  1.0 0.1430056008
H  H18  1  0.98080000  0.28560000  0.50040000  1.0 0.1430056008
H  H19  1  0.42740000  0.31430000  0.13700000  1.0 0.1123404006
H  H20  1  0.31430000  0.13700000  0.42740000  1.0 0.1123404006
H  H21  1  0.13700000  0.42740000  0.31430000  1.0 0.1123404006
H  H22  1  0.57260000  0.86300000  0.68570000  1.0 0.1123404006
H  H23  1  0.68570000  0.57260000  0.86300000  1.0 0.1123404006
H  H24  1  0.86300000  0.68570000  0.57260000  1.0 0.1123404006
H  H25  1  0.57260000  0.68570000  0.86300000  1.0 0.1123404006
H  H26  1  0.68570000  0.86300000  0.57260000  1.0 0.1123404006
H  H27  1  0.86300000  0.57260000  0.68570000  1.0 0.1123404006
H  H28  1  0.42740000  0.13700000  0.31430000  1.0 0.1123404006
H  H29  1  0.31430000  0.42740000  0.13700000  1.0 0.1123404006
H  H30  1  0.13700000  0.31430000  0.42740000  1.0 0.1123404006
H  H31  1  0.45640000  0.27670000  0.27670000  1.0 0.1183720989
H  H32  1  0.27670000  0.27670000  0.45640000  1.0 0.1183720989
H  H33  1  0.27670000  0.45640000  0.27670000  1.0 0.1183720989
H  H34  1  0.54360000  0.72330000  0.72330000  1.0 0.1183720989
H  H35  1  0.72330000  0.54360000  0.72330000  1.0 0.1183720989
H  H36  1  0.72330000  0.72330000  0.54360000  1.0 0.1183720989
H  H37  1  0.53230000  0.36050000  0.29220000  1.0 0.1017265598
H  H38  1  0.36050000  0.29220000  0.53230000  1.0 0.1017265598
H  H39  1  0.29220000  0.53230000  0.36050000  1.0 0.1017265598
H  H40  1  0.46770000  0.70780000  0.63950000  1.0 0.1017265598
H  H41  1  0.63950000  0.46770000  0.70780000  1.0 0.1017265598
H  H42  1  0.70780000  0.63950000  0.46770000  1.0 0.1017265598
H  H43  1  0.46770000  0.63950000  0.70780000  1.0 0.1017265598
H  H44  1  0.63950000  0.70780000  0.46770000  1.0 0.1017265598
H  H45  1  0.70780000  0.46770000  0.63950000  1.0 0.1017265598
H  H46  1  0.53230000  0.29220000  0.36050000  1.0 0.1017265598
H  H47  1  0.36050000  0.53230000  0.29220000  1.0 0.1017265598
H  H48  1  0.29220000  0.36050000  0.53230000  1.0 0.1017265598
H  H49  1  0.57460000  0.48190000  0.17290000  1.0 0.1017265598
H  H50  1  0.48190000  0.17290000  0.57460000  1.0 0.1017265598
H  H51  1  0.17290000  0.57460000  0.48190000  1.0 0.1017265598
H  H52  1  0.42540000  0.82710000  0.51810000  1.0 0.1017265598
H  H53  1  0.51810000  0.42540000  0.82710000  1.0 0.1017265598
H  H54  1  0.82710000  0.51810000  0.42540000  1.0 0.1017265598
H  H55  1  0.42540000  0.51810000  0.82710000  1.0 0.1017265598
H  H56  1  0.51810000  0.82710000  0.42540000  1.0 0.1017265598
H  H57  1  0.82710000  0.42540000  0.51810000  1.0 0.1123404006
H  H58  1  0.57460000  0.17290000  0.48190000  1.0 0.1017265598
H  H59  1  0.48190000  0.57460000  0.17290000  1.0 0.1017265598
H  H60  1  0.17290000  0.48190000  0.57460000  1.0 0.1017265598
C  C1  1  0.43418000  0.16648000  0.97948000  1.0 0.583740787
C  C2  1  0.16648000  0.97948000  0.43418000  1.0 0.583740787
C  C3  1  0.97948000  0.43418000  0.16648000  1.0 0.583740787
C  C4  1  0.56582000  0.02052000  0.83352000  1.0 0.583740787
C  C5  1  0.83352000  0.56582000  0.02052000  1.0 0.583740787
C  C6  1  0.02052000  0.83352000  0.56582000  1.0 0.583740787
C  C7  1  0.56582000  0.83352000  0.02052000  1.0 0.583740787
C  C8  1  0.83352000  0.02052000  0.56582000  1.0 0.583740787
C  C9  1  0.02052000  0.56582000  0.83352000  1.0 0.583740787
C  C10  1  0.43418000  0.97948000  0.16648000  1.0 0.583740787
C  C11  1  0.16648000  0.43418000  0.97948000  1.0 0.583740787
C  C12  1  0.97948000  0.16648000  0.43418000  1.0 0.583740787
C  C13  1  0.30389000  0.30389000  0.97404000  1.0 -0.0952097686
C  C14  1  0.30389000  0.97404000  0.30389000  1.0 -0.0952097686
C  C15  1  0.97404000  0.30389000  0.30389000  1.0 -0.0905423354
C  C16  1  0.69611000  0.02596000  0.69611000  1.0 -0.0905423354
C  C17  1  0.69611000  0.69611000  0.02596000  1.0 -0.0952097686
C  C18  1  0.02596000  0.69611000  0.69611000  1.0 -0.0952097686
C  C19  1  0.39203000  0.26353000  0.97603000  1.0 -0.0128276624
C  C20  1  0.26353000  0.97603000  0.39203000  1.0 -0.0128276624
C  C21  1  0.97603000  0.39203000  0.26353000  1.0 -0.0128276624
C  C22  1  0.60797000  0.02397000  0.73647000  1.0 -0.0128276624
C  C23  1  0.73647000  0.60797000  0.02397000  1.0 -0.0128276624
C  C24  1  0.02397000  0.73647000  0.60797000  1.0 -0.0128276624
C  C25  1  0.60797000  0.73647000  0.02397000  1.0 -0.0128276624
C  C26  1  0.73647000  0.02397000  0.60797000  1.0 -0.0128276624
C  C27  1  0.02397000  0.60797000  0.73647000  1.0 -0.0128276624
C  C28  1  0.39203000  0.97603000  0.26353000  1.0 -0.0128276624
C  C29  1  0.26353000  0.39203000  0.97603000  1.0 -0.0128276624
C  C30  1  0.97603000  0.26353000  0.39203000  1.0 -0.0128276624
C  C31  1  0.44091000  0.31241000  0.97991000  1.0 -0.147790884
C  C32  1  0.31241000  0.97991000  0.44091000  1.0 -0.147790884
C  C33  1  0.97991000  0.44091000  0.31241000  1.0 -0.147790884
C  C34  1  0.55909000  0.02009000  0.68759000  1.0 -0.147790884
C  C35  1  0.68759000  0.55909000  0.02009000  1.0 -0.147790884
C  C36  1  0.02009000  0.68759000  0.55909000  1.0 -0.147790884
C  C37  1  0.55909000  0.68759000  0.02009000  1.0 -0.147790884
C  C38  1  0.68759000  0.02009000  0.55909000  1.0 -0.147790884
C  C39  1  0.02009000  0.55909000  0.68759000  1.0 -0.147790884
C  C40  1  0.44091000  0.97991000  0.31241000  1.0 -0.147790884
C  C41  1  0.31241000  0.44091000  0.97991000  1.0 -0.147790884
C  C42  1  0.97991000  0.31241000  0.44091000  1.0 -0.147790884
C  C43  1  0.40101000  0.40101000  0.98251000  1.0 0.0494114074
C  C44  1  0.40101000  0.98251000  0.40101000  1.0 0.0494114074
C  C45  1  0.98251000  0.40101000  0.40101000  1.0 0.0494114074
C  C46  1  0.59899000  0.01749000  0.59899000  1.0 0.0494114074
C  C47  1  0.59899000  0.59899000  0.01749000  1.0 0.0494114074
C  C48  1  0.01749000  0.59899000  0.59899000  1.0 0.0494114074
C  C49  1  0.45239000  0.45239000  0.99174000  1.0 0.0220646386
C  C50  1  0.45239000  0.99174000  0.45239000  1.0 0.0220646386
C  C51  1  0.99174000  0.45239000  0.45239000  1.0 0.0220646386
C  C52  1  0.54761000  0.00826000  0.54761000  1.0 0.0220646386
C  C53  1  0.54761000  0.54761000  0.00826000  1.0 0.0220646386
C  C54  1  0.00826000  0.54761000  0.54761000  1.0 0.0220646386
C  C55  1  0.48043000  0.42313000  0.07363000  1.0 0.035715184
C  C56  1  0.42313000  0.07363000  0.48043000  1.0 0.035715184
C  C57  1  0.07363000  0.48043000  0.42313000  1.0 0.035715184
C  C58  1  0.51957000  0.92637000  0.57687000  1.0 0.035715184
C  C59  1  0.57687000  0.51957000  0.92637000  1.0 0.035715184
C  C60  1  0.92637000  0.57687000  0.51957000  1.0 0.035715184
C  C61  1  0.51957000  0.57687000  0.92637000  1.0 0.035715184
C  C62  1  0.57687000  0.92637000  0.51957000  1.0 0.035715184
C  C63  1  0.92637000  0.51957000  0.57687000  1.0 0.035715184
C  C64  1  0.48043000  0.07363000  0.42313000  1.0 0.035715184
C  C65  1  0.42313000  0.48043000  0.07363000  1.0 0.035715184
C  C66  1  0.07363000  0.42313000  0.48043000  1.0 0.035715184
C  C67  1  0.45770000  0.34990000  0.14250000  1.0 -0.1783835428
C  C68  1  0.34990000  0.14250000  0.45770000  1.0 -0.1783835428
C  C69  1  0.14250000  0.45770000  0.34990000  1.0 -0.1783835428
C  C70  1  0.54230000  0.85750000  0.65010000  1.0 -0.1783835428
C  C71  1  0.65010000  0.54230000  0.85750000  1.0 -0.1783835428
C  C72  1  0.85750000  0.65010000  0.54230000  1.0 -0.1783835428
C  C73  1  0.54230000  0.65010000  0.85750000  1.0 -0.1783835428
C  C74  1  0.65010000  0.85750000  0.54230000  1.0 -0.1783835428
C  C75  1  0.85750000  0.54230000  0.65010000  1.0 -0.1783835428
C  C76  1  0.45770000  0.14250000  0.34990000  1.0 -0.1783835428
C  C77  1  0.34990000  0.45770000  0.14250000  1.0 -0.1783835428
C  C78  1  0.14250000  0.34990000  0.45770000  1.0 -0.1783835428
C  C79  1  0.47870000  0.32580000  0.22270000  1.0 -0.0905423354
C  C80  1  0.32580000  0.22270000  0.47870000  1.0 -0.0905423354
C  C81  1  0.22270000  0.47870000  0.32580000  1.0 -0.0905423354
C  C82  1  0.52130000  0.77730000  0.67420000  1.0 -0.0905423354
C  C83  1  0.67420000  0.52130000  0.77730000  1.0 -0.0905423354
C  C84  1  0.77730000  0.67420000  0.52130000  1.0 -0.0905423354
C  C85  1  0.52130000  0.67420000  0.77730000  1.0 -0.0905423354
C  C86  1  0.67420000  0.77730000  0.52130000  1.0 -0.0905423354
C  C87  1  0.77730000  0.52130000  0.67420000  1.0 -0.0905423354
C  C88  1  0.47870000  0.22270000  0.32580000  1.0 -0.0905423354
C  C89  1  0.32580000  0.47870000  0.22270000  1.0 -0.0905423354
C  C90  1  0.22270000  0.32580000  0.47870000  1.0 -0.0905423354
C  C91  1  0.52230000  0.37490000  0.23380000  1.0 -0.147790884
C  C92  1  0.37490000  0.23380000  0.52230000  1.0 -0.147790884
C  C93  1  0.23380000  0.52230000  0.37490000  1.0 -0.147790884
C  C94  1  0.47770000  0.76620000  0.62510000  1.0 -0.147790884
C  C95  1  0.62510000  0.47770000  0.76620000  1.0 -0.147790884
C  C96  1  0.76620000  0.62510000  0.47770000  1.0 -0.147790884
C  C97  1  0.47770000  0.62510000  0.76620000  1.0 -0.147790884
C  C98  1  0.62510000  0.76620000  0.47770000  1.0 -0.147790884
C  C99  1  0.76620000  0.47770000  0.62510000  1.0 -0.147790884
C  C100  1  0.52230000  0.23380000  0.37490000  1.0 -0.147790884
C  C101  1  0.37490000  0.52230000  0.23380000  1.0 -0.147790884
C  C102  1  0.23380000  0.37490000  0.52230000  1.0 -0.147790884
C  C103  1  0.54487000  0.44807000  0.16497000  1.0 -0.0630115519
C  C104  1  0.44807000  0.16497000  0.54487000  1.0 -0.0630115519
C  C105  1  0.16497000  0.54487000  0.44807000  1.0 -0.0630115519
C  C106  1  0.45513000  0.83503000  0.55193000  1.0 -0.0630115519
C  C107  1  0.55193000  0.45513000  0.83503000  1.0 -0.0630115519
C  C108  1  0.83503000  0.55193000  0.45513000  1.0 -0.0630115519
C  C109  1  0.45513000  0.55193000  0.83503000  1.0 -0.0630115519
C  C110  1  0.55193000  0.83503000  0.45513000  1.0 -0.0630115519
C  C111  1  0.83503000  0.45513000  0.55193000  1.0 -0.0630115519
C  C112  1  0.54487000  0.16497000  0.44807000  1.0 -0.0630115519
C  C113  1  0.44807000  0.54487000  0.16497000  1.0 -0.0630115519
C  C114  1  0.16497000  0.44807000  0.54487000  1.0 -0.0630115519
C  C115  1  0.52390000  0.47220000  0.08480000  1.0 0.035715184
C  C116  1  0.47220000  0.08480000  0.52390000  1.0 0.0349507121
C  C117  1  0.08480000  0.52390000  0.47220000  1.0 0.035715184
C  C118  1  0.47610000  0.91520000  0.52780000  1.0 0.035715184
C  C119  1  0.52780000  0.47610000  0.91520000  1.0 0.0349507121
C  C120  1  0.91520000  0.52780000  0.47610000  1.0 0.035715184
C  C121  1  0.47610000  0.52780000  0.91520000  1.0 0.0349507121
C  C122  1  0.52780000  0.91520000  0.47610000  1.0 0.035715184
C  C123  1  0.91520000  0.47610000  0.52780000  1.0 0.035715184
C  C124  1  0.52390000  0.08480000  0.47220000  1.0 0.0349507121
C  C125  1  0.47220000  0.52390000  0.08480000  1.0 0.035715184
C  C126  1  0.08480000  0.47220000  0.52390000  1.0 0.0349507121
O  O1  1  0.38612000  0.12502000  0.97822000  1.0 -0.5137505221
O  O2  1  0.12502000  0.97822000  0.38612000  1.0 -0.5137505221
O  O3  1  0.97822000  0.38612000  0.12502000  1.0 -0.5137505221
O  O4  1  0.61388000  0.02178000  0.87498000  1.0 -0.5137505221
O  O5  1  0.87498000  0.61388000  0.02178000  1.0 -0.5137505221
O  O6  1  0.02178000  0.87498000  0.61388000  1.0 -0.5137505221
O  O7  1  0.61388000  0.87498000  0.02178000  1.0 -0.5137505221
O  O8  1  0.87498000  0.02178000  0.61388000  1.0 -0.5137505221
O  O9  1  0.02178000  0.61388000  0.87498000  1.0 -0.5137505221
O  O10  1  0.38612000  0.97822000  0.12502000  1.0 -0.5137505221
O  O11  1  0.12502000  0.38612000  0.97822000  1.0 -0.5137505221
O  O12  1  0.97822000  0.12502000  0.38612000  1.0 -0.5137505221
O  O13  1  0.51292000  0.13328000  0.98572000  1.0 -0.5217340874
O  O14  1  0.13328000  0.98572000  0.51292000  1.0 -0.5217340874
O  O15  1  0.98572000  0.51292000  0.13328000  1.0 -0.5217340874
O  O16  1  0.48708000  0.01428000  0.86672000  1.0 -0.5217340874
O  O17  1  0.86672000  0.48708000  0.01428000  1.0 -0.5217340874
O  O18  1  0.01428000  0.86672000  0.48708000  1.0 -0.5217340874
O  O19  1  0.48708000  0.86672000  0.01428000  1.0 -0.5217340874
O  O20  1  0.86672000  0.01428000  0.48708000  1.0 -0.5217340874
O  O21  1  0.01428000  0.48708000  0.86672000  1.0 -0.5217340874
O  O22  1  0.51292000  0.98572000  0.13328000  1.0 -0.5217340874
O  O23  1  0.13328000  0.51292000  0.98572000  1.0 -0.5217340874
O  O24  1  0.98572000  0.13328000  0.51292000  1.0 -0.5217340874
