# DDEC6 charges by PACMAN v1.1 (https://github.com/mtap-research/PACMAN-charge/)
data_BOVNIM_ASR_pacman
_symmetry_space_group_name_H-M   'P 1'
_cell_length_a   16.07860000
_cell_length_b   16.61110000
_cell_length_c   16.81450000
_cell_angle_alpha   108.47400000
_cell_angle_beta   105.86000000
_cell_angle_gamma   105.66300000
_symmetry_Int_Tables_number   1
_chemical_formula_structural   MgH17C23O4
_chemical_formula_sum   'Mg4 H68 C92 O16'
_cell_volume   3771.41423497
_cell_formula_units_Z   4
loop_
 _symmetry_equiv_pos_site_id
 _symmetry_equiv_pos_as_xyz
  1  'x, y, z'
loop_
 _atom_site_type_symbol
 _atom_site_label
 _atom_site_symmetry_multiplicity
 _atom_site_fract_x
 _atom_site_fract_y
 _atom_site_fract_z
 _atom_site_occupancy
 _atom_site_charge
Mg  Mg1  1  0.21380000  0.91032000  0.65288000  1.0 1.3858896381
Mg  Mg2  1  0.19766000  0.77029000  0.77113000  1.0 1.3372377044
Mg  Mg3  1  0.78620000  0.08968000  0.34712000  1.0 1.3858896381
Mg  Mg4  1  0.80234000  0.22971000  0.22887000  1.0 1.3372377044
H  H1  1  0.29656000  0.75064000  0.48046000  1.0 0.120950451
H  H2  1  0.37901000  0.69065000  0.40401000  1.0 0.120950451
H  H3  1  0.43704000  0.57003000  0.57349000  1.0 0.120950451
H  H4  1  0.34954000  0.62510000  0.64335000  1.0 0.1306689654
H  H5  1  0.31237000  0.42934000  0.24895000  1.0 0.1379970372
H  H6  1  0.30320000  0.49108000  0.33582000  1.0 0.1306689654
H  H7  1  0.30949000  0.52580000  0.26031000  1.0 0.1379970372
H  H8  1  0.62265000  0.65704000  0.61433000  1.0 0.1379970372
H  H9  1  0.68696000  0.73121000  0.59452000  1.0 0.1306689654
H  H10  1  0.58965000  0.73187000  0.59457000  1.0 0.1306689654
H  H11  1  0.65273000  0.57636000  0.24894000  1.0 0.1379970372
H  H12  1  0.71085000  0.55181000  0.32236000  1.0 0.1306689654
H  H13  1  0.62076000  0.47452000  0.23896000  1.0 0.1379970372
H  H14  1  0.76703000  0.75140000  0.44278000  1.0 0.120950451
H  H15  1  0.92472000  0.81599000  0.52477000  1.0 0.120950451
H  H16  1  0.90119000  0.62169000  0.61849000  1.0 0.1306689654
H  H17  1  0.74073000  0.55551000  0.53512000  1.0 0.1146820372
H  H18  1  0.52349000  0.65434000  0.22187000  1.0 0.1306689654
H  H19  1  0.43646000  0.65222000  0.14942000  1.0 0.1306689654
H  H20  1  0.42924000  0.64018000  0.23639000  1.0 0.1306689654
H  H21  1  0.39668000  0.31026000  0.22405000  1.0 0.1379970372
H  H22  1  0.43410000  0.26292000  0.15309000  1.0 0.1306689654
H  H23  1  0.50230000  0.35463000  0.23944000  1.0 0.1306689654
H  H24  1  0.32152000  0.31820000  0.86750000  1.0 0.1306689654
H  H25  1  0.22990000  0.28800000  0.88563000  1.0 0.1306689654
H  H26  1  0.26639000  0.38287000  0.88021000  1.0 0.1306689654
H  H27  1  0.42126000  0.23188000  0.93350000  1.0 0.1306689654
H  H28  1  0.36890000  0.07754000  0.85211000  1.0 0.120950451
H  H29  1  0.18349000  0.03860000  0.96748000  1.0 0.1306689654
H  H30  1  0.23167000  0.19561000  0.04313000  1.0 0.1306689654
H  H31  1  0.46146000  0.58708000  0.98130000  1.0 0.120950451
H  H32  1  0.41638000  0.68035000  0.91762000  1.0 0.120950451
H  H33  1  0.16503000  0.58863000  0.92811000  1.0 0.120950451
H  H34  1  0.21327000  0.50144000  0.99816000  1.0 0.120950451
H  H35  1  0.70344000  0.24936000  0.51954000  1.0 0.120950451
H  H36  1  0.62099000  0.30935000  0.59599000  1.0 0.120950451
H  H37  1  0.56296000  0.42997000  0.42651000  1.0 0.120950451
H  H38  1  0.65046000  0.37490000  0.35665000  1.0 0.1306689654
H  H39  1  0.68763000  0.57066000  0.75105000  1.0 0.1379970372
H  H40  1  0.69680000  0.50892000  0.66418000  1.0 0.1306689654
H  H41  1  0.69051000  0.47420000  0.73969000  1.0 0.1379970372
H  H42  1  0.37735000  0.34296000  0.38567000  1.0 0.1379970372
H  H43  1  0.31304000  0.26879000  0.40548000  1.0 0.1306689654
H  H44  1  0.41035000  0.26813000  0.40543000  1.0 0.1306689654
H  H45  1  0.34727000  0.42364000  0.75106000  1.0 0.1379970372
H  H46  1  0.28915000  0.44819000  0.67764000  1.0 0.1306689654
H  H47  1  0.37924000  0.52548000  0.76104000  1.0 0.1379970372
H  H48  1  0.23297000  0.24860000  0.55722000  1.0 0.120950451
H  H49  1  0.07528000  0.18401000  0.47523000  1.0 0.120950451
H  H50  1  0.09881000  0.37831000  0.38151000  1.0 0.1306689654
H  H51  1  0.25927000  0.44449000  0.46488000  1.0 0.1146820372
H  H52  1  0.47651000  0.34566000  0.77813000  1.0 0.1306689654
H  H53  1  0.56354000  0.34778000  0.85058000  1.0 0.1306689654
H  H54  1  0.57076000  0.35982000  0.76361000  1.0 0.1306689654
H  H55  1  0.60332000  0.68974000  0.77595000  1.0 0.1379970372
H  H56  1  0.56590000  0.73708000  0.84691000  1.0 0.1306689654
H  H57  1  0.49770000  0.64537000  0.76056000  1.0 0.1306689654
H  H58  1  0.67848000  0.68180000  0.13250000  1.0 0.1306689654
H  H59  1  0.77010000  0.71200000  0.11437000  1.0 0.1306689654
H  H60  1  0.73361000  0.61713000  0.11979000  1.0 0.1306689654
H  H61  1  0.57874000  0.76812000  0.06650000  1.0 0.1306689654
H  H62  1  0.63110000  0.92246000  0.14789000  1.0 0.120950451
H  H63  1  0.81651000  0.96140000  0.03252000  1.0 0.1306689654
H  H64  1  0.76833000  0.80439000  0.95687000  1.0 0.1306689654
H  H65  1  0.53854000  0.41292000  0.01870000  1.0 0.120950451
H  H66  1  0.58362000  0.31965000  0.08238000  1.0 0.120950451
H  H67  1  0.83497000  0.41137000  0.07189000  1.0 0.120950451
H  H68  1  0.78673000  0.49856000  0.00184000  1.0 0.120950451
C  C1  1  0.26190000  0.73650000  0.62140000  1.0 0.6396928316
C  C2  1  0.31370000  0.69310000  0.57020000  1.0 -0.0295981368
C  C3  1  0.32420000  0.71330000  0.49820000  1.0 -0.0983587157
C  C4  1  0.37490000  0.67870000  0.45350000  1.0 -0.1476716867
C  C5  1  0.42070000  0.62560000  0.48090000  1.0 0.0882737946
C  C6  1  0.40870000  0.60610000  0.55390000  1.0 -0.1476716867
C  C7  1  0.35650000  0.63930000  0.59570000  1.0 -0.0983587157
C  C8  1  0.47790000  0.59390000  0.43430000  1.0 -0.0902558393
C  C9  1  0.57670000  0.62920000  0.47850000  1.0 0.0807653999
C  C10  1  0.63110000  0.60920000  0.43030000  1.0 -0.0708971112
C  C11  1  0.59030000  0.55660000  0.33540000  1.0 0.0709118164
C  C12  1  0.49200000  0.51990000  0.29060000  1.0 -0.0378042535
C  C13  1  0.43620000  0.53630000  0.34000000  1.0 0.0709118164
C  C14  1  0.33080000  0.49150000  0.29190000  1.0 -0.4570098037
C  C15  1  0.62320000  0.69330000  0.57980000  1.0 -0.448499527
C  C16  1  0.64890000  0.53820000  0.28150000  1.0 -0.4662772828
C  C17  1  0.73490000  0.64680000  0.47970000  1.0 0.0882737946
C  C18  1  0.79350000  0.72470000  0.47830000  1.0 -0.1476716867
C  C19  1  0.88810000  0.76340000  0.52690000  1.0 -0.0902558393
C  C20  1  0.93020000  0.72460000  0.57950000  1.0 -0.0295981368
C  C21  1  0.87400000  0.64770000  0.58260000  1.0 -0.0902558393
C  C22  1  0.77730000  0.60810000  0.53290000  1.0 -0.1476716867
C  C23  1  0.03380000  0.76850000  0.63490000  1.0 0.6262490636
C  C24  1  0.44450000  0.47150000  0.18860000  1.0 -0.0295981368
C  C25  1  0.41510000  0.37580000  0.14220000  1.0 0.0709118164
C  C26  1  0.36510000  0.33360000  0.04850000  1.0 -0.0708971112
C  C27  1  0.34170000  0.38510000  0.99960000  1.0 0.0709118164
C  C28  1  0.37270000  0.48090000  0.04840000  1.0 -0.0708971112
C  C29  1  0.42460000  0.52430000  0.14120000  1.0 0.0709118164
C  C30  1  0.45620000  0.62710000  0.19190000  1.0 -0.448499527
C  C31  1  0.43910000  0.32090000  0.19450000  1.0 -0.4570098037
C  C32  1  0.28490000  0.33940000  0.89930000  1.0 -0.448499527
C  C33  1  0.33220000  0.23110000  0.99690000  1.0 0.0882737946
C  C34  1  0.37200000  0.19280000  0.93950000  1.0 -0.1476716867
C  C35  1  0.34200000  0.10080000  0.89170000  1.0 -0.0902558393
C  C36  1  0.27070000  0.04090000  0.90190000  1.0 -0.0295981368
C  C37  1  0.23090000  0.07780000  0.95960000  1.0 -0.0902558393
C  C38  1  0.26050000  0.17190000  0.00580000  1.0 -0.1476716867
C  C39  1  0.23800000  0.93930000  0.85150000  1.0 0.5760667509
C  C40  1  0.34230000  0.53640000  0.99910000  1.0 0.0807653999
C  C41  1  0.40240000  0.58870000  0.97250000  1.0 -0.1476716867
C  C42  1  0.37450000  0.64350000  0.93290000  1.0 -0.0983587157
C  C43  1  0.28550000  0.64480000  0.91550000  1.0 -0.0295981368
C  C44  1  0.22550000  0.59000000  0.93990000  1.0 -0.0902558393
C  C45  1  0.25450000  0.53730000  0.98160000  1.0 -0.1476716867
C  C46  1  0.25510000  0.69940000  0.86850000  1.0 0.5512763149
C  C47  1  0.73810000  0.26350000  0.37860000  1.0 0.6396928316
C  C48  1  0.68630000  0.30690000  0.42980000  1.0 -0.0295981368
C  C49  1  0.67580000  0.28670000  0.50180000  1.0 -0.0983587157
C  C50  1  0.62510000  0.32130000  0.54650000  1.0 -0.1476716867
C  C51  1  0.57930000  0.37440000  0.51910000  1.0 0.0882737946
C  C52  1  0.59130000  0.39390000  0.44610000  1.0 -0.1476716867
C  C53  1  0.64350000  0.36070000  0.40430000  1.0 -0.0983587157
C  C54  1  0.52210000  0.40610000  0.56570000  1.0 -0.0902558393
C  C55  1  0.42330000  0.37080000  0.52150000  1.0 0.0807653999
C  C56  1  0.36890000  0.39080000  0.56970000  1.0 -0.0708971112
C  C57  1  0.40970000  0.44340000  0.66460000  1.0 0.0709118164
C  C58  1  0.50800000  0.48010000  0.70940000  1.0 -0.0378042535
C  C59  1  0.56380000  0.46370000  0.66000000  1.0 0.0709118164
C  C60  1  0.66920000  0.50850000  0.70810000  1.0 -0.4570098037
C  C61  1  0.37680000  0.30670000  0.42020000  1.0 -0.448499527
C  C62  1  0.35110000  0.46180000  0.71850000  1.0 -0.4662772828
C  C63  1  0.26510000  0.35320000  0.52030000  1.0 0.0882737946
C  C64  1  0.20650000  0.27530000  0.52170000  1.0 -0.1476716867
C  C65  1  0.11190000  0.23660000  0.47310000  1.0 -0.0902558393
C  C66  1  0.06980000  0.27540000  0.42050000  1.0 -0.0295981368
C  C67  1  0.12600000  0.35230000  0.41740000  1.0 -0.0902558393
C  C68  1  0.22270000  0.39190000  0.46710000  1.0 -0.1476716867
C  C69  1  0.96620000  0.23150000  0.36510000  1.0 0.6262490636
C  C70  1  0.55550000  0.52850000  0.81140000  1.0 -0.0295981368
C  C71  1  0.58490000  0.62420000  0.85780000  1.0 0.0709118164
C  C72  1  0.63490000  0.66640000  0.95150000  1.0 -0.0708971112
C  C73  1  0.65830000  0.61490000  0.00040000  1.0 0.0709118164
C  C74  1  0.62730000  0.51910000  0.95160000  1.0 -0.0708971112
C  C75  1  0.57540000  0.47570000  0.85880000  1.0 0.0709118164
C  C76  1  0.54380000  0.37290000  0.80810000  1.0 -0.448499527
C  C77  1  0.56090000  0.67910000  0.80550000  1.0 -0.4570098037
C  C78  1  0.71510000  0.66060000  0.10070000  1.0 -0.448499527
C  C79  1  0.66780000  0.76890000  0.00310000  1.0 0.0882737946
C  C80  1  0.62800000  0.80720000  0.06050000  1.0 -0.1476716867
C  C81  1  0.65800000  0.89920000  0.10830000  1.0 -0.0902558393
C  C82  1  0.72930000  0.95910000  0.09810000  1.0 -0.0295981368
C  C83  1  0.76910000  0.92220000  0.04040000  1.0 -0.0902558393
C  C84  1  0.73950000  0.82810000  0.99420000  1.0 -0.1476716867
C  C85  1  0.76200000  0.06070000  0.14850000  1.0 0.5760667509
C  C86  1  0.65770000  0.46360000  0.00090000  1.0 0.0807653999
C  C87  1  0.59760000  0.41130000  0.02750000  1.0 -0.1476716867
C  C88  1  0.62550000  0.35650000  0.06710000  1.0 -0.0983587157
C  C89  1  0.71450000  0.35520000  0.08450000  1.0 -0.0295981368
C  C90  1  0.77450000  0.41000000  0.06010000  1.0 -0.0902558393
C  C91  1  0.74550000  0.46270000  0.01840000  1.0 -0.1476716867
C  C92  1  0.74490000  0.30060000  0.13150000  1.0 0.5512763149
O  O1  1  0.24200000  0.79830000  0.60348000  1.0 -0.6904134864
O  O2  1  0.24340000  0.70849000  0.67838000  1.0 -0.6283105427
O  O3  1  0.06558000  0.73194000  0.68509000  1.0 -0.6439148897
O  O4  1  0.07977000  0.83810000  0.62910000  1.0 -0.6748589987
O  O5  1  0.19290000  0.88565000  0.87576000  1.0 -0.5494539851
O  O6  1  0.25758000  0.90711000  0.78207000  1.0 -0.7292105669
O  O7  1  0.31440000  0.76918000  0.87206000  1.0 -0.5971058423
O  O8  1  0.16792000  0.67345000  0.82287000  1.0 -0.6148021334
O  O9  1  0.75800000  0.20170000  0.39652000  1.0 -0.6904134864
O  O10  1  0.75660000  0.29151000  0.32162000  1.0 -0.6283105427
O  O11  1  0.93442000  0.26806000  0.31491000  1.0 -0.6439148897
O  O12  1  0.92023000  0.16190000  0.37090000  1.0 -0.6753300542
O  O13  1  0.80710000  0.11435000  0.12424000  1.0 -0.5494539851
O  O14  1  0.74242000  0.09289000  0.21793000  1.0 -0.7292105669
O  O15  1  0.68560000  0.23082000  0.12794000  1.0 -0.5971058423
O  O16  1  0.83208000  0.32655000  0.17713000  1.0 -0.615386855
