# DDEC6 charges by PACMAN v1.1 (https://github.com/mtap-research/PACMAN-charge/)
data_BOWDUO_FSR_pacman
_symmetry_space_group_name_H-M   'P 1'
_cell_length_a   20.05870000
_cell_length_b   20.05870000
_cell_length_c   12.90220000
_cell_angle_alpha   72.15090000
_cell_angle_beta   107.84900000
_cell_angle_gamma   101.70800000
_symmetry_Int_Tables_number   1
_chemical_formula_structural   Co9H88C124(N9O23)2
_chemical_formula_sum   'Co9 H88 C124 N18 O46'
_cell_volume   4669.36659754
_cell_formula_units_Z   1
loop_
 _symmetry_equiv_pos_site_id
 _symmetry_equiv_pos_as_xyz
  1  'x, y, z'
loop_
 _atom_site_type_symbol
 _atom_site_label
 _atom_site_symmetry_multiplicity
 _atom_site_fract_x
 _atom_site_fract_y
 _atom_site_fract_z
 _atom_site_occupancy
 _atom_site_charge
Co  Co1  1  0.72608000  0.27392000  0.07300000  1.0 0.9799324449
Co  Co2  1  0.27392000  0.72608000  0.92700000  1.0 0.9799324449
Co  Co3  1  0.70851000  0.29149000  0.32880000  1.0 0.736306059
Co  Co4  1  0.29149000  0.70851000  0.67120000  1.0 0.736306059
Co  Co5  1  0.69086000  0.81732000  0.43563000  1.0 0.8268268432
Co  Co6  1  0.81732000  0.69086000  0.56437000  1.0 0.8268268432
Co  Co7  1  0.30914000  0.18268000  0.56437000  1.0 0.8268268432
Co  Co8  1  0.18268000  0.30914000  0.43563000  1.0 0.8268268432
Co  Co9  1  0.00000000  0.00000000  0.00000000  1.0 0.7193077083
H  H1  1  0.73760000  0.26240000  0.84950000  1.0 0.1102632367
H  H2  1  0.26240000  0.73760000  0.15050000  1.0 0.1102632367
H  H3  1  0.79160000  0.20840000  0.77230000  1.0 0.1391402072
H  H4  1  0.20840000  0.79160000  0.22770000  1.0 0.1391402072
H  H5  1  0.89080000  0.10920000  0.08650000  1.0 0.1296110113
H  H6  1  0.10920000  0.89080000  0.91350000  1.0 0.1296110113
H  H7  1  0.83130000  0.16870000  0.15230000  1.0 0.0999905397
H  H8  1  0.16870000  0.83130000  0.84770000  1.0 0.0999905397
H  H9  1  0.60180000  0.17680000  0.43180000  1.0 0.1102632367
H  H10  1  0.17680000  0.60180000  0.56820000  1.0 0.1102632367
H  H11  1  0.39820000  0.82320000  0.56820000  1.0 0.1102632367
H  H12  1  0.82320000  0.39820000  0.43180000  1.0 0.1102632367
H  H13  1  0.49930000  0.16670000  0.48310000  1.0 0.1102632367
H  H14  1  0.16670000  0.49930000  0.51690000  1.0 0.1102632367
H  H15  1  0.50070000  0.83330000  0.51690000  1.0 0.1102632367
H  H16  1  0.83330000  0.50070000  0.48310000  1.0 0.1102632367
H  H17  1  0.67130000  0.93810000  0.51910000  1.0 0.1102632367
H  H18  1  0.93810000  0.67130000  0.48090000  1.0 0.1102632367
H  H19  1  0.32870000  0.06190000  0.48090000  1.0 0.1102632367
H  H20  1  0.06190000  0.32870000  0.51910000  1.0 0.1102632367
H  H21  1  0.67620000  0.05920000  0.46620000  1.0 0.1391402072
H  H22  1  0.05920000  0.67620000  0.53380000  1.0 0.1391402072
H  H23  1  0.32380000  0.94080000  0.53380000  1.0 0.1391402072
H  H24  1  0.94080000  0.32380000  0.46620000  1.0 0.1391402072
H  H25  1  0.68540000  0.05780000  0.16170000  1.0 0.1391402072
H  H26  1  0.05780000  0.68540000  0.83830000  1.0 0.1391402072
H  H27  1  0.31460000  0.94220000  0.83830000  1.0 0.1391402072
H  H28  1  0.94220000  0.31460000  0.16170000  1.0 0.1391402072
H  H29  1  0.67730000  0.93650000  0.22130000  1.0 0.0999905397
H  H30  1  0.93650000  0.67730000  0.77870000  1.0 0.0999905397
H  H31  1  0.32270000  0.06350000  0.77870000  1.0 0.0999905397
H  H32  1  0.06350000  0.32270000  0.22130000  1.0 0.0999905397
H  H33  1  0.46660000  0.16940000  0.66430000  1.0 0.0902616351
H  H34  1  0.16940000  0.46660000  0.33570000  1.0 0.0902616351
H  H35  1  0.53340000  0.83060000  0.33570000  1.0 0.0902616351
H  H36  1  0.83060000  0.53340000  0.66430000  1.0 0.0902616351
H  H37  1  0.56290000  0.19930000  0.80050000  1.0 0.1391402072
H  H38  1  0.19930000  0.56290000  0.19950000  1.0 0.1391402072
H  H39  1  0.43710000  0.80070000  0.19950000  1.0 0.1391402072
H  H40  1  0.80070000  0.43710000  0.80050000  1.0 0.1391402072
H  H41  1  0.43380000  0.27420000  0.90960000  1.0 0.1296110113
H  H42  1  0.27420000  0.43380000  0.09040000  1.0 0.1296110113
H  H43  1  0.56620000  0.72580000  0.09040000  1.0 0.1296110113
H  H44  1  0.72580000  0.56620000  0.90960000  1.0 0.1296110113
H  H45  1  0.34200000  0.24480000  0.76840000  1.0 0.0902616351
H  H46  1  0.24480000  0.34200000  0.23160000  1.0 0.0902616351
H  H47  1  0.65800000  0.75520000  0.23160000  1.0 0.0902616351
H  H48  1  0.75520000  0.65800000  0.76840000  1.0 0.0902616351
H  H49  1  0.01450000  0.88490000  0.23040000  1.0 0.1102632367
H  H50  1  0.88490000  0.01450000  0.76960000  1.0 0.1102632367
H  H51  1  0.98550000  0.11510000  0.76960000  1.0 0.1102632367
H  H52  1  0.11510000  0.98550000  0.23040000  1.0 0.1102632367
H  H53  1  0.95160000  0.81980000  0.35610000  1.0 0.1296110113
H  H54  1  0.81980000  0.95160000  0.64390000  1.0 0.1296110113
H  H55  1  0.04840000  0.18020000  0.64390000  1.0 0.1296110113
H  H56  1  0.18020000  0.04840000  0.35610000  1.0 0.1296110113
H  H57  1  0.78150000  0.91130000  0.15080000  1.0 0.1296110113
H  H58  1  0.91130000  0.78150000  0.84920000  1.0 0.1296110113
H  H59  1  0.21850000  0.08870000  0.84920000  1.0 0.1296110113
H  H60  1  0.08870000  0.21850000  0.15080000  1.0 0.1296110113
H  H61  1  0.84870000  0.97250000  0.02720000  1.0 0.1102632367
H  H62  1  0.97250000  0.84870000  0.97280000  1.0 0.1102632367
H  H63  1  0.15130000  0.02750000  0.97280000  1.0 0.1102632367
H  H64  1  0.02750000  0.15130000  0.02720000  1.0 0.1102632367
H  H65  1  0.55980000  0.34980000  0.20530000  1.0 0.1102632367
H  H66  1  0.34980000  0.55980000  0.79470000  1.0 0.1102632367
H  H67  1  0.44020000  0.65020000  0.79470000  1.0 0.1102632367
H  H68  1  0.65020000  0.44020000  0.20530000  1.0 0.1102632367
H  H69  1  0.45170000  0.34210000  0.23860000  1.0 0.0999905397
H  H70  1  0.34210000  0.45170000  0.76140000  1.0 0.0999905397
H  H71  1  0.54830000  0.65790000  0.76140000  1.0 0.0999905397
H  H72  1  0.65790000  0.54830000  0.23860000  1.0 0.0999905397
H  H73  1  0.55530000  0.20650000  0.25780000  1.0 0.1296110113
H  H74  1  0.20650000  0.55530000  0.74220000  1.0 0.1296110113
H  H75  1  0.44470000  0.79350000  0.74220000  1.0 0.1296110113
H  H76  1  0.79350000  0.44470000  0.25780000  1.0 0.1296110113
H  H77  1  0.62590000  0.34570000  0.42650000  1.0 0.0902616351
H  H78  1  0.34570000  0.62590000  0.57350000  1.0 0.0902616351
H  H79  1  0.37410000  0.65430000  0.57350000  1.0 0.0902616351
H  H80  1  0.65430000  0.37410000  0.42650000  1.0 0.0902616351
H  H81  1  0.45040000  0.19120000  0.29100000  1.0 0.1167647399
H  H82  1  0.19120000  0.45040000  0.70900000  1.0 0.1167647399
H  H83  1  0.54960000  0.80880000  0.70900000  1.0 0.1167647399
H  H84  1  0.80880000  0.54960000  0.29100000  1.0 0.1167647399
H  H85  1  0.51410000  0.33690000  0.45530000  1.0 0.0999905397
H  H86  1  0.33690000  0.51410000  0.54470000  1.0 0.0999905397
H  H87  1  0.48590000  0.66310000  0.54470000  1.0 0.0999905397
H  H88  1  0.66310000  0.48590000  0.45530000  1.0 0.0999905397
C  C1  1  0.76900000  0.23100000  0.89800000  1.0 0.0783108286
C  C2  1  0.23100000  0.76900000  0.10200000  1.0 0.0902616351
C  C3  1  0.80110000  0.19890000  0.85000000  1.0 -0.1611459879
C  C4  1  0.19890000  0.80110000  0.15000000  1.0 -0.1611459879
C  C5  1  0.84870000  0.15130000  0.92190000  1.0 0.0219127969
C  C6  1  0.15130000  0.84870000  0.07810000  1.0 0.0219127969
C  C7  1  0.85970000  0.14030000  0.03570000  1.0 -0.1773129006
C  C8  1  0.14030000  0.85970000  0.96430000  1.0 -0.1773129006
C  C9  1  0.82350000  0.17650000  0.07490000  1.0 0.0720316496
C  C10  1  0.17650000  0.82350000  0.92510000  1.0 0.0720316496
C  C11  1  0.88590000  0.11410000  0.87370000  1.0 0.5431586082
C  C12  1  0.11410000  0.88590000  0.12630000  1.0 0.5431586082
C  C13  1  0.57510000  0.21450000  0.40300000  1.0 -0.027396735
C  C14  1  0.21450000  0.57510000  0.59700000  1.0 -0.027396735
C  C15  1  0.42490000  0.78550000  0.59700000  1.0 -0.027396735
C  C16  1  0.78550000  0.42490000  0.40300000  1.0 -0.027396735
C  C17  1  0.46630000  0.25870000  0.37530000  1.0 -0.0206425215
C  C18  1  0.25870000  0.46630000  0.62470000  1.0 -0.0206425215
C  C19  1  0.53370000  0.74130000  0.62470000  1.0 -0.0206425215
C  C20  1  0.74130000  0.53370000  0.37530000  1.0 -0.0206425215
C  C21  1  0.51170000  0.20650000  0.42950000  1.0 -0.1056356032
C  C22  1  0.20650000  0.51170000  0.57050000  1.0 -0.1056356032
C  C23  1  0.48830000  0.79350000  0.57050000  1.0 -0.1056356032
C  C24  1  0.79350000  0.48830000  0.42950000  1.0 -0.1056356032
C  C25  1  0.39990000  0.25510000  0.40610000  1.0 0.4287743445
C  C26  1  0.25510000  0.39990000  0.59390000  1.0 0.4287743445
C  C27  1  0.60010000  0.74490000  0.59390000  1.0 0.4287743445
C  C28  1  0.74490000  0.60010000  0.40610000  1.0 0.4287743445
C  C29  1  0.67440000  0.96260000  0.44640000  1.0 0.0783108286
C  C30  1  0.96260000  0.67440000  0.55360000  1.0 0.0783108286
C  C31  1  0.32560000  0.03740000  0.55360000  1.0 0.0783108286
C  C32  1  0.03740000  0.32560000  0.44640000  1.0 0.0783108286
C  C33  1  0.67820000  0.03540000  0.41580000  1.0 -0.1679016972
C  C34  1  0.03540000  0.67820000  0.58420000  1.0 -0.1679016972
C  C35  1  0.32180000  0.96460000  0.58420000  1.0 -0.1679016972
C  C36  1  0.96460000  0.32180000  0.41580000  1.0 -0.1679016972
C  C37  1  0.68500000  0.07240000  0.30880000  1.0 0.0375541153
C  C38  1  0.07240000  0.68500000  0.69120000  1.0 0.0375541153
C  C39  1  0.31500000  0.92760000  0.69120000  1.0 0.0375541153
C  C40  1  0.92760000  0.31500000  0.30880000  1.0 0.0375541153
C  C41  1  0.68330000  0.03470000  0.23530000  1.0 -0.1679016972
C  C42  1  0.03470000  0.68330000  0.76470000  1.0 -0.1679016972
C  C43  1  0.31670000  0.96530000  0.76470000  1.0 -0.1679016972
C  C44  1  0.96530000  0.31670000  0.23530000  1.0 -0.1679016972
C  C45  1  0.67830000  0.96150000  0.27190000  1.0 0.0902616351
C  C46  1  0.96150000  0.67830000  0.72810000  1.0 0.0902616351
C  C47  1  0.32170000  0.03850000  0.72810000  1.0 0.0902616351
C  C48  1  0.03850000  0.32170000  0.27190000  1.0 0.0902616351
C  C49  1  0.69570000  0.15270000  0.27330000  1.0 0.5505728599
C  C50  1  0.15270000  0.69570000  0.72670000  1.0 0.5505728599
C  C51  1  0.30430000  0.84730000  0.72670000  1.0 0.5505728599
C  C52  1  0.84730000  0.30430000  0.27330000  1.0 0.5505728599
C  C53  1  0.46050000  0.19190000  0.71330000  1.0 0.057346639
C  C54  1  0.19190000  0.46050000  0.28670000  1.0 0.057346639
C  C55  1  0.53950000  0.80810000  0.28670000  1.0 0.057346639
C  C56  1  0.80810000  0.53950000  0.71330000  1.0 0.057346639
C  C57  1  0.51840000  0.20880000  0.79580000  1.0 -0.1611459879
C  C58  1  0.20880000  0.51840000  0.20420000  1.0 -0.1611459879
C  C59  1  0.48160000  0.79120000  0.20420000  1.0 -0.1611459879
C  C60  1  0.79120000  0.48160000  0.79580000  1.0 -0.1611459879
C  C61  1  0.50910000  0.24050000  0.87230000  1.0 0.0375541153
C  C62  1  0.24050000  0.50910000  0.12770000  1.0 0.0375541153
C  C63  1  0.49090000  0.75950000  0.12770000  1.0 0.0375541153
C  C64  1  0.75950000  0.49090000  0.87230000  1.0 0.0375541153
C  C65  1  0.44210000  0.25350000  0.86000000  1.0 -0.1611459879
C  C66  1  0.25350000  0.44210000  0.14000000  1.0 -0.1611459879
C  C67  1  0.55790000  0.74650000  0.14000000  1.0 -0.1611459879
C  C68  1  0.74650000  0.55790000  0.86000000  1.0 -0.1611459879
C  C69  1  0.38700000  0.23580000  0.77460000  1.0 0.0783108286
C  C70  1  0.23580000  0.38700000  0.22540000  1.0 0.0783108286
C  C71  1  0.61300000  0.76420000  0.22540000  1.0 0.0783108286
C  C72  1  0.76420000  0.61300000  0.77460000  1.0 0.0783108286
C  C73  1  0.57090000  0.25990000  0.96340000  1.0 0.5505728599
C  C74  1  0.25990000  0.57090000  0.03660000  1.0 0.5505728599
C  C75  1  0.42910000  0.74010000  0.03660000  1.0 0.5505728599
C  C76  1  0.74010000  0.42910000  0.96340000  1.0 0.5505728599
C  C77  1  0.96720000  0.89060000  0.21420000  1.0 0.0783108286
C  C78  1  0.89060000  0.96720000  0.78580000  1.0 0.0783108286
C  C79  1  0.03280000  0.10940000  0.78580000  1.0 0.0783108286
C  C80  1  0.10940000  0.03280000  0.21420000  1.0 0.0783108286
C  C81  1  0.92970000  0.85130000  0.29050000  1.0 -0.1611459879
C  C82  1  0.85130000  0.92970000  0.70950000  1.0 -0.1611459879
C  C83  1  0.07030000  0.14870000  0.70950000  1.0 -0.1611459879
C  C84  1  0.14870000  0.07030000  0.29050000  1.0 -0.1611459879
C  C85  1  0.85870000  0.85890000  0.26900000  1.0 0.0274745008
C  C86  1  0.85890000  0.85870000  0.73100000  1.0 0.0274745008
C  C87  1  0.14130000  0.14110000  0.73100000  1.0 0.0274745008
C  C88  1  0.14110000  0.14130000  0.26900000  1.0 0.0274745008
C  C89  1  0.82890000  0.90510000  0.16890000  1.0 -0.1679016972
C  C90  1  0.90510000  0.82890000  0.83110000  1.0 -0.1679016972
C  C91  1  0.17110000  0.09490000  0.83110000  1.0 -0.1679016972
C  C92  1  0.09490000  0.17110000  0.16890000  1.0 -0.1679016972
C  C93  1  0.86990000  0.94230000  0.09510000  1.0 0.0720316496
C  C94  1  0.94230000  0.86990000  0.90490000  1.0 0.0720316496
C  C95  1  0.13010000  0.05770000  0.90490000  1.0 0.0720316496
C  C96  1  0.05770000  0.13010000  0.09510000  1.0 0.0783108286
C  C97  1  0.81790000  0.81790000  0.35400000  1.0 0.570444959
C  C98  1  0.81790000  0.81790000  0.64600000  1.0 0.570444959
C  C99  1  0.18210000  0.18210000  0.64600000  1.0 0.570444959
C  C100  1  0.18210000  0.18210000  0.35400000  1.0 0.570444959
C  C101  1  0.54970000  0.31590000  0.26800000  1.0 0.0219127969
C  C102  1  0.31590000  0.54970000  0.73200000  1.0 0.0219127969
C  C103  1  0.45030000  0.68410000  0.73200000  1.0 0.0219127969
C  C104  1  0.68410000  0.45030000  0.26800000  1.0 0.0219127969
C  C105  1  0.48360000  0.31080000  0.28600000  1.0 -0.0883833368
C  C106  1  0.31080000  0.48360000  0.71400000  1.0 -0.0883833368
C  C107  1  0.51640000  0.68920000  0.71400000  1.0 -0.0883833368
C  C108  1  0.68920000  0.51640000  0.28600000  1.0 -0.0883833368
C  C109  1  0.58900000  0.31500000  0.39700000  1.0 -0.0698941697
C  C110  1  0.31500000  0.58900000  0.60300000  1.0 -0.0698941697
C  C111  1  0.41100000  0.68500000  0.60300000  1.0 -0.0698941697
C  C112  1  0.68500000  0.41100000  0.39700000  1.0 -0.0698941697
C  C113  1  0.48440000  0.22460000  0.32000000  1.0 -0.0520769332
C  C114  1  0.22460000  0.48440000  0.68000000  1.0 -0.0520769332
C  C115  1  0.51560000  0.77540000  0.68000000  1.0 -0.0520769332
C  C116  1  0.77540000  0.51560000  0.32000000  1.0 -0.0520769332
C  C117  1  0.52220000  0.30820000  0.41600000  1.0 -0.1339230474
C  C118  1  0.30820000  0.52220000  0.58400000  1.0 -0.1339230474
C  C119  1  0.47780000  0.69180000  0.58400000  1.0 -0.1339230474
C  C120  1  0.69180000  0.47780000  0.41600000  1.0 -0.1339230474
C  C121  1  0.54880000  0.23340000  0.30100000  1.0 0.0274745008
C  C122  1  0.23340000  0.54880000  0.69900000  1.0 0.0274745008
C  C123  1  0.45120000  0.76660000  0.69900000  1.0 0.0274745008
C  C124  1  0.76660000  0.45120000  0.30100000  1.0 0.0274745008
N  N1  1  0.77850000  0.22150000  0.00570000  1.0 -0.2406857361
N  N2  1  0.22150000  0.77850000  0.99430000  1.0 -0.2406857361
N  N3  1  0.67510000  0.92590000  0.37550000  1.0 -0.2318187182
N  N4  1  0.92590000  0.67510000  0.62450000  1.0 -0.2318187182
N  N5  1  0.32490000  0.07410000  0.62450000  1.0 -0.2318187182
N  N6  1  0.07410000  0.32490000  0.37550000  1.0 -0.2318187182
N  N7  1  0.39520000  0.20660000  0.70040000  1.0 -0.2553582315
N  N8  1  0.20660000  0.39520000  0.29960000  1.0 -0.2553582315
N  N9  1  0.60480000  0.79340000  0.29960000  1.0 -0.2553582315
N  N10  1  0.79340000  0.60480000  0.70040000  1.0 -0.2553582315
N  N11  1  0.93900000  0.93620000  0.11790000  1.0 -0.2318187182
N  N12  1  0.93620000  0.93900000  0.88210000  1.0 -0.2318187182
N  N13  1  0.06100000  0.06380000  0.88210000  1.0 -0.2318187182
N  N14  1  0.06380000  0.06100000  0.11790000  1.0 -0.2318187182
N  N15  1  0.59970000  0.27470000  0.33590000  1.0 -0.0883833368
N  N16  1  0.27470000  0.59970000  0.66410000  1.0 -0.0883833368
N  N17  1  0.40030000  0.72530000  0.66410000  1.0 -0.0883833368
N  N18  1  0.72530000  0.40030000  0.33590000  1.0 -0.0883833368
O  O1  1  0.92750000  0.07250000  0.94660000  1.0 -0.5869391982
O  O2  1  0.07250000  0.92750000  0.05340000  1.0 -0.5869391982
O  O3  1  0.87370000  0.12630000  0.77110000  1.0 -0.5414869611
O  O4  1  0.12630000  0.87370000  0.22890000  1.0 -0.5414869611
O  O5  1  0.38020000  0.19920000  0.46710000  1.0 -0.512219039
O  O6  1  0.19920000  0.38020000  0.53290000  1.0 -0.512219039
O  O7  1  0.61980000  0.80080000  0.53290000  1.0 -0.512219039
O  O8  1  0.80080000  0.61980000  0.46710000  1.0 -0.512219039
O  O9  1  0.36370000  0.30470000  0.35700000  1.0 0.0274745008
O  O10  1  0.30470000  0.36370000  0.64300000  1.0 0.0274745008
O  O11  1  0.63630000  0.69530000  0.64300000  1.0 0.0219127969
O  O12  1  0.69530000  0.63630000  0.35700000  1.0 0.0274745008
O  O13  1  0.70430000  0.17830000  0.17730000  1.0 -0.5284957413
O  O14  1  0.17830000  0.70430000  0.82270000  1.0 -0.5284957413
O  O15  1  0.29570000  0.82170000  0.82270000  1.0 -0.5284957413
O  O16  1  0.82170000  0.29570000  0.17730000  1.0 -0.5284957413
O  O17  1  0.69680000  0.18400000  0.34270000  1.0 -0.512219039
O  O18  1  0.18400000  0.69680000  0.65730000  1.0 -0.512219039
O  O19  1  0.30320000  0.81600000  0.65730000  1.0 -0.512219039
O  O20  1  0.81600000  0.30320000  0.34270000  1.0 -0.512219039
O  O21  1  0.63120000  0.25540000  0.95750000  1.0 -0.5571573276
O  O22  1  0.25540000  0.63120000  0.04250000  1.0 -0.5571573276
O  O23  1  0.36880000  0.74460000  0.04250000  1.0 -0.5571573276
O  O24  1  0.74460000  0.36880000  0.95750000  1.0 -0.5571573276
O  O25  1  0.55770000  0.28290000  0.03510000  1.0 -0.5284957413
O  O26  1  0.28290000  0.55770000  0.96490000  1.0 -0.5284957413
O  O27  1  0.44230000  0.71710000  0.96490000  1.0 -0.5284957413
O  O28  1  0.71710000  0.44230000  0.03510000  1.0 -0.5284957413
O  O29  1  0.75630000  0.83490000  0.33090000  1.0 -0.5571573276
O  O30  1  0.83490000  0.75630000  0.66910000  1.0 -0.5571573276
O  O31  1  0.24370000  0.16510000  0.66910000  1.0 -0.5571573276
O  O32  1  0.16510000  0.24370000  0.33090000  1.0 -0.5571573276
O  O33  1  0.84660000  0.77300000  0.43490000  1.0 -0.5284957413
O  O34  1  0.77300000  0.84660000  0.56510000  1.0 -0.5284957413
O  O35  1  0.15340000  0.22700000  0.56510000  1.0 -0.5284957413
O  O36  1  0.22700000  0.15340000  0.43490000  1.0 -0.5284957413
O  O37  1  0.67600000  0.32400000  0.15430000  1.0 -0.3365878437
O  O38  1  0.32400000  0.67600000  0.84570000  1.0 -0.3365878437
O  O39  1  0.70930000  0.70930000  0.50000000  1.0 -0.5486867551
O  O40  1  0.29070000  0.29070000  0.50000000  1.0 -0.5486867551
O  O41  1  0.73690000  0.26310000  0.50810000  1.0 -0.3571317916
O  O42  1  0.26310000  0.73690000  0.49190000  1.0 -0.3571317916
O  O43  1  0.38530000  0.32310000  0.40100000  1.0 0.0033343041
O  O44  1  0.32310000  0.38530000  0.59900000  1.0 0.0110779053
O  O45  1  0.61470000  0.67690000  0.59900000  1.0 0.0110779053
O  O46  1  0.67690000  0.61470000  0.40100000  1.0 0.0033343041
