# DDEC6 charges by PACMAN v1.1 (https://github.com/mtap-research/PACMAN-charge/)
data_BOWJAA_ASR_pacman
_symmetry_space_group_name_H-M   'P 1'
_cell_length_a   11.11710000
_cell_length_b   14.99060000
_cell_length_c   24.32810000
_cell_angle_alpha   90.00000000
_cell_angle_beta   93.21700000
_cell_angle_gamma   90.00000000
_symmetry_Int_Tables_number   1
_chemical_formula_structural   Zn3H15(C15O7)2
_chemical_formula_sum   'Zn12 H60 C120 O56'
_cell_volume   4047.93752383
_cell_formula_units_Z   4
loop_
 _symmetry_equiv_pos_site_id
 _symmetry_equiv_pos_as_xyz
  1  'x, y, z'
loop_
 _atom_site_type_symbol
 _atom_site_label
 _atom_site_symmetry_multiplicity
 _atom_site_fract_x
 _atom_site_fract_y
 _atom_site_fract_z
 _atom_site_occupancy
 _atom_site_charge
Zn  Zn1  1  0.86342000  0.44306000  0.65680000  1.0 0.9537146878
Zn  Zn2  1  0.13658000  0.94306000  0.84320000  1.0 0.9537146878
Zn  Zn3  1  0.13658000  0.55694000  0.34320000  1.0 0.9537146878
Zn  Zn4  1  0.86342000  0.05694000  0.15680000  1.0 0.9537146878
Zn  Zn5  1  0.00695000  0.55491000  0.55917000  1.0 0.9990369422
Zn  Zn6  1  0.99305000  0.05491000  0.94083000  1.0 0.9990369422
Zn  Zn7  1  0.99305000  0.44509000  0.44083000  1.0 0.9990369422
Zn  Zn8  1  0.00695000  0.94509000  0.05917000  1.0 0.9990369422
Zn  Zn9  1  0.17369000  0.43996000  0.65475000  1.0 0.9582343292
Zn  Zn10  1  0.82631000  0.93996000  0.84525000  1.0 0.9582343292
Zn  Zn11  1  0.82631000  0.56004000  0.34525000  1.0 0.9582343292
Zn  Zn12  1  0.17369000  0.06004000  0.15475000  1.0 0.9582343292
H  H1  1  0.02220000  0.55390000  0.66120000  1.0 0.393105973
H  H2  1  0.97780000  0.05390000  0.83880000  1.0 0.393105973
H  H3  1  0.97780000  0.44610000  0.33880000  1.0 0.393105973
H  H4  1  0.02220000  0.94610000  0.16120000  1.0 0.393105973
H  H5  1  0.16540000  0.43020000  0.83340000  1.0 0.1406722563
H  H6  1  0.83460000  0.93020000  0.66666667  1.0 0.1406722563
H  H7  1  0.83460000  0.56980000  0.16660000  1.0 0.1406722563
H  H8  1  0.16540000  0.06980000  0.33340000  1.0 0.1406722563
H  H9  1  0.73820000  0.62880000  0.94740000  1.0 0.1285544545
H  H10  1  0.26180000  0.12880000  0.55260000  1.0 0.1285544545
H  H11  1  0.26180000  0.37120000  0.05260000  1.0 0.1285544545
H  H12  1  0.73820000  0.87120000  0.44740000  1.0 0.1285544545
H  H13  1  0.31460000  0.65760000  0.49200000  1.0 0.1406722563
H  H14  1  0.68540000  0.15760000  0.00800000  1.0 0.1406722563
H  H15  1  0.68540000  0.34240000  0.50800000  1.0 0.1406722563
H  H16  1  0.31460000  0.84240000  0.99200000  1.0 0.1406722563
H  H17  1  0.51240000  0.50310000  0.59860000  1.0 0.1406722563
H  H18  1  0.48760000  0.00310000  0.90140000  1.0 0.1406722563
H  H19  1  0.48760000  0.49690000  0.40140000  1.0 0.1406722563
H  H20  1  0.51240000  0.99690000  0.09860000  1.0 0.1406722563
H  H21  1  0.86590000  0.67380000  0.79810000  1.0 0.1406722563
H  H22  1  0.13410000  0.17380000  0.70190000  1.0 0.1406722563
H  H23  1  0.13410000  0.32620000  0.20190000  1.0 0.1406722563
H  H24  1  0.86590000  0.82620000  0.29810000  1.0 0.1406722563
H  H25  1  0.17510000  0.69500000  0.79860000  1.0 0.1406722563
H  H26  1  0.82490000  0.19500000  0.70140000  1.0 0.1406722563
H  H27  1  0.82490000  0.30500000  0.20140000  1.0 0.1406722563
H  H28  1  0.17510000  0.80500000  0.29860000  1.0 0.1406722563
H  H29  1  0.11330000  0.61240000  0.95370000  1.0 0.1285544545
H  H30  1  0.88670000  0.11240000  0.54630000  1.0 0.1285544545
H  H31  1  0.88670000  0.38760000  0.04630000  1.0 0.1285544545
H  H32  1  0.11330000  0.88760000  0.45370000  1.0 0.1285544545
H  H33  1  0.68160000  0.66630000  0.49500000  1.0 0.1406722563
H  H34  1  0.31840000  0.16630000  0.00500000  1.0 0.1406722563
H  H35  1  0.31840000  0.33370000  0.50500000  1.0 0.1406722563
H  H36  1  0.68160000  0.83370000  0.99500000  1.0 0.1406722563
H  H37  1  0.75830000  0.42800000  0.83690000  1.0 0.1406722563
H  H38  1  0.24170000  0.92800000  0.66310000  1.0 0.1406722563
H  H39  1  0.24170000  0.57200000  0.16310000  1.0 0.1406722563
H  H40  1  0.75830000  0.07200000  0.33690000  1.0 0.1406722563
H  H41  1  0.61360000  0.37590000  0.99700000  1.0 0.2190569048
H  H42  1  0.38640000  0.87590000  0.50300000  1.0 0.2190569048
H  H43  1  0.38640000  0.62410000  0.00300000  1.0 0.2190569048
H  H44  1  0.61360000  0.12410000  0.49700000  1.0 0.2190569048
H  H45  1  0.46220000  0.84430000  0.38630000  1.0 0.2294986588
H  H46  1  0.53780000  0.34430000  0.11370000  1.0 0.2294986588
H  H47  1  0.53780000  0.15570000  0.61370000  1.0 0.2294986588
H  H48  1  0.46220000  0.65570000  0.88630000  1.0 0.2294986588
H  H49  1  0.09460000  0.32390000  0.98660000  1.0 0.2190569048
H  H50  1  0.90540000  0.82390000  0.51340000  1.0 0.2190569048
H  H51  1  0.90540000  0.67610000  0.01340000  1.0 0.2190569048
H  H52  1  0.09460000  0.17610000  0.48660000  1.0 0.2190569048
H  H53  1  0.92900000  0.62100000  0.46300000  1.0 0.4114491534
H  H54  1  0.07100000  0.12100000  0.03700000  1.0 0.4114491534
H  H55  1  0.07100000  0.37900000  0.53700000  1.0 0.4114491534
H  H56  1  0.92900000  0.87900000  0.96300000  1.0 0.4114491534
H  H57  1  0.06300000  0.61600000  0.46300000  1.0 0.4114491534
H  H58  1  0.93700000  0.11600000  0.03700000  1.0 0.4114491534
H  H59  1  0.93700000  0.38400000  0.53700000  1.0 0.4114491534
H  H60  1  0.06300000  0.88400000  0.96300000  1.0 0.4114491534
C  C1  1  0.17170000  0.55990000  0.80750000  1.0 -0.0081209204
C  C2  1  0.82830000  0.05990000  0.69250000  1.0 -0.0081209204
C  C3  1  0.82830000  0.44010000  0.19250000  1.0 -0.0081209204
C  C4  1  0.17170000  0.94010000  0.30750000  1.0 -0.0081209204
C  C5  1  0.39780000  0.57690000  0.54930000  1.0 -0.0262668286
C  C6  1  0.60220000  0.07690000  0.95070000  1.0 -0.0262668286
C  C7  1  0.60220000  0.42310000  0.45070000  1.0 -0.0262668286
C  C8  1  0.39780000  0.92310000  0.04930000  1.0 -0.0262668286
C  C9  1  0.15850000  0.49060000  0.84480000  1.0 -0.1268901485
C  C10  1  0.84150000  0.99060000  0.65520000  1.0 -0.1268901485
C  C11  1  0.84150000  0.50940000  0.15520000  1.0 -0.1268901485
C  C12  1  0.15850000  0.00940000  0.34480000  1.0 -0.1268901485
C  C13  1  0.80730000  0.66600000  0.87500000  1.0 -0.0204334784
C  C14  1  0.19270000  0.16600000  0.62500000  1.0 -0.0204334784
C  C15  1  0.19270000  0.33400000  0.12500000  1.0 -0.0204334784
C  C16  1  0.80730000  0.83400000  0.37500000  1.0 -0.0204334784
C  C17  1  0.75870000  0.60760000  0.91230000  1.0 -0.1479127533
C  C18  1  0.24130000  0.10760000  0.58770000  1.0 -0.1479127533
C  C19  1  0.24130000  0.39240000  0.08770000  1.0 -0.1479127533
C  C20  1  0.75870000  0.89240000  0.41230000  1.0 -0.1479127533
C  C21  1  0.39080000  0.63870000  0.50740000  1.0 -0.1268901485
C  C22  1  0.60920000  0.13870000  0.99260000  1.0 -0.1268901485
C  C23  1  0.60920000  0.36130000  0.49260000  1.0 -0.1268901485
C  C24  1  0.39080000  0.86130000  0.00740000  1.0 -0.1268901485
C  C25  1  0.18560000  0.54130000  0.74760000  1.0 0.5712358547
C  C26  1  0.81440000  0.04130000  0.75240000  1.0 0.5712358547
C  C27  1  0.81440000  0.45870000  0.25240000  1.0 0.5712358547
C  C28  1  0.18560000  0.95870000  0.24760000  1.0 0.5712358547
C  C29  1  0.82620000  0.76310000  0.88880000  1.0 0.5777359349
C  C30  1  0.17380000  0.26310000  0.61120000  1.0 0.5777359349
C  C31  1  0.17380000  0.23690000  0.11120000  1.0 0.5777359349
C  C32  1  0.82620000  0.73690000  0.38880000  1.0 0.5777359349
C  C33  1  0.61510000  0.58130000  0.55070000  1.0 -0.0262668286
C  C34  1  0.38490000  0.08130000  0.94930000  1.0 -0.0262668286
C  C35  1  0.38490000  0.41870000  0.44930000  1.0 -0.0262668286
C  C36  1  0.61510000  0.91870000  0.05070000  1.0 -0.0262668286
C  C37  1  0.73320000  0.54630000  0.57310000  1.0 0.6073195827
C  C38  1  0.26680000  0.04630000  0.92690000  1.0 0.6073195827
C  C39  1  0.26680000  0.45370000  0.42690000  1.0 0.6073195827
C  C40  1  0.73320000  0.95370000  0.07310000  1.0 0.6073195827
C  C41  1  0.50850000  0.54710000  0.57050000  1.0 -0.0927802282
C  C42  1  0.49150000  0.04710000  0.92950000  1.0 -0.0927802282
C  C43  1  0.49150000  0.45290000  0.42950000  1.0 -0.0927802282
C  C44  1  0.50850000  0.95290000  0.07050000  1.0 -0.0927802282
C  C45  1  0.28460000  0.54040000  0.57060000  1.0 0.6073195827
C  C46  1  0.71540000  0.04040000  0.92940000  1.0 0.6073195827
C  C47  1  0.71540000  0.45960000  0.42940000  1.0 0.6073195827
C  C48  1  0.28460000  0.95960000  0.07060000  1.0 0.6073195827
C  C49  1  0.83360000  0.63390000  0.82390000  1.0 -0.0927802282
C  C50  1  0.16640000  0.13390000  0.67610000  1.0 -0.0927802282
C  C51  1  0.16640000  0.36610000  0.17610000  1.0 -0.0927802282
C  C52  1  0.83360000  0.86610000  0.32390000  1.0 -0.0927802282
C  C53  1  0.16610000  0.64810000  0.82430000  1.0 -0.111086491
C  C54  1  0.83390000  0.14810000  0.67570000  1.0 -0.111086491
C  C55  1  0.83390000  0.35190000  0.17570000  1.0 -0.111086491
C  C56  1  0.16610000  0.85190000  0.32430000  1.0 -0.111086491
C  C57  1  0.13880000  0.76450000  0.89470000  1.0 0.5777359349
C  C58  1  0.86120000  0.26450000  0.60530000  1.0 0.5777359349
C  C59  1  0.86120000  0.23550000  0.10530000  1.0 0.5777359349
C  C60  1  0.13880000  0.73550000  0.39470000  1.0 0.5777359349
C  C61  1  0.12930000  0.59910000  0.91660000  1.0 -0.1479127533
C  C62  1  0.87070000  0.09910000  0.58340000  1.0 -0.1479127533
C  C63  1  0.87070000  0.40090000  0.08340000  1.0 -0.1479127533
C  C64  1  0.12930000  0.90090000  0.41660000  1.0 -0.1479127533
C  C65  1  0.60960000  0.64370000  0.50900000  1.0 -0.1229996639
C  C66  1  0.39040000  0.14370000  0.99100000  1.0 -0.1229996639
C  C67  1  0.39040000  0.35630000  0.49100000  1.0 -0.1229996639
C  C68  1  0.60960000  0.85630000  0.00900000  1.0 -0.1229996639
C  C69  1  0.14730000  0.66760000  0.87920000  1.0 -0.0262668286
C  C70  1  0.85270000  0.16760000  0.62080000  1.0 -0.0204334784
C  C71  1  0.85270000  0.33240000  0.12080000  1.0 -0.0262668286
C  C72  1  0.14730000  0.83240000  0.37920000  1.0 -0.0262668286
C  C73  1  0.81470000  0.54590000  0.80880000  1.0 -0.0081209204
C  C74  1  0.18530000  0.04590000  0.69120000  1.0 -0.0081209204
C  C75  1  0.18530000  0.45410000  0.19120000  1.0 -0.0081209204
C  C76  1  0.81470000  0.95410000  0.30880000  1.0 -0.0081209204
C  C77  1  0.84340000  0.51840000  0.75160000  1.0 0.5610739333
C  C78  1  0.15660000  0.01840000  0.74840000  1.0 0.5610739333
C  C79  1  0.15660000  0.48160000  0.24840000  1.0 0.5610739333
C  C80  1  0.84340000  0.98160000  0.25160000  1.0 0.5610739333
C  C81  1  0.76960000  0.48900000  0.84650000  1.0 -0.1229996639
C  C82  1  0.23040000  0.98900000  0.65350000  1.0 -0.1229996639
C  C83  1  0.23040000  0.51100000  0.15350000  1.0 -0.1229996639
C  C84  1  0.76960000  0.01100000  0.34650000  1.0 -0.1229996639
C  C85  1  0.73970000  0.51780000  0.89840000  1.0 0.1006080029
C  C86  1  0.26030000  0.01780000  0.60160000  1.0 0.1006080029
C  C87  1  0.26030000  0.48220000  0.10160000  1.0 0.1006080029
C  C88  1  0.73970000  0.98220000  0.39840000  1.0 0.1006080029
C  C89  1  0.68840000  0.46010000  0.93740000  1.0 0.0487965373
C  C90  1  0.31160000  0.96010000  0.56260000  1.0 0.0487965373
C  C91  1  0.31160000  0.53990000  0.06260000  1.0 0.0487965373
C  C92  1  0.68840000  0.03990000  0.43740000  1.0 0.0487965373
C  C93  1  0.48960000  0.74020000  0.44500000  1.0 0.0435071095
C  C94  1  0.51040000  0.24020000  0.05500000  1.0 0.0487965373
C  C95  1  0.51040000  0.25980000  0.55500000  1.0 0.0435071095
C  C96  1  0.48960000  0.75980000  0.94500000  1.0 0.0435071095
C  C97  1  0.49740000  0.67350000  0.48770000  1.0 0.111047341
C  C98  1  0.50260000  0.17350000  0.01230000  1.0 0.111047341
C  C99  1  0.50260000  0.32650000  0.51230000  1.0 0.111047341
C  C100  1  0.49740000  0.82650000  0.98770000  1.0 0.111047341
C  C101  1  0.11750000  0.43850000  0.93650000  1.0 0.029046128
C  C102  1  0.88250000  0.93850000  0.56350000  1.0 0.029046128
C  C103  1  0.88250000  0.56150000  0.06350000  1.0 0.029046128
C  C104  1  0.11750000  0.06150000  0.43650000  1.0 0.029046128
C  C105  1  0.13480000  0.51130000  0.89900000  1.0 0.1155934599
C  C106  1  0.86520000  0.01130000  0.60100000  1.0 0.1155934599
C  C107  1  0.86520000  0.48870000  0.10100000  1.0 0.1155934599
C  C108  1  0.13480000  0.98870000  0.39900000  1.0 0.1155934599
C  C109  1  0.64700000  0.41350000  0.97036000  1.0 -0.2795965257
C  C110  1  0.35300000  0.91350000  0.52964000  1.0 -0.2795965257
C  C111  1  0.35300000  0.58650000  0.02964000  1.0 -0.2795965257
C  C112  1  0.64700000  0.08650000  0.47036000  1.0 -0.2795965257
C  C113  1  0.47450000  0.79780000  0.41253000  1.0 -0.2795965257
C  C114  1  0.52550000  0.29780000  0.08747000  1.0 -0.2795965257
C  C115  1  0.52550000  0.20220000  0.58747000  1.0 -0.2795965257
C  C116  1  0.47450000  0.70220000  0.91253000  1.0 -0.2795965257
C  C117  1  0.10480000  0.37500000  0.96426000  1.0 -0.2624957147
C  C118  1  0.89520000  0.87500000  0.53574000  1.0 -0.2624957147
C  C119  1  0.89520000  0.62500000  0.03574000  1.0 -0.2624957147
C  C120  1  0.10480000  0.12500000  0.46426000  1.0 -0.2624957147
O  O1  1  0.99470000  0.58340000  0.47272000  1.0 -0.7326101023
O  O2  1  0.00530000  0.08340000  0.02728000  1.0 -0.7326101023
O  O3  1  0.00530000  0.41660000  0.52728000  1.0 -0.7326101023
O  O4  1  0.99470000  0.91660000  0.97272000  1.0 -0.7326101023
O  O5  1  0.13630000  0.78670000  0.94390000  1.0 -0.5372175979
O  O6  1  0.86370000  0.28670000  0.55610000  1.0 -0.5372175979
O  O7  1  0.86370000  0.21330000  0.05610000  1.0 -0.5372175979
O  O8  1  0.13630000  0.71330000  0.44390000  1.0 -0.5372175979
O  O9  1  0.18710000  0.56270000  0.54900000  1.0 -0.5315200893
O  O10  1  0.81290000  0.06270000  0.95100000  1.0 -0.5315200893
O  O11  1  0.81290000  0.43730000  0.45100000  1.0 -0.5315200893
O  O12  1  0.18710000  0.93730000  0.04900000  1.0 -0.5315200893
O  O13  1  0.82580000  0.56880000  0.55180000  1.0 -0.5315200893
O  O14  1  0.17420000  0.06880000  0.94820000  1.0 -0.5315200893
O  O15  1  0.17420000  0.43120000  0.44820000  1.0 -0.5315200893
O  O16  1  0.82580000  0.93120000  0.05180000  1.0 -0.5315200893
O  O17  1  0.01740000  0.50010000  0.63690000  1.0 -0.8747674036
O  O18  1  0.98260000  0.00010000  0.86310000  1.0 -0.8747674036
O  O19  1  0.98260000  0.49990000  0.36310000  1.0 -0.8747674036
O  O20  1  0.01740000  0.99990000  0.13690000  1.0 -0.8747674036
O  O21  1  0.83640000  0.78730000  0.93720000  1.0 -0.5372175979
O  O22  1  0.16360000  0.28730000  0.56280000  1.0 -0.5372175979
O  O23  1  0.16360000  0.21270000  0.06280000  1.0 -0.5372175979
O  O24  1  0.83640000  0.71270000  0.43720000  1.0 -0.5372175979
O  O25  1  0.19890000  0.45850000  0.73430000  1.0 -0.5453368234
O  O26  1  0.80110000  0.95850000  0.76570000  1.0 -0.5453368234
O  O27  1  0.80110000  0.54150000  0.26570000  1.0 -0.5372175979
O  O28  1  0.19890000  0.04150000  0.23430000  1.0 -0.5453368234
O  O29  1  0.82930000  0.81200000  0.84710000  1.0 -0.5204091725
O  O30  1  0.17070000  0.31200000  0.65290000  1.0 -0.5204091725
O  O31  1  0.17070000  0.18800000  0.15290000  1.0 -0.5204091725
O  O32  1  0.82930000  0.68800000  0.34710000  1.0 -0.5204091725
O  O33  1  0.12870000  0.81710000  0.85450000  1.0 -0.5315200893
O  O34  1  0.87130000  0.31710000  0.64550000  1.0 -0.5315200893
O  O35  1  0.87130000  0.18290000  0.14550000  1.0 -0.5315200893
O  O36  1  0.12870000  0.68290000  0.35450000  1.0 -0.5315200893
O  O37  1  0.18350000  0.60290000  0.71360000  1.0 -0.5204091725
O  O38  1  0.81650000  0.10290000  0.78640000  1.0 -0.5204091725
O  O39  1  0.81650000  0.39710000  0.28640000  1.0 -0.5204091725
O  O40  1  0.18350000  0.89710000  0.21360000  1.0 -0.5204091725
O  O41  1  0.29960000  0.48690000  0.61140000  1.0 -0.5372175979
O  O42  1  0.70040000  0.98690000  0.88860000  1.0 -0.5372175979
O  O43  1  0.70040000  0.51310000  0.38860000  1.0 -0.5372175979
O  O44  1  0.29960000  0.01310000  0.11140000  1.0 -0.5372175979
O  O45  1  0.72840000  0.49470000  0.61480000  1.0 -0.5372175979
O  O46  1  0.27160000  0.99470000  0.88520000  1.0 -0.5372175979
O  O47  1  0.27160000  0.50530000  0.38520000  1.0 -0.5372175979
O  O48  1  0.72840000  0.00530000  0.11480000  1.0 -0.5372175979
O  O49  1  0.82520000  0.43870000  0.73700000  1.0 -0.505458157
O  O50  1  0.17480000  0.93870000  0.76300000  1.0 -0.505458157
O  O51  1  0.17480000  0.56130000  0.26300000  1.0 -0.505458157
O  O52  1  0.82520000  0.06130000  0.23700000  1.0 -0.505458157
O  O53  1  0.88160000  0.57420000  0.71980000  1.0 -0.5204091725
O  O54  1  0.11840000  0.07420000  0.78020000  1.0 -0.5204091725
O  O55  1  0.11840000  0.42580000  0.28020000  1.0 -0.5204091725
O  O56  1  0.88160000  0.92580000  0.21980000  1.0 -0.5204091725
