# DDEC6 charges by PACMAN v1.1 (https://github.com/mtap-research/PACMAN-charge/)
data_BOWNUY_ASR_pacman
_symmetry_space_group_name_H-M   'P 1'
_cell_length_a   18.62330000
_cell_length_b   18.62330000
_cell_length_c   18.62330000
_cell_angle_alpha   90.00000000
_cell_angle_beta   90.00000000
_cell_angle_gamma   90.00000000
_symmetry_Int_Tables_number   1
_chemical_formula_structural   Cu4H8C24N32O
_chemical_formula_sum   'Cu12 H24 C72 N96 O3'
_cell_volume   6459.06890991
_cell_formula_units_Z   3
loop_
 _symmetry_equiv_pos_site_id
 _symmetry_equiv_pos_as_xyz
  1  'x, y, z'
loop_
 _atom_site_type_symbol
 _atom_site_label
 _atom_site_symmetry_multiplicity
 _atom_site_fract_x
 _atom_site_fract_y
 _atom_site_fract_z
 _atom_site_occupancy
 _atom_site_charge
Cu  Cu1  1  0.50000000  0.13144000  0.00000000  1.0 0.526704344
Cu  Cu2  1  0.86856000  0.50000000  0.00000000  1.0 0.526704344
Cu  Cu3  1  0.50000000  0.86856000  0.00000000  1.0 0.526704344
Cu  Cu4  1  0.00000000  0.50000000  0.13144000  1.0 0.526704344
Cu  Cu5  1  0.13144000  0.50000000  0.00000000  1.0 0.526704344
Cu  Cu6  1  0.00000000  0.86856000  0.50000000  1.0 0.526704344
Cu  Cu7  1  0.50000000  0.00000000  0.13144000  1.0 0.526704344
Cu  Cu8  1  0.00000000  0.50000000  0.86856000  1.0 0.526704344
Cu  Cu9  1  0.13144000  0.00000000  0.50000000  1.0 0.526704344
Cu  Cu10  1  0.50000000  0.00000000  0.86856000  1.0 0.526704344
Cu  Cu11  1  0.00000000  0.13144000  0.50000000  1.0 0.526704344
Cu  Cu12  1  0.86856000  0.00000000  0.50000000  1.0 0.526704344
H  H1  1  0.26040000  0.26040000  0.10730000  1.0 0.1285749851
H  H2  1  0.73960000  0.26040000  0.10730000  1.0 0.1285749851
H  H3  1  0.26040000  0.73960000  0.89270000  1.0 0.1285749851
H  H4  1  0.10730000  0.26040000  0.26040000  1.0 0.1285749851
H  H5  1  0.73960000  0.73960000  0.10730000  1.0 0.1285749851
H  H6  1  0.73960000  0.73960000  0.89270000  1.0 0.1285749851
H  H7  1  0.26040000  0.26040000  0.89270000  1.0 0.1285749851
H  H8  1  0.10730000  0.73960000  0.26040000  1.0 0.1285749851
H  H9  1  0.73960000  0.10730000  0.26040000  1.0 0.1285749851
H  H10  1  0.89270000  0.26040000  0.73960000  1.0 0.1285749851
H  H11  1  0.10730000  0.73960000  0.73960000  1.0 0.1285749851
H  H12  1  0.26040000  0.10730000  0.26040000  1.0 0.1285749851
H  H13  1  0.26040000  0.73960000  0.10730000  1.0 0.1285749851
H  H14  1  0.73960000  0.26040000  0.89270000  1.0 0.1285749851
H  H15  1  0.89270000  0.73960000  0.26040000  1.0 0.1285749851
H  H16  1  0.89270000  0.73960000  0.73960000  1.0 0.1285749851
H  H17  1  0.73960000  0.89270000  0.73960000  1.0 0.1285749851
H  H18  1  0.10730000  0.26040000  0.73960000  1.0 0.1285749851
H  H19  1  0.26040000  0.10730000  0.73960000  1.0 0.1285749851
H  H20  1  0.89270000  0.26040000  0.26040000  1.0 0.1285749851
H  H21  1  0.73960000  0.89270000  0.26040000  1.0 0.1285749851
H  H22  1  0.26040000  0.89270000  0.73960000  1.0 0.1285749851
H  H23  1  0.73960000  0.10730000  0.73960000  1.0 0.1285749851
H  H24  1  0.26040000  0.89270000  0.26040000  1.0 0.1285749851
C  C1  1  0.24020000  0.24020000  0.14830000  1.0 -0.1145618008
C  C2  1  0.75980000  0.24020000  0.14830000  1.0 -0.1162667991
C  C3  1  0.24020000  0.75980000  0.85170000  1.0 -0.1162667991
C  C4  1  0.14830000  0.24020000  0.24020000  1.0 -0.1145618008
C  C5  1  0.75980000  0.75980000  0.14830000  1.0 -0.1162667991
C  C6  1  0.75980000  0.75980000  0.85170000  1.0 -0.1162667991
C  C7  1  0.24020000  0.24020000  0.85170000  1.0 -0.1162667991
C  C8  1  0.14830000  0.75980000  0.24020000  1.0 -0.1162667991
C  C9  1  0.75980000  0.14830000  0.24020000  1.0 -0.1162667991
C  C10  1  0.85170000  0.24020000  0.75980000  1.0 -0.1162667991
C  C11  1  0.14830000  0.75980000  0.75980000  1.0 -0.1162667991
C  C12  1  0.24020000  0.14830000  0.24020000  1.0 -0.1145618008
C  C13  1  0.24020000  0.75980000  0.14830000  1.0 -0.1162667991
C  C14  1  0.75980000  0.24020000  0.85170000  1.0 -0.1162667991
C  C15  1  0.85170000  0.75980000  0.24020000  1.0 -0.1162667991
C  C16  1  0.85170000  0.75980000  0.75980000  1.0 -0.1162667991
C  C17  1  0.75980000  0.85170000  0.75980000  1.0 -0.1162667991
C  C18  1  0.14830000  0.24020000  0.75980000  1.0 -0.1162667991
C  C19  1  0.24020000  0.14830000  0.75980000  1.0 -0.1162667991
C  C20  1  0.85170000  0.24020000  0.24020000  1.0 -0.1162667991
C  C21  1  0.75980000  0.85170000  0.24020000  1.0 -0.1162667991
C  C22  1  0.24020000  0.85170000  0.75980000  1.0 -0.1162667991
C  C23  1  0.75980000  0.14830000  0.75980000  1.0 -0.1162667991
C  C24  1  0.24020000  0.85170000  0.24020000  1.0 -0.1162667991
C  C25  1  0.27090000  0.17920000  0.17920000  1.0 0.0473361645
C  C26  1  0.82080000  0.27090000  0.17920000  1.0 0.0473361645
C  C27  1  0.27090000  0.82080000  0.82080000  1.0 0.0473361645
C  C28  1  0.17920000  0.27090000  0.17920000  1.0 0.0473361645
C  C29  1  0.72910000  0.82080000  0.17920000  1.0 0.0473361645
C  C30  1  0.82080000  0.72910000  0.82080000  1.0 0.0473361645
C  C31  1  0.17920000  0.27090000  0.82080000  1.0 0.0473361645
C  C32  1  0.17920000  0.82080000  0.27090000  1.0 0.0473361645
C  C33  1  0.72910000  0.17920000  0.17920000  1.0 0.0473361645
C  C34  1  0.82080000  0.27090000  0.82080000  1.0 0.0473361645
C  C35  1  0.17920000  0.72910000  0.82080000  1.0 0.0473361645
C  C36  1  0.17920000  0.17920000  0.27090000  1.0 0.0473361645
C  C37  1  0.17920000  0.72910000  0.17920000  1.0 0.0473361645
C  C38  1  0.72910000  0.17920000  0.82080000  1.0 0.0473361645
C  C39  1  0.82080000  0.72910000  0.17920000  1.0 0.0473361645
C  C40  1  0.82080000  0.82080000  0.72910000  1.0 0.0473361645
C  C41  1  0.72910000  0.82080000  0.82080000  1.0 0.0473361645
C  C42  1  0.17920000  0.17920000  0.72910000  1.0 0.0473361645
C  C43  1  0.27090000  0.17920000  0.82080000  1.0 0.0473361645
C  C44  1  0.82080000  0.17920000  0.27090000  1.0 0.0473361645
C  C45  1  0.82080000  0.82080000  0.27090000  1.0 0.0473361645
C  C46  1  0.17920000  0.82080000  0.72910000  1.0 0.0473361645
C  C47  1  0.82080000  0.17920000  0.72910000  1.0 0.0473361645
C  C48  1  0.27090000  0.82080000  0.17920000  1.0 0.0473361645
C  C49  1  0.33620000  0.14710000  0.14710000  1.0 0.2328599403
C  C50  1  0.85290000  0.33620000  0.14710000  1.0 0.2328599403
C  C51  1  0.33620000  0.85290000  0.85290000  1.0 0.2328599403
C  C52  1  0.14710000  0.33620000  0.14710000  1.0 0.2328599403
C  C53  1  0.66380000  0.85290000  0.14710000  1.0 0.2328599403
C  C54  1  0.85290000  0.66380000  0.85290000  1.0 0.2328599403
C  C55  1  0.14710000  0.33620000  0.85290000  1.0 0.2328599403
C  C56  1  0.14710000  0.85290000  0.33620000  1.0 0.2328599403
C  C57  1  0.66380000  0.14710000  0.14710000  1.0 0.2328599403
C  C58  1  0.85290000  0.33620000  0.85290000  1.0 0.2328599403
C  C59  1  0.14710000  0.66380000  0.85290000  1.0 0.2328599403
C  C60  1  0.14710000  0.14710000  0.33620000  1.0 0.2328599403
C  C61  1  0.14710000  0.66380000  0.14710000  1.0 0.2328599403
C  C62  1  0.66380000  0.14710000  0.85290000  1.0 0.2328599403
C  C63  1  0.85290000  0.66380000  0.14710000  1.0 0.2328599403
C  C64  1  0.85290000  0.85290000  0.66380000  1.0 0.2328599403
C  C65  1  0.66380000  0.85290000  0.85290000  1.0 0.2328599403
C  C66  1  0.14710000  0.14710000  0.66380000  1.0 0.2328599403
C  C67  1  0.33620000  0.14710000  0.85290000  1.0 0.2328599403
C  C68  1  0.85290000  0.14710000  0.33620000  1.0 0.2328599403
C  C69  1  0.85290000  0.85290000  0.33620000  1.0 0.2328599403
C  C70  1  0.14710000  0.85290000  0.66380000  1.0 0.2328599403
C  C71  1  0.85290000  0.14710000  0.66380000  1.0 0.2328599403
C  C72  1  0.33620000  0.85290000  0.14710000  1.0 0.2328599403
N  N1  1  0.36899000  0.17389000  0.08854000  1.0 -0.2444905795
N  N2  1  0.82611000  0.36899000  0.08854000  1.0 -0.2444905795
N  N3  1  0.36899000  0.82611000  0.91146000  1.0 -0.2444905795
N  N4  1  0.08854000  0.36899000  0.17389000  1.0 -0.2454212279
N  N5  1  0.63101000  0.82611000  0.08854000  1.0 -0.2444905795
N  N6  1  0.82611000  0.63101000  0.91146000  1.0 -0.2444905795
N  N7  1  0.17389000  0.36899000  0.91146000  1.0 -0.2444905795
N  N8  1  0.08854000  0.82611000  0.36899000  1.0 -0.2444905795
N  N9  1  0.63101000  0.08854000  0.17389000  1.0 -0.2444905795
N  N10  1  0.91146000  0.36899000  0.82611000  1.0 -0.2444905795
N  N11  1  0.08854000  0.63101000  0.82611000  1.0 -0.2444905795
N  N12  1  0.17389000  0.08854000  0.36899000  1.0 -0.2444905795
N  N13  1  0.17389000  0.63101000  0.08854000  1.0 -0.2444905795
N  N14  1  0.63101000  0.17389000  0.91146000  1.0 -0.2444905795
N  N15  1  0.91146000  0.63101000  0.17389000  1.0 -0.2454212279
N  N16  1  0.91146000  0.82611000  0.63101000  1.0 -0.2444905795
N  N17  1  0.63101000  0.91146000  0.82611000  1.0 -0.2454212279
N  N18  1  0.08854000  0.17389000  0.63101000  1.0 -0.2444905795
N  N19  1  0.36899000  0.08854000  0.82611000  1.0 -0.2444905795
N  N20  1  0.91146000  0.17389000  0.36899000  1.0 -0.2444905795
N  N21  1  0.82611000  0.91146000  0.36899000  1.0 -0.2444905795
N  N22  1  0.17389000  0.91146000  0.63101000  1.0 -0.2454212279
N  N23  1  0.82611000  0.08854000  0.63101000  1.0 -0.2444905795
N  N24  1  0.36899000  0.91146000  0.17389000  1.0 -0.2444905795
N  N25  1  0.63101000  0.82611000  0.91146000  1.0 -0.2444905795
N  N26  1  0.17389000  0.63101000  0.91146000  1.0 -0.2444905795
N  N27  1  0.63101000  0.17389000  0.08854000  1.0 -0.2444905795
N  N28  1  0.91146000  0.63101000  0.82611000  1.0 -0.2444905795
N  N29  1  0.36899000  0.17389000  0.91146000  1.0 -0.2444905795
N  N30  1  0.17389000  0.36899000  0.08854000  1.0 -0.2454212279
N  N31  1  0.82611000  0.63101000  0.08854000  1.0 -0.2444905795
N  N32  1  0.91146000  0.17389000  0.63101000  1.0 -0.2444905795
N  N33  1  0.36899000  0.91146000  0.82611000  1.0 -0.2444905795
N  N34  1  0.08854000  0.63101000  0.17389000  1.0 -0.2444905795
N  N35  1  0.91146000  0.36899000  0.17389000  1.0 -0.2444905795
N  N36  1  0.82611000  0.91146000  0.63101000  1.0 -0.2454212279
N  N37  1  0.82611000  0.36899000  0.91146000  1.0 -0.2444905795
N  N38  1  0.36899000  0.82611000  0.08854000  1.0 -0.2444905795
N  N39  1  0.08854000  0.36899000  0.82611000  1.0 -0.2444905795
N  N40  1  0.08854000  0.17389000  0.36899000  1.0 -0.2444905795
N  N41  1  0.36899000  0.08854000  0.17389000  1.0 -0.2444905795
N  N42  1  0.91146000  0.82611000  0.36899000  1.0 -0.2444905795
N  N43  1  0.63101000  0.91146000  0.17389000  1.0 -0.2454212279
N  N44  1  0.08854000  0.82611000  0.63101000  1.0 -0.2444905795
N  N45  1  0.17389000  0.08854000  0.63101000  1.0 -0.2444905795
N  N46  1  0.82611000  0.08854000  0.36899000  1.0 -0.2444905795
N  N47  1  0.17389000  0.91146000  0.36899000  1.0 -0.2444905795
N  N48  1  0.63101000  0.08854000  0.82611000  1.0 -0.2444905795
N  N49  1  0.42462000  0.12873000  0.07781000  1.0 -0.023076673
N  N50  1  0.87127000  0.42462000  0.07781000  1.0 -0.023076673
N  N51  1  0.42462000  0.87127000  0.92219000  1.0 -0.023076673
N  N52  1  0.07781000  0.42462000  0.12873000  1.0 -0.023076673
N  N53  1  0.57538000  0.87127000  0.07781000  1.0 -0.023076673
N  N54  1  0.87127000  0.57538000  0.92219000  1.0 -0.023076673
N  N55  1  0.12873000  0.42462000  0.92219000  1.0 -0.023076673
N  N56  1  0.07781000  0.87127000  0.42462000  1.0 -0.023076673
N  N57  1  0.57538000  0.07781000  0.12873000  1.0 -0.023076673
N  N58  1  0.92219000  0.42462000  0.87127000  1.0 -0.023076673
N  N59  1  0.07781000  0.57538000  0.87127000  1.0 -0.023076673
N  N60  1  0.12873000  0.07781000  0.42462000  1.0 -0.023076673
N  N61  1  0.12873000  0.57538000  0.07781000  1.0 -0.023076673
N  N62  1  0.57538000  0.12873000  0.92219000  1.0 -0.023076673
N  N63  1  0.92219000  0.57538000  0.12873000  1.0 -0.023076673
N  N64  1  0.92219000  0.87127000  0.57538000  1.0 -0.023076673
N  N65  1  0.57538000  0.92219000  0.87127000  1.0 -0.023076673
N  N66  1  0.07781000  0.12873000  0.57538000  1.0 -0.023076673
N  N67  1  0.42462000  0.07781000  0.87127000  1.0 -0.023076673
N  N68  1  0.92219000  0.12873000  0.42462000  1.0 -0.023076673
N  N69  1  0.87127000  0.92219000  0.42462000  1.0 -0.023076673
N  N70  1  0.12873000  0.92219000  0.57538000  1.0 -0.023076673
N  N71  1  0.87127000  0.07781000  0.57538000  1.0 -0.023076673
N  N72  1  0.42462000  0.92219000  0.12873000  1.0 -0.023076673
N  N73  1  0.57538000  0.87127000  0.92219000  1.0 -0.023076673
N  N74  1  0.12873000  0.57538000  0.92219000  1.0 -0.023076673
N  N75  1  0.57538000  0.12873000  0.07781000  1.0 -0.023076673
N  N76  1  0.92219000  0.57538000  0.87127000  1.0 -0.023076673
N  N77  1  0.42462000  0.12873000  0.92219000  1.0 -0.023076673
N  N78  1  0.12873000  0.42462000  0.07781000  1.0 -0.023076673
N  N79  1  0.87127000  0.57538000  0.07781000  1.0 -0.023076673
N  N80  1  0.92219000  0.12873000  0.57538000  1.0 -0.023076673
N  N81  1  0.42462000  0.92219000  0.87127000  1.0 -0.023076673
N  N82  1  0.07781000  0.57538000  0.12873000  1.0 -0.023076673
N  N83  1  0.92219000  0.42462000  0.12873000  1.0 -0.023076673
N  N84  1  0.87127000  0.92219000  0.57538000  1.0 -0.023076673
N  N85  1  0.87127000  0.42462000  0.92219000  1.0 -0.023076673
N  N86  1  0.42462000  0.87127000  0.07781000  1.0 -0.023076673
N  N87  1  0.07781000  0.42462000  0.87127000  1.0 -0.023076673
N  N88  1  0.07781000  0.12873000  0.42462000  1.0 -0.023076673
N  N89  1  0.42462000  0.07781000  0.12873000  1.0 -0.023076673
N  N90  1  0.92219000  0.87127000  0.42462000  1.0 -0.023076673
N  N91  1  0.57538000  0.92219000  0.12873000  1.0 -0.023076673
N  N92  1  0.07781000  0.87127000  0.57538000  1.0 -0.023076673
N  N93  1  0.12873000  0.07781000  0.57538000  1.0 -0.023076673
N  N94  1  0.87127000  0.07781000  0.42462000  1.0 -0.023076673
N  N95  1  0.12873000  0.92219000  0.42462000  1.0 -0.023076673
N  N96  1  0.57538000  0.07781000  0.87127000  1.0 -0.023076673
O  O1  1  0.50000000  0.00000000  0.00000000  1.0 -0.1666044862
O  O2  1  0.00000000  0.50000000  0.00000000  1.0 -0.162718472
O  O3  1  0.00000000  0.00000000  0.50000000  1.0 -0.1666044862
