# DDEC6 charges by PACMAN v1.1 (https://github.com/mtap-research/PACMAN-charge/)
data_BOWRAH_ASR_pacman
_symmetry_space_group_name_H-M   'P 1'
_cell_length_a   5.01390000
_cell_length_b   9.30900000
_cell_length_c   19.81890000
_cell_angle_alpha   90.00000000
_cell_angle_beta   98.03700000
_cell_angle_gamma   90.00000000
_symmetry_Int_Tables_number   1
_chemical_formula_structural   Fe3B2P4(HO5)4
_chemical_formula_sum   'Fe6 B4 P8 H8 O40'
_cell_volume   915.94946270
_cell_formula_units_Z   2
loop_
 _symmetry_equiv_pos_site_id
 _symmetry_equiv_pos_as_xyz
  1  'x, y, z'
loop_
 _atom_site_type_symbol
 _atom_site_label
 _atom_site_symmetry_multiplicity
 _atom_site_fract_x
 _atom_site_fract_y
 _atom_site_fract_z
 _atom_site_occupancy
 _atom_site_charge
Fe  Fe1  1  0.16693000  0.68831000  0.78393000  1.0 1.5191193377
Fe  Fe2  1  0.83307000  0.18831000  0.71607000  1.0 1.5191193377
Fe  Fe3  1  0.83307000  0.31169000  0.21607000  1.0 1.5191193377
Fe  Fe4  1  0.16693000  0.81169000  0.28393000  1.0 1.5191193377
Fe  Fe5  1  0.00000000  0.50000000  0.50000000  1.0 1.4534109686
Fe  Fe6  1  0.00000000  0.00000000  0.00000000  1.0 1.4588084076
B  B1  1  0.81340000  0.63450000  0.63780000  1.0 1.0044622574
B  B2  1  0.18660000  0.13450000  0.86220000  1.0 1.0063598011
B  B3  1  0.18660000  0.36550000  0.36220000  1.0 1.0063598011
B  B4  1  0.81340000  0.86550000  0.13780000  1.0 1.0044622574
P  P1  1  0.63900000  0.85277000  0.71030000  1.0 1.5812218045
P  P2  1  0.36100000  0.35277000  0.78970000  1.0 1.5812218045
P  P3  1  0.36100000  0.14723000  0.28970000  1.0 1.5812218045
P  P4  1  0.63900000  0.64723000  0.21030000  1.0 1.5812218045
P  P5  1  0.54782000  0.39334000  0.58376000  1.0 1.5717773889
P  P6  1  0.45218000  0.89334000  0.91624000  1.0 1.5717773889
P  P7  1  0.45218000  0.60666000  0.41624000  1.0 1.5717773889
P  P8  1  0.54782000  0.10666000  0.08376000  1.0 1.5717773889
H  H1  1  0.13000000  0.64000000  0.59900000  1.0 0.406371132
H  H2  1  0.87000000  0.14000000  0.90100000  1.0 0.406371132
H  H3  1  0.87000000  0.36000000  0.40100000  1.0 0.406371132
H  H4  1  0.13000000  0.86000000  0.09900000  1.0 0.406371132
H  H5  1  0.98500000  0.49900000  0.70700000  1.0 0.406371132
H  H6  1  0.01500000  0.99900000  0.79300000  1.0 0.406371132
H  H7  1  0.01500000  0.50100000  0.29300000  1.0 0.406371132
H  H8  1  0.98500000  0.00100000  0.20700000  1.0 0.406371132
O  O1  1  0.94802000  0.58510000  0.70421000  1.0 -0.7243771548
O  O2  1  0.05198000  0.08510000  0.79579000  1.0 -0.7243771548
O  O3  1  0.05198000  0.41490000  0.29579000  1.0 -0.7243771548
O  O4  1  0.94802000  0.91490000  0.20421000  1.0 -0.7243771548
O  O5  1  0.73004000  0.78570000  0.64487000  1.0 -0.6215361501
O  O6  1  0.26996000  0.28570000  0.85513000  1.0 -0.6215361501
O  O7  1  0.26996000  0.21430000  0.35513000  1.0 -0.6215361501
O  O8  1  0.73004000  0.71430000  0.14487000  1.0 -0.6215361501
O  O9  1  0.25074000  0.36510000  0.55927000  1.0 -0.7467865492
O  O10  1  0.74926000  0.86510000  0.94073000  1.0 -0.7467865492
O  O11  1  0.74926000  0.63490000  0.44073000  1.0 -0.7467865492
O  O12  1  0.25074000  0.13490000  0.05927000  1.0 -0.7467865492
O  O13  1  0.57110000  0.54740000  0.61555000  1.0 -0.6800260837
O  O14  1  0.42890000  0.04740000  0.88445000  1.0 -0.6800260837
O  O15  1  0.42890000  0.45260000  0.38445000  1.0 -0.6800260837
O  O16  1  0.57110000  0.95260000  0.11555000  1.0 -0.6800260837
O  O17  1  0.60318000  0.01440000  0.69724000  1.0 -0.7784196581
O  O18  1  0.39682000  0.51440000  0.80276000  1.0 -0.7784196581
O  O19  1  0.39682000  0.98560000  0.30276000  1.0 -0.7784196581
O  O20  1  0.60318000  0.48560000  0.19724000  1.0 -0.7784196581
O  O21  1  0.99508000  0.62930000  0.58539000  1.0 -0.5838538354
O  O22  1  0.00492000  0.12930000  0.91461000  1.0 -0.5854498889
O  O23  1  0.00492000  0.37070000  0.41461000  1.0 -0.5838538354
O  O24  1  0.99508000  0.87070000  0.08539000  1.0 -0.5838538354
O  O25  1  0.70922000  0.38550000  0.52461000  1.0 -0.7569209929
O  O26  1  0.29078000  0.88550000  0.97539000  1.0 -0.7569209929
O  O27  1  0.29078000  0.61450000  0.47539000  1.0 -0.7569209929
O  O28  1  0.70922000  0.11450000  0.02461000  1.0 -0.7569209929
O  O29  1  0.86504000  0.83020000  0.77017000  1.0 -0.8036219324
O  O30  1  0.13496000  0.33020000  0.72983000  1.0 -0.8036219324
O  O31  1  0.13496000  0.16980000  0.22983000  1.0 -0.8036219324
O  O32  1  0.86504000  0.66980000  0.27017000  1.0 -0.8036219324
O  O33  1  0.64990000  0.28280000  0.63765000  1.0 -0.7439656402
O  O34  1  0.35010000  0.78280000  0.86235000  1.0 -0.7439656402
O  O35  1  0.35010000  0.71720000  0.36235000  1.0 -0.7439656402
O  O36  1  0.64990000  0.21720000  0.13765000  1.0 -0.7439656402
O  O37  1  0.37400000  0.78460000  0.72135000  1.0 -0.7784196581
O  O38  1  0.62600000  0.28460000  0.77865000  1.0 -0.7784196581
O  O39  1  0.62600000  0.21540000  0.27865000  1.0 -0.7784196581
O  O40  1  0.37400000  0.71540000  0.22135000  1.0 -0.7784196581
