# DDEC6 charges by PACMAN v1.1 (https://github.com/mtap-research/PACMAN-charge/)
data_BOWSOW_ASR_pacman
_symmetry_space_group_name_H-M   'P 1'
_cell_length_a   6.35410000
_cell_length_b   10.46000000
_cell_length_c   16.03580000
_cell_angle_alpha   90.00000000
_cell_angle_beta   112.93100000
_cell_angle_gamma   90.00000000
_symmetry_Int_Tables_number   1
_chemical_formula_structural   VP3HO6
_chemical_formula_sum   'V4 P12 H4 O24'
_cell_volume   981.57632996
_cell_formula_units_Z   4
loop_
 _symmetry_equiv_pos_site_id
 _symmetry_equiv_pos_as_xyz
  1  'x, y, z'
loop_
 _atom_site_type_symbol
 _atom_site_label
 _atom_site_symmetry_multiplicity
 _atom_site_fract_x
 _atom_site_fract_y
 _atom_site_fract_z
 _atom_site_occupancy
 _atom_site_charge
V  V1  1  0.63563000  0.10990000  0.89048000  1.0 1.6989848478
V  V2  1  0.36437000  0.60990000  0.60952000  1.0 1.6989848478
V  V3  1  0.36437000  0.89010000  0.10952000  1.0 1.6989848478
V  V4  1  0.63563000  0.39010000  0.39048000  1.0 1.6989848478
P  P1  1  0.55651000  0.32589000  0.72581000  1.0 1.4215429588
P  P2  1  0.44349000  0.82589000  0.77419000  1.0 1.4215429588
P  P3  1  0.44349000  0.67411000  0.27419000  1.0 1.4215429588
P  P4  1  0.55651000  0.17411000  0.22581000  1.0 1.4215429588
P  P5  1  0.84888000  0.96720000  0.08278000  1.0 0.3032434075
P  P6  1  0.15112000  0.46720000  0.41722000  1.0 0.3032434075
P  P7  1  0.15112000  0.03280000  0.91722000  1.0 0.3032434075
P  P8  1  0.84888000  0.53280000  0.58278000  1.0 0.3032434075
P  P9  1  0.82650000  0.89830000  0.07650000  1.0 0.3820473714
P  P10  1  0.17350000  0.39830000  0.42350000  1.0 0.3888621791
P  P11  1  0.17350000  0.10170000  0.92350000  1.0 0.3888621791
P  P12  1  0.82650000  0.60170000  0.57650000  1.0 0.3888621791
H  H1  1  0.46600000  0.30900000  0.58300000  1.0 0.3496720804
H  H2  1  0.53400000  0.80900000  0.91700000  1.0 0.3496720804
H  H3  1  0.53400000  0.69100000  0.41700000  1.0 0.3496720804
H  H4  1  0.46600000  0.19100000  0.08300000  1.0 0.3496720804
O  O1  1  0.50180000  0.22120000  0.77830000  1.0 -0.8295643316
O  O2  1  0.49820000  0.72120000  0.72170000  1.0 -0.8295643316
O  O3  1  0.49820000  0.77880000  0.22170000  1.0 -0.8295643316
O  O4  1  0.50180000  0.27880000  0.27830000  1.0 -0.8295643316
O  O5  1  0.74180000  0.96000000  0.97890000  1.0 -0.6774049835
O  O6  1  0.25820000  0.46000000  0.52110000  1.0 -0.6774049835
O  O7  1  0.25820000  0.04000000  0.02110000  1.0 -0.6774049835
O  O8  1  0.74180000  0.54000000  0.47890000  1.0 -0.6774049835
O  O9  1  0.42910000  0.44980000  0.71770000  1.0 -0.8295643316
O  O10  1  0.57090000  0.94980000  0.78230000  1.0 -0.8295643316
O  O11  1  0.57090000  0.55020000  0.28230000  1.0 -0.8295643316
O  O12  1  0.42910000  0.05020000  0.21770000  1.0 -0.8295643316
O  O13  1  0.68340000  0.93250000  0.12570000  1.0 -0.6235605316
O  O14  1  0.31660000  0.43250000  0.37430000  1.0 -0.6250844435
O  O15  1  0.31660000  0.06750000  0.87430000  1.0 -0.6250844435
O  O16  1  0.68340000  0.56750000  0.62570000  1.0 -0.6250844435
O  O17  1  0.06440000  0.88990000  0.12460000  1.0 -0.5996823298
O  O18  1  0.93560000  0.38990000  0.37540000  1.0 -0.5996823298
O  O19  1  0.93560000  0.11010000  0.87540000  1.0 -0.5996823298
O  O20  1  0.06440000  0.61010000  0.62460000  1.0 -0.5996823298
O  O21  1  0.50790000  0.27240000  0.62820000  1.0 -0.5996823298
O  O22  1  0.49210000  0.77240000  0.87180000  1.0 -0.5996823298
O  O23  1  0.49210000  0.72760000  0.37180000  1.0 -0.5996823298
O  O24  1  0.50790000  0.22760000  0.12820000  1.0 -0.5996823298
