# DDEC6 charges by PACMAN v1.1 (https://github.com/mtap-research/PACMAN-charge/)
data_BOXRAK_ASR_pacman
_symmetry_space_group_name_H-M   'P 1'
_cell_length_a   10.26820000
_cell_length_b   15.92510000
_cell_length_c   17.06920000
_cell_angle_alpha   85.18700000
_cell_angle_beta   77.21700000
_cell_angle_gamma   85.96100000
_symmetry_Int_Tables_number   1
_chemical_formula_structural   Cd3H26C42(N2O3)4
_chemical_formula_sum   'Cd6 H52 C84 N16 O24'
_cell_volume   2708.54704658
_cell_formula_units_Z   2
loop_
 _symmetry_equiv_pos_site_id
 _symmetry_equiv_pos_as_xyz
  1  'x, y, z'
loop_
 _atom_site_type_symbol
 _atom_site_label
 _atom_site_symmetry_multiplicity
 _atom_site_fract_x
 _atom_site_fract_y
 _atom_site_fract_z
 _atom_site_occupancy
 _atom_site_charge
Cd  Cd1  1  0.87984000  0.67866000  0.16011000  1.0 0.8636160673
Cd  Cd2  1  0.09276000  0.68031000  0.31701000  1.0 0.8674953462
Cd  Cd3  1  0.49616000  0.54210000  0.24615000  1.0 0.9745696069
Cd  Cd4  1  0.12016000  0.32134000  0.83989000  1.0 0.8636160673
Cd  Cd5  1  0.90724000  0.31969000  0.68299000  1.0 0.8674953462
Cd  Cd6  1  0.50384000  0.45790000  0.75385000  1.0 0.9745696069
H  H1  1  0.38590000  0.69400000  0.15160000  1.0 0.1276216687
H  H2  1  0.65210000  0.59750000  0.96060000  1.0 0.1276216687
H  H3  1  0.25680000  0.61830000  0.96450000  1.0 0.1198000615
H  H4  1  0.72500000  0.61860000  0.52240000  1.0 0.1198000615
H  H5  1  0.33210000  0.60050000  0.52470000  1.0 0.1276216687
H  H6  1  0.58290000  0.68800000  0.32240000  1.0 0.1276216687
H  H7  1  0.79850000  0.50680000  0.26740000  1.0 0.1135071864
H  H8  1  0.81340000  0.36150000  0.26150000  1.0 0.141357588
H  H9  1  0.08140000  0.39060000  0.04810000  1.0 0.141357588
H  H10  1  0.05550000  0.53610000  0.06020000  1.0 0.1003770834
H  H11  1  0.02170000  0.24780000  0.09420000  1.0 0.1135071864
H  H12  1  0.77750000  0.10230000  0.25540000  1.0 0.1135071864
H  H13  1  0.70230000  0.96040000  0.29340000  1.0 0.141357588
H  H14  1  0.71110000  0.81930000  0.26510000  1.0 0.1135071864
H  H15  1  0.99210000  0.85130000  0.07420000  1.0 0.1135071864
H  H16  1  0.98820000  0.99400000  0.08860000  1.0 0.141357588
H  H17  1  0.94860000  0.53530000  0.43720000  1.0 0.1003770834
H  H18  1  0.93710000  0.38990000  0.46170000  1.0 0.141357588
H  H19  1  0.20300000  0.36630000  0.24790000  1.0 0.141357588
H  H20  1  0.19850000  0.51190000  0.22810000  1.0 0.1135071864
H  H21  1  0.01760000  0.24580000  0.42210000  1.0 0.1198000615
H  H22  1  0.19620000  0.11550000  0.23430000  1.0 0.1135071864
H  H23  1  0.02670000  0.98330000  0.40870000  1.0 0.141357588
H  H24  1  0.99330000  0.84380000  0.40430000  1.0 0.1198000615
H  H25  1  0.22170000  0.83180000  0.19120000  1.0 0.1135071864
H  H26  1  0.24380000  0.97350000  0.18120000  1.0 0.141357588
H  H27  1  0.61410000  0.30600000  0.84840000  1.0 0.1276216687
H  H28  1  0.34790000  0.40250000  0.03940000  1.0 0.1276216687
H  H29  1  0.74320000  0.38170000  0.03550000  1.0 0.1198000615
H  H30  1  0.27500000  0.38140000  0.47760000  1.0 0.1198000615
H  H31  1  0.66790000  0.39950000  0.47530000  1.0 0.1276216687
H  H32  1  0.41710000  0.31200000  0.67760000  1.0 0.1276216687
H  H33  1  0.20150000  0.49320000  0.73260000  1.0 0.1135071864
H  H34  1  0.18660000  0.63850000  0.73850000  1.0 0.141357588
H  H35  1  0.91860000  0.60940000  0.95190000  1.0 0.141357588
H  H36  1  0.94450000  0.46390000  0.93980000  1.0 0.1003770834
H  H37  1  0.97830000  0.75220000  0.90580000  1.0 0.1135071864
H  H38  1  0.22250000  0.89770000  0.74460000  1.0 0.1135071864
H  H39  1  0.29770000  0.03960000  0.70660000  1.0 0.141357588
H  H40  1  0.28890000  0.18070000  0.73490000  1.0 0.1135071864
H  H41  1  0.00790000  0.14870000  0.92580000  1.0 0.1135071864
H  H42  1  0.01180000  0.00600000  0.91140000  1.0 0.141357588
H  H43  1  0.05140000  0.46470000  0.56280000  1.0 0.1003770834
H  H44  1  0.06290000  0.61010000  0.53830000  1.0 0.141357588
H  H45  1  0.79700000  0.63370000  0.75210000  1.0 0.141357588
H  H46  1  0.80150000  0.48810000  0.77190000  1.0 0.1135071864
H  H47  1  0.98240000  0.75420000  0.57790000  1.0 0.1198000615
H  H48  1  0.80380000  0.88450000  0.76570000  1.0 0.1135071864
H  H49  1  0.97330000  0.01670000  0.59130000  1.0 0.141357588
H  H50  1  0.00670000  0.15620000  0.59570000  1.0 0.1198000615
H  H51  1  0.77830000  0.16820000  0.80880000  1.0 0.1135071864
H  H52  1  0.75620000  0.02650000  0.81880000  1.0 0.141357588
C  C1  1  0.30140000  0.66210000  0.06330000  1.0 -0.0178544045
C  C2  1  0.40470000  0.67150000  0.10020000  1.0 -0.1478067531
C  C3  1  0.53800000  0.64860000  0.06400000  1.0 -0.0178544045
C  C4  1  0.56330000  0.61250000  0.98750000  1.0 -0.1213971941
C  C5  1  0.45660000  0.60000000  0.95340000  1.0 -0.0038758283
C  C6  1  0.32830000  0.62560000  0.99000000  1.0 -0.1113184945
C  C7  1  0.15920000  0.68250000  0.10420000  1.0 0.5579607965
C  C8  1  0.65000000  0.66000000  0.10490000  1.0 0.5534533144
C  C9  1  0.47970000  0.55200000  0.87860000  1.0 0.5409099342
C  C10  1  0.67380000  0.65880000  0.41580000  1.0 -0.0178544045
C  C11  1  0.65300000  0.62470000  0.49530000  1.0 -0.1113184945
C  C12  1  0.52670000  0.59950000  0.53510000  1.0 -0.0139868768
C  C13  1  0.41970000  0.61390000  0.49680000  1.0 -0.1113184945
C  C14  1  0.44180000  0.64800000  0.41740000  1.0 -0.0178544045
C  C15  1  0.56790000  0.66780000  0.37740000  1.0 -0.1336945413
C  C16  1  0.81370000  0.67950000  0.37340000  1.0 0.5579607965
C  C17  1  0.51140000  0.55220000  0.61550000  1.0 0.5409099342
C  C18  1  0.32370000  0.65750000  0.37830000  1.0 0.5689993979
C  C19  1  0.85600000  0.48280000  0.22230000  1.0 0.1003770834
C  C20  1  0.86450000  0.39610000  0.21950000  1.0 -0.1478067531
C  C21  1  0.95020000  0.36020000  0.15350000  1.0 0.1276216687
C  C22  1  0.02240000  0.41290000  0.09350000  1.0 -0.1914836802
C  C23  1  0.00630000  0.49980000  0.10150000  1.0 0.0739490943
C  C24  1  0.96210000  0.26840000  0.14030000  1.0 0.0524757908
C  C25  1  0.83860000  0.08250000  0.20950000  1.0 0.0247673275
C  C26  1  0.84330000  0.99350000  0.19390000  1.0 0.1198000615
C  C27  1  0.76190000  0.94050000  0.24700000  1.0 -0.1970339131
C  C28  1  0.77060000  0.85580000  0.22980000  1.0 0.0888545917
C  C29  1  0.93170000  0.87410000  0.11880000  1.0 0.0739490943
C  C30  1  0.93090000  0.95900000  0.12710000  1.0 -0.1914836802
C  C31  1  0.99950000  0.50010000  0.39800000  1.0 0.0785713785
C  C32  1  0.99300000  0.41320000  0.41400000  1.0 -0.1914836802
C  C33  1  0.07150000  0.36070000  0.35740000  1.0 0.1198000615
C  C34  1  0.14880000  0.39970000  0.28750000  1.0 -0.1425186737
C  C35  1  0.14630000  0.48670000  0.27630000  1.0 0.0888545917
C  C36  1  0.06690000  0.26980000  0.37240000  1.0 0.0524757908
C  C37  1  0.15050000  0.09020000  0.28430000  1.0 0.0426319161
C  C38  1  0.13630000  0.99910000  0.29140000  1.0 0.1198000615
C  C39  1  0.06450000  0.95490000  0.36150000  1.0 -0.1970339131
C  C40  1  0.05100000  0.87070000  0.35930000  1.0 0.0888545917
C  C41  1  0.17990000  0.86370000  0.23540000  1.0 0.0596542874
C  C42  1  0.19320000  0.94810000  0.22980000  1.0 -0.1970339131
C  C43  1  0.69860000  0.33790000  0.93670000  1.0 -0.0178544045
C  C44  1  0.59530000  0.32850000  0.89980000  1.0 -0.1478067531
C  C45  1  0.46200000  0.35140000  0.93600000  1.0 -0.0178544045
C  C46  1  0.43670000  0.38750000  0.01250000  1.0 -0.1213971941
C  C47  1  0.54340000  0.40000000  0.04660000  1.0 -0.0038758283
C  C48  1  0.67170000  0.37440000  0.01000000  1.0 -0.1113184945
C  C49  1  0.84080000  0.31750000  0.89580000  1.0 0.5579607965
C  C50  1  0.35000000  0.34000000  0.89510000  1.0 0.5534533144
C  C51  1  0.52030000  0.44800000  0.12140000  1.0 0.5409099342
C  C52  1  0.32620000  0.34120000  0.58420000  1.0 -0.0178544045
C  C53  1  0.34700000  0.37530000  0.50470000  1.0 -0.1113184945
C  C54  1  0.47330000  0.40050000  0.46490000  1.0 -0.0139868768
C  C55  1  0.58030000  0.38610000  0.50320000  1.0 -0.1113184945
C  C56  1  0.55820000  0.35200000  0.58260000  1.0 -0.0178544045
C  C57  1  0.43210000  0.33220000  0.62260000  1.0 -0.1336945413
C  C58  1  0.18630000  0.32050000  0.62660000  1.0 0.5579607965
C  C59  1  0.48860000  0.44780000  0.38450000  1.0 0.5409099342
C  C60  1  0.67630000  0.34250000  0.62170000  1.0 0.5689993979
C  C61  1  0.14400000  0.51720000  0.77770000  1.0 0.1003770834
C  C62  1  0.13550000  0.60390000  0.78050000  1.0 -0.1478067531
C  C63  1  0.04980000  0.63980000  0.84650000  1.0 0.1276216687
C  C64  1  0.97760000  0.58710000  0.90650000  1.0 -0.1914836802
C  C65  1  0.99370000  0.50020000  0.89850000  1.0 0.0739490943
C  C66  1  0.03790000  0.73160000  0.85970000  1.0 0.0524757908
C  C67  1  0.16140000  0.91750000  0.79050000  1.0 0.0247673275
C  C68  1  0.15670000  0.00650000  0.80610000  1.0 0.1198000615
C  C69  1  0.23810000  0.05950000  0.75300000  1.0 -0.1970339131
C  C70  1  0.22940000  0.14420000  0.77020000  1.0 0.0888545917
C  C71  1  0.06830000  0.12590000  0.88120000  1.0 0.0739490943
C  C72  1  0.06910000  0.04100000  0.87290000  1.0 -0.1914836802
C  C73  1  0.00050000  0.49990000  0.60200000  1.0 0.0785713785
C  C74  1  0.00700000  0.58680000  0.58600000  1.0 -0.1914836802
C  C75  1  0.92850000  0.63930000  0.64260000  1.0 0.1198000615
C  C76  1  0.85120000  0.60030000  0.71250000  1.0 -0.1425186737
C  C77  1  0.85370000  0.51330000  0.72370000  1.0 0.0888545917
C  C78  1  0.93310000  0.73020000  0.62760000  1.0 0.0524757908
C  C79  1  0.84950000  0.90980000  0.71570000  1.0 0.0426319161
C  C80  1  0.86370000  0.00090000  0.70860000  1.0 0.1198000615
C  C81  1  0.93550000  0.04510000  0.63850000  1.0 -0.1914836802
C  C82  1  0.94900000  0.12930000  0.64070000  1.0 0.0888545917
C  C83  1  0.82010000  0.13630000  0.76460000  1.0 0.0596542874
C  C84  1  0.80680000  0.05190000  0.77020000  1.0 -0.1970339131
N  N1  1  0.92510000  0.53470000  0.16450000  1.0 -0.2431106015
N  N2  1  0.89110000  0.21740000  0.19200000  1.0 -0.1914836802
N  N3  1  0.91520000  0.13450000  0.16270000  1.0 -0.1914836802
N  N4  1  0.85340000  0.82240000  0.16940000  1.0 -0.2196519344
N  N5  1  0.07250000  0.53720000  0.33110000  1.0 -0.2431106015
N  N6  1  0.12890000  0.22290000  0.31870000  1.0 -0.1970339131
N  N7  1  0.10510000  0.13660000  0.34130000  1.0 -0.1914836802
N  N8  1  0.10930000  0.82390000  0.30210000  1.0 -0.2196519344
N  N9  1  0.07490000  0.46530000  0.83550000  1.0 -0.2431106015
N  N10  1  0.10890000  0.78260000  0.80800000  1.0 -0.1914836802
N  N11  1  0.08480000  0.86550000  0.83730000  1.0 -0.1914836802
N  N12  1  0.14660000  0.17760000  0.83060000  1.0 -0.2196519344
N  N13  1  0.92750000  0.46280000  0.66890000  1.0 -0.2431106015
N  N14  1  0.87110000  0.77710000  0.68130000  1.0 -0.1970339131
N  N15  1  0.89490000  0.86340000  0.65870000  1.0 -0.1914836802
N  N16  1  0.89070000  0.17610000  0.69790000  1.0 -0.2196519344
O  O1  1  0.07290000  0.69110000  0.06050000  1.0 -0.5495503961
O  O2  1  0.12880000  0.68630000  0.17920000  1.0 -0.5738362788
O  O3  1  0.63120000  0.64980000  0.17990000  1.0 -0.5619964717
O  O4  1  0.76130000  0.67570000  0.06110000  1.0 -0.5188955335
O  O5  1  0.59680000  0.52600000  0.84620000  1.0 -0.5495503961
O  O6  1  0.37930000  0.53690000  0.85310000  1.0 -0.5313428162
O  O7  1  0.84760000  0.67700000  0.29750000  1.0 -0.5818858861
O  O8  1  0.89560000  0.69380000  0.41550000  1.0 -0.5495503961
O  O9  1  0.61610000  0.53700000  0.64440000  1.0 -0.5426920472
O  O10  1  0.40170000  0.52840000  0.65250000  1.0 -0.5188955335
O  O11  1  0.21030000  0.67600000  0.42030000  1.0 -0.5313428162
O  O12  1  0.34400000  0.64940000  0.30150000  1.0 -0.5818858861
O  O13  1  0.92710000  0.30890000  0.93950000  1.0 -0.5495503961
O  O14  1  0.87120000  0.31370000  0.82080000  1.0 -0.5738362788
O  O15  1  0.36880000  0.35020000  0.82010000  1.0 -0.5619964717
O  O16  1  0.23870000  0.32430000  0.93890000  1.0 -0.5188955335
O  O17  1  0.40320000  0.47400000  0.15380000  1.0 -0.5495503961
O  O18  1  0.62070000  0.46310000  0.14690000  1.0 -0.5313428162
O  O19  1  0.15240000  0.32300000  0.70250000  1.0 -0.5818858861
O  O20  1  0.10440000  0.30620000  0.58450000  1.0 -0.5495503961
O  O21  1  0.38390000  0.46300000  0.35560000  1.0 -0.5426920472
O  O22  1  0.59830000  0.47160000  0.34750000  1.0 -0.5188955335
O  O23  1  0.78970000  0.32400000  0.57970000  1.0 -0.5313428162
O  O24  1  0.65600000  0.35060000  0.69850000  1.0 -0.5818858861
