# DDEC6 charges by PACMAN v1.1 (https://github.com/mtap-research/PACMAN-charge/)
data_BUBDIL_ASR_pacman
_symmetry_space_group_name_H-M   'P 1'
_cell_length_a   9.08600000
_cell_length_b   9.08600000
_cell_length_c   19.16400000
_cell_angle_alpha   90.00000000
_cell_angle_beta   90.00000000
_cell_angle_gamma   120.00000000
_symmetry_Int_Tables_number   1
_chemical_formula_structural   K2MnH30(C7O)6
_chemical_formula_sum   'K4 Mn2 H60 C84 O12'
_cell_volume   1370.13152446
_cell_formula_units_Z   2
loop_
 _symmetry_equiv_pos_site_id
 _symmetry_equiv_pos_as_xyz
  1  'x, y, z'
loop_
 _atom_site_type_symbol
 _atom_site_label
 _atom_site_symmetry_multiplicity
 _atom_site_fract_x
 _atom_site_fract_y
 _atom_site_fract_z
 _atom_site_occupancy
 _atom_site_charge
K  K1  1  0.00000000  0.00000000  0.42470000  1.0 0.5745784203
K  K2  1  0.00000000  0.00000000  0.92470000  1.0 0.5745784203
K  K3  1  0.00000000  0.00000000  0.47490000  1.0 0.6237194994
K  K4  1  0.00000000  0.00000000  0.97490000  1.0 0.6237194994
Mn  Mn1  1  0.33333333  0.66666667  0.44584000  1.0 0.5904861847
Mn  Mn2  1  0.66666667  0.33333333  0.94584000  1.0 0.5904861847
H  H1  1  0.60720000  0.68700000  0.37900000  1.0 0.0492756078
H  H2  1  0.31300000  0.92020000  0.37900000  1.0 0.0492756078
H  H3  1  0.07980000  0.39280000  0.37900000  1.0 0.0492756078
H  H4  1  0.39280000  0.31300000  0.87900000  1.0 0.0492756078
H  H5  1  0.68700000  0.07980000  0.87900000  1.0 0.0492756078
H  H6  1  0.92020000  0.60720000  0.87900000  1.0 0.0492756078
H  H7  1  0.66560000  0.97980000  0.34740000  1.0 0.0596267876
H  H8  1  0.02020000  0.68580000  0.34740000  1.0 0.0596267876
H  H9  1  0.31420000  0.33440000  0.34740000  1.0 0.0596267876
H  H10  1  0.33440000  0.02020000  0.84740000  1.0 0.0596267876
H  H11  1  0.97980000  0.31420000  0.84740000  1.0 0.0596267876
H  H12  1  0.68580000  0.66560000  0.84740000  1.0 0.0596267876
H  H13  1  0.68760000  0.13620000  0.45860000  1.0 0.0818481335
H  H14  1  0.86380000  0.55140000  0.45860000  1.0 0.0818481335
H  H15  1  0.44860000  0.31240000  0.45860000  1.0 0.0818481335
H  H16  1  0.31240000  0.86380000  0.95860000  1.0 0.0818481335
H  H17  1  0.13620000  0.44860000  0.95860000  1.0 0.0818481335
H  H18  1  0.55140000  0.68760000  0.95860000  1.0 0.0818481335
H  H19  1  0.64290000  0.94010000  0.55900000  1.0 0.0596267876
H  H20  1  0.05990000  0.70280000  0.55900000  1.0 0.0596267876
H  H21  1  0.29720000  0.35710000  0.55900000  1.0 0.0596267876
H  H22  1  0.35710000  0.05990000  0.05900000  1.0 0.0596267876
H  H23  1  0.94010000  0.29720000  0.05900000  1.0 0.0596267876
H  H24  1  0.70280000  0.64290000  0.05900000  1.0 0.0596267876
H  H25  1  0.59320000  0.66250000  0.50980000  1.0 0.0818481335
H  H26  1  0.33750000  0.93070000  0.50980000  1.0 0.0818481335
H  H27  1  0.06930000  0.40680000  0.50980000  1.0 0.0818481335
H  H28  1  0.40680000  0.33750000  0.00980000  1.0 0.0818481335
H  H29  1  0.66250000  0.06930000  0.00980000  1.0 0.0818481335
H  H30  1  0.93070000  0.59320000  0.00980000  1.0 0.0818481335
H  H31  1  0.60440000  0.91290000  0.37320000  1.0 0.071065719
H  H32  1  0.08710000  0.69150000  0.37320000  1.0 0.071065719
H  H33  1  0.30850000  0.39560000  0.37320000  1.0 0.071065719
H  H34  1  0.39560000  0.08710000  0.87320000  1.0 0.071065719
H  H35  1  0.91290000  0.30850000  0.87320000  1.0 0.071065719
H  H36  1  0.69150000  0.60440000  0.87320000  1.0 0.071065719
H  H37  1  0.64900000  0.66950000  0.34160000  1.0 0.0596267876
H  H38  1  0.33050000  0.97950000  0.34160000  1.0 0.0596267876
H  H39  1  0.02050000  0.35100000  0.34160000  1.0 0.0596267876
H  H40  1  0.35100000  0.33050000  0.84160000  1.0 0.0596267876
H  H41  1  0.66950000  0.02050000  0.84160000  1.0 0.0596267876
H  H42  1  0.97950000  0.64900000  0.84160000  1.0 0.0596267876
H  H43  1  0.67890000  0.54040000  0.45290000  1.0 0.0818481335
H  H44  1  0.45960000  0.13850000  0.45290000  1.0 0.0818481335
H  H45  1  0.86150000  0.32110000  0.45290000  1.0 0.0818481335
H  H46  1  0.32110000  0.45960000  0.95290000  1.0 0.0818481335
H  H47  1  0.54040000  0.86150000  0.95290000  1.0 0.0818481335
H  H48  1  0.13850000  0.67890000  0.95290000  1.0 0.0818481335
H  H49  1  0.65280000  0.70410000  0.55330000  1.0 0.0596267876
H  H50  1  0.29590000  0.94870000  0.55330000  1.0 0.0596267876
H  H51  1  0.05130000  0.34720000  0.55330000  1.0 0.0596267876
H  H52  1  0.34720000  0.29590000  0.05330000  1.0 0.0596267876
H  H53  1  0.70410000  0.05130000  0.05330000  1.0 0.0596267876
H  H54  1  0.94870000  0.65280000  0.05330000  1.0 0.0596267876
H  H55  1  0.60680000  0.93430000  0.50400000  1.0 0.071065719
H  H56  1  0.06570000  0.67250000  0.50400000  1.0 0.071065719
H  H57  1  0.32750000  0.39320000  0.50400000  1.0 0.071065719
H  H58  1  0.39320000  0.06570000  0.00400000  1.0 0.071065719
H  H59  1  0.93430000  0.32750000  0.00400000  1.0 0.071065719
H  H60  1  0.67250000  0.60680000  0.00400000  1.0 0.071065719
C  C1  1  0.62120000  0.77140000  0.41020000  1.0 -0.0095148799
C  C2  1  0.22860000  0.84980000  0.41020000  1.0 -0.0095148799
C  C3  1  0.15020000  0.37880000  0.41020000  1.0 -0.0095148799
C  C4  1  0.37880000  0.22860000  0.91020000  1.0 -0.0095148799
C  C5  1  0.77140000  0.15020000  0.91020000  1.0 -0.0095148799
C  C6  1  0.84980000  0.62120000  0.91020000  1.0 -0.0095148799
C  C7  1  0.65410000  0.93690000  0.39230000  1.0 -0.1629488622
C  C8  1  0.06310000  0.71720000  0.39230000  1.0 -0.1629488622
C  C9  1  0.28280000  0.34590000  0.39230000  1.0 -0.1629488622
C  C10  1  0.34590000  0.06310000  0.89230000  1.0 -0.1629488622
C  C11  1  0.93690000  0.28280000  0.89230000  1.0 -0.1629488622
C  C12  1  0.71720000  0.65410000  0.89230000  1.0 -0.1629488622
C  C13  1  0.66666667  0.02530000  0.45520000  1.0 -0.21368801
C  C14  1  0.97470000  0.64137000  0.45520000  1.0 -0.21368801
C  C15  1  0.35863000  0.33333333  0.45520000  1.0 -0.21368801
C  C16  1  0.33333333  0.97470000  0.95520000  1.0 -0.21368801
C  C17  1  0.02530000  0.35863000  0.95520000  1.0 -0.21368801
C  C18  1  0.64137000  0.66666667  0.95520000  1.0 -0.21368801
C  C19  1  0.64130000  0.91440000  0.51190000  1.0 -0.1629488622
C  C20  1  0.08560000  0.72690000  0.51190000  1.0 -0.1629488622
C  C21  1  0.27310000  0.35870000  0.51190000  1.0 -0.165228649
C  C22  1  0.35870000  0.08560000  0.01190000  1.0 -0.1629488622
C  C23  1  0.91440000  0.27310000  0.01190000  1.0 -0.1629488622
C  C24  1  0.72690000  0.64130000  0.01190000  1.0 -0.1629488622
C  C25  1  0.61330000  0.75760000  0.48410000  1.0 -0.0178675475
C  C26  1  0.24240000  0.85570000  0.48410000  1.0 -0.0178675475
C  C27  1  0.14430000  0.38670000  0.48410000  1.0 -0.0178675475
C  C28  1  0.38670000  0.24240000  0.98410000  1.0 -0.0178675475
C  C29  1  0.75760000  0.14430000  0.98410000  1.0 -0.0178675475
C  C30  1  0.85570000  0.61330000  0.98410000  1.0 -0.0178675475
C  C31  1  0.95990000  0.01340000  0.24410000  1.0 0.071065719
C  C32  1  0.98660000  0.94650000  0.24410000  1.0 0.071065719
C  C33  1  0.05350000  0.04010000  0.24410000  1.0 0.071065719
C  C34  1  0.04010000  0.98660000  0.74410000  1.0 0.071065719
C  C35  1  0.01340000  0.05350000  0.74410000  1.0 0.071065719
C  C36  1  0.94650000  0.95990000  0.74410000  1.0 0.071065719
C  C37  1  0.02990000  0.13560000  0.16030000  1.0 -0.062970443
C  C38  1  0.86440000  0.89430000  0.16030000  1.0 -0.062970443
C  C39  1  0.10570000  0.97010000  0.16030000  1.0 -0.062970443
C  C40  1  0.97010000  0.86440000  0.66030000  1.0 -0.062970443
C  C41  1  0.13560000  0.10570000  0.66030000  1.0 -0.062970443
C  C42  1  0.89430000  0.02990000  0.66030000  1.0 -0.062970443
C  C43  1  0.91550000  0.02160000  0.16210000  1.0 0.11446054
C  C44  1  0.97840000  0.89390000  0.16210000  1.0 0.11446054
C  C45  1  0.10610000  0.08450000  0.16210000  1.0 0.11446054
C  C46  1  0.08450000  0.97840000  0.66210000  1.0 0.1153515438
C  C47  1  0.02160000  0.10610000  0.66210000  1.0 0.11446054
C  C48  1  0.89390000  0.91550000  0.66210000  1.0 0.1153515438
C  C49  1  0.04780000  0.13840000  0.22880000  1.0 0.0242482806
C  C50  1  0.86160000  0.90940000  0.22880000  1.0 0.0258255446
C  C51  1  0.09060000  0.95220000  0.22880000  1.0 0.0258255446
C  C52  1  0.95220000  0.86160000  0.72880000  1.0 0.0258255446
C  C53  1  0.13840000  0.09060000  0.72880000  1.0 0.0258255446
C  C54  1  0.90940000  0.04780000  0.72880000  1.0 0.0258255446
C  C55  1  0.61920000  0.84300000  0.40440000  1.0 -0.0377513919
C  C56  1  0.15700000  0.77620000  0.40440000  1.0 -0.0377513919
C  C57  1  0.22380000  0.38080000  0.40440000  1.0 -0.0377513919
C  C58  1  0.38080000  0.15700000  0.90440000  1.0 -0.0377513919
C  C59  1  0.84300000  0.22380000  0.90440000  1.0 -0.0377513919
C  C60  1  0.77620000  0.61920000  0.90440000  1.0 -0.0377513919
C  C61  1  0.64440000  0.70550000  0.38660000  1.0 -0.21368801
C  C62  1  0.29450000  0.93890000  0.38660000  1.0 -0.21368801
C  C63  1  0.06110000  0.35560000  0.38660000  1.0 -0.21368801
C  C64  1  0.35560000  0.29450000  0.88660000  1.0 -0.21368801
C  C65  1  0.70550000  0.06110000  0.88660000  1.0 -0.21368801
C  C66  1  0.93890000  0.64440000  0.88660000  1.0 -0.21368801
C  C67  1  0.66130000  0.63260000  0.44950000  1.0 -0.1969345203
C  C68  1  0.36740000  0.02870000  0.44950000  1.0 -0.1969345203
C  C69  1  0.97130000  0.33870000  0.44950000  1.0 -0.1969345203
C  C70  1  0.33870000  0.36740000  0.94950000  1.0 -0.1969345203
C  C71  1  0.63260000  0.97130000  0.94950000  1.0 -0.1969345203
C  C72  1  0.02870000  0.66130000  0.94950000  1.0 -0.1969345203
C  C73  1  0.64650000  0.72500000  0.50620000  1.0 -0.1064223502
C  C74  1  0.27500000  0.92150000  0.50620000  1.0 -0.1064223502
C  C75  1  0.07850000  0.35350000  0.50620000  1.0 -0.1064223502
C  C76  1  0.35350000  0.27500000  0.00620000  1.0 -0.1064223502
C  C77  1  0.72500000  0.07850000  0.00620000  1.0 -0.1064223502
C  C78  1  0.92150000  0.64650000  0.00620000  1.0 -0.1064223502
C  C79  1  0.62050000  0.85510000  0.47830000  1.0 -0.0095148799
C  C80  1  0.14490000  0.76540000  0.47830000  1.0 -0.0095148799
C  C81  1  0.23460000  0.37950000  0.47830000  1.0 -0.0095148799
C  C82  1  0.37950000  0.14490000  0.97830000  1.0 -0.0095148799
C  C83  1  0.85510000  0.23460000  0.97830000  1.0 -0.0095148799
C  C84  1  0.76540000  0.62050000  0.97830000  1.0 -0.0095148799
O  O1  1  0.99430000  0.99380000  0.27050000  1.0 -0.104671373
O  O2  1  0.00620000  0.00050000  0.27050000  1.0 -0.1064223502
O  O3  1  0.99950000  0.00570000  0.27050000  1.0 -0.1064223502
O  O4  1  0.00570000  0.00620000  0.77050000  1.0 -0.1064223502
O  O5  1  0.99380000  0.99950000  0.77050000  1.0 -0.1064223502
O  O6  1  0.00050000  0.99430000  0.77050000  1.0 -0.1064223502
O  O7  1  0.00820000  0.00040000  0.60590000  1.0 -0.1823456502
O  O8  1  0.99960000  0.00780000  0.60590000  1.0 -0.1823456502
O  O9  1  0.99220000  0.99180000  0.60590000  1.0 -0.1823456502
O  O10  1  0.99180000  0.99960000  0.10590000  1.0 -0.1823456502
O  O11  1  0.00040000  0.99220000  0.10590000  1.0 -0.1823456502
O  O12  1  0.00780000  0.00820000  0.10590000  1.0 -0.1823456502
