# DDEC6 charges by PACMAN v1.1 (https://github.com/mtap-research/PACMAN-charge/)
data_BUBQOE_FSR_pacman
_symmetry_space_group_name_H-M   'P 1'
_cell_length_a   13.75800000
_cell_length_b   8.18000000
_cell_length_c   19.29860000
_cell_angle_alpha   90.00000000
_cell_angle_beta   116.43300000
_cell_angle_gamma   90.00000000
_symmetry_Int_Tables_number   1
_chemical_formula_structural   UP2H3O8
_chemical_formula_sum   'U8 P16 H24 O64'
_cell_volume   1944.81560918
_cell_formula_units_Z   8
loop_
 _symmetry_equiv_pos_site_id
 _symmetry_equiv_pos_as_xyz
  1  'x, y, z'
loop_
 _atom_site_type_symbol
 _atom_site_label
 _atom_site_symmetry_multiplicity
 _atom_site_fract_x
 _atom_site_fract_y
 _atom_site_fract_z
 _atom_site_occupancy
 _atom_site_charge
U  U1  1  0.30752000  0.07603000  0.54006000  1.0 2.5475113754
U  U2  1  0.30752000  0.42397000  0.04006000  1.0 2.5475113754
U  U3  1  0.69248000  0.92397000  0.45994000  1.0 2.5475113754
U  U4  1  0.69248000  0.57603000  0.95994000  1.0 2.5475113754
U  U5  1  0.17728000  0.78605000  0.26533000  1.0 2.5475113754
U  U6  1  0.17728000  0.71395000  0.76533000  1.0 2.5475113754
U  U7  1  0.82272000  0.21395000  0.73467000  1.0 2.5475113754
U  U8  1  0.82272000  0.28605000  0.23467000  1.0 2.5475113754
P  P1  1  0.39530000  0.05500000  0.39040000  1.0 1.1186799174
P  P2  1  0.39530000  0.44500000  0.89040000  1.0 1.1186799174
P  P3  1  0.60470000  0.94500000  0.60960000  1.0 1.1186799174
P  P4  1  0.60470000  0.55500000  0.10960000  1.0 1.1186799174
P  P5  1  0.11150000  0.15530000  0.34220000  1.0 1.1455151304
P  P6  1  0.11150000  0.34470000  0.84220000  1.0 1.1455151304
P  P7  1  0.88850000  0.84470000  0.65780000  1.0 1.1455151304
P  P8  1  0.88850000  0.65530000  0.15780000  1.0 1.1426171129
P  P9  1  0.14020000  0.07390000  0.64190000  1.0 1.0765243535
P  P10  1  0.14020000  0.42610000  0.14190000  1.0 1.0765243535
P  P11  1  0.85980000  0.92610000  0.35810000  1.0 1.0765243535
P  P12  1  0.85980000  0.57390000  0.85810000  1.0 1.0765243535
P  P13  1  0.38940000  0.82550000  0.71100000  1.0 1.0497300391
P  P14  1  0.38940000  0.67450000  0.21100000  1.0 1.0497300391
P  P15  1  0.61060000  0.17450000  0.28900000  1.0 1.0497300391
P  P16  1  0.61060000  0.32550000  0.78900000  1.0 1.0497300391
H  H1  1  0.37050000  0.12110000  0.34330000  1.0 0.0472906743
H  H2  1  0.37050000  0.37890000  0.84330000  1.0 0.0472906743
H  H3  1  0.62950000  0.87890000  0.65670000  1.0 0.0472906743
H  H4  1  0.62950000  0.62110000  0.15670000  1.0 0.0472906743
H  H5  1  0.16230000  0.20010000  0.32420000  1.0 0.04346673
H  H6  1  0.16230000  0.29990000  0.82420000  1.0 0.04346673
H  H7  1  0.83770000  0.79990000  0.67580000  1.0 0.04346673
H  H8  1  0.83770000  0.70010000  0.17580000  1.0 0.04346673
H  H9  1  0.19800000  0.12240000  0.68840000  1.0 0.0580821847
H  H10  1  0.19800000  0.37760000  0.18840000  1.0 0.0580821847
H  H11  1  0.80200000  0.87760000  0.31160000  1.0 0.0580821847
H  H12  1  0.80200000  0.62240000  0.81160000  1.0 0.0580821847
H  H13  1  0.34950000  0.74610000  0.67000000  1.0 0.0472906743
H  H14  1  0.34950000  0.75390000  0.17000000  1.0 0.0472906743
H  H15  1  0.65050000  0.25390000  0.33000000  1.0 0.0472906743
H  H16  1  0.65050000  0.24610000  0.83000000  1.0 0.0472906743
H  H17  1  0.98380000  0.12670000  0.58540000  1.0 0.4021819671
H  H18  1  0.98380000  0.37330000  0.08540000  1.0 0.4021819671
H  H19  1  0.01620000  0.87330000  0.41460000  1.0 0.4021819671
H  H20  1  0.01620000  0.62670000  0.91460000  1.0 0.4021819671
H  H21  1  0.54640000  0.86650000  0.75590000  1.0 0.3899269466
H  H22  1  0.54640000  0.63350000  0.25590000  1.0 0.3899269466
H  H23  1  0.45360000  0.13350000  0.24410000  1.0 0.3899269466
H  H24  1  0.45360000  0.36650000  0.74410000  1.0 0.3899269466
O  O1  1  0.37580000  0.15730000  0.44970000  1.0 -0.7110702331
O  O2  1  0.37580000  0.34270000  0.94970000  1.0 -0.7110702331
O  O3  1  0.62420000  0.84270000  0.55030000  1.0 -0.7110702331
O  O4  1  0.62420000  0.65730000  0.05030000  1.0 -0.7110702331
O  O5  1  0.32420000  0.90330000  0.36960000  1.0 -0.7393744076
O  O6  1  0.32420000  0.59670000  0.86960000  1.0 -0.7393744076
O  O7  1  0.67580000  0.09670000  0.63040000  1.0 -0.7393744076
O  O8  1  0.67580000  0.40330000  0.13040000  1.0 -0.7393744076
O  O9  1  0.26310000  0.87400000  0.50900000  1.0 -0.6071890528
O  O10  1  0.26310000  0.62600000  0.00900000  1.0 -0.6071890528
O  O11  1  0.73690000  0.12600000  0.49100000  1.0 -0.6071890528
O  O12  1  0.73690000  0.37400000  0.99100000  1.0 -0.6071890528
O  O13  1  0.18470000  0.62110000  0.32720000  1.0 -0.5483700047
O  O14  1  0.18470000  0.87890000  0.82720000  1.0 -0.5483700047
O  O15  1  0.81530000  0.37890000  0.67280000  1.0 -0.5483700047
O  O16  1  0.81530000  0.12110000  0.17280000  1.0 -0.5483700047
O  O17  1  0.35020000  0.27630000  0.57660000  1.0 -0.5483700047
O  O18  1  0.35020000  0.22370000  0.07660000  1.0 -0.5483700047
O  O19  1  0.64980000  0.72370000  0.42340000  1.0 -0.5483700047
O  O20  1  0.64980000  0.77630000  0.92340000  1.0 -0.5483700047
O  O21  1  0.51220000  0.01780000  0.41470000  1.0 -0.7188319798
O  O22  1  0.51220000  0.48220000  0.91470000  1.0 -0.7188319798
O  O23  1  0.48780000  0.98220000  0.58530000  1.0 -0.7188319798
O  O24  1  0.48780000  0.51780000  0.08530000  1.0 -0.7188319798
O  O25  1  0.16270000  0.17700000  0.42990000  1.0 -0.7188319798
O  O26  1  0.16270000  0.32300000  0.92990000  1.0 -0.7188319798
O  O27  1  0.83730000  0.82300000  0.57010000  1.0 -0.7188319798
O  O28  1  0.83730000  0.67700000  0.07010000  1.0 -0.7188319798
O  O29  1  0.37140000  0.98810000  0.67290000  1.0 -0.7296042155
O  O30  1  0.37140000  0.51190000  0.17290000  1.0 -0.7296042155
O  O31  1  0.62860000  0.01190000  0.32710000  1.0 -0.7296042155
O  O32  1  0.62860000  0.48810000  0.82710000  1.0 -0.7296042155
O  O33  1  0.17720000  0.94860000  0.20390000  1.0 -0.6202426936
O  O34  1  0.17720000  0.55140000  0.70390000  1.0 -0.6202426936
O  O35  1  0.82280000  0.05140000  0.79610000  1.0 -0.6202426936
O  O36  1  0.82280000  0.44860000  0.29610000  1.0 -0.6202426936
O  O37  1  0.09590000  0.97520000  0.32040000  1.0 -0.7296042155
O  O38  1  0.09590000  0.52480000  0.82040000  1.0 -0.7296042155
O  O39  1  0.90410000  0.02480000  0.67960000  1.0 -0.7296042155
O  O40  1  0.90410000  0.47520000  0.17960000  1.0 -0.7296042155
O  O41  1  0.00920000  0.25300000  0.30540000  1.0 -0.6903666641
O  O42  1  0.00920000  0.24700000  0.80540000  1.0 -0.6903666641
O  O43  1  0.99080000  0.74700000  0.69460000  1.0 -0.6903666641
O  O44  1  0.99080000  0.75300000  0.19460000  1.0 -0.6903666641
O  O45  1  0.13890000  0.89260000  0.65450000  1.0 -0.7188319798
O  O46  1  0.13890000  0.60740000  0.15450000  1.0 -0.7188319798
O  O47  1  0.86110000  0.10740000  0.34550000  1.0 -0.7188319798
O  O48  1  0.86110000  0.39260000  0.84550000  1.0 -0.7188319798
O  O49  1  0.34640000  0.80880000  0.76990000  1.0 -0.6812197949
O  O50  1  0.34640000  0.69120000  0.26990000  1.0 -0.6812197949
O  O51  1  0.65360000  0.19120000  0.23010000  1.0 -0.6812197949
O  O52  1  0.65360000  0.30880000  0.73010000  1.0 -0.6812197949
O  O53  1  0.15860000  0.12210000  0.57340000  1.0 -0.6903666641
O  O54  1  0.15860000  0.37790000  0.07340000  1.0 -0.6903666641
O  O55  1  0.84140000  0.87790000  0.42660000  1.0 -0.6903666641
O  O56  1  0.84140000  0.62210000  0.92660000  1.0 -0.6903666641
O  O57  1  0.03140000  0.15630000  0.62740000  1.0 -0.4996869798
O  O58  1  0.03140000  0.34370000  0.12740000  1.0 -0.4996869798
O  O59  1  0.96860000  0.84370000  0.37260000  1.0 -0.4996869798
O  O60  1  0.96860000  0.65630000  0.87260000  1.0 -0.4996869798
O  O61  1  0.51010000  0.78300000  0.74220000  1.0 -0.5210259939
O  O62  1  0.51010000  0.71700000  0.24220000  1.0 -0.5210259939
O  O63  1  0.48990000  0.21700000  0.25780000  1.0 -0.5210259939
O  O64  1  0.48990000  0.28300000  0.75780000  1.0 -0.5210259939
