# DDEC6 charges by PACMAN v1.1 (https://github.com/mtap-research/PACMAN-charge/)
data_BUCPEW_FSR_pacman
_symmetry_space_group_name_H-M   'P 1'
_cell_length_a   12.31600000
_cell_length_b   20.86230000
_cell_length_c   21.69480000
_cell_angle_alpha   90.00000000
_cell_angle_beta   122.88300000
_cell_angle_gamma   90.00000000
_symmetry_Int_Tables_number   1
_chemical_formula_structural   EuH72Pb2C96(N7O6)2
_chemical_formula_sum   'Eu2 H144 Pb4 C192 N28 O24'
_cell_volume   4681.16077216
_cell_formula_units_Z   2
loop_
 _symmetry_equiv_pos_site_id
 _symmetry_equiv_pos_as_xyz
  1  'x, y, z'
loop_
 _atom_site_type_symbol
 _atom_site_label
 _atom_site_symmetry_multiplicity
 _atom_site_fract_x
 _atom_site_fract_y
 _atom_site_fract_z
 _atom_site_occupancy
 _atom_site_charge
Eu  Eu1  1  0.50000000  0.50000000  0.50000000  1.0 2.1422998591
Eu  Eu2  1  0.50000000  0.00000000  0.00000000  1.0 2.1422998591
H  H1  1  0.92600000  0.68800000  0.27100000  1.0 0.1195480743
H  H2  1  0.07400000  0.18800000  0.22900000  1.0 0.1195480743
H  H3  1  0.07400000  0.31200000  0.72900000  1.0 0.1195480743
H  H4  1  0.92600000  0.81200000  0.77100000  1.0 0.1195480743
H  H5  1  0.67900000  0.56900000  0.67700000  1.0 0.1195480743
H  H6  1  0.32100000  0.06900000  0.82300000  1.0 0.1195480743
H  H7  1  0.32100000  0.43100000  0.32300000  1.0 0.1195480743
H  H8  1  0.67900000  0.93100000  0.17700000  1.0 0.1294812643
H  H9  1  0.49900000  0.71000000  0.69700000  1.0 0.1127537926
H  H10  1  0.50100000  0.21000000  0.80300000  1.0 0.1127537926
H  H11  1  0.50100000  0.29000000  0.30300000  1.0 0.1127537926
H  H12  1  0.49900000  0.79000000  0.19700000  1.0 0.1127537926
H  H13  1  0.14300000  0.84600000  0.56300000  1.0 0.0602241674
H  H14  1  0.85700000  0.34600000  0.93700000  1.0 0.0602241674
H  H15  1  0.85700000  0.15400000  0.43700000  1.0 0.0602241674
H  H16  1  0.14300000  0.65400000  0.06300000  1.0 0.0602241674
H  H17  1  0.78000000  0.77000000  0.95200000  1.0 0.1294812643
H  H18  1  0.22000000  0.27000000  0.54800000  1.0 0.1294812643
H  H19  1  0.22000000  0.23000000  0.04800000  1.0 0.1294812643
H  H20  1  0.78000000  0.73000000  0.45200000  1.0 0.1294812643
H  H21  1  0.13100000  0.90400000  0.99800000  1.0 0.1385704352
H  H22  1  0.86900000  0.40400000  0.50200000  1.0 0.1385704352
H  H23  1  0.86900000  0.09600000  0.00200000  1.0 0.1385704352
H  H24  1  0.13100000  0.59600000  0.49800000  1.0 0.1385704352
H  H25  1  0.66600000  0.73500000  0.81600000  1.0 0.1195480743
H  H26  1  0.33400000  0.23500000  0.68400000  1.0 0.1195480743
H  H27  1  0.33400000  0.26500000  0.18400000  1.0 0.1195480743
H  H28  1  0.66600000  0.76500000  0.31600000  1.0 0.1195480743
H  H29  1  0.83700000  0.57700000  0.81400000  1.0 0.1294812643
H  H30  1  0.16300000  0.07700000  0.68600000  1.0 0.1294812643
H  H31  1  0.16300000  0.42300000  0.18600000  1.0 0.1294812643
H  H32  1  0.83700000  0.92300000  0.31400000  1.0 0.1294812643
H  H33  1  0.82200000  0.86700000  0.01100000  1.0 0.1195480743
H  H34  1  0.17800000  0.36700000  0.48900000  1.0 0.1195480743
H  H35  1  0.17800000  0.13300000  0.98900000  1.0 0.1195480743
H  H36  1  0.82200000  0.63300000  0.51100000  1.0 0.1195480743
H  H37  1  0.97100000  0.94100000  0.01800000  1.0 0.1127537926
H  H38  1  0.02900000  0.44100000  0.48200000  1.0 0.1127537926
H  H39  1  0.02900000  0.05900000  0.98200000  1.0 0.1127537926
H  H40  1  0.97100000  0.55900000  0.51800000  1.0 0.1127537926
H  H41  1  0.46900000  0.69200000  0.18600000  1.0 0.0791511073
H  H42  1  0.53100000  0.19200000  0.31400000  1.0 0.0791511073
H  H43  1  0.53100000  0.30800000  0.81400000  1.0 0.0791511073
H  H44  1  0.46900000  0.80800000  0.68600000  1.0 0.0791511073
H  H45  1  0.18100000  0.88000000  0.75200000  1.0 0.149945617
H  H46  1  0.81900000  0.38000000  0.74800000  1.0 0.149945617
H  H47  1  0.81900000  0.12000000  0.24800000  1.0 0.149945617
H  H48  1  0.18100000  0.62000000  0.25200000  1.0 0.149945617
H  H49  1  0.77900000  0.61700000  0.24000000  1.0 0.1195480743
H  H50  1  0.22100000  0.11700000  0.26000000  1.0 0.1195480743
H  H51  1  0.22100000  0.38300000  0.76000000  1.0 0.1195480743
H  H52  1  0.77900000  0.88300000  0.74000000  1.0 0.1195480743
H  H53  1  0.13400000  0.90400000  0.63400000  1.0 0.1195480743
H  H54  1  0.86600000  0.40400000  0.86600000  1.0 0.1195480743
H  H55  1  0.86600000  0.09600000  0.36600000  1.0 0.1195480743
H  H56  1  0.13400000  0.59600000  0.13400000  1.0 0.1195480743
H  H57  1  0.92800000  0.78400000  0.20400000  1.0 -0.0106122156
H  H58  1  0.07200000  0.28400000  0.29600000  1.0 -0.0106122156
H  H59  1  0.07200000  0.21600000  0.79600000  1.0 -0.0106122156
H  H60  1  0.92800000  0.71600000  0.70400000  1.0 -0.0106122156
H  H61  1  0.19520000  0.72870000  0.60870000  1.0 0.1385704352
H  H62  1  0.80480000  0.22870000  0.89130000  1.0 0.1385704352
H  H63  1  0.80480000  0.27130000  0.39130000  1.0 0.1385704352
H  H64  1  0.19520000  0.77130000  0.10870000  1.0 0.1385704352
H  H65  1  0.07490000  0.63550000  0.88780000  1.0 0.1127537926
H  H66  1  0.92510000  0.13550000  0.61220000  1.0 0.1127537926
H  H67  1  0.92510000  0.36450000  0.11220000  1.0 0.1127537926
H  H68  1  0.07490000  0.86450000  0.38780000  1.0 0.1127537926
H  H69  1  0.05570000  0.68570000  0.82860000  1.0 0.1294812643
H  H70  1  0.94430000  0.18570000  0.67140000  1.0 0.1294812643
H  H71  1  0.94430000  0.31430000  0.17140000  1.0 0.1294812643
H  H72  1  0.05570000  0.81430000  0.32860000  1.0 0.1294812643
H  H73  1  0.48990000  0.70110000  0.30050000  1.0 0.1127537926
H  H74  1  0.51010000  0.20110000  0.19950000  1.0 0.1127537926
H  H75  1  0.51010000  0.29890000  0.69950000  1.0 0.1127537926
H  H76  1  0.48990000  0.79890000  0.80050000  1.0 0.1127537926
H  H77  1  0.01630000  0.65160000  0.68370000  1.0 0.1195480743
H  H78  1  0.98370000  0.15160000  0.81630000  1.0 0.1195480743
H  H79  1  0.98370000  0.34840000  0.31630000  1.0 0.1195480743
H  H80  1  0.01630000  0.84840000  0.18370000  1.0 0.1195480743
H  H81  1  0.84110000  0.58440000  0.64230000  1.0 0.1195480743
H  H82  1  0.15890000  0.08440000  0.85770000  1.0 0.1195480743
H  H83  1  0.15890000  0.41560000  0.35770000  1.0 0.1195480743
H  H84  1  0.84110000  0.91560000  0.14230000  1.0 0.1195480743
H  H85  1  0.27640000  0.63200000  0.68600000  1.0 0.1385704352
H  H86  1  0.72360000  0.13200000  0.81400000  1.0 0.1385704352
H  H87  1  0.72360000  0.36800000  0.31400000  1.0 0.1385704352
H  H88  1  0.27640000  0.86800000  0.18600000  1.0 0.1385704352
H  H89  1  0.33630000  0.60700000  0.76630000  1.0 0.1195480743
H  H90  1  0.66370000  0.10700000  0.73370000  1.0 0.1195480743
H  H91  1  0.66370000  0.39300000  0.23370000  1.0 0.1195480743
H  H92  1  0.33630000  0.89300000  0.26630000  1.0 0.1195480743
H  H93  1  0.93150000  0.62610000  0.92320000  1.0 0.1127537926
H  H94  1  0.06850000  0.12610000  0.57680000  1.0 0.1127537926
H  H95  1  0.06850000  0.37390000  0.07680000  1.0 0.1127537926
H  H96  1  0.93150000  0.87390000  0.42320000  1.0 0.1127537926
H  H97  1  0.83430000  0.66540000  0.93360000  1.0 0.1294812643
H  H98  1  0.16570000  0.16540000  0.56640000  1.0 0.1294812643
H  H99  1  0.16570000  0.33460000  0.06640000  1.0 0.1294812643
H  H100  1  0.83430000  0.83460000  0.43360000  1.0 0.1294812643
H  H101  1  0.29710000  0.59950000  0.97540000  1.0 0.1127537926
H  H102  1  0.70290000  0.09950000  0.52460000  1.0 0.1127537926
H  H103  1  0.70290000  0.40050000  0.02460000  1.0 0.1127537926
H  H104  1  0.29710000  0.90050000  0.47540000  1.0 0.1127537926
H  H105  1  0.25200000  0.65180000  0.00890000  1.0 0.1195480743
H  H106  1  0.74800000  0.15180000  0.49110000  1.0 0.1195480743
H  H107  1  0.74800000  0.34820000  0.99110000  1.0 0.1195480743
H  H108  1  0.25200000  0.84820000  0.50890000  1.0 0.1195480743
H  H109  1  0.06130000  0.43450000  0.66130000  1.0 0.1195480743
H  H110  1  0.93870000  0.93450000  0.83870000  1.0 0.1195480743
H  H111  1  0.93870000  0.56550000  0.33870000  1.0 0.1195480743
H  H112  1  0.06130000  0.06550000  0.16130000  1.0 0.1195480743
H  H113  1  0.23620000  0.50220000  0.70350000  1.0 0.1195480743
H  H114  1  0.76380000  0.00220000  0.79650000  1.0 0.1195480743
H  H115  1  0.76380000  0.49780000  0.29650000  1.0 0.1195480743
H  H116  1  0.23620000  0.99780000  0.20350000  1.0 0.1195480743
H  H117  1  0.37160000  0.64820000  0.89620000  1.0 0.1294812643
H  H118  1  0.62840000  0.14820000  0.60380000  1.0 0.1294812643
H  H119  1  0.62840000  0.35180000  0.10380000  1.0 0.1294812643
H  H120  1  0.37160000  0.85180000  0.39620000  1.0 0.1294812643
H  H121  1  0.23370000  0.61760000  0.84560000  1.0 0.1195480743
H  H122  1  0.76630000  0.11760000  0.65440000  1.0 0.1195480743
H  H123  1  0.76630000  0.38240000  0.15440000  1.0 0.1195480743
H  H124  1  0.23370000  0.88240000  0.34560000  1.0 0.1195480743
H  H125  1  0.51550000  0.49470000  0.23260000  1.0 0.1195480743
H  H126  1  0.48450000  0.99470000  0.26740000  1.0 0.1195480743
H  H127  1  0.48450000  0.50530000  0.76740000  1.0 0.1195480743
H  H128  1  0.51550000  0.00530000  0.73260000  1.0 0.1195480743
H  H129  1  0.53870000  0.51330000  0.34350000  1.0 0.1195480743
H  H130  1  0.46130000  0.01330000  0.15650000  1.0 0.1195480743
H  H131  1  0.46130000  0.48670000  0.65650000  1.0 0.1195480743
H  H132  1  0.53870000  0.98670000  0.84350000  1.0 0.1195480743
H  H133  1  0.71120000  0.79350000  0.08600000  1.0 0.1385704352
H  H134  1  0.28880000  0.29350000  0.41400000  1.0 0.1385704352
H  H135  1  0.28880000  0.20650000  0.91400000  1.0 0.1385704352
H  H136  1  0.71120000  0.70650000  0.58600000  1.0 0.1385704352
H  H137  1  0.40020000  0.55980000  0.09320000  1.0 0.1195480743
H  H138  1  0.59980000  0.05980000  0.40680000  1.0 0.1195480743
H  H139  1  0.59980000  0.44020000  0.90680000  1.0 0.1195480743
H  H140  1  0.40020000  0.94020000  0.59320000  1.0 0.1195480743
H  H141  1  0.54650000  0.54020000  0.13810000  1.0 0.1195480743
H  H142  1  0.45350000  0.04020000  0.36190000  1.0 0.1195480743
H  H143  1  0.45350000  0.45980000  0.86190000  1.0 0.1195480743
H  H144  1  0.54650000  0.95980000  0.63810000  1.0 0.1195480743
Pb  Pb1  1  0.68417000  0.31163000  0.55641000  1.0 0.9573301061
Pb  Pb2  1  0.31583000  0.81163000  0.94359000  1.0 0.9573301061
Pb  Pb3  1  0.31583000  0.68837000  0.44359000  1.0 0.9573301061
Pb  Pb4  1  0.68417000  0.18837000  0.05641000  1.0 0.9573301061
C  C1  1  0.21080000  0.74620000  0.70590000  1.0 0.0791511073
C  C2  1  0.78920000  0.24620000  0.79410000  1.0 0.0791511073
C  C3  1  0.78920000  0.25380000  0.29410000  1.0 0.0791511073
C  C4  1  0.21080000  0.75380000  0.20590000  1.0 0.0791511073
C  C5  1  0.57250000  0.63050000  0.68030000  1.0 -0.0373116258
C  C6  1  0.42750000  0.13050000  0.81970000  1.0 -0.0373116258
C  C7  1  0.42750000  0.36950000  0.31970000  1.0 -0.0373116258
C  C8  1  0.57250000  0.86950000  0.18030000  1.0 -0.0373116258
C  C9  1  0.46500000  0.62220000  0.60140000  1.0 0.608531543
C  C10  1  0.53500000  0.12220000  0.89860000  1.0 0.608531543
C  C11  1  0.53500000  0.37780000  0.39860000  1.0 0.608531543
C  C12  1  0.46500000  0.87780000  0.10140000  1.0 0.608531543
C  C13  1  0.18890000  0.76020000  0.63700000  1.0 -0.2011715785
C  C14  1  0.81110000  0.26020000  0.86300000  1.0 -0.2011715785
C  C15  1  0.81110000  0.23980000  0.36300000  1.0 -0.2011715785
C  C16  1  0.18890000  0.73980000  0.13700000  1.0 -0.2011715785
C  C17  1  0.84880000  0.69360000  0.22440000  1.0 -0.1196020168
C  C18  1  0.15120000  0.19360000  0.27560000  1.0 -0.1196020168
C  C19  1  0.15120000  0.30640000  0.77560000  1.0 -0.1196020168
C  C20  1  0.84880000  0.80640000  0.72440000  1.0 -0.1196020168
C  C21  1  0.49430000  0.58770000  0.19980000  1.0 0.1012435477
C  C22  1  0.50570000  0.08770000  0.30020000  1.0 0.1012435477
C  C23  1  0.50570000  0.41230000  0.80020000  1.0 0.1012435477
C  C24  1  0.49430000  0.91230000  0.69980000  1.0 0.1012435477
C  C25  1  0.09840000  0.67810000  0.88080000  1.0 -0.2290650101
C  C26  1  0.90160000  0.17810000  0.61920000  1.0 -0.2290650101
C  C27  1  0.90160000  0.32190000  0.11920000  1.0 -0.2290650101
C  C28  1  0.09840000  0.82190000  0.38080000  1.0 -0.2290650101
C  C29  1  0.14420000  0.58430000  0.69870000  1.0 0.1012435477
C  C30  1  0.85580000  0.08430000  0.80130000  1.0 0.1012435477
C  C31  1  0.85580000  0.41570000  0.30130000  1.0 0.1012435477
C  C32  1  0.14420000  0.91570000  0.19870000  1.0 0.1012435477
C  C33  1  0.67490000  0.58910000  0.71500000  1.0 -0.0987110539
C  C34  1  0.32510000  0.08910000  0.78500000  1.0 -0.0987110539
C  C35  1  0.32510000  0.41090000  0.28500000  1.0 -0.0987110539
C  C36  1  0.67490000  0.91090000  0.21500000  1.0 -0.0987110539
C  C37  1  0.56760000  0.68200000  0.71870000  1.0 -0.0987110539
C  C38  1  0.43240000  0.18200000  0.78130000  1.0 -0.0987110539
C  C39  1  0.43240000  0.31800000  0.28130000  1.0 -0.0987110539
C  C40  1  0.56760000  0.81800000  0.21870000  1.0 -0.0987110539
C  C41  1  0.04300000  0.81710000  0.95880000  1.0 0.149945617
C  C42  1  0.95700000  0.31710000  0.54120000  1.0 0.149945617
C  C43  1  0.95700000  0.18290000  0.04120000  1.0 0.149945617
C  C44  1  0.04300000  0.68290000  0.45880000  1.0 0.149945617
C  C45  1  0.15760000  0.82160000  0.61290000  1.0 -0.0887789236
C  C46  1  0.84240000  0.32160000  0.88710000  1.0 -0.0887789236
C  C47  1  0.84240000  0.17840000  0.38710000  1.0 -0.0887789236
C  C48  1  0.15760000  0.67840000  0.11290000  1.0 -0.0887789236
C  C49  1  0.49710000  0.65960000  0.28760000  1.0 -0.0887789236
C  C50  1  0.50290000  0.15960000  0.21240000  1.0 -0.0887789236
C  C51  1  0.50290000  0.34040000  0.71240000  1.0 -0.0887789236
C  C52  1  0.49710000  0.84040000  0.78760000  1.0 -0.0887789236
C  C53  1  0.02600000  0.60780000  0.67980000  1.0 -0.1602183149
C  C54  1  0.97400000  0.10780000  0.82020000  1.0 -0.1602183149
C  C55  1  0.97400000  0.39220000  0.32020000  1.0 -0.1602183149
C  C56  1  0.02600000  0.89220000  0.17980000  1.0 -0.1602183149
C  C57  1  0.92040000  0.56750000  0.65480000  1.0 -0.0887789236
C  C58  1  0.07960000  0.06750000  0.84520000  1.0 -0.0887789236
C  C59  1  0.07960000  0.43250000  0.34520000  1.0 -0.0887789236
C  C60  1  0.92040000  0.93250000  0.15480000  1.0 -0.0887789236
C  C61  1  0.43750000  0.66420000  0.03830000  1.0 0.2692597641
C  C62  1  0.56250000  0.16420000  0.46170000  1.0 0.2692597641
C  C63  1  0.56250000  0.33580000  0.96170000  1.0 0.2692597641
C  C64  1  0.43750000  0.83580000  0.53830000  1.0 0.2692597641
C  C65  1  0.26090000  0.62730000  0.72510000  1.0 -0.1529903204
C  C66  1  0.73910000  0.12730000  0.77490000  1.0 -0.1529903204
C  C67  1  0.73910000  0.37270000  0.27490000  1.0 -0.1529903204
C  C68  1  0.26090000  0.87270000  0.22510000  1.0 -0.1529903204
C  C69  1  0.82020000  0.45790000  0.62090000  1.0 0.608531543
C  C70  1  0.17980000  0.95790000  0.87910000  1.0 0.608531543
C  C71  1  0.17980000  0.54210000  0.37910000  1.0 0.608531543
C  C72  1  0.82020000  0.04210000  0.12090000  1.0 0.608531543
C  C73  1  0.05630000  0.72690000  0.91380000  1.0 0.2460951454
C  C74  1  0.94370000  0.22690000  0.58620000  1.0 0.2460951454
C  C75  1  0.94370000  0.27310000  0.08620000  1.0 0.2460951454
C  C76  1  0.05630000  0.77310000  0.41380000  1.0 0.2460951454
C  C77  1  0.93240000  0.50270000  0.64830000  1.0 -0.0373116258
C  C78  1  0.06760000  0.00270000  0.85170000  1.0 -0.0373116258
C  C79  1  0.06760000  0.49730000  0.35170000  1.0 -0.0373116258
C  C80  1  0.93240000  0.99730000  0.14830000  1.0 -0.0373116258
C  C81  1  0.77000000  0.65230000  0.82590000  1.0 0.1012435477
C  C82  1  0.23000000  0.15230000  0.67410000  1.0 0.1012435477
C  C83  1  0.23000000  0.34770000  0.17410000  1.0 0.1012435477
C  C84  1  0.77000000  0.84770000  0.32590000  1.0 0.1012435477
C  C85  1  0.87430000  0.66290000  0.90560000  1.0 -0.1529903204
C  C86  1  0.12570000  0.16290000  0.59440000  1.0 -0.1529903204
C  C87  1  0.12570000  0.33710000  0.09440000  1.0 -0.1529903204
C  C88  1  0.87430000  0.83710000  0.40560000  1.0 -0.1529903204
C  C89  1  0.93920000  0.77840000  0.94710000  1.0 0.0713907613
C  C90  1  0.06080000  0.27840000  0.55290000  1.0 0.0713907613
C  C91  1  0.06080000  0.22160000  0.05290000  1.0 0.0713907613
C  C92  1  0.93920000  0.72160000  0.44710000  1.0 0.0713907613
C  C93  1  0.61760000  0.71560000  0.09320000  1.0 0.1588413774
C  C94  1  0.38240000  0.21560000  0.40680000  1.0 0.1588413774
C  C95  1  0.38240000  0.28440000  0.90680000  1.0 0.1588413774
C  C96  1  0.61760000  0.78440000  0.59320000  1.0 0.1588413774
C  C97  1  0.30070000  0.64480000  0.98630000  1.0 -0.2290650101
C  C98  1  0.69930000  0.14480000  0.51370000  1.0 -0.2290650101
C  C99  1  0.69930000  0.35520000  0.01370000  1.0 -0.2290650101
C  C100  1  0.30070000  0.85520000  0.48630000  1.0 -0.2290650101
C  C101  1  0.05230000  0.47810000  0.66630000  1.0 -0.0987110539
C  C102  1  0.94770000  0.97810000  0.83370000  1.0 -0.0987110539
C  C103  1  0.94770000  0.52190000  0.33370000  1.0 -0.0987110539
C  C104  1  0.05230000  0.02190000  0.16630000  1.0 -0.0987110539
C  C105  1  0.84890000  0.79880000  0.96280000  1.0 -0.2011715785
C  C106  1  0.15110000  0.29880000  0.53720000  1.0 -0.2011715785
C  C107  1  0.15110000  0.20120000  0.03720000  1.0 -0.2011715785
C  C108  1  0.84890000  0.70120000  0.46280000  1.0 -0.2011715785
C  C109  1  0.15680000  0.51870000  0.69140000  1.0 -0.1700274662
C  C110  1  0.84320000  0.01870000  0.80860000  1.0 -0.1700274662
C  C111  1  0.84320000  0.48130000  0.30860000  1.0 -0.1700274662
C  C112  1  0.15680000  0.98130000  0.19140000  1.0 -0.1700274662
C  C113  1  0.24870000  0.70530000  0.80970000  1.0 0.2692597641
C  C114  1  0.75130000  0.20530000  0.69030000  1.0 0.2692597641
C  C115  1  0.75130000  0.29470000  0.19030000  1.0 0.2692597641
C  C116  1  0.24870000  0.79470000  0.30970000  1.0 0.2692597641
C  C117  1  0.05840000  0.87850000  0.98780000  1.0 -0.1700274662
C  C118  1  0.94160000  0.37850000  0.51220000  1.0 -0.1700274662
C  C119  1  0.94160000  0.12150000  0.01220000  1.0 -0.1700274662
C  C120  1  0.05840000  0.62150000  0.48780000  1.0 -0.1700274662
C  C121  1  0.66530000  0.69350000  0.79050000  1.0 -0.1602183149
C  C122  1  0.33470000  0.19350000  0.70950000  1.0 -0.1602183149
C  C123  1  0.33470000  0.30650000  0.20950000  1.0 -0.1602183149
C  C124  1  0.66530000  0.80650000  0.29050000  1.0 -0.1602183149
C  C125  1  0.77310000  0.60010000  0.78800000  1.0 -0.1700274662
C  C126  1  0.22690000  0.10010000  0.71200000  1.0 -0.1700274662
C  C127  1  0.22690000  0.39990000  0.21200000  1.0 -0.1700274662
C  C128  1  0.77310000  0.89990000  0.28800000  1.0 -0.1700274662
C  C129  1  0.63440000  0.66380000  0.13770000  1.0 0.0602241674
C  C130  1  0.36560000  0.16380000  0.36230000  1.0 0.0602241674
C  C131  1  0.36560000  0.33620000  0.86230000  1.0 0.0602241674
C  C132  1  0.63440000  0.83620000  0.63770000  1.0 0.0602241674
C  C133  1  0.51960000  0.60920000  0.33540000  1.0 -0.0623243411
C  C134  1  0.48040000  0.10920000  0.16460000  1.0 -0.0623243411
C  C135  1  0.48040000  0.39080000  0.66460000  1.0 -0.0623243411
C  C136  1  0.51960000  0.89080000  0.83540000  1.0 -0.0623243411
C  C137  1  0.27960000  0.65720000  0.86800000  1.0 -0.2290650101
C  C138  1  0.72040000  0.15720000  0.63200000  1.0 -0.2290650101
C  C139  1  0.72040000  0.34280000  0.13200000  1.0 -0.2290650101
C  C140  1  0.27960000  0.84280000  0.36800000  1.0 -0.2290650101
C  C141  1  0.51240000  0.53650000  0.24650000  1.0 -0.1868757771
C  C142  1  0.48760000  0.03650000  0.25350000  1.0 -0.1868757771
C  C143  1  0.48760000  0.46350000  0.75350000  1.0 -0.1868757771
C  C144  1  0.51240000  0.96350000  0.74650000  1.0 -0.1868757771
C  C145  1  0.53340000  0.62010000  0.40570000  1.0 0.608531543
C  C146  1  0.46660000  0.12010000  0.09430000  1.0 0.608531543
C  C147  1  0.46660000  0.37990000  0.59430000  1.0 0.608531543
C  C148  1  0.53340000  0.87990000  0.90570000  1.0 0.608531543
C  C149  1  0.52550000  0.54770000  0.31300000  1.0 -0.0887789236
C  C150  1  0.47450000  0.04770000  0.18700000  1.0 -0.0887789236
C  C151  1  0.47450000  0.45230000  0.68700000  1.0 -0.0887789236
C  C152  1  0.52550000  0.95230000  0.81300000  1.0 -0.0887789236
C  C153  1  0.19910000  0.79330000  0.74790000  1.0 0.1385704352
C  C154  1  0.80090000  0.29330000  0.75210000  1.0 0.1385704352
C  C155  1  0.80090000  0.20670000  0.25210000  1.0 0.1385704352
C  C156  1  0.19910000  0.70670000  0.24790000  1.0 0.1385704352
C  C157  1  0.86680000  0.85960000  0.99160000  1.0 -0.0887789236
C  C158  1  0.13320000  0.35960000  0.50840000  1.0 -0.0887789236
C  C159  1  0.13320000  0.14040000  0.00840000  1.0 -0.0887789236
C  C160  1  0.86680000  0.64040000  0.49160000  1.0 -0.0887789236
C  C161  1  0.96920000  0.89910000  0.00430000  1.0 -0.1196020168
C  C162  1  0.03080000  0.39910000  0.49570000  1.0 -0.1196020168
C  C163  1  0.03080000  0.10090000  0.99570000  1.0 -0.1196020168
C  C164  1  0.96920000  0.60090000  0.50430000  1.0 -0.1196020168
C  C165  1  0.48540000  0.64870000  0.22150000  1.0 -0.128764508
C  C166  1  0.51460000  0.14870000  0.27850000  1.0 -0.128764508
C  C167  1  0.51460000  0.35130000  0.77850000  1.0 -0.128764508
C  C168  1  0.48540000  0.85130000  0.72150000  1.0 -0.128764508
C  C169  1  0.72010000  0.75820000  0.11460000  1.0 -0.178681256
C  C170  1  0.27990000  0.25820000  0.38540000  1.0 -0.178681256
C  C171  1  0.27990000  0.24180000  0.88540000  1.0 -0.178681256
C  C172  1  0.72010000  0.74180000  0.61460000  1.0 -0.178681256
C  C173  1  0.16730000  0.85590000  0.72280000  1.0 -0.1529903204
C  C174  1  0.83270000  0.35590000  0.77720000  1.0 -0.1529903204
C  C175  1  0.83270000  0.14410000  0.27720000  1.0 -0.1529903204
C  C176  1  0.16730000  0.64410000  0.22280000  1.0 -0.1529903204
C  C177  1  0.75030000  0.65160000  0.20420000  1.0 -0.178681256
C  C178  1  0.24970000  0.15160000  0.29580000  1.0 -0.178681256
C  C179  1  0.24970000  0.34840000  0.79580000  1.0 -0.178681256
C  C180  1  0.75030000  0.84840000  0.70420000  1.0 -0.178681256
C  C181  1  0.48670000  0.57440000  0.12980000  1.0 -0.1602183149
C  C182  1  0.51330000  0.07440000  0.37020000  1.0 -0.1602183149
C  C183  1  0.51330000  0.42560000  0.87020000  1.0 -0.1602183149
C  C184  1  0.48670000  0.92560000  0.62980000  1.0 -0.1602183149
C  C185  1  0.14720000  0.86850000  0.65470000  1.0 -0.1196020168
C  C186  1  0.85280000  0.36850000  0.84530000  1.0 -0.1196020168
C  C187  1  0.85280000  0.13150000  0.34530000  1.0 -0.1196020168
C  C188  1  0.14720000  0.63150000  0.15470000  1.0 -0.1196020168
C  C189  1  0.83490000  0.74510000  0.18000000  1.0 -0.0492770622
C  C190  1  0.16510000  0.24510000  0.32000000  1.0 -0.0492770622
C  C191  1  0.16510000  0.25490000  0.82000000  1.0 -0.0492770622
C  C192  1  0.83490000  0.75490000  0.68000000  1.0 -0.0492770622
N  N1  1  0.24130000  0.68230000  0.91690000  1.0 -0.0492770622
N  N2  1  0.75870000  0.18230000  0.58310000  1.0 -0.0492770622
N  N3  1  0.75870000  0.31770000  0.08310000  1.0 -0.0492770622
N  N4  1  0.24130000  0.81770000  0.41690000  1.0 -0.0492770622
N  N5  1  0.24450000  0.69070000  0.74730000  1.0 -0.069356363
N  N6  1  0.75550000  0.19070000  0.75270000  1.0 -0.069356363
N  N7  1  0.75550000  0.30930000  0.25270000  1.0 -0.069356363
N  N8  1  0.24450000  0.80930000  0.24730000  1.0 -0.069356363
N  N9  1  0.11340000  0.78360000  0.93740000  1.0 -0.388083169
N  N10  1  0.88660000  0.28360000  0.56260000  1.0 -0.388083169
N  N11  1  0.88660000  0.21640000  0.06260000  1.0 -0.388083169
N  N12  1  0.11340000  0.71640000  0.43740000  1.0 -0.388083169
N  N13  1  0.22190000  0.76590000  0.81240000  1.0 -0.4109603779
N  N14  1  0.77810000  0.26590000  0.68760000  1.0 -0.4109603779
N  N15  1  0.77810000  0.23410000  0.18760000  1.0 -0.4109603779
N  N16  1  0.22190000  0.73410000  0.31240000  1.0 -0.4109603779
N  N17  1  0.95160000  0.72080000  0.91950000  1.0 -0.069356363
N  N18  1  0.04840000  0.22080000  0.58050000  1.0 -0.069356363
N  N19  1  0.04840000  0.27920000  0.08050000  1.0 -0.069356363
N  N20  1  0.95160000  0.77920000  0.41950000  1.0 -0.069356363
N  N21  1  0.51740000  0.63100000  0.10170000  1.0 -0.069356363
N  N22  1  0.48260000  0.13100000  0.39830000  1.0 -0.069356363
N  N23  1  0.48260000  0.36900000  0.89830000  1.0 -0.069356363
N  N24  1  0.51740000  0.86900000  0.60170000  1.0 -0.069356363
N  N25  1  0.49370000  0.71490000  0.03150000  1.0 -0.4191305728
N  N26  1  0.50630000  0.21490000  0.46850000  1.0 -0.4191305728
N  N27  1  0.50630000  0.28510000  0.96850000  1.0 -0.4191305728
N  N28  1  0.49370000  0.78510000  0.53150000  1.0 -0.4191305728
O  O1  1  0.70950000  0.48220000  0.59290000  1.0 -0.721629949
O  O2  1  0.29050000  0.98220000  0.90710000  1.0 -0.721629949
O  O3  1  0.29050000  0.51780000  0.40710000  1.0 -0.721629949
O  O4  1  0.70950000  0.01780000  0.09290000  1.0 -0.721629949
O  O5  1  0.84320000  0.39880000  0.62890000  1.0 -0.5411437021
O  O6  1  0.15680000  0.89880000  0.87110000  1.0 -0.5411437021
O  O7  1  0.15680000  0.60120000  0.37110000  1.0 -0.5411437021
O  O8  1  0.84320000  0.10120000  0.12890000  1.0 -0.5411437021
O  O9  1  0.36870000  0.65760000  0.57460000  1.0 -0.5411437021
O  O10  1  0.63130000  0.15760000  0.92540000  1.0 -0.5411437021
O  O11  1  0.63130000  0.34240000  0.42540000  1.0 -0.5411437021
O  O12  1  0.36870000  0.84240000  0.07460000  1.0 -0.5411437021
O  O13  1  0.47920000  0.57920000  0.56560000  1.0 -0.730339633
O  O14  1  0.52080000  0.07920000  0.93440000  1.0 -0.730339633
O  O15  1  0.52080000  0.42080000  0.43440000  1.0 -0.730339633
O  O16  1  0.47920000  0.92080000  0.06560000  1.0 -0.730339633
O  O17  1  0.55800000  0.57400000  0.44850000  1.0 -0.7142268584
O  O18  1  0.44200000  0.07400000  0.05150000  1.0 -0.7142268584
O  O19  1  0.44200000  0.42600000  0.55150000  1.0 -0.7142268584
O  O20  1  0.55800000  0.92600000  0.94850000  1.0 -0.7142268584
O  O21  1  0.51910000  0.67650000  0.42210000  1.0 -0.5709516124
O  O22  1  0.48090000  0.17650000  0.07790000  1.0 -0.5709516124
O  O23  1  0.48090000  0.32350000  0.57790000  1.0 -0.5709516124
O  O24  1  0.51910000  0.82350000  0.92210000  1.0 -0.5709516124
