# DDEC6 charges by PACMAN v1.1 (https://github.com/mtap-research/PACMAN-charge/)
data_BUCROH_FSR_pacman
_symmetry_space_group_name_H-M   'P 1'
_cell_length_a   13.53200000
_cell_length_b   14.66100000
_cell_length_c   16.93100000
_cell_angle_alpha   90.00000000
_cell_angle_beta   90.00000000
_cell_angle_gamma   90.00000000
_symmetry_Int_Tables_number   1
_chemical_formula_structural   Fe4Ni3H64(C18O5)4
_chemical_formula_sum   'Fe8 Ni6 H128 C144 O40'
_cell_volume   3358.98599101
_cell_formula_units_Z   2
loop_
 _symmetry_equiv_pos_site_id
 _symmetry_equiv_pos_as_xyz
  1  'x, y, z'
loop_
 _atom_site_type_symbol
 _atom_site_label
 _atom_site_symmetry_multiplicity
 _atom_site_fract_x
 _atom_site_fract_y
 _atom_site_fract_z
 _atom_site_occupancy
 _atom_site_charge
Fe  Fe1  1  0.22533000  0.10686000  0.71914000  1.0 0.1696242827
Fe  Fe2  1  0.77467000  0.89314000  0.71914000  1.0 0.1696242827
Fe  Fe3  1  0.72533000  0.39314000  0.78086000  1.0 0.1696242827
Fe  Fe4  1  0.27467000  0.60686000  0.78086000  1.0 0.1696242827
Fe  Fe5  1  0.77467000  0.89314000  0.28086000  1.0 0.1696242827
Fe  Fe6  1  0.22533000  0.10686000  0.28086000  1.0 0.1696242827
Fe  Fe7  1  0.27467000  0.60686000  0.21914000  1.0 0.1696242827
Fe  Fe8  1  0.72533000  0.39314000  0.21914000  1.0 0.1696242827
Ni  Ni1  1  0.00000000  0.00000000  0.00000000  1.0 1.0091799634
Ni  Ni2  1  0.50000000  0.50000000  0.50000000  1.0 1.0091799634
Ni  Ni3  1  0.26147000  0.40824000  0.50000000  1.0 0.9514297383
Ni  Ni4  1  0.73853000  0.59176000  0.50000000  1.0 0.9514297383
Ni  Ni5  1  0.76147000  0.09176000  0.00000000  1.0 0.9514297383
Ni  Ni6  1  0.23853000  0.90824000  0.00000000  1.0 0.9514297383
H  H1  1  0.12090000  0.27100000  0.69760000  1.0 0.1369764103
H  H2  1  0.87910000  0.72900000  0.69760000  1.0 0.1369764103
H  H3  1  0.62090000  0.22900000  0.80240000  1.0 0.1369764103
H  H4  1  0.37910000  0.77100000  0.80240000  1.0 0.1369764103
H  H5  1  0.87910000  0.72900000  0.30240000  1.0 0.1369764103
H  H6  1  0.12090000  0.27100000  0.30240000  1.0 0.1369764103
H  H7  1  0.37910000  0.77100000  0.19760000  1.0 0.1369764103
H  H8  1  0.62090000  0.22900000  0.19760000  1.0 0.1369764103
H  H9  1  0.06520000  0.18200000  0.80450000  1.0 0.1498947205
H  H10  1  0.93480000  0.81800000  0.80450000  1.0 0.1498947205
H  H11  1  0.56520000  0.31800000  0.69550000  1.0 0.1498947205
H  H12  1  0.43480000  0.68200000  0.69550000  1.0 0.1498947205
H  H13  1  0.93480000  0.81800000  0.19550000  1.0 0.1498947205
H  H14  1  0.06520000  0.18200000  0.19550000  1.0 0.1498947205
H  H15  1  0.43480000  0.68200000  0.30450000  1.0 0.1498947205
H  H16  1  0.56520000  0.31800000  0.30450000  1.0 0.1498947205
H  H17  1  0.09000000  0.43300000  0.53500000  1.0 0.2689740571
H  H18  1  0.91000000  0.56700000  0.53500000  1.0 0.2689740571
H  H19  1  0.59000000  0.06700000  0.96500000  1.0 0.2689740571
H  H20  1  0.41000000  0.93300000  0.96500000  1.0 0.2689740571
H  H21  1  0.91000000  0.56700000  0.46500000  1.0 0.2689740571
H  H22  1  0.09000000  0.43300000  0.46500000  1.0 0.2689740571
H  H23  1  0.41000000  0.93300000  0.03500000  1.0 0.2689740571
H  H24  1  0.59000000  0.06700000  0.03500000  1.0 0.2689740571
H  H25  1  0.34940000  0.10750000  0.85290000  1.0 0.1277924019
H  H26  1  0.65060000  0.89250000  0.85290000  1.0 0.1277924019
H  H27  1  0.84940000  0.39250000  0.64710000  1.0 0.1277924019
H  H28  1  0.15060000  0.60750000  0.64710000  1.0 0.1277924019
H  H29  1  0.65060000  0.89250000  0.14710000  1.0 0.1277924019
H  H30  1  0.34940000  0.10750000  0.14710000  1.0 0.1277924019
H  H31  1  0.15060000  0.60750000  0.35290000  1.0 0.1277924019
H  H32  1  0.84940000  0.39250000  0.35290000  1.0 0.1277924019
H  H33  1  0.91800000  0.14700000  0.96300000  1.0 0.3167452949
H  H34  1  0.08200000  0.85300000  0.96300000  1.0 0.3167452949
H  H35  1  0.41800000  0.35300000  0.53700000  1.0 0.3167452949
H  H36  1  0.58200000  0.64700000  0.53700000  1.0 0.3167452949
H  H37  1  0.08200000  0.85300000  0.03700000  1.0 0.3167452949
H  H38  1  0.91800000  0.14700000  0.03700000  1.0 0.3167452949
H  H39  1  0.58200000  0.64700000  0.46300000  1.0 0.3167452949
H  H40  1  0.41800000  0.35300000  0.46300000  1.0 0.3167452949
H  H41  1  0.40530000  0.19830000  0.74710000  1.0 0.1369764103
H  H42  1  0.59470000  0.80170000  0.74710000  1.0 0.1369764103
H  H43  1  0.90530000  0.30170000  0.75290000  1.0 0.1369764103
H  H44  1  0.09470000  0.69830000  0.75290000  1.0 0.1369764103
H  H45  1  0.59470000  0.80170000  0.25290000  1.0 0.1369764103
H  H46  1  0.40530000  0.19830000  0.25290000  1.0 0.1369764103
H  H47  1  0.09470000  0.69830000  0.24710000  1.0 0.1369764103
H  H48  1  0.90530000  0.30170000  0.24710000  1.0 0.1369764103
H  H49  1  0.26500000  0.09920000  0.56270000  1.0 0.0698886415
H  H50  1  0.73500000  0.90080000  0.56270000  1.0 0.0698886415
H  H51  1  0.76500000  0.40080000  0.93730000  1.0 0.0698886415
H  H52  1  0.23500000  0.59920000  0.93730000  1.0 0.0698886415
H  H53  1  0.73500000  0.90080000  0.43730000  1.0 0.0698886415
H  H54  1  0.26500000  0.09920000  0.43730000  1.0 0.0698886415
H  H55  1  0.23500000  0.59920000  0.06270000  1.0 0.0698886415
H  H56  1  0.76500000  0.40080000  0.06270000  1.0 0.0698886415
H  H57  1  0.38630000  0.01870000  0.65320000  1.0 0.0806718903
H  H58  1  0.61370000  0.98130000  0.65320000  1.0 0.0806718903
H  H59  1  0.88630000  0.48130000  0.84680000  1.0 0.0806718903
H  H60  1  0.11370000  0.51870000  0.84680000  1.0 0.0806718903
H  H61  1  0.61370000  0.98130000  0.34680000  1.0 0.0806718903
H  H62  1  0.38630000  0.01870000  0.34680000  1.0 0.0806718903
H  H63  1  0.11370000  0.51870000  0.15320000  1.0 0.0806718903
H  H64  1  0.88630000  0.48130000  0.15320000  1.0 0.0806718903
H  H65  1  0.28790000  0.93440000  0.75780000  1.0 0.0880052962
H  H66  1  0.71210000  0.06560000  0.75780000  1.0 0.0880052962
H  H67  1  0.78790000  0.56560000  0.74220000  1.0 0.0880052962
H  H68  1  0.21210000  0.43440000  0.74220000  1.0 0.0880052962
H  H69  1  0.71210000  0.06560000  0.24220000  1.0 0.0880052962
H  H70  1  0.28790000  0.93440000  0.24220000  1.0 0.0880052962
H  H71  1  0.21210000  0.43440000  0.25780000  1.0 0.0880052962
H  H72  1  0.78790000  0.56560000  0.25780000  1.0 0.0880052962
H  H73  1  0.10580000  0.96280000  0.73190000  1.0 0.1277924019
H  H74  1  0.89420000  0.03720000  0.73190000  1.0 0.1277924019
H  H75  1  0.60580000  0.53720000  0.76810000  1.0 0.1277924019
H  H76  1  0.39420000  0.46280000  0.76810000  1.0 0.1277924019
H  H77  1  0.89420000  0.03720000  0.26810000  1.0 0.1277924019
H  H78  1  0.10580000  0.96280000  0.26810000  1.0 0.1277924019
H  H79  1  0.39420000  0.46280000  0.23190000  1.0 0.1277924019
H  H80  1  0.60580000  0.53720000  0.23190000  1.0 0.1277924019
H  H81  1  0.09170000  0.06470000  0.61140000  1.0 0.0880052962
H  H82  1  0.90830000  0.93530000  0.61140000  1.0 0.0880052962
H  H83  1  0.59170000  0.43530000  0.88860000  1.0 0.0880052962
H  H84  1  0.40830000  0.56470000  0.88860000  1.0 0.0880052962
H  H85  1  0.90830000  0.93530000  0.38860000  1.0 0.0880052962
H  H86  1  0.09170000  0.06470000  0.38860000  1.0 0.0880052962
H  H87  1  0.40830000  0.56470000  0.11140000  1.0 0.0880052962
H  H88  1  0.59170000  0.43530000  0.11140000  1.0 0.0880052962
H  H89  1  0.33410000  0.04430000  0.40250000  1.0 0.0698886415
H  H90  1  0.66590000  0.95570000  0.40250000  1.0 0.0698886415
H  H91  1  0.83410000  0.45570000  0.09750000  1.0 0.0698886415
H  H92  1  0.16590000  0.54430000  0.09750000  1.0 0.0698886415
H  H93  1  0.66590000  0.95570000  0.59750000  1.0 0.0698886415
H  H94  1  0.33410000  0.04430000  0.59750000  1.0 0.0698886415
H  H95  1  0.16590000  0.54430000  0.90250000  1.0 0.0698886415
H  H96  1  0.83410000  0.45570000  0.90250000  1.0 0.0698886415
H  H97  1  0.30320000  0.93960000  0.28580000  1.0 0.0994888122
H  H98  1  0.69680000  0.06040000  0.28580000  1.0 0.0994888122
H  H99  1  0.80320000  0.56040000  0.21420000  1.0 0.0994888122
H  H100  1  0.19680000  0.43960000  0.21420000  1.0 0.0994888122
H  H101  1  0.69680000  0.06040000  0.71420000  1.0 0.0994888122
H  H102  1  0.30320000  0.93960000  0.71420000  1.0 0.0994888122
H  H103  1  0.19680000  0.43960000  0.78580000  1.0 0.0994888122
H  H104  1  0.80320000  0.56040000  0.78580000  1.0 0.0994888122
H  H105  1  0.12060000  0.94690000  0.25230000  1.0 0.1197926986
H  H106  1  0.87940000  0.05310000  0.25230000  1.0 0.1197926986
H  H107  1  0.62060000  0.55310000  0.24770000  1.0 0.1197926986
H  H108  1  0.37940000  0.44690000  0.24770000  1.0 0.1197926986
H  H109  1  0.87940000  0.05310000  0.74770000  1.0 0.1197926986
H  H110  1  0.12060000  0.94690000  0.74770000  1.0 0.1197926986
H  H111  1  0.37940000  0.44690000  0.75230000  1.0 0.1197926986
H  H112  1  0.62060000  0.55310000  0.75230000  1.0 0.1197926986
H  H113  1  0.03870000  0.05620000  0.34830000  1.0 0.0698886415
H  H114  1  0.96130000  0.94380000  0.34830000  1.0 0.0698886415
H  H115  1  0.53870000  0.44380000  0.15170000  1.0 0.0698886415
H  H116  1  0.46130000  0.55620000  0.15170000  1.0 0.0698886415
H  H117  1  0.96130000  0.94380000  0.65170000  1.0 0.0698886415
H  H118  1  0.03870000  0.05620000  0.65170000  1.0 0.0698886415
H  H119  1  0.46130000  0.55620000  0.84830000  1.0 0.0698886415
H  H120  1  0.53870000  0.44380000  0.84830000  1.0 0.0698886415
H  H121  1  0.17070000  0.11640000  0.44110000  1.0 0.0880052962
H  H122  1  0.82930000  0.88360000  0.44110000  1.0 0.0880052962
H  H123  1  0.67070000  0.38360000  0.05890000  1.0 0.0880052962
H  H124  1  0.32930000  0.61640000  0.05890000  1.0 0.0880052962
H  H125  1  0.82930000  0.88360000  0.55890000  1.0 0.0880052962
H  H126  1  0.17070000  0.11640000  0.55890000  1.0 0.0880052962
H  H127  1  0.32930000  0.61640000  0.94110000  1.0 0.0880052962
H  H128  1  0.67070000  0.38360000  0.94110000  1.0 0.0880052962
C  C1  1  0.26810000  0.24190000  0.71056000  1.0 -0.0035384544
C  C2  1  0.73190000  0.75810000  0.71056000  1.0 -0.0035384544
C  C3  1  0.76810000  0.25810000  0.78944000  1.0 -0.0035384544
C  C4  1  0.23190000  0.74190000  0.78944000  1.0 -0.0035384544
C  C5  1  0.73190000  0.75810000  0.28944000  1.0 -0.0035384544
C  C6  1  0.26810000  0.24190000  0.28944000  1.0 -0.0035384544
C  C7  1  0.23190000  0.74190000  0.21056000  1.0 -0.0035384544
C  C8  1  0.76810000  0.25810000  0.21056000  1.0 -0.0035384544
C  C9  1  0.16700000  0.23750000  0.72847000  1.0 -0.1759345693
C  C10  1  0.83300000  0.76250000  0.72847000  1.0 -0.1759345693
C  C11  1  0.66700000  0.26250000  0.77153000  1.0 -0.1759345693
C  C12  1  0.33300000  0.73750000  0.77153000  1.0 -0.1759345693
C  C13  1  0.83300000  0.76250000  0.27153000  1.0 -0.1739212917
C  C14  1  0.16700000  0.23750000  0.27153000  1.0 -0.1759345693
C  C15  1  0.33300000  0.73750000  0.22847000  1.0 -0.1759345693
C  C16  1  0.66700000  0.26250000  0.22847000  1.0 -0.1759345693
C  C17  1  0.13360000  0.18380000  0.79191000  1.0 -0.1426351996
C  C18  1  0.86640000  0.81620000  0.79191000  1.0 -0.1426351996
C  C19  1  0.63360000  0.31620000  0.70809000  1.0 -0.1426351996
C  C20  1  0.36640000  0.68380000  0.70809000  1.0 -0.1426351996
C  C21  1  0.86640000  0.81620000  0.20809000  1.0 -0.1426351996
C  C22  1  0.13360000  0.18380000  0.20809000  1.0 -0.1426351996
C  C23  1  0.36640000  0.68380000  0.29191000  1.0 -0.1426351996
C  C24  1  0.63360000  0.31620000  0.29191000  1.0 -0.1426351996
C  C25  1  0.20170000  0.13260000  0.83670000  1.0 -0.0035384544
C  C26  1  0.79830000  0.86740000  0.83670000  1.0 -0.0035384544
C  C27  1  0.70170000  0.36740000  0.66330000  1.0 -0.0035384544
C  C28  1  0.29830000  0.63260000  0.66330000  1.0 -0.0035384544
C  C29  1  0.79830000  0.86740000  0.16330000  1.0 -0.0035384544
C  C30  1  0.20170000  0.13260000  0.16330000  1.0 -0.0035384544
C  C31  1  0.29830000  0.63260000  0.33670000  1.0 -0.0035384544
C  C32  1  0.70170000  0.36740000  0.33670000  1.0 -0.0035384544
C  C33  1  0.30320000  0.13950000  0.82100000  1.0 -0.1299419779
C  C34  1  0.69680000  0.86050000  0.82100000  1.0 -0.1299419779
C  C35  1  0.80320000  0.36050000  0.67900000  1.0 -0.1299419779
C  C36  1  0.19680000  0.63950000  0.67900000  1.0 -0.1299419779
C  C37  1  0.69680000  0.86050000  0.17900000  1.0 -0.1299419779
C  C38  1  0.30320000  0.13950000  0.17900000  1.0 -0.1299419779
C  C39  1  0.19680000  0.63950000  0.32100000  1.0 -0.1299419779
C  C40  1  0.80320000  0.36050000  0.32100000  1.0 -0.1299419779
C  C41  1  0.33660000  0.19390000  0.75790000  1.0 -0.1621172291
C  C42  1  0.66340000  0.80610000  0.75790000  1.0 -0.1621172291
C  C43  1  0.83660000  0.30610000  0.74210000  1.0 -0.1621172291
C  C44  1  0.16340000  0.69390000  0.74210000  1.0 -0.1621172291
C  C45  1  0.66340000  0.80610000  0.24210000  1.0 -0.1621172291
C  C46  1  0.33660000  0.19390000  0.24210000  1.0 -0.1621172291
C  C47  1  0.16340000  0.69390000  0.25790000  1.0 -0.1621172291
C  C48  1  0.83660000  0.30610000  0.25790000  1.0 -0.1621172291
C  C49  1  0.30540000  0.29030000  0.63710000  1.0 0.535627945
C  C50  1  0.69460000  0.70970000  0.63710000  1.0 0.535627945
C  C51  1  0.80540000  0.20970000  0.86290000  1.0 0.535627945
C  C52  1  0.19460000  0.79030000  0.86290000  1.0 0.535627945
C  C53  1  0.69460000  0.70970000  0.36290000  1.0 0.535627945
C  C54  1  0.30540000  0.29030000  0.36290000  1.0 0.535627945
C  C55  1  0.19460000  0.79030000  0.13710000  1.0 0.535627945
C  C56  1  0.80540000  0.20970000  0.13710000  1.0 0.535627945
C  C57  1  0.16730000  0.06110000  0.89580000  1.0 0.5793508279
C  C58  1  0.83270000  0.93890000  0.89580000  1.0 0.5793508279
C  C59  1  0.66730000  0.43890000  0.60420000  1.0 0.5793508279
C  C60  1  0.33270000  0.56110000  0.60420000  1.0 0.5793508279
C  C61  1  0.83270000  0.93890000  0.10420000  1.0 0.5793508279
C  C62  1  0.16730000  0.06110000  0.10420000  1.0 0.5793508279
C  C63  1  0.33270000  0.56110000  0.39580000  1.0 0.5793508279
C  C64  1  0.66730000  0.43890000  0.39580000  1.0 0.5793508279
C  C65  1  0.24840000  0.06250000  0.60700000  1.0 -0.0711264641
C  C66  1  0.75160000  0.93750000  0.60700000  1.0 -0.0711264641
C  C67  1  0.74840000  0.43750000  0.89300000  1.0 -0.0711264641
C  C68  1  0.25160000  0.56250000  0.89300000  1.0 -0.0711264641
C  C69  1  0.75160000  0.93750000  0.39300000  1.0 -0.0711264641
C  C70  1  0.24840000  0.06250000  0.39300000  1.0 -0.0711264641
C  C71  1  0.25160000  0.56250000  0.10700000  1.0 -0.0711264641
C  C72  1  0.74840000  0.43750000  0.10700000  1.0 -0.0711264641
C  C73  1  0.31630000  0.01750000  0.65770000  1.0 -0.0997036708
C  C74  1  0.68370000  0.98250000  0.65770000  1.0 -0.0997036708
C  C75  1  0.81630000  0.48250000  0.84230000  1.0 -0.0997036708
C  C76  1  0.18370000  0.51750000  0.84230000  1.0 -0.0997036708
C  C77  1  0.68370000  0.98250000  0.34230000  1.0 -0.0997036708
C  C78  1  0.31630000  0.01750000  0.34230000  1.0 -0.0997036708
C  C79  1  0.18370000  0.51750000  0.15770000  1.0 -0.0997036708
C  C80  1  0.81630000  0.48250000  0.15770000  1.0 -0.0997036708
C  C81  1  0.26120000  0.97030000  0.71630000  1.0 -0.0636503513
C  C82  1  0.73880000  0.02970000  0.71630000  1.0 -0.0636503513
C  C83  1  0.76120000  0.52970000  0.78370000  1.0 -0.0636503513
C  C84  1  0.23880000  0.47030000  0.78370000  1.0 -0.0636503513
C  C85  1  0.73880000  0.02970000  0.28370000  1.0 -0.0636503513
C  C86  1  0.26120000  0.97030000  0.28370000  1.0 -0.0636503513
C  C87  1  0.23880000  0.47030000  0.21630000  1.0 -0.0636503513
C  C88  1  0.76120000  0.52970000  0.21630000  1.0 -0.0636503513
C  C89  1  0.15930000  0.98620000  0.70180000  1.0 -0.1739212917
C  C90  1  0.84070000  0.01380000  0.70180000  1.0 -0.1739212917
C  C91  1  0.65930000  0.51380000  0.79820000  1.0 -0.1739212917
C  C92  1  0.34070000  0.48620000  0.79820000  1.0 -0.1739212917
C  C93  1  0.84070000  0.01380000  0.29820000  1.0 -0.1739212917
C  C94  1  0.15930000  0.98620000  0.29820000  1.0 -0.1739212917
C  C95  1  0.34070000  0.48620000  0.20180000  1.0 -0.1739212917
C  C96  1  0.65930000  0.51380000  0.20180000  1.0 -0.1739212917
C  C97  1  0.15140000  0.04320000  0.63430000  1.0 0.0224395847
C  C98  1  0.84860000  0.95680000  0.63430000  1.0 0.0224395847
C  C99  1  0.65140000  0.45680000  0.86570000  1.0 0.0224395847
C  C100  1  0.34860000  0.54320000  0.86570000  1.0 0.0224395847
C  C101  1  0.84860000  0.95680000  0.36570000  1.0 0.0224395847
C  C102  1  0.15140000  0.04320000  0.36570000  1.0 0.0224395847
C  C103  1  0.34860000  0.54320000  0.13430000  1.0 0.0224395847
C  C104  1  0.65140000  0.45680000  0.13430000  1.0 0.0224395847
C  C105  1  0.27220000  0.03390000  0.37760000  1.0 -0.037119415
C  C106  1  0.72780000  0.96610000  0.37760000  1.0 -0.037119415
C  C107  1  0.77220000  0.46610000  0.12240000  1.0 -0.037119415
C  C108  1  0.22780000  0.53390000  0.12240000  1.0 -0.037119415
C  C109  1  0.72780000  0.96610000  0.62240000  1.0 -0.037119415
C  C110  1  0.27220000  0.03390000  0.62240000  1.0 -0.037119415
C  C111  1  0.22780000  0.53390000  0.87760000  1.0 -0.037119415
C  C112  1  0.77220000  0.46610000  0.87760000  1.0 -0.037119415
C  C113  1  0.25490000  0.97530000  0.31230000  1.0 -0.0314564252
C  C114  1  0.74510000  0.02470000  0.31230000  1.0 -0.0314564252
C  C115  1  0.75490000  0.52470000  0.18770000  1.0 -0.0314564252
C  C116  1  0.24510000  0.47530000  0.18770000  1.0 -0.0314564252
C  C117  1  0.74510000  0.02470000  0.68770000  1.0 -0.0314564252
C  C118  1  0.25490000  0.97530000  0.68770000  1.0 -0.0314564252
C  C119  1  0.24510000  0.47530000  0.81230000  1.0 -0.0314564252
C  C120  1  0.75490000  0.52470000  0.81230000  1.0 -0.0314564252
C  C121  1  0.15270000  0.97940000  0.29350000  1.0 -0.1299419779
C  C122  1  0.84730000  0.02060000  0.29350000  1.0 -0.1299419779
C  C123  1  0.65270000  0.52060000  0.20650000  1.0 -0.1299419779
C  C124  1  0.34730000  0.47940000  0.20650000  1.0 -0.1299419779
C  C125  1  0.84730000  0.02060000  0.70650000  1.0 -0.1299419779
C  C126  1  0.15270000  0.97940000  0.70650000  1.0 -0.1299419779
C  C127  1  0.34730000  0.47940000  0.79350000  1.0 -0.1299419779
C  C128  1  0.65270000  0.52060000  0.79350000  1.0 -0.1299419779
C  C129  1  0.10680000  0.04050000  0.34730000  1.0 -0.0711264641
C  C130  1  0.89320000  0.95950000  0.34730000  1.0 -0.0711264641
C  C131  1  0.60680000  0.45950000  0.15270000  1.0 -0.0711264641
C  C132  1  0.39320000  0.54050000  0.15270000  1.0 -0.0711264641
C  C133  1  0.89320000  0.95950000  0.65270000  1.0 -0.0711264641
C  C134  1  0.10680000  0.04050000  0.65270000  1.0 -0.0711264641
C  C135  1  0.39320000  0.54050000  0.84730000  1.0 -0.0711264641
C  C136  1  0.60680000  0.45950000  0.84730000  1.0 -0.0711264641
C  C137  1  0.18070000  0.07420000  0.39920000  1.0 -0.0928257353
C  C138  1  0.81930000  0.92580000  0.39920000  1.0 -0.0928257353
C  C139  1  0.68070000  0.42580000  0.10080000  1.0 -0.0928257353
C  C140  1  0.31930000  0.57420000  0.10080000  1.0 -0.0928257353
C  C141  1  0.81930000  0.92580000  0.60080000  1.0 -0.0928257353
C  C142  1  0.18070000  0.07420000  0.60080000  1.0 -0.0928257353
C  C143  1  0.31930000  0.57420000  0.89920000  1.0 -0.0928257353
C  C144  1  0.68070000  0.42580000  0.89920000  1.0 -0.0928257353
O  O1  1  0.39615000  0.30070000  0.63145000  1.0 -0.5071005197
O  O2  1  0.60385000  0.69930000  0.63145000  1.0 -0.5071005197
O  O3  1  0.89615000  0.19930000  0.86855000  1.0 -0.5071005197
O  O4  1  0.10385000  0.80070000  0.86855000  1.0 -0.5071005197
O  O5  1  0.60385000  0.69930000  0.36855000  1.0 -0.5071005197
O  O6  1  0.39615000  0.30070000  0.36855000  1.0 -0.5071005197
O  O7  1  0.10385000  0.80070000  0.13145000  1.0 -0.5071005197
O  O8  1  0.89615000  0.19930000  0.13145000  1.0 -0.5071005197
O  O9  1  0.24104000  0.31459000  0.58838000  1.0 -0.5417460737
O  O10  1  0.75896000  0.68541000  0.58838000  1.0 -0.5417460737
O  O11  1  0.74104000  0.18541000  0.91162000  1.0 -0.5417460737
O  O12  1  0.25896000  0.81459000  0.91162000  1.0 -0.5417460737
O  O13  1  0.75896000  0.68541000  0.41162000  1.0 -0.5417460737
O  O14  1  0.24104000  0.31459000  0.41162000  1.0 -0.5417460737
O  O15  1  0.25896000  0.81459000  0.08838000  1.0 -0.5417460737
O  O16  1  0.74104000  0.18541000  0.08838000  1.0 -0.5417460737
O  O17  1  0.07911000  0.06467000  0.91467000  1.0 -0.5027054544
O  O18  1  0.92089000  0.93533000  0.91467000  1.0 -0.5027054544
O  O19  1  0.57911000  0.43533000  0.58533000  1.0 -0.5027054544
O  O20  1  0.42089000  0.56467000  0.58533000  1.0 -0.5027054544
O  O21  1  0.92089000  0.93533000  0.08533000  1.0 -0.5027054544
O  O22  1  0.07911000  0.06467000  0.08533000  1.0 -0.5027054544
O  O23  1  0.42089000  0.56467000  0.41467000  1.0 -0.5027054544
O  O24  1  0.57911000  0.43533000  0.41467000  1.0 -0.5027054544
O  O25  1  0.23170000  0.00627000  0.91685000  1.0 -0.5417460737
O  O26  1  0.76830000  0.99373000  0.91685000  1.0 -0.5417460737
O  O27  1  0.73170000  0.49373000  0.58315000  1.0 -0.5417460737
O  O28  1  0.26830000  0.50627000  0.58315000  1.0 -0.5417460737
O  O29  1  0.76830000  0.99373000  0.08315000  1.0 -0.5417460737
O  O30  1  0.23170000  0.00627000  0.08315000  1.0 -0.5417460737
O  O31  1  0.26830000  0.50627000  0.41685000  1.0 -0.5417460737
O  O32  1  0.73170000  0.49373000  0.41685000  1.0 -0.5417460737
O  O33  1  0.11010000  0.41470000  0.50000000  1.0 -0.5071005197
O  O34  1  0.88990000  0.58530000  0.50000000  1.0 -0.5027054544
O  O35  1  0.61010000  0.08530000  0.00000000  1.0 -0.5071005197
O  O36  1  0.38990000  0.91470000  0.00000000  1.0 -0.5071005197
O  O37  1  0.91230000  0.11292000  0.00000000  1.0 -0.6784287853
O  O38  1  0.08770000  0.88708000  0.00000000  1.0 -0.6784287853
O  O39  1  0.41230000  0.38708000  0.50000000  1.0 -0.6784287853
O  O40  1  0.58770000  0.61292000  0.50000000  1.0 -0.6784287853
