# DDEC6 charges by PACMAN v1.1 (https://github.com/mtap-research/PACMAN-charge/)
data_BUCSAU_ASR_pacman
_symmetry_space_group_name_H-M   'P 1'
_cell_length_a   13.50630000
_cell_length_b   15.35860000
_cell_length_c   19.73430000
_cell_angle_alpha   90.00000000
_cell_angle_beta   127.06100000
_cell_angle_gamma   90.00000000
_symmetry_Int_Tables_number   1
_chemical_formula_structural   Fe4Co3H50(C31O9)2
_chemical_formula_sum   'Fe8 Co6 H100 C124 O36'
_cell_volume   3266.70228185
_cell_formula_units_Z   2
loop_
 _symmetry_equiv_pos_site_id
 _symmetry_equiv_pos_as_xyz
  1  'x, y, z'
loop_
 _atom_site_type_symbol
 _atom_site_label
 _atom_site_symmetry_multiplicity
 _atom_site_fract_x
 _atom_site_fract_y
 _atom_site_fract_z
 _atom_site_occupancy
 _atom_site_charge
Fe  Fe1  1  0.96970000  0.65413000  0.25418000  1.0 0.2173551864
Fe  Fe2  1  0.03030000  0.15413000  0.24582000  1.0 0.2173551864
Fe  Fe3  1  0.03030000  0.34587000  0.74582000  1.0 0.2173551864
Fe  Fe4  1  0.96970000  0.84587000  0.75418000  1.0 0.2173551864
Fe  Fe5  1  0.51687000  0.68168000  0.77095000  1.0 0.1392300419
Fe  Fe6  1  0.48313000  0.18168000  0.72905000  1.0 0.1392300419
Fe  Fe7  1  0.48313000  0.31832000  0.22905000  1.0 0.1392300419
Fe  Fe8  1  0.51687000  0.81832000  0.27095000  1.0 0.1392300419
Co  Co1  1  0.50000000  0.50000000  0.00000000  1.0 1.0524899832
Co  Co2  1  0.50000000  0.00000000  0.50000000  1.0 1.0524899832
Co  Co3  1  0.25579000  0.90479000  0.49645000  1.0 1.0606526903
Co  Co4  1  0.74421000  0.40479000  0.00355000  1.0 1.0606526903
Co  Co5  1  0.74421000  0.09521000  0.50355000  1.0 1.0606526903
Co  Co6  1  0.25579000  0.59521000  0.99645000  1.0 1.0606526903
H  H1  1  0.57300000  0.61970000  0.66580000  1.0 0.1392300419
H  H2  1  0.42700000  0.11970000  0.83420000  1.0 0.1392300419
H  H3  1  0.42700000  0.38030000  0.33420000  1.0 0.1392300419
H  H4  1  0.57300000  0.88030000  0.16580000  1.0 0.1392300419
H  H5  1  0.61440000  0.51840000  0.76860000  1.0 0.1392300419
H  H6  1  0.38560000  0.01840000  0.73140000  1.0 0.1392300419
H  H7  1  0.38560000  0.48160000  0.23140000  1.0 0.1392300419
H  H8  1  0.61440000  0.98160000  0.26860000  1.0 0.1392300419
H  H9  1  0.65260000  0.37370000  0.08670000  1.0 0.3849976531
H  H10  1  0.34740000  0.87370000  0.41330000  1.0 0.3849976531
H  H11  1  0.34740000  0.62630000  0.91330000  1.0 0.3849976531
H  H12  1  0.65260000  0.12630000  0.58670000  1.0 0.3849976531
H  H13  1  0.55360000  0.34080000  0.99130000  1.0 0.3849976531
H  H14  1  0.44640000  0.84080000  0.50870000  1.0 0.3849976531
H  H15  1  0.44640000  0.65920000  0.00870000  1.0 0.3849976531
H  H16  1  0.55360000  0.15920000  0.49130000  1.0 0.3849976531
H  H17  1  0.31440000  0.60170000  0.74900000  1.0 0.1464663653
H  H18  1  0.68560000  0.10170000  0.75100000  1.0 0.1464663653
H  H19  1  0.68560000  0.39830000  0.25100000  1.0 0.1464663653
H  H20  1  0.31440000  0.89830000  0.24900000  1.0 0.1464663653
H  H21  1  0.26500000  0.69620000  0.63840000  1.0 0.1392300419
H  H22  1  0.73500000  0.19620000  0.86160000  1.0 0.1392300419
H  H23  1  0.73500000  0.30380000  0.36160000  1.0 0.1392300419
H  H24  1  0.26500000  0.80380000  0.13840000  1.0 0.1392300419
H  H25  1  0.72830000  0.72540000  0.14620000  1.0 0.1392300419
H  H26  1  0.27170000  0.22540000  0.35380000  1.0 0.1392300419
H  H27  1  0.27170000  0.27460000  0.85380000  1.0 0.1392300419
H  H28  1  0.72830000  0.77460000  0.64620000  1.0 0.1392300419
H  H29  1  0.88430000  0.81990000  0.25140000  1.0 0.1392300419
H  H30  1  0.11570000  0.31990000  0.24860000  1.0 0.1392300419
H  H31  1  0.11570000  0.18010000  0.74860000  1.0 0.1392300419
H  H32  1  0.88430000  0.68010000  0.75140000  1.0 0.1392300419
H  H33  1  0.12710000  0.71840000  0.21520000  1.0 0.1392300419
H  H34  1  0.87290000  0.21840000  0.28480000  1.0 0.1392300419
H  H35  1  0.87290000  0.28160000  0.78480000  1.0 0.1392300419
H  H36  1  0.12710000  0.78160000  0.71520000  1.0 0.1392300419
H  H37  1  0.97700000  0.61890000  0.11740000  1.0 0.1392300419
H  H38  1  0.02300000  0.11890000  0.38260000  1.0 0.1392300419
H  H39  1  0.02300000  0.38110000  0.88260000  1.0 0.1392300419
H  H40  1  0.97700000  0.88110000  0.61740000  1.0 0.1392300419
H  H41  1  0.88810000  0.64280000  0.34940000  1.0 0.1202467888
H  H42  1  0.11190000  0.14280000  0.15060000  1.0 0.1202467888
H  H43  1  0.11190000  0.35720000  0.65060000  1.0 0.1202467888
H  H44  1  0.88810000  0.85720000  0.84940000  1.0 0.1202467888
H  H45  1  0.11780000  0.67930000  0.42230000  1.0 0.1392300419
H  H46  1  0.88220000  0.17930000  0.07770000  1.0 0.1392300419
H  H47  1  0.88220000  0.32070000  0.57770000  1.0 0.1392300419
H  H48  1  0.11780000  0.82070000  0.92230000  1.0 0.1392300419
H  H49  1  0.19590000  0.58050000  0.36720000  1.0 0.1293371354
H  H50  1  0.80410000  0.08050000  0.13280000  1.0 0.1293371354
H  H51  1  0.80410000  0.41950000  0.63280000  1.0 0.1293371354
H  H52  1  0.19590000  0.91950000  0.86720000  1.0 0.1293371354
H  H53  1  0.02810000  0.48530000  0.25910000  1.0 0.1293371354
H  H54  1  0.97190000  0.98530000  0.24090000  1.0 0.1293371354
H  H55  1  0.97190000  0.51470000  0.74090000  1.0 0.1293371354
H  H56  1  0.02810000  0.01470000  0.75910000  1.0 0.1293371354
H  H57  1  0.84100000  0.51410000  0.24890000  1.0 0.1392300419
H  H58  1  0.15900000  0.01410000  0.25110000  1.0 0.1392300419
H  H59  1  0.15900000  0.48590000  0.75110000  1.0 0.1392300419
H  H60  1  0.84100000  0.98590000  0.74890000  1.0 0.1392300419
H  H61  1  0.75500000  0.71150000  0.81210000  1.0 0.1202467888
H  H62  1  0.24500000  0.21150000  0.68790000  1.0 0.1202467888
H  H63  1  0.24500000  0.28850000  0.18790000  1.0 0.1202467888
H  H64  1  0.75500000  0.78850000  0.31210000  1.0 0.1202467888
H  H65  1  0.59040000  0.82940000  0.73840000  1.0 0.1074290181
H  H66  1  0.40960000  0.32940000  0.76160000  1.0 0.1074290181
H  H67  1  0.40960000  0.17060000  0.26160000  1.0 0.1074290181
H  H68  1  0.59040000  0.67060000  0.23840000  1.0 0.1074290181
H  H69  1  0.47860000  0.83330000  0.80530000  1.0 0.0860297478
H  H70  1  0.52140000  0.33333333  0.69470000  1.0 0.0860297478
H  H71  1  0.52140000  0.16670000  0.19470000  1.0 0.0860297478
H  H72  1  0.47860000  0.66666667  0.30530000  1.0 0.0860297478
H  H73  1  0.57400000  0.71780000  0.92040000  1.0 0.1074290181
H  H74  1  0.42600000  0.21780000  0.57960000  1.0 0.1074290181
H  H75  1  0.42600000  0.28220000  0.07960000  1.0 0.1074290181
H  H76  1  0.57400000  0.78220000  0.42040000  1.0 0.1074290181
H  H77  1  0.74480000  0.64260000  0.92460000  1.0 0.1074290181
H  H78  1  0.25520000  0.14260000  0.57540000  1.0 0.1074290181
H  H79  1  0.25520000  0.35740000  0.07540000  1.0 0.1074290181
H  H80  1  0.74480000  0.85740000  0.42460000  1.0 0.1074290181
H  H81  1  0.64530000  0.82160000  0.78990000  1.0 0.1005389818
H  H82  1  0.35470000  0.32160000  0.71010000  1.0 0.1005389818
H  H83  1  0.35470000  0.17840000  0.21010000  1.0 0.1005389818
H  H84  1  0.64530000  0.67840000  0.28990000  1.0 0.1005389818
H  H85  1  0.42480000  0.85890000  0.73320000  1.0 0.1005389818
H  H86  1  0.57520000  0.35890000  0.76680000  1.0 0.1005389818
H  H87  1  0.57520000  0.14110000  0.26680000  1.0 0.1005389818
H  H88  1  0.42480000  0.64110000  0.23320000  1.0 0.1005389818
H  H89  1  0.37670000  0.77880000  0.82270000  1.0 0.1293371354
H  H90  1  0.62330000  0.27880000  0.67730000  1.0 0.1293371354
H  H91  1  0.62330000  0.22120000  0.17730000  1.0 0.1293371354
H  H92  1  0.37670000  0.72120000  0.32270000  1.0 0.1293371354
H  H93  1  0.56740000  0.69200000  0.93460000  1.0 0.1074290181
H  H94  1  0.43260000  0.19200000  0.56540000  1.0 0.1074290181
H  H95  1  0.43260000  0.30800000  0.06540000  1.0 0.1074290181
H  H96  1  0.56740000  0.80800000  0.43460000  1.0 0.1074290181
H  H97  1  0.73350000  0.71850000  0.91440000  1.0 0.1005389818
H  H98  1  0.26650000  0.21850000  0.58560000  1.0 0.1005389818
H  H99  1  0.26650000  0.28150000  0.08560000  1.0 0.1005389818
H  H100  1  0.73350000  0.78150000  0.41440000  1.0 0.1005389818
C  C1  1  0.41530000  0.66960000  0.64190000  1.0 -0.0212270506
C  C2  1  0.58470000  0.16960000  0.85810000  1.0 -0.0212270506
C  C3  1  0.58470000  0.33040000  0.35810000  1.0 -0.0212270506
C  C4  1  0.41530000  0.83040000  0.14190000  1.0 -0.0212270506
C  C5  1  0.51930000  0.61620000  0.68170000  1.0 -0.151048221
C  C6  1  0.48070000  0.11620000  0.81830000  1.0 -0.1592842404
C  C7  1  0.48070000  0.38380000  0.31830000  1.0 -0.151048221
C  C8  1  0.51930000  0.88380000  0.18170000  1.0 -0.151048221
C  C9  1  0.54620000  0.55710000  0.74510000  1.0 -0.1692916879
C  C10  1  0.45380000  0.05710000  0.75490000  1.0 -0.1692916879
C  C11  1  0.45380000  0.44290000  0.25490000  1.0 -0.1692916879
C  C12  1  0.54620000  0.94290000  0.24510000  1.0 -0.1692916879
C  C13  1  0.47510000  0.55450000  0.77380000  1.0 -0.0212270506
C  C14  1  0.52490000  0.05450000  0.72620000  1.0 -0.0212270506
C  C15  1  0.52490000  0.44550000  0.22620000  1.0 -0.0212270506
C  C16  1  0.47510000  0.94550000  0.27380000  1.0 -0.0212270506
C  C17  1  0.36760000  0.60530000  0.73270000  1.0 -0.1592842404
C  C18  1  0.63240000  0.10530000  0.76730000  1.0 -0.1592842404
C  C19  1  0.63240000  0.39470000  0.26730000  1.0 -0.1592842404
C  C20  1  0.36760000  0.89470000  0.23270000  1.0 -0.1592842404
C  C21  1  0.33850000  0.66220000  0.66650000  1.0 -0.139365027
C  C22  1  0.66150000  0.16220000  0.83350000  1.0 -0.139365027
C  C23  1  0.66150000  0.33780000  0.33350000  1.0 -0.139365027
C  C24  1  0.33850000  0.83780000  0.16650000  1.0 -0.139365027
C  C25  1  0.51970000  0.50330000  0.85360000  1.0 0.5645977429
C  C26  1  0.48030000  0.00330000  0.64640000  1.0 0.5645977429
C  C27  1  0.48030000  0.49670000  0.14640000  1.0 0.5645977429
C  C28  1  0.51970000  0.99670000  0.35360000  1.0 0.5645977429
C  C29  1  0.39550000  0.73980000  0.58090000  1.0 0.5816063083
C  C30  1  0.60450000  0.23980000  0.91910000  1.0 0.5816063083
C  C31  1  0.60450000  0.26020000  0.41910000  1.0 0.5816063083
C  C32  1  0.39550000  0.76020000  0.08090000  1.0 0.5816063083
C  C33  1  0.75090000  0.58510000  0.07310000  1.0 0.5816063083
C  C34  1  0.24910000  0.08510000  0.42690000  1.0 0.5816063083
C  C35  1  0.24910000  0.41490000  0.92690000  1.0 0.5816063083
C  C36  1  0.75090000  0.91490000  0.57310000  1.0 0.5816063083
C  C37  1  0.83930000  0.65880000  0.12560000  1.0 -0.0212270506
C  C38  1  0.16070000  0.15880000  0.37440000  1.0 -0.0260105056
C  C39  1  0.16070000  0.34120000  0.87440000  1.0 -0.0260105056
C  C40  1  0.83930000  0.84120000  0.62560000  1.0 -0.0260105056
C  C41  1  0.81040000  0.72150000  0.16270000  1.0 -0.139365027
C  C42  1  0.18960000  0.22150000  0.33730000  1.0 -0.139365027
C  C43  1  0.18960000  0.27850000  0.83730000  1.0 -0.139365027
C  C44  1  0.81040000  0.77850000  0.66270000  1.0 -0.139365027
C  C45  1  0.90350000  0.77910000  0.22470000  1.0 -0.131504649
C  C46  1  0.09650000  0.27910000  0.27530000  1.0 -0.131504649
C  C47  1  0.09650000  0.22090000  0.77530000  1.0 -0.131504649
C  C48  1  0.90350000  0.72090000  0.72470000  1.0 -0.131504649
C  C49  1  0.02390000  0.77630000  0.24720000  1.0 -0.0212270506
C  C50  1  0.97610000  0.27630000  0.25280000  1.0 -0.0212270506
C  C51  1  0.97610000  0.22370000  0.75280000  1.0 -0.0212270506
C  C52  1  0.02390000  0.72370000  0.74720000  1.0 -0.0212270506
C  C53  1  0.04800000  0.71780000  0.20390000  1.0 -0.139365027
C  C54  1  0.95200000  0.21780000  0.29610000  1.0 -0.139365027
C  C55  1  0.95200000  0.28220000  0.79610000  1.0 -0.139365027
C  C56  1  0.04800000  0.78220000  0.70390000  1.0 -0.139365027
C  C57  1  0.95810000  0.65900000  0.14480000  1.0 -0.139365027
C  C58  1  0.04190000  0.15900000  0.35520000  1.0 -0.139365027
C  C59  1  0.04190000  0.34100000  0.85520000  1.0 -0.139365027
C  C60  1  0.95810000  0.84100000  0.64480000  1.0 -0.139365027
C  C61  1  0.13020000  0.82830000  0.32080000  1.0 0.5888000748
C  C62  1  0.86980000  0.32830000  0.17920000  1.0 0.5888000748
C  C63  1  0.86980000  0.17170000  0.67920000  1.0 0.5888000748
C  C64  1  0.13020000  0.67170000  0.82080000  1.0 0.5888000748
C  C65  1  0.94310000  0.61560000  0.34100000  1.0 -0.1592842404
C  C66  1  0.05690000  0.11560000  0.15900000  1.0 -0.1592842404
C  C67  1  0.05690000  0.38440000  0.65900000  1.0 -0.151048221
C  C68  1  0.94310000  0.88440000  0.84100000  1.0 -0.151048221
C  C69  1  0.07080000  0.63530000  0.38090000  1.0 -0.139365027
C  C70  1  0.92920000  0.13530000  0.11910000  1.0 -0.139365027
C  C71  1  0.92920000  0.36470000  0.61910000  1.0 -0.139365027
C  C72  1  0.07080000  0.86470000  0.88090000  1.0 -0.139365027
C  C73  1  0.11340000  0.58110000  0.35010000  1.0 -0.139365027
C  C74  1  0.88660000  0.08110000  0.14990000  1.0 -0.139365027
C  C75  1  0.88660000  0.41890000  0.64990000  1.0 -0.139365027
C  C76  1  0.11340000  0.91890000  0.85010000  1.0 -0.139365027
C  C77  1  0.02110000  0.52770000  0.29100000  1.0 -0.131504649
C  C78  1  0.97890000  0.02770000  0.20900000  1.0 -0.131504649
C  C79  1  0.97890000  0.47230000  0.70900000  1.0 -0.131504649
C  C80  1  0.02110000  0.97230000  0.79100000  1.0 -0.131504649
C  C81  1  0.91770000  0.54420000  0.28450000  1.0 -0.139365027
C  C82  1  0.08230000  0.04420000  0.21550000  1.0 -0.139365027
C  C83  1  0.08230000  0.45580000  0.71550000  1.0 -0.139365027
C  C84  1  0.91770000  0.95580000  0.78450000  1.0 -0.139365027
C  C85  1  0.69930000  0.72710000  0.82440000  1.0 -0.0676325594
C  C86  1  0.30070000  0.22710000  0.67560000  1.0 -0.0676325594
C  C87  1  0.30070000  0.27290000  0.17560000  1.0 -0.0676325594
C  C88  1  0.69930000  0.77290000  0.32440000  1.0 -0.0676325594
C  C89  1  0.60720000  0.79310000  0.78320000  1.0 -0.0974186842
C  C90  1  0.39280000  0.29310000  0.71680000  1.0 -0.0974186842
C  C91  1  0.39280000  0.20690000  0.21680000  1.0 -0.0974186842
C  C92  1  0.60720000  0.70690000  0.28320000  1.0 -0.0974186842
C  C93  1  0.54470000  0.79530000  0.82070000  1.0 -0.0212270506
C  C94  1  0.45530000  0.29530000  0.67930000  1.0 -0.0212270506
C  C95  1  0.45530000  0.20470000  0.17930000  1.0 -0.0212270506
C  C96  1  0.54470000  0.70470000  0.32070000  1.0 -0.0212270506
C  C97  1  0.59810000  0.73060000  0.88510000  1.0 -0.0571755
C  C98  1  0.40190000  0.23060000  0.61490000  1.0 -0.0571755
C  C99  1  0.40190000  0.26940000  0.11490000  1.0 -0.0571755
C  C100  1  0.59810000  0.76940000  0.38510000  1.0 -0.0571755
C  C101  1  0.69360000  0.68850000  0.88740000  1.0 -0.151048221
C  C102  1  0.30640000  0.18850000  0.61260000  1.0 -0.151048221
C  C103  1  0.30640000  0.31150000  0.11260000  1.0 -0.151048221
C  C104  1  0.69360000  0.81150000  0.38740000  1.0 -0.151048221
C  C105  1  0.60320000  0.80060000  0.81150000  1.0 -0.0378480532
C  C106  1  0.39680000  0.30060000  0.68850000  1.0 -0.0378480532
C  C107  1  0.39680000  0.19940000  0.18850000  1.0 -0.0378480532
C  C108  1  0.60320000  0.69940000  0.31150000  1.0 -0.0378480532
C  C109  1  0.47980000  0.82150000  0.77980000  1.0 -0.0857153029
C  C110  1  0.52020000  0.32150000  0.72020000  1.0 -0.0857153029
C  C111  1  0.52020000  0.17850000  0.22020000  1.0 -0.0857153029
C  C112  1  0.47980000  0.67850000  0.27980000  1.0 -0.0857153029
C  C113  1  0.45270000  0.77670000  0.82980000  1.0 -0.0974186842
C  C114  1  0.54730000  0.27670000  0.67020000  1.0 -0.0974186842
C  C115  1  0.54730000  0.22330000  0.17020000  1.0 -0.0974186842
C  C116  1  0.45270000  0.72330000  0.32980000  1.0 -0.0974186842
C  C117  1  0.55950000  0.72810000  0.89250000  1.0 -0.0676325594
C  C118  1  0.44050000  0.22810000  0.60750000  1.0 -0.0676325594
C  C119  1  0.44050000  0.27190000  0.10750000  1.0 -0.0676325594
C  C120  1  0.55950000  0.77190000  0.39250000  1.0 -0.0676325594
C  C121  1  0.65250000  0.74290000  0.88120000  1.0 -0.0131819655
C  C122  1  0.34750000  0.24290000  0.61880000  1.0 -0.0131819655
C  C123  1  0.34750000  0.25710000  0.11880000  1.0 -0.0212270506
C  C124  1  0.65250000  0.75710000  0.38120000  1.0 -0.0131819655
O  O1  1  0.47920000  0.75300000  0.57350000  1.0 -0.5385333626
O  O2  1  0.52080000  0.25300000  0.92650000  1.0 -0.5385333626
O  O3  1  0.52080000  0.24700000  0.42650000  1.0 -0.5385333626
O  O4  1  0.47920000  0.74700000  0.07350000  1.0 -0.5385333626
O  O5  1  0.29364000  0.77966000  0.54404000  1.0 -0.5716206261
O  O6  1  0.70636000  0.27966000  0.95596000  1.0 -0.5716206261
O  O7  1  0.70636000  0.22034000  0.45596000  1.0 -0.5716206261
O  O8  1  0.29364000  0.72034000  0.04404000  1.0 -0.5716206261
O  O9  1  0.46099000  0.51710000  0.88274000  1.0 -0.5385333626
O  O10  1  0.53901000  0.01710000  0.61726000  1.0 -0.5349969395
O  O11  1  0.53901000  0.48290000  0.11726000  1.0 -0.5349969395
O  O12  1  0.46099000  0.98290000  0.38274000  1.0 -0.5349969395
O  O13  1  0.60900000  0.45304000  0.88123000  1.0 -0.5497186652
O  O14  1  0.39100000  0.95304000  0.61877000  1.0 -0.5583060034
O  O15  1  0.39100000  0.54696000  0.11877000  1.0 -0.5497186652
O  O16  1  0.60900000  0.04696000  0.38123000  1.0 -0.5497186652
O  O17  1  0.60913000  0.38972000  0.02636000  1.0 -0.797194434
O  O18  1  0.39087000  0.88972000  0.47364000  1.0 -0.797194434
O  O19  1  0.39087000  0.61028000  0.97364000  1.0 -0.797194434
O  O20  1  0.60913000  0.11028000  0.52636000  1.0 -0.797194434
O  O21  1  0.79029000  0.52954000  0.04899000  1.0 -0.5497186652
O  O22  1  0.20971000  0.02954000  0.45101000  1.0 -0.5497186652
O  O23  1  0.20971000  0.47046000  0.95101000  1.0 -0.5497186652
O  O24  1  0.79029000  0.97046000  0.54899000  1.0 -0.5497186652
O  O25  1  0.64808000  0.58745000  0.05868000  1.0 -0.5385333626
O  O26  1  0.35192000  0.08745000  0.44132000  1.0 -0.5385333626
O  O27  1  0.35192000  0.41255000  0.94132000  1.0 -0.5385333626
O  O28  1  0.64808000  0.91255000  0.55868000  1.0 -0.5385333626
O  O29  1  0.22370000  0.83680000  0.32220000  1.0 -0.5583060034
O  O30  1  0.77630000  0.33680000  0.17780000  1.0 -0.5583060034
O  O31  1  0.77630000  0.16320000  0.67780000  1.0 -0.5583060034
O  O32  1  0.22370000  0.66320000  0.82220000  1.0 -0.5583060034
O  O33  1  0.11563000  0.85776000  0.37303000  1.0 -0.5716206261
O  O34  1  0.88437000  0.35776000  0.12697000  1.0 -0.5716206261
O  O35  1  0.88437000  0.14224000  0.62697000  1.0 -0.5716206261
O  O36  1  0.11563000  0.64224000  0.87303000  1.0 -0.5716206261
