# DDEC6 charges by PACMAN v1.1 (https://github.com/mtap-research/PACMAN-charge/)
data_BUCSIC_ASR_pacman
_symmetry_space_group_name_H-M   'P 1'
_cell_length_a   13.59600000
_cell_length_b   14.67600000
_cell_length_c   17.16000000
_cell_angle_alpha   90.00000000
_cell_angle_beta   90.00000000
_cell_angle_gamma   90.00000000
_symmetry_Int_Tables_number   1
_chemical_formula_structural   Fe4Co3H60(C4O)18
_chemical_formula_sum   'Fe8 Co6 H120 C144 O36'
_cell_volume   3424.01881536
_cell_formula_units_Z   2
loop_
 _symmetry_equiv_pos_site_id
 _symmetry_equiv_pos_as_xyz
  1  'x, y, z'
loop_
 _atom_site_type_symbol
 _atom_site_label
 _atom_site_symmetry_multiplicity
 _atom_site_fract_x
 _atom_site_fract_y
 _atom_site_fract_z
 _atom_site_occupancy
 _atom_site_charge
Fe  Fe1  1  0.77588000  0.39254000  0.27972000  1.0 0.1766342752
Fe  Fe2  1  0.22412000  0.60746000  0.27972000  1.0 0.1766342752
Fe  Fe3  1  0.27588000  0.10746000  0.22028000  1.0 0.1766342752
Fe  Fe4  1  0.72412000  0.89254000  0.22028000  1.0 0.1766342752
Fe  Fe5  1  0.22412000  0.60746000  0.72028000  1.0 0.1766342752
Fe  Fe6  1  0.77588000  0.39254000  0.72028000  1.0 0.1766342752
Fe  Fe7  1  0.72412000  0.89254000  0.77972000  1.0 0.1766342752
Fe  Fe8  1  0.27588000  0.10746000  0.77972000  1.0 0.1766342752
Co  Co1  1  0.50000000  0.00000000  0.50000000  1.0 1.0744706624
Co  Co2  1  0.00000000  0.50000000  0.00000000  1.0 1.0744706624
Co  Co3  1  0.74086000  0.09136000  0.50000000  1.0 1.079328441
Co  Co4  1  0.25914000  0.90864000  0.50000000  1.0 1.079328441
Co  Co5  1  0.24086000  0.40864000  0.00000000  1.0 1.079328441
Co  Co6  1  0.75914000  0.59136000  0.00000000  1.0 1.079328441
H  H1  1  0.57120000  0.15320000  0.54650000  1.0 0.3941544526
H  H2  1  0.42880000  0.84680000  0.54650000  1.0 0.3941544526
H  H3  1  0.07120000  0.34680000  0.95350000  1.0 0.3941544526
H  H4  1  0.92880000  0.65320000  0.95350000  1.0 0.3941544526
H  H5  1  0.42880000  0.84680000  0.45350000  1.0 0.3941544526
H  H6  1  0.57120000  0.15320000  0.45350000  1.0 0.3941544526
H  H7  1  0.92880000  0.65320000  0.04650000  1.0 0.3941544526
H  H8  1  0.07120000  0.34680000  0.04650000  1.0 0.3941544526
H  H9  1  0.87820000  0.22910000  0.30110000  1.0 0.1384351672
H  H10  1  0.12180000  0.77090000  0.30110000  1.0 0.1384351672
H  H11  1  0.37820000  0.27090000  0.19890000  1.0 0.1384351672
H  H12  1  0.62180000  0.72910000  0.19890000  1.0 0.1384351672
H  H13  1  0.12180000  0.77090000  0.69890000  1.0 0.1384351672
H  H14  1  0.87820000  0.22910000  0.69890000  1.0 0.1384351672
H  H15  1  0.62180000  0.72910000  0.80110000  1.0 0.1384351672
H  H16  1  0.37820000  0.27090000  0.80110000  1.0 0.1384351672
H  H17  1  0.93490000  0.31850000  0.19610000  1.0 0.1521448725
H  H18  1  0.06510000  0.68150000  0.19610000  1.0 0.1521448725
H  H19  1  0.43490000  0.18150000  0.30390000  1.0 0.1521448725
H  H20  1  0.56510000  0.81850000  0.30390000  1.0 0.1521448725
H  H21  1  0.06510000  0.68150000  0.80390000  1.0 0.1521448725
H  H22  1  0.93490000  0.31850000  0.80390000  1.0 0.1521448725
H  H23  1  0.56510000  0.81850000  0.69610000  1.0 0.1521448725
H  H24  1  0.43490000  0.18150000  0.69610000  1.0 0.1521448725
H  H25  1  0.65300000  0.39060000  0.14840000  1.0 0.1299773904
H  H26  1  0.34700000  0.60940000  0.14840000  1.0 0.1299773904
H  H27  1  0.15300000  0.10940000  0.35160000  1.0 0.1299773904
H  H28  1  0.84700000  0.89060000  0.35160000  1.0 0.1299773904
H  H29  1  0.34700000  0.60940000  0.85160000  1.0 0.1299773904
H  H30  1  0.65300000  0.39060000  0.85160000  1.0 0.1299773904
H  H31  1  0.84700000  0.89060000  0.64840000  1.0 0.1299773904
H  H32  1  0.15300000  0.10940000  0.64840000  1.0 0.1299773904
H  H33  1  0.59770000  0.30340000  0.25340000  1.0 0.1384351672
H  H34  1  0.40230000  0.69660000  0.25340000  1.0 0.1384351672
H  H35  1  0.09770000  0.19660000  0.24660000  1.0 0.1384351672
H  H36  1  0.90230000  0.80340000  0.24660000  1.0 0.1384351672
H  H37  1  0.40230000  0.69660000  0.74660000  1.0 0.1384351672
H  H38  1  0.59770000  0.30340000  0.74660000  1.0 0.1384351672
H  H39  1  0.90230000  0.80340000  0.75340000  1.0 0.1384351672
H  H40  1  0.09770000  0.19660000  0.75340000  1.0 0.1384351672
H  H41  1  0.74490000  0.40250000  0.43500000  1.0 0.0627627008
H  H42  1  0.25510000  0.59750000  0.43500000  1.0 0.0627627008
H  H43  1  0.24490000  0.09750000  0.06500000  1.0 0.0627627008
H  H44  1  0.75510000  0.90250000  0.06500000  1.0 0.0627627008
H  H45  1  0.25510000  0.59750000  0.56500000  1.0 0.0627627008
H  H46  1  0.74490000  0.40250000  0.56500000  1.0 0.0627627008
H  H47  1  0.75510000  0.90250000  0.93500000  1.0 0.0627627008
H  H48  1  0.24490000  0.09750000  0.93500000  1.0 0.0627627008
H  H49  1  0.61900000  0.47920000  0.34790000  1.0 0.081841878
H  H50  1  0.38100000  0.52080000  0.34790000  1.0 0.081841878
H  H51  1  0.11900000  0.02080000  0.15210000  1.0 0.081841878
H  H52  1  0.88100000  0.97920000  0.15210000  1.0 0.081841878
H  H53  1  0.38100000  0.52080000  0.65210000  1.0 0.081841878
H  H54  1  0.61900000  0.47920000  0.65210000  1.0 0.081841878
H  H55  1  0.88100000  0.97920000  0.84790000  1.0 0.081841878
H  H56  1  0.11900000  0.02080000  0.84790000  1.0 0.081841878
H  H57  1  0.71090000  0.56530000  0.24240000  1.0 0.0870480764
H  H58  1  0.28910000  0.43470000  0.24240000  1.0 0.0870480764
H  H59  1  0.21090000  0.93470000  0.25760000  1.0 0.0870480764
H  H60  1  0.78910000  0.06530000  0.25760000  1.0 0.0870480764
H  H61  1  0.28910000  0.43470000  0.75760000  1.0 0.0870480764
H  H62  1  0.71090000  0.56530000  0.75760000  1.0 0.0870480764
H  H63  1  0.78910000  0.06530000  0.74240000  1.0 0.0870480764
H  H64  1  0.21090000  0.93470000  0.74240000  1.0 0.0870480764
H  H65  1  0.89370000  0.54180000  0.26430000  1.0 0.1299773904
H  H66  1  0.10630000  0.45820000  0.26430000  1.0 0.1299773904
H  H67  1  0.39370000  0.95820000  0.23570000  1.0 0.1299773904
H  H68  1  0.60630000  0.04180000  0.23570000  1.0 0.1299773904
H  H69  1  0.10630000  0.45820000  0.73570000  1.0 0.1299773904
H  H70  1  0.89370000  0.54180000  0.73570000  1.0 0.1299773904
H  H71  1  0.60630000  0.04180000  0.76430000  1.0 0.1299773904
H  H72  1  0.39370000  0.95820000  0.76430000  1.0 0.1299773904
H  H73  1  0.91470000  0.44120000  0.38340000  1.0 0.0870480764
H  H74  1  0.08530000  0.55880000  0.38340000  1.0 0.0870480764
H  H75  1  0.41470000  0.05880000  0.11660000  1.0 0.0870480764
H  H76  1  0.58530000  0.94120000  0.11660000  1.0 0.0870480764
H  H77  1  0.08530000  0.55880000  0.61660000  1.0 0.0870480764
H  H78  1  0.91470000  0.44120000  0.61660000  1.0 0.0870480764
H  H79  1  0.58530000  0.94120000  0.88340000  1.0 0.0870480764
H  H80  1  0.41470000  0.05880000  0.88340000  1.0 0.0870480764
H  H81  1  0.67040000  0.45980000  0.40190000  1.0 0.0707406493
H  H82  1  0.32960000  0.54020000  0.40190000  1.0 0.0707406493
H  H83  1  0.17040000  0.04020000  0.09810000  1.0 0.0707406493
H  H84  1  0.82960000  0.95980000  0.09810000  1.0 0.0707406493
H  H85  1  0.32960000  0.54020000  0.59810000  1.0 0.0707406493
H  H86  1  0.67040000  0.45980000  0.59810000  1.0 0.0707406493
H  H87  1  0.82960000  0.95980000  0.90190000  1.0 0.0707406493
H  H88  1  0.17040000  0.04020000  0.90190000  1.0 0.0707406493
H  H89  1  0.70220000  0.56380000  0.28660000  1.0 0.0974692412
H  H90  1  0.29780000  0.43620000  0.28660000  1.0 0.0974692412
H  H91  1  0.20220000  0.93620000  0.21340000  1.0 0.0974692412
H  H92  1  0.79780000  0.06380000  0.21340000  1.0 0.0974692412
H  H93  1  0.29780000  0.43620000  0.71340000  1.0 0.0974692412
H  H94  1  0.70220000  0.56380000  0.71340000  1.0 0.0974692412
H  H95  1  0.79780000  0.06380000  0.78660000  1.0 0.0974692412
H  H96  1  0.20220000  0.93620000  0.78660000  1.0 0.0974692412
H  H97  1  0.88260000  0.55090000  0.25070000  1.0 0.1299773904
H  H98  1  0.11740000  0.44910000  0.25070000  1.0 0.1299773904
H  H99  1  0.38260000  0.94910000  0.24930000  1.0 0.1299773904
H  H100  1  0.61740000  0.05090000  0.24930000  1.0 0.1299773904
H  H101  1  0.11740000  0.44910000  0.74930000  1.0 0.1299773904
H  H102  1  0.88260000  0.55090000  0.74930000  1.0 0.1299773904
H  H103  1  0.61740000  0.05090000  0.75070000  1.0 0.1299773904
H  H104  1  0.38260000  0.94910000  0.75070000  1.0 0.1299773904
H  H105  1  0.96240000  0.43880000  0.34380000  1.0 0.0707406493
H  H106  1  0.03760000  0.56120000  0.34380000  1.0 0.0707406493
H  H107  1  0.46240000  0.06120000  0.15620000  1.0 0.0707406493
H  H108  1  0.53760000  0.93880000  0.15620000  1.0 0.0707406493
H  H109  1  0.03760000  0.56120000  0.65620000  1.0 0.0707406493
H  H110  1  0.96240000  0.43880000  0.65620000  1.0 0.0707406493
H  H111  1  0.53760000  0.93880000  0.84380000  1.0 0.0707406493
H  H112  1  0.46240000  0.06120000  0.84380000  1.0 0.0707406493
H  H113  1  0.83120000  0.38250000  0.43730000  1.0 0.081841878
H  H114  1  0.16880000  0.61750000  0.43730000  1.0 0.081841878
H  H115  1  0.33120000  0.11750000  0.06270000  1.0 0.081841878
H  H116  1  0.66880000  0.88250000  0.06270000  1.0 0.081841878
H  H117  1  0.16880000  0.61750000  0.56270000  1.0 0.081841878
H  H118  1  0.83120000  0.38250000  0.56270000  1.0 0.081841878
H  H119  1  0.66880000  0.88250000  0.93730000  1.0 0.081841878
H  H120  1  0.33120000  0.11750000  0.93730000  1.0 0.081841878
C  C1  1  0.69680000  0.21040000  0.36210000  1.0 0.5460600265
C  C2  1  0.30320000  0.78960000  0.36210000  1.0 0.5460600265
C  C3  1  0.19680000  0.28960000  0.13790000  1.0 0.5460600265
C  C4  1  0.80320000  0.71040000  0.13790000  1.0 0.5460600265
C  C5  1  0.30320000  0.78960000  0.63790000  1.0 0.5460600265
C  C6  1  0.69680000  0.21040000  0.63790000  1.0 0.5460600265
C  C7  1  0.80320000  0.71040000  0.86210000  1.0 0.5460600265
C  C8  1  0.19680000  0.28960000  0.86210000  1.0 0.5460600265
C  C9  1  0.73340000  0.25870000  0.28870000  1.0 -0.0061469537
C  C10  1  0.26660000  0.74130000  0.28870000  1.0 -0.0061469537
C  C11  1  0.23340000  0.24130000  0.21130000  1.0 -0.0061469537
C  C12  1  0.76660000  0.75870000  0.21130000  1.0 -0.0061469537
C  C13  1  0.26660000  0.74130000  0.71130000  1.0 -0.0061469537
C  C14  1  0.73340000  0.25870000  0.71130000  1.0 -0.0061469537
C  C15  1  0.76660000  0.75870000  0.78870000  1.0 -0.0061469537
C  C16  1  0.23340000  0.24130000  0.78870000  1.0 -0.0061469537
C  C17  1  0.83260000  0.26290000  0.27080000  1.0 -0.169548343
C  C18  1  0.16740000  0.73710000  0.27080000  1.0 -0.169548343
C  C19  1  0.33260000  0.23710000  0.22920000  1.0 -0.169548343
C  C20  1  0.66740000  0.76290000  0.22920000  1.0 -0.169548343
C  C21  1  0.16740000  0.73710000  0.72920000  1.0 -0.169548343
C  C22  1  0.83260000  0.26290000  0.72920000  1.0 -0.169548343
C  C23  1  0.66740000  0.76290000  0.77080000  1.0 -0.169548343
C  C24  1  0.33260000  0.23710000  0.77080000  1.0 -0.169548343
C  C25  1  0.86690000  0.31630000  0.20850000  1.0 -0.1536890186
C  C26  1  0.13310000  0.68370000  0.20850000  1.0 -0.1536890186
C  C27  1  0.36690000  0.18370000  0.29150000  1.0 -0.1536890186
C  C28  1  0.63310000  0.81630000  0.29150000  1.0 -0.155544228
C  C29  1  0.13310000  0.68370000  0.79150000  1.0 -0.1536890186
C  C30  1  0.86690000  0.31630000  0.79150000  1.0 -0.1536890186
C  C31  1  0.63310000  0.81630000  0.70850000  1.0 -0.155544228
C  C32  1  0.36690000  0.18370000  0.70850000  1.0 -0.1536890186
C  C33  1  0.79690000  0.36710000  0.16430000  1.0 -0.0195536726
C  C34  1  0.20310000  0.63290000  0.16430000  1.0 -0.0195536726
C  C35  1  0.29690000  0.13290000  0.33570000  1.0 -0.0195536726
C  C36  1  0.70310000  0.86710000  0.33570000  1.0 -0.0195536726
C  C37  1  0.20310000  0.63290000  0.83570000  1.0 -0.0195536726
C  C38  1  0.79690000  0.36710000  0.83570000  1.0 -0.0195536726
C  C39  1  0.70310000  0.86710000  0.66430000  1.0 -0.0195536726
C  C40  1  0.29690000  0.13290000  0.66430000  1.0 -0.0195536726
C  C41  1  0.69930000  0.35950000  0.18020000  1.0 -0.125904333
C  C42  1  0.30070000  0.64050000  0.18020000  1.0 -0.125904333
C  C43  1  0.19930000  0.14050000  0.31980000  1.0 -0.125904333
C  C44  1  0.80070000  0.85950000  0.31980000  1.0 -0.125904333
C  C45  1  0.30070000  0.64050000  0.81980000  1.0 -0.125904333
C  C46  1  0.69930000  0.35950000  0.81980000  1.0 -0.125904333
C  C47  1  0.80070000  0.85950000  0.68020000  1.0 -0.125904333
C  C48  1  0.19930000  0.14050000  0.68020000  1.0 -0.125904333
C  C49  1  0.66610000  0.30680000  0.24230000  1.0 -0.169548343
C  C50  1  0.33390000  0.69320000  0.24230000  1.0 -0.169548343
C  C51  1  0.16610000  0.19320000  0.25770000  1.0 -0.169548343
C  C52  1  0.83390000  0.80680000  0.25770000  1.0 -0.169548343
C  C53  1  0.33390000  0.69320000  0.75770000  1.0 -0.169548343
C  C54  1  0.66610000  0.30680000  0.75770000  1.0 -0.169548343
C  C55  1  0.83390000  0.80680000  0.74230000  1.0 -0.169548343
C  C56  1  0.16610000  0.19320000  0.74230000  1.0 -0.169548343
C  C57  1  0.33320000  0.06300000  0.39510000  1.0 0.5908021264
C  C58  1  0.66680000  0.93700000  0.39510000  1.0 0.5908021264
C  C59  1  0.83320000  0.43700000  0.10490000  1.0 0.5908021264
C  C60  1  0.16680000  0.56300000  0.10490000  1.0 0.5908021264
C  C61  1  0.66680000  0.93700000  0.60490000  1.0 0.5908021264
C  C62  1  0.33320000  0.06300000  0.60490000  1.0 0.5908021264
C  C63  1  0.16680000  0.56300000  0.89510000  1.0 0.5908021264
C  C64  1  0.83320000  0.43700000  0.89510000  1.0 0.5908021264
C  C65  1  0.75890000  0.43930000  0.39080000  1.0 -0.0785876355
C  C66  1  0.24110000  0.56070000  0.39080000  1.0 -0.0785876355
C  C67  1  0.25890000  0.06070000  0.10920000  1.0 -0.0785876355
C  C68  1  0.74110000  0.93930000  0.10920000  1.0 -0.0785876355
C  C69  1  0.24110000  0.56070000  0.60920000  1.0 -0.0785876355
C  C70  1  0.75890000  0.43930000  0.60920000  1.0 -0.0785876355
C  C71  1  0.74110000  0.93930000  0.89080000  1.0 -0.0785876355
C  C72  1  0.25890000  0.06070000  0.89080000  1.0 -0.0785876355
C  C73  1  0.68840000  0.48220000  0.34200000  1.0 -0.1065684698
C  C74  1  0.31160000  0.51780000  0.34200000  1.0 -0.1065684698
C  C75  1  0.18840000  0.01780000  0.15800000  1.0 -0.1065684698
C  C76  1  0.81160000  0.98220000  0.15800000  1.0 -0.1065684698
C  C77  1  0.31160000  0.51780000  0.65800000  1.0 -0.1065684698
C  C78  1  0.68840000  0.48220000  0.65800000  1.0 -0.1065684698
C  C79  1  0.81160000  0.98220000  0.84200000  1.0 -0.1065684698
C  C80  1  0.18840000  0.01780000  0.84200000  1.0 -0.1065684698
C  C81  1  0.73990000  0.53040000  0.28300000  1.0 -0.0548510655
C  C82  1  0.26010000  0.46960000  0.28300000  1.0 -0.0576457293
C  C83  1  0.23990000  0.96960000  0.21700000  1.0 -0.0576457293
C  C84  1  0.76010000  0.03040000  0.21700000  1.0 -0.0576457293
C  C85  1  0.26010000  0.46960000  0.71700000  1.0 -0.0576457293
C  C86  1  0.73990000  0.53040000  0.71700000  1.0 -0.0548510655
C  C87  1  0.76010000  0.03040000  0.78300000  1.0 -0.0548510655
C  C88  1  0.23990000  0.96960000  0.78300000  1.0 -0.0576457293
C  C89  1  0.84220000  0.51720000  0.29530000  1.0 -0.1877116385
C  C90  1  0.15780000  0.48280000  0.29530000  1.0 -0.1877116385
C  C91  1  0.34220000  0.98280000  0.20470000  1.0 -0.1877116385
C  C92  1  0.65780000  0.01720000  0.20470000  1.0 -0.1877116385
C  C93  1  0.15780000  0.48280000  0.70470000  1.0 -0.1877116385
C  C94  1  0.84220000  0.51720000  0.70470000  1.0 -0.1877116385
C  C95  1  0.65780000  0.01720000  0.79530000  1.0 -0.1877116385
C  C96  1  0.34220000  0.98280000  0.79530000  1.0 -0.1877116385
C  C97  1  0.85390000  0.46090000  0.36190000  1.0 0.0258400132
C  C98  1  0.14610000  0.53910000  0.36190000  1.0 0.0258400132
C  C99  1  0.35390000  0.03910000  0.13810000  1.0 0.0258400132
C  C100  1  0.64610000  0.96090000  0.13810000  1.0 0.0258400132
C  C101  1  0.14610000  0.53910000  0.63810000  1.0 0.0258400132
C  C102  1  0.85390000  0.46090000  0.63810000  1.0 0.0258400132
C  C103  1  0.64610000  0.96090000  0.86190000  1.0 0.0258400132
C  C104  1  0.35390000  0.03910000  0.86190000  1.0 0.0258400132
C  C105  1  0.73170000  0.46830000  0.37650000  1.0 -0.0406710236
C  C106  1  0.26830000  0.53170000  0.37650000  1.0 -0.0406710236
C  C107  1  0.23170000  0.03170000  0.12350000  1.0 -0.0406710236
C  C108  1  0.76830000  0.96830000  0.12350000  1.0 -0.0406710236
C  C109  1  0.26830000  0.53170000  0.62350000  1.0 -0.0406710236
C  C110  1  0.73170000  0.46830000  0.62350000  1.0 -0.0406710236
C  C111  1  0.76830000  0.96830000  0.87650000  1.0 -0.0406710236
C  C112  1  0.23170000  0.03170000  0.87650000  1.0 -0.0406710236
C  C113  1  0.74950000  0.52660000  0.31190000  1.0 -0.0195536726
C  C114  1  0.25050000  0.47340000  0.31190000  1.0 -0.0195536726
C  C115  1  0.24950000  0.97340000  0.18810000  1.0 -0.0195536726
C  C116  1  0.75050000  0.02660000  0.18810000  1.0 -0.0195536726
C  C117  1  0.25050000  0.47340000  0.68810000  1.0 -0.0195536726
C  C118  1  0.74950000  0.52660000  0.68810000  1.0 -0.0195536726
C  C119  1  0.75050000  0.02660000  0.81190000  1.0 -0.0195536726
C  C120  1  0.24950000  0.97340000  0.81190000  1.0 -0.0195536726
C  C121  1  0.85050000  0.51930000  0.29180000  1.0 -0.155544228
C  C122  1  0.14950000  0.48070000  0.29180000  1.0 -0.155544228
C  C123  1  0.35050000  0.98070000  0.20820000  1.0 -0.155544228
C  C124  1  0.64950000  0.01930000  0.20820000  1.0 -0.155544228
C  C125  1  0.14950000  0.48070000  0.70820000  1.0 -0.155544228
C  C126  1  0.85050000  0.51930000  0.70820000  1.0 -0.155544228
C  C127  1  0.64950000  0.01930000  0.79180000  1.0 -0.155544228
C  C128  1  0.35050000  0.98070000  0.79180000  1.0 -0.155544228
C  C129  1  0.89520000  0.45660000  0.34390000  1.0 -0.0576457293
C  C130  1  0.10480000  0.54340000  0.34390000  1.0 -0.0576457293
C  C131  1  0.39520000  0.04340000  0.15610000  1.0 -0.0576457293
C  C132  1  0.60480000  0.95660000  0.15610000  1.0 -0.0576457293
C  C133  1  0.10480000  0.54340000  0.65610000  1.0 -0.0576457293
C  C134  1  0.89520000  0.45660000  0.65610000  1.0 -0.0576457293
C  C135  1  0.60480000  0.95660000  0.84390000  1.0 -0.0576457293
C  C136  1  0.39520000  0.04340000  0.84390000  1.0 -0.0576457293
C  C137  1  0.82170000  0.42500000  0.39630000  1.0 -0.0977818632
C  C138  1  0.17830000  0.57500000  0.39630000  1.0 -0.0977818632
C  C139  1  0.32170000  0.07500000  0.10370000  1.0 -0.0977818632
C  C140  1  0.67830000  0.92500000  0.10370000  1.0 -0.0977818632
C  C141  1  0.17830000  0.57500000  0.60370000  1.0 -0.0977818632
C  C142  1  0.82170000  0.42500000  0.60370000  1.0 -0.0977818632
C  C143  1  0.67830000  0.92500000  0.89630000  1.0 -0.0977818632
C  C144  1  0.32170000  0.07500000  0.89630000  1.0 -0.0977818632
O  O1  1  0.58770000  0.11640000  0.50000000  1.0 -0.8089145786
O  O2  1  0.41230000  0.88360000  0.50000000  1.0 -0.8089145786
O  O3  1  0.08770000  0.38360000  0.00000000  1.0 -0.8089145786
O  O4  1  0.91230000  0.61640000  0.00000000  1.0 -0.8089145786
O  O5  1  0.76030000  0.18550000  0.41030000  1.0 -0.5566456049
O  O6  1  0.23970000  0.81450000  0.41030000  1.0 -0.5566456049
O  O7  1  0.26030000  0.31450000  0.08970000  1.0 -0.5566456049
O  O8  1  0.73970000  0.68550000  0.08970000  1.0 -0.5566456049
O  O9  1  0.23970000  0.81450000  0.58970000  1.0 -0.5566456049
O  O10  1  0.76030000  0.18550000  0.58970000  1.0 -0.5566456049
O  O11  1  0.73970000  0.68550000  0.91030000  1.0 -0.5566456049
O  O12  1  0.26030000  0.31450000  0.91030000  1.0 -0.5566456049
O  O13  1  0.60580000  0.20090000  0.36780000  1.0 -0.5261748798
O  O14  1  0.39420000  0.79910000  0.36780000  1.0 -0.5261748798
O  O15  1  0.10580000  0.29910000  0.13220000  1.0 -0.5261748798
O  O16  1  0.89420000  0.70090000  0.13220000  1.0 -0.5261748798
O  O17  1  0.39420000  0.79910000  0.63220000  1.0 -0.5261748798
O  O18  1  0.60580000  0.20090000  0.63220000  1.0 -0.5261748798
O  O19  1  0.89420000  0.70090000  0.86780000  1.0 -0.5261748798
O  O20  1  0.10580000  0.29910000  0.86780000  1.0 -0.5261748798
O  O21  1  0.41970000  0.06540000  0.41330000  1.0 -0.5107734716
O  O22  1  0.58030000  0.93460000  0.41330000  1.0 -0.5107734716
O  O23  1  0.91970000  0.43460000  0.08670000  1.0 -0.5107734716
O  O24  1  0.08030000  0.56540000  0.08670000  1.0 -0.5107734716
O  O25  1  0.58030000  0.93460000  0.58670000  1.0 -0.5107734716
O  O26  1  0.41970000  0.06540000  0.58670000  1.0 -0.5107734716
O  O27  1  0.08030000  0.56540000  0.91330000  1.0 -0.5107734716
O  O28  1  0.91970000  0.43460000  0.91330000  1.0 -0.5107734716
O  O29  1  0.73150000  0.99260000  0.41570000  1.0 -0.5566456049
O  O30  1  0.26850000  0.00740000  0.41570000  1.0 -0.5566456049
O  O31  1  0.23150000  0.50740000  0.08430000  1.0 -0.5566456049
O  O32  1  0.76850000  0.49260000  0.08430000  1.0 -0.5566456049
O  O33  1  0.26850000  0.00740000  0.58430000  1.0 -0.5566456049
O  O34  1  0.73150000  0.99260000  0.58430000  1.0 -0.5566456049
O  O35  1  0.76850000  0.49260000  0.91570000  1.0 -0.5566456049
O  O36  1  0.23150000  0.50740000  0.91570000  1.0 -0.5566456049
