# DDEC6 charges by PACMAN v1.1 (https://github.com/mtap-research/PACMAN-charge/)
data_BUDDIO_FSR_pacman
_symmetry_space_group_name_H-M   'P 1'
_cell_length_a   3.67690000
_cell_length_b   8.20420000
_cell_length_c   26.29200000
_cell_angle_alpha   90.00000000
_cell_angle_beta   92.92400000
_cell_angle_gamma   90.00000000
_symmetry_Int_Tables_number   1
_chemical_formula_structural   KH5C6NO3
_chemical_formula_sum   'K4 H20 C24 N4 O12'
_cell_volume   792.09248861
_cell_formula_units_Z   4
loop_
 _symmetry_equiv_pos_site_id
 _symmetry_equiv_pos_as_xyz
  1  'x, y, z'
loop_
 _atom_site_type_symbol
 _atom_site_label
 _atom_site_symmetry_multiplicity
 _atom_site_fract_x
 _atom_site_fract_y
 _atom_site_fract_z
 _atom_site_occupancy
 _atom_site_charge
K  K1  1  0.93767000  0.27204000  0.77711000  1.0 0.862867228
K  K2  1  0.06233000  0.77204000  0.72289000  1.0 0.862867228
K  K3  1  0.06233000  0.72796000  0.22289000  1.0 0.862867228
K  K4  1  0.93767000  0.22796000  0.27711000  1.0 0.862867228
H  H1  1  0.50100000  0.54600000  0.82520000  1.0 0.3241439827
H  H2  1  0.49900000  0.04600000  0.67480000  1.0 0.3241439827
H  H3  1  0.49900000  0.45400000  0.17480000  1.0 0.3241439827
H  H4  1  0.50100000  0.95400000  0.32520000  1.0 0.3241439827
H  H5  1  0.47200000  0.46100000  0.86800000  1.0 0.2812591412
H  H6  1  0.52800000  0.96100000  0.63200000  1.0 0.2812591412
H  H7  1  0.52800000  0.53900000  0.13200000  1.0 0.2812591412
H  H8  1  0.47200000  0.03900000  0.36800000  1.0 0.2812591412
H  H9  1  0.46480000  0.66250000  0.62080000  1.0 0.0944751048
H  H10  1  0.53520000  0.16250000  0.87920000  1.0 0.0944751048
H  H11  1  0.53520000  0.33750000  0.37920000  1.0 0.0944751048
H  H12  1  0.46480000  0.83750000  0.12080000  1.0 0.0944751048
H  H13  1  0.08620000  0.20320000  0.61370000  1.0 0.1165434786
H  H14  1  0.91380000  0.70320000  0.88630000  1.0 0.1165434786
H  H15  1  0.91380000  0.79680000  0.38630000  1.0 0.1165434786
H  H16  1  0.08620000  0.29680000  0.11370000  1.0 0.1165434786
H  H17  1  0.88940000  0.24900000  0.52930000  1.0 0.1261756488
H  H18  1  0.11060000  0.74900000  0.97070000  1.0 0.1261756488
H  H19  1  0.11060000  0.75100000  0.47070000  1.0 0.1261756488
H  H20  1  0.88940000  0.25100000  0.02930000  1.0 0.1261756488
C  C1  1  0.06500000  0.48320000  0.52690000  1.0 0.1683864513
C  C2  1  0.93500000  0.98320000  0.97310000  1.0 0.1683864513
C  C3  1  0.93500000  0.51680000  0.47310000  1.0 0.1683864513
C  C4  1  0.06500000  0.01680000  0.02690000  1.0 0.1683864513
C  C5  1  0.34730000  0.57660000  0.60212000  1.0 0.0435105407
C  C6  1  0.65270000  0.07660000  0.89788000  1.0 0.0435105407
C  C7  1  0.65270000  0.42340000  0.39788000  1.0 0.0435105407
C  C8  1  0.34730000  0.92340000  0.10212000  1.0 0.0435105407
C  C9  1  0.30190000  0.42960000  0.62636000  1.0 -0.0694642675
C  C10  1  0.69810000  0.92960000  0.87364000  1.0 -0.0694642675
C  C11  1  0.69810000  0.57040000  0.37364000  1.0 -0.0694642675
C  C12  1  0.30190000  0.07040000  0.12636000  1.0 -0.0645328021
C  C13  1  0.12560000  0.30620000  0.59838000  1.0 -0.0694642675
C  C14  1  0.87440000  0.80620000  0.90162000  1.0 -0.0694642675
C  C15  1  0.87440000  0.69380000  0.40162000  1.0 -0.0694642675
C  C16  1  0.12560000  0.19380000  0.09838000  1.0 -0.0694642675
C  C17  1  0.00840000  0.33310000  0.54857000  1.0 -0.1482674262
C  C18  1  0.99160000  0.83310000  0.95143000  1.0 -0.1482674262
C  C19  1  0.99160000  0.66690000  0.45143000  1.0 -0.1482674262
C  C20  1  0.00840000  0.16690000  0.04857000  1.0 -0.1482674262
C  C21  1  0.44180000  0.40400000  0.68102000  1.0 0.5753353306
C  C22  1  0.55820000  0.90400000  0.81898000  1.0 0.5753353306
C  C23  1  0.55820000  0.59600000  0.31898000  1.0 0.5753353306
C  C24  1  0.44180000  0.09600000  0.18102000  1.0 0.5753353306
N  N1  1  0.23410000  0.60530000  0.55333000  1.0 -0.2711214728
N  N2  1  0.76590000  0.10530000  0.94667000  1.0 -0.2711214728
N  N3  1  0.76590000  0.39470000  0.44667000  1.0 -0.2711214728
N  N4  1  0.23410000  0.89470000  0.05333000  1.0 -0.2711214728
O  O1  1  0.40910000  0.26320000  0.69934000  1.0 -0.6233237169
O  O2  1  0.59090000  0.76320000  0.80066000  1.0 -0.6233237169
O  O3  1  0.59090000  0.73680000  0.30066000  1.0 -0.6233237169
O  O4  1  0.40910000  0.23680000  0.19934000  1.0 -0.6233237169
O  O5  1  0.57840000  0.52380000  0.70422000  1.0 -0.6556800387
O  O6  1  0.42160000  0.02380000  0.79578000  1.0 -0.6556800387
O  O7  1  0.42160000  0.47620000  0.29578000  1.0 -0.6556800387
O  O8  1  0.57840000  0.97620000  0.20422000  1.0 -0.6556800387
O  O9  1  0.45070000  0.45340000  0.83661000  1.0 -0.7566085837
O  O10  1  0.54930000  0.95340000  0.66339000  1.0 -0.7566085837
O  O11  1  0.54930000  0.54660000  0.16339000  1.0 -0.7566085837
O  O12  1  0.45070000  0.04660000  0.33661000  1.0 -0.7566085837
