# DDEC6 charges by PACMAN v1.1 (https://github.com/mtap-research/PACMAN-charge/)
data_BUDWOP_FSR_pacman
_symmetry_space_group_name_H-M   'P 1'
_cell_length_a   12.75500000
_cell_length_b   14.28400000
_cell_length_c   23.36610000
_cell_angle_alpha   90.00000000
_cell_angle_beta   122.43600000
_cell_angle_gamma   90.00000000
_symmetry_Int_Tables_number   1
_chemical_formula_structural   CoH22C30S(NO2)4
_chemical_formula_sum   'Co4 H88 C120 S4 N16 O32'
_cell_volume   3592.97666595
_cell_formula_units_Z   4
loop_
 _symmetry_equiv_pos_site_id
 _symmetry_equiv_pos_as_xyz
  1  'x, y, z'
loop_
 _atom_site_type_symbol
 _atom_site_label
 _atom_site_symmetry_multiplicity
 _atom_site_fract_x
 _atom_site_fract_y
 _atom_site_fract_z
 _atom_site_occupancy
 _atom_site_charge
Co  Co1  1  0.13294000  0.61949000  0.64126000  1.0 0.9485001463
Co  Co2  1  0.86706000  0.11949000  0.85874000  1.0 0.9485001463
Co  Co3  1  0.86706000  0.38051000  0.35874000  1.0 0.9485001463
Co  Co4  1  0.13294000  0.88051000  0.14126000  1.0 0.9485001463
H  H1  1  0.35450000  0.80410000  0.02350000  1.0 0.2746021498
H  H2  1  0.41290000  0.86610000  0.57230000  1.0 0.1282151265
H  H3  1  0.62470000  0.87450000  0.32810000  1.0 0.2746021498
H  H4  1  0.58250000  0.96720000  0.65070000  1.0 0.1409897555
H  H5  1  0.11880000  0.10860000  0.87080000  1.0 0.1117079213
H  H6  1  0.92520000  0.91390000  0.88600000  1.0 0.1048124183
H  H7  1  0.07500000  0.80610000  0.91200000  1.0 0.1409897555
H  H8  1  0.27410000  0.00580000  0.89620000  1.0 0.1409897555
H  H9  1  0.25860000  0.76050000  0.91140000  1.0 0.1204032382
H  H10  1  0.33740000  0.83770000  0.90330000  1.0 0.1204032382
H  H11  1  0.07420000  0.82910000  0.62590000  1.0 0.1117079213
H  H12  1  0.90610000  0.62800000  0.49550000  1.0 0.1117079213
H  H13  1  0.94590000  0.93770000  0.54760000  1.0 0.1461779896
H  H14  1  0.77470000  0.73090000  0.41460000  1.0 0.1461779896
H  H15  1  0.69340000  0.93310000  0.42920000  1.0 0.1282151265
H  H16  1  0.80480000  0.97660000  0.42790000  1.0 0.1204032382
H  H17  1  0.55650000  0.95860000  0.22550000  1.0 0.1204032382
H  H18  1  0.44990000  0.94540000  0.10850000  1.0 0.1409897555
H  H19  1  0.88990000  0.75770000  0.30430000  1.0 0.1204032382
H  H20  1  0.95770000  0.65890000  0.25460000  1.0 0.1204032382
H  H21  1  0.85070000  0.64530000  0.13820000  1.0 0.1117079213
H  H22  1  0.67640000  0.73180000  0.07050000  1.0 0.1204032382
H  H23  1  0.64550000  0.30410000  0.47650000  1.0 0.2746021498
H  H24  1  0.58710000  0.36610000  0.92770000  1.0 0.1282151265
H  H25  1  0.37530000  0.37450000  0.17190000  1.0 0.2746021498
H  H26  1  0.41750000  0.46720000  0.84930000  1.0 0.1409897555
H  H27  1  0.88120000  0.60860000  0.62920000  1.0 0.1117079213
H  H28  1  0.07480000  0.41390000  0.61400000  1.0 0.1048124183
H  H29  1  0.92500000  0.30610000  0.58800000  1.0 0.1409897555
H  H30  1  0.72590000  0.50580000  0.60380000  1.0 0.1409897555
H  H31  1  0.74140000  0.26050000  0.58860000  1.0 0.1204032382
H  H32  1  0.66260000  0.33770000  0.59670000  1.0 0.1204032382
H  H33  1  0.92580000  0.32910000  0.87410000  1.0 0.1117079213
H  H34  1  0.09390000  0.12800000  0.00450000  1.0 0.1117079213
H  H35  1  0.05410000  0.43770000  0.95240000  1.0 0.1461779896
H  H36  1  0.22530000  0.23090000  0.08540000  1.0 0.1461779896
H  H37  1  0.30660000  0.43310000  0.07080000  1.0 0.1282151265
H  H38  1  0.19520000  0.47660000  0.07210000  1.0 0.1204032382
H  H39  1  0.44350000  0.45860000  0.27450000  1.0 0.1204032382
H  H40  1  0.55010000  0.44540000  0.39150000  1.0 0.1409897555
H  H41  1  0.11010000  0.25770000  0.19570000  1.0 0.1204032382
H  H42  1  0.04230000  0.15890000  0.24540000  1.0 0.1204032382
H  H43  1  0.14930000  0.14530000  0.36180000  1.0 0.1117079213
H  H44  1  0.32360000  0.23180000  0.42950000  1.0 0.1204032382
H  H45  1  0.64550000  0.19590000  0.97650000  1.0 0.2746021498
H  H46  1  0.58710000  0.13390000  0.42770000  1.0 0.1282151265
H  H47  1  0.37530000  0.12550000  0.67190000  1.0 0.2746021498
H  H48  1  0.41750000  0.03280000  0.34930000  1.0 0.1409897555
H  H49  1  0.88120000  0.89140000  0.12920000  1.0 0.1117079213
H  H50  1  0.07480000  0.08610000  0.11400000  1.0 0.1048124183
H  H51  1  0.92500000  0.19390000  0.08800000  1.0 0.1409897555
H  H52  1  0.72590000  0.99420000  0.10380000  1.0 0.1409897555
H  H53  1  0.74140000  0.23950000  0.08860000  1.0 0.1204032382
H  H54  1  0.66260000  0.16230000  0.09670000  1.0 0.1204032382
H  H55  1  0.92580000  0.17090000  0.37410000  1.0 0.1117079213
H  H56  1  0.09390000  0.37200000  0.50450000  1.0 0.1117079213
H  H57  1  0.05410000  0.06230000  0.45240000  1.0 0.1461779896
H  H58  1  0.22530000  0.26910000  0.58540000  1.0 0.1461779896
H  H59  1  0.30660000  0.06690000  0.57080000  1.0 0.1282151265
H  H60  1  0.19520000  0.02340000  0.57210000  1.0 0.1204032382
H  H61  1  0.44350000  0.04140000  0.77450000  1.0 0.1204032382
H  H62  1  0.55010000  0.05460000  0.89150000  1.0 0.1409897555
H  H63  1  0.11010000  0.24230000  0.69570000  1.0 0.1204032382
H  H64  1  0.04230000  0.34110000  0.74540000  1.0 0.1204032382
H  H65  1  0.14930000  0.35470000  0.86180000  1.0 0.1117079213
H  H66  1  0.32360000  0.26820000  0.92950000  1.0 0.1204032382
H  H67  1  0.35450000  0.69590000  0.52350000  1.0 0.2746021498
H  H68  1  0.41290000  0.63390000  0.07230000  1.0 0.1282151265
H  H69  1  0.62470000  0.62550000  0.82810000  1.0 0.2746021498
H  H70  1  0.58250000  0.53280000  0.15070000  1.0 0.1409897555
H  H71  1  0.11880000  0.39140000  0.37080000  1.0 0.1117079213
H  H72  1  0.92520000  0.58610000  0.38600000  1.0 0.1048124183
H  H73  1  0.07500000  0.69390000  0.41200000  1.0 0.1409897555
H  H74  1  0.27410000  0.49420000  0.39620000  1.0 0.1409897555
H  H75  1  0.25860000  0.73950000  0.41140000  1.0 0.1204032382
H  H76  1  0.33740000  0.66230000  0.40330000  1.0 0.1204032382
H  H77  1  0.07420000  0.67090000  0.12590000  1.0 0.1117079213
H  H78  1  0.90610000  0.87200000  0.99550000  1.0 0.1117079213
H  H79  1  0.94590000  0.56230000  0.04760000  1.0 0.1461779896
H  H80  1  0.77470000  0.76910000  0.91460000  1.0 0.1461779896
H  H81  1  0.69340000  0.56690000  0.92920000  1.0 0.1282151265
H  H82  1  0.80480000  0.52340000  0.92790000  1.0 0.1204032382
H  H83  1  0.55650000  0.54140000  0.72550000  1.0 0.1204032382
H  H84  1  0.44990000  0.55460000  0.60850000  1.0 0.1409897555
H  H85  1  0.88990000  0.74230000  0.80430000  1.0 0.1204032382
H  H86  1  0.95770000  0.84110000  0.75460000  1.0 0.1204032382
H  H87  1  0.85070000  0.85470000  0.63820000  1.0 0.1117079213
H  H88  1  0.67640000  0.76820000  0.57050000  1.0 0.1204032382
C  C1  1  0.30170000  0.74420000  0.62140000  1.0 0.5423615772
C  C2  1  0.40250000  0.81370000  0.64970000  1.0 -0.122694277
C  C3  1  0.44530000  0.86770000  0.61870000  1.0 -0.1380441588
C  C4  1  0.54310000  0.92560000  0.66380000  1.0 -0.1262357932
C  C5  1  0.57460000  0.91520000  0.72840000  1.0 -0.1016817517
C  C6  1  0.67090000  0.96490000  0.79140000  1.0 0.5423615772
C  C7  1  0.10960000  0.04660000  0.87940000  1.0 0.0902270239
C  C8  1  0.99710000  0.93290000  0.88830000  1.0 0.0708261795
C  C9  1  0.08630000  0.86770000  0.90360000  1.0 -0.196817885
C  C10  1  0.20330000  0.98500000  0.89440000  1.0 -0.1918230455
C  C11  1  0.19240000  0.89290000  0.90660000  1.0 0.1282151265
C  C12  1  0.29430000  0.82250000  0.92590000  1.0 -0.1016817517
C  C13  1  0.49810000  0.85080000  0.02970000  1.0 0.4468374561
C  C14  1  0.01300000  0.80890000  0.58270000  1.0 0.0902270239
C  C15  1  0.91440000  0.69140000  0.50630000  1.0 0.0708261795
C  C16  1  0.93620000  0.87470000  0.53590000  1.0 -0.2102893133
C  C17  1  0.83520000  0.75270000  0.45740000  1.0 -0.1840243142
C  C18  1  0.84490000  0.84680000  0.47150000  1.0 0.1409897555
C  C19  1  0.75840000  0.91930000  0.42070000  1.0 -0.109113897
C  C20  1  0.76560000  0.88930000  0.32140000  1.0 0.4468374561
C  C21  1  0.69450000  0.87210000  0.24680000  1.0 -0.0609918834
C  C22  1  0.58750000  0.91970000  0.20610000  1.0 -0.1016817517
C  C23  1  0.52250000  0.91140000  0.13520000  1.0 -0.0881547507
C  C24  1  0.56470000  0.85420000  0.10530000  1.0 -0.0609918834
C  C25  1  0.67490000  0.80050000  0.14590000  1.0 0.0486085454
C  C26  1  0.74010000  0.80980000  0.21730000  1.0 0.0635028567
C  C27  1  0.84670000  0.75380000  0.25720000  1.0 -0.1262357932
C  C28  1  0.88660000  0.69450000  0.22770000  1.0 -0.0609918834
C  C29  1  0.82240000  0.68660000  0.15780000  1.0 -0.0707828056
C  C30  1  0.71850000  0.73820000  0.11740000  1.0 -0.1380441588
C  C31  1  0.69830000  0.24420000  0.87860000  1.0 0.5423615772
C  C32  1  0.59750000  0.31370000  0.85030000  1.0 -0.122694277
C  C33  1  0.55470000  0.36770000  0.88130000  1.0 -0.1380441588
C  C34  1  0.45690000  0.42560000  0.83620000  1.0 -0.1262357932
C  C35  1  0.42540000  0.41520000  0.77160000  1.0 -0.1016817517
C  C36  1  0.32910000  0.46490000  0.70860000  1.0 0.5423615772
C  C37  1  0.89040000  0.54660000  0.62060000  1.0 0.0902270239
C  C38  1  0.00290000  0.43290000  0.61170000  1.0 0.0708261795
C  C39  1  0.91370000  0.36770000  0.59640000  1.0 -0.196817885
C  C40  1  0.79670000  0.48500000  0.60560000  1.0 -0.1918230455
C  C41  1  0.80760000  0.39290000  0.59340000  1.0 0.1282151265
C  C42  1  0.70570000  0.32250000  0.57410000  1.0 -0.1016817517
C  C43  1  0.50190000  0.35080000  0.47030000  1.0 0.4468374561
C  C44  1  0.98700000  0.30890000  0.91730000  1.0 0.0902270239
C  C45  1  0.08560000  0.19140000  0.99370000  1.0 0.0708261795
C  C46  1  0.06380000  0.37470000  0.96410000  1.0 -0.2102893133
C  C47  1  0.16480000  0.25270000  0.04260000  1.0 -0.1840243142
C  C48  1  0.15510000  0.34680000  0.02850000  1.0 0.1409897555
C  C49  1  0.24160000  0.41930000  0.07930000  1.0 -0.109113897
C  C50  1  0.23440000  0.38930000  0.17860000  1.0 0.4468374561
C  C51  1  0.30550000  0.37210000  0.25320000  1.0 -0.0609918834
C  C52  1  0.41250000  0.41970000  0.29390000  1.0 -0.1016817517
C  C53  1  0.47750000  0.41140000  0.36480000  1.0 -0.0881547507
C  C54  1  0.43530000  0.35420000  0.39470000  1.0 -0.0609918834
C  C55  1  0.32510000  0.30050000  0.35410000  1.0 0.0486085454
C  C56  1  0.25990000  0.30980000  0.28270000  1.0 0.0635028567
C  C57  1  0.15330000  0.25380000  0.24280000  1.0 -0.1262357932
C  C58  1  0.11340000  0.19450000  0.27230000  1.0 -0.0609918834
C  C59  1  0.17760000  0.18660000  0.34220000  1.0 -0.0707828056
C  C60  1  0.28150000  0.23820000  0.38260000  1.0 -0.1380441588
C  C61  1  0.69830000  0.25580000  0.37860000  1.0 0.5423615772
C  C62  1  0.59750000  0.18630000  0.35030000  1.0 -0.122694277
C  C63  1  0.55470000  0.13230000  0.38130000  1.0 -0.1380441588
C  C64  1  0.45690000  0.07440000  0.33620000  1.0 -0.1262357932
C  C65  1  0.42540000  0.08480000  0.27160000  1.0 -0.1016817517
C  C66  1  0.32910000  0.03510000  0.20860000  1.0 0.5423615772
C  C67  1  0.89040000  0.95340000  0.12060000  1.0 0.0902270239
C  C68  1  0.00290000  0.06710000  0.11170000  1.0 0.0708261795
C  C69  1  0.91370000  0.13230000  0.09640000  1.0 -0.196817885
C  C70  1  0.79670000  0.01500000  0.10560000  1.0 -0.1918230455
C  C71  1  0.80760000  0.10710000  0.09340000  1.0 0.1282151265
C  C72  1  0.70570000  0.17750000  0.07410000  1.0 -0.1016817517
C  C73  1  0.50190000  0.14920000  0.97030000  1.0 0.4468374561
C  C74  1  0.98700000  0.19110000  0.41730000  1.0 0.0902270239
C  C75  1  0.08560000  0.30860000  0.49370000  1.0 0.0708261795
C  C76  1  0.06380000  0.12530000  0.46410000  1.0 -0.2102893133
C  C77  1  0.16480000  0.24730000  0.54260000  1.0 -0.1840243142
C  C78  1  0.15510000  0.15320000  0.52850000  1.0 0.1409897555
C  C79  1  0.24160000  0.08070000  0.57930000  1.0 -0.109113897
C  C80  1  0.23440000  0.11070000  0.67860000  1.0 0.4468374561
C  C81  1  0.30550000  0.12790000  0.75320000  1.0 -0.0609918834
C  C82  1  0.41250000  0.08030000  0.79390000  1.0 -0.1016817517
C  C83  1  0.47750000  0.08860000  0.86480000  1.0 -0.0881547507
C  C84  1  0.43530000  0.14580000  0.89470000  1.0 -0.0609918834
C  C85  1  0.32510000  0.19950000  0.85410000  1.0 0.0486085454
C  C86  1  0.25990000  0.19020000  0.78270000  1.0 0.0635028567
C  C87  1  0.15330000  0.24620000  0.74280000  1.0 -0.1262357932
C  C88  1  0.11340000  0.30550000  0.77230000  1.0 -0.0609918834
C  C89  1  0.17760000  0.31340000  0.84220000  1.0 -0.0707828056
C  C90  1  0.28150000  0.26180000  0.88260000  1.0 -0.1380441588
C  C91  1  0.30170000  0.75580000  0.12140000  1.0 0.5423615772
C  C92  1  0.40250000  0.68630000  0.14970000  1.0 -0.122694277
C  C93  1  0.44530000  0.63230000  0.11870000  1.0 -0.1380441588
C  C94  1  0.54310000  0.57440000  0.16380000  1.0 -0.1262357932
C  C95  1  0.57460000  0.58480000  0.22840000  1.0 -0.1016817517
C  C96  1  0.67090000  0.53510000  0.29140000  1.0 0.5423615772
C  C97  1  0.10960000  0.45340000  0.37940000  1.0 0.0902270239
C  C98  1  0.99710000  0.56710000  0.38830000  1.0 0.0708261795
C  C99  1  0.08630000  0.63230000  0.40360000  1.0 -0.196817885
C  C100  1  0.20330000  0.51500000  0.39440000  1.0 -0.1918230455
C  C101  1  0.19240000  0.60710000  0.40660000  1.0 0.1282151265
C  C102  1  0.29430000  0.67750000  0.42590000  1.0 -0.1016817517
C  C103  1  0.49810000  0.64920000  0.52970000  1.0 0.4468374561
C  C104  1  0.01300000  0.69110000  0.08270000  1.0 0.0902270239
C  C105  1  0.91440000  0.80860000  0.00630000  1.0 0.0708261795
C  C106  1  0.93620000  0.62530000  0.03590000  1.0 -0.2102893133
C  C107  1  0.83520000  0.74730000  0.95740000  1.0 -0.1840243142
C  C108  1  0.84490000  0.65320000  0.97150000  1.0 0.1409897555
C  C109  1  0.75840000  0.58070000  0.92070000  1.0 -0.109113897
C  C110  1  0.76560000  0.61070000  0.82140000  1.0 0.4468374561
C  C111  1  0.69450000  0.62790000  0.74680000  1.0 -0.0609918834
C  C112  1  0.58750000  0.58030000  0.70610000  1.0 -0.1016817517
C  C113  1  0.52250000  0.58860000  0.63520000  1.0 -0.0881547507
C  C114  1  0.56470000  0.64580000  0.60530000  1.0 -0.0609918834
C  C115  1  0.67490000  0.69950000  0.64590000  1.0 0.0486085454
C  C116  1  0.74010000  0.69020000  0.71730000  1.0 0.0635028567
C  C117  1  0.84670000  0.74620000  0.75720000  1.0 -0.1262357932
C  C118  1  0.88660000  0.80550000  0.72770000  1.0 -0.0609918834
C  C119  1  0.82240000  0.81340000  0.65780000  1.0 -0.0707828056
C  C120  1  0.71850000  0.76180000  0.61740000  1.0 -0.1380441588
S  S1  1  0.48422000  0.83391000  0.73484000  1.0 0.1409897555
S  S2  1  0.51578000  0.33391000  0.76516000  1.0 0.1409897555
S  S3  1  0.51578000  0.16609000  0.26516000  1.0 0.1409897555
S  S4  1  0.48422000  0.66609000  0.23484000  1.0 0.1409897555
N  N1  1  0.00366000  0.71770000  0.56906000  1.0 -0.2656312984
N  N2  1  0.00742000  0.02260000  0.87642000  1.0 -0.2755044502
N  N3  1  0.38110000  0.82320000  0.99860000  1.0 -0.2933550503
N  N4  1  0.70161000  0.89080000  0.35091000  1.0 -0.3184149664
N  N5  1  0.99634000  0.21770000  0.93094000  1.0 -0.2656312984
N  N6  1  0.99258000  0.52260000  0.62358000  1.0 -0.2755044502
N  N7  1  0.61890000  0.32320000  0.50140000  1.0 -0.2933550503
N  N8  1  0.29839000  0.39080000  0.14909000  1.0 -0.3184149664
N  N9  1  0.99634000  0.28230000  0.43094000  1.0 -0.2656312984
N  N10  1  0.99258000  0.97740000  0.12358000  1.0 -0.2755044502
N  N11  1  0.61890000  0.17680000  0.00140000  1.0 -0.2933550503
N  N12  1  0.29839000  0.10920000  0.64909000  1.0 -0.3184149664
N  N13  1  0.00366000  0.78230000  0.06906000  1.0 -0.2656312984
N  N14  1  0.00742000  0.47740000  0.37642000  1.0 -0.2755044502
N  N15  1  0.38110000  0.67680000  0.49860000  1.0 -0.2933550503
N  N16  1  0.70161000  0.60920000  0.85091000  1.0 -0.3184149664
O  O1  1  0.24470000  0.72690000  0.55890000  1.0 -0.5194868347
O  O2  1  0.27915000  0.70740000  0.66235000  1.0 -0.5194868347
O  O3  1  0.12927000  0.68480000  0.71997000  1.0 -0.4134264242
O  O4  1  0.14811000  0.55670000  0.56361000  1.0 -0.0881547507
O  O5  1  0.73459000  0.02520000  0.78489000  1.0 -0.5194868347
O  O6  1  0.67979000  0.94290000  0.84579000  1.0 -0.5002503943
O  O7  1  0.87805000  0.90450000  0.35435000  1.0 -0.4612231057
O  O8  1  0.54965000  0.87400000  0.00055000  1.0 -0.4660397273
O  O9  1  0.75530000  0.22690000  0.94110000  1.0 -0.5194868347
O  O10  1  0.72085000  0.20740000  0.83765000  1.0 -0.5194868347
O  O11  1  0.87073000  0.18480000  0.78003000  1.0 -0.4134264242
O  O12  1  0.85189000  0.05670000  0.93639000  1.0 -0.0881547507
O  O13  1  0.26541000  0.52520000  0.71511000  1.0 -0.5194868347
O  O14  1  0.32021000  0.44290000  0.65421000  1.0 -0.5002503943
O  O15  1  0.12195000  0.40450000  0.14565000  1.0 -0.4612231057
O  O16  1  0.45035000  0.37400000  0.49945000  1.0 -0.4660397273
O  O17  1  0.75530000  0.27310000  0.44110000  1.0 -0.5194868347
O  O18  1  0.72085000  0.29260000  0.33765000  1.0 -0.5194868347
O  O19  1  0.87073000  0.31520000  0.28003000  1.0 -0.4134264242
O  O20  1  0.85189000  0.44330000  0.43639000  1.0 -0.0821251821
O  O21  1  0.26541000  0.97480000  0.21511000  1.0 -0.5194868347
O  O22  1  0.32021000  0.05710000  0.15421000  1.0 -0.5002503943
O  O23  1  0.12195000  0.09550000  0.64565000  1.0 -0.4612231057
O  O24  1  0.45035000  0.12600000  0.99945000  1.0 -0.4660397273
O  O25  1  0.24470000  0.77310000  0.05890000  1.0 -0.5194868347
O  O26  1  0.27915000  0.79260000  0.16235000  1.0 -0.5194868347
O  O27  1  0.12927000  0.81520000  0.21997000  1.0 -0.4134264242
O  O28  1  0.14811000  0.94330000  0.06361000  1.0 -0.0821251821
O  O29  1  0.73459000  0.47480000  0.28489000  1.0 -0.5194868347
O  O30  1  0.67979000  0.55710000  0.34579000  1.0 -0.5002503943
O  O31  1  0.87805000  0.59550000  0.85435000  1.0 -0.4612231057
O  O32  1  0.54965000  0.62600000  0.50055000  1.0 -0.4660397273
