# DDEC6 charges by PACMAN v1.1 (https://github.com/mtap-research/PACMAN-charge/)
data_BUDXUW_ASR_pacman
_symmetry_space_group_name_H-M   'P 1'
_cell_length_a   19.32990000
_cell_length_b   19.32990000
_cell_length_c   19.32990000
_cell_angle_alpha   131.99900000
_cell_angle_beta   117.14200000
_cell_angle_gamma   82.80090000
_symmetry_Int_Tables_number   1
_chemical_formula_structural   CuH21C24O5
_chemical_formula_sum   'Cu8 H168 C192 O40'
_cell_volume   4596.19934738
_cell_formula_units_Z   8
loop_
 _symmetry_equiv_pos_site_id
 _symmetry_equiv_pos_as_xyz
  1  'x, y, z'
loop_
 _atom_site_type_symbol
 _atom_site_label
 _atom_site_symmetry_multiplicity
 _atom_site_fract_x
 _atom_site_fract_y
 _atom_site_fract_z
 _atom_site_occupancy
 _atom_site_charge
Cu  Cu1  1  0.47240000  0.42462000  0.89702000  1.0 0.8333135773
Cu  Cu2  1  0.52760000  0.57538000  0.10298000  1.0 0.8333135773
Cu  Cu3  1  0.97240000  0.07538000  0.04778000  1.0 0.8333135773
Cu  Cu4  1  0.02760000  0.92462000  0.95222000  1.0 0.8333135773
Cu  Cu5  1  0.94946000  0.55330000  0.50276000  1.0 0.8218145747
Cu  Cu6  1  0.05054000  0.44670000  0.49724000  1.0 0.8218145747
Cu  Cu7  1  0.44946000  0.94670000  0.39616000  1.0 0.8218145747
Cu  Cu8  1  0.55054000  0.05330000  0.60384000  1.0 0.8218145747
H  H1  1  0.10823000  0.41201000  0.05674000  1.0 0.1266730208
H  H2  1  0.21450000  0.34661000  0.78657000  1.0 0.1205588166
H  H3  1  0.98186000  0.35860000  0.78444000  1.0 0.1538798198
H  H4  1  0.09524000  0.31188000  0.77134000  1.0 0.109192762
H  H5  1  0.86367000  0.34176000  0.90237000  1.0 0.142439377
H  H6  1  0.89448000  0.45591000  0.08057000  1.0 0.109192762
H  H7  1  0.19999000  0.51395000  0.09590000  1.0 0.1205588166
H  H8  1  0.31810000  0.55157000  0.11079000  1.0 0.1205588166
H  H9  1  0.90202000  0.49523000  0.22731000  1.0 0.1266730208
H  H10  1  0.08300000  0.34117000  0.11059000  1.0 0.1205588166
H  H11  1  0.09027000  0.37965000  0.25684000  1.0 0.1266730208
H  H12  1  0.74244000  0.29506000  0.74882000  1.0 0.109192762
H  H13  1  0.78293000  0.20752000  0.70285000  1.0 0.109192762
H  H14  1  0.65526000  0.17046000  0.56442000  1.0 0.109192762
H  H15  1  0.72513000  0.16679000  0.54008000  1.0 0.0916998815
H  H16  1  0.68900000  0.25833000  0.58611000  1.0 0.0681538933
H  H17  1  0.84342000  0.29676000  0.63636000  1.0 0.0916998815
H  H18  1  0.86547000  0.40952000  0.74109000  1.0 0.109192762
H  H19  1  0.70738000  0.27886000  0.58646000  1.0 0.0681538933
H  H20  1  0.73657000  0.36763000  0.60664000  1.0 0.0916998815
H  H21  1  0.72698000  0.38760000  0.69620000  1.0 0.1042156913
H  H22  1  0.35527000  0.05149000  0.94326000  1.0 0.1266730208
H  H23  1  0.56004000  0.42793000  0.21343000  1.0 0.1205588166
H  H24  1  0.57416000  0.19742000  0.21556000  1.0 0.1538798198
H  H25  1  0.54054000  0.32390000  0.22866000  1.0 0.109192762
H  H26  1  0.43939000  0.96130000  0.09763000  1.0 0.142439377
H  H27  1  0.37534000  0.81391000  0.91943000  1.0 0.109192762
H  H28  1  0.41805000  0.10409000  0.90410000  1.0 0.1205588166
H  H29  1  0.44078000  0.20731000  0.88921000  1.0 0.1205588166
H  H30  1  0.26792000  0.67471000  0.77269000  1.0 0.1266730208
H  H31  1  0.23058000  0.97241000  0.88941000  1.0 0.1205588166
H  H32  1  0.12281000  0.83343000  0.74316000  1.0 0.1266730208
H  H33  1  0.54624000  0.99362000  0.25118000  1.0 0.109192762
H  H34  1  0.50467000  0.08008000  0.29715000  1.0 0.109192762
H  H35  1  0.60604000  0.09084000  0.43558000  1.0 0.109192762
H  H36  1  0.62671000  0.18505000  0.45992000  1.0 0.0916998815
H  H37  1  0.67222000  0.10289000  0.41389000  1.0 0.0681538933
H  H38  1  0.66040000  0.20706000  0.36364000  1.0 0.0916998815
H  H39  1  0.66843000  0.12438000  0.25891000  1.0 0.109192762
H  H40  1  0.69240000  0.12092000  0.41354000  1.0 0.0681538933
H  H41  1  0.76099000  0.12993000  0.39336000  1.0 0.0916998815
H  H42  1  0.69140000  0.03078000  0.30380000  1.0 0.1042156913
H  H43  1  0.14473000  0.08799000  0.69622000  1.0 0.1266730208
H  H44  1  0.93996000  0.15339000  0.86789000  1.0 0.1205588166
H  H45  1  0.92584000  0.14140000  0.62326000  1.0 0.1538798198
H  H46  1  0.95946000  0.18812000  0.78336000  1.0 0.109192762
H  H47  1  0.06061000  0.15824000  0.52191000  1.0 0.142439377
H  H48  1  0.12466000  0.04409000  0.43857000  1.0 0.109192762
H  H49  1  0.08195000  0.98605000  0.68604000  1.0 0.1205588166
H  H50  1  0.05922000  0.94843000  0.76653000  1.0 0.1205588166
H  H51  1  0.23208000  0.00477000  0.40679000  1.0 0.1266730208
H  H52  1  0.26942000  0.15883000  0.74183000  1.0 0.1205588166
H  H53  1  0.37719000  0.12035000  0.71062000  1.0 0.1266730208
H  H54  1  0.95376000  0.20494000  0.44738000  1.0 0.109192762
H  H55  1  0.99533000  0.29248000  0.57541000  1.0 0.109192762
H  H56  1  0.89396000  0.32954000  0.48480000  1.0 0.109192762
H  H57  1  0.87329000  0.33321000  0.55834000  1.0 0.0916998815
H  H58  1  0.82778000  0.24167000  0.43067000  1.0 0.0681538933
H  H59  1  0.83960000  0.20324000  0.54666000  1.0 0.0916998815
H  H60  1  0.83157000  0.09048000  0.45595000  1.0 0.109192762
H  H61  1  0.80760000  0.22114000  0.42852000  1.0 0.0681538933
H  H62  1  0.73901000  0.13237000  0.36894000  1.0 0.0916998815
H  H63  1  0.80860000  0.11240000  0.33938000  1.0 0.1042156913
H  H64  1  0.39177000  0.44851000  0.30378000  1.0 0.1266730208
H  H65  1  0.28550000  0.07207000  0.13211000  1.0 0.1205588166
H  H66  1  0.51814000  0.30258000  0.37674000  1.0 0.1538798198
H  H67  1  0.40476000  0.17610000  0.21664000  1.0 0.109192762
H  H68  1  0.63633000  0.53870000  0.47809000  1.0 0.142439377
H  H69  1  0.60552000  0.68609000  0.56143000  1.0 0.109192762
H  H70  1  0.30001000  0.39591000  0.31396000  1.0 0.1205588166
H  H71  1  0.18190000  0.29269000  0.23347000  1.0 0.1205588166
H  H72  1  0.59798000  0.82529000  0.59321000  1.0 0.1266730208
H  H73  1  0.41700000  0.52759000  0.25817000  1.0 0.1205588166
H  H74  1  0.40973000  0.66657000  0.28938000  1.0 0.1266730208
H  H75  1  0.75756000  0.50638000  0.55262000  1.0 0.109192762
H  H76  1  0.71707000  0.41992000  0.42459000  1.0 0.109192762
H  H77  1  0.84474000  0.40916000  0.51520000  1.0 0.109192762
H  H78  1  0.77487000  0.31495000  0.44166000  1.0 0.0916998815
H  H79  1  0.81100000  0.39711000  0.56933000  1.0 0.0681538933
H  H80  1  0.65658000  0.29294000  0.45334000  1.0 0.0916998815
H  H81  1  0.63453000  0.37562000  0.54405000  1.0 0.109192762
H  H82  1  0.79262000  0.37908000  0.57148000  1.0 0.0681538933
H  H83  1  0.76343000  0.37007000  0.63106000  1.0 0.0916998815
H  H84  1  0.77302000  0.46922000  0.66062000  1.0 0.1042156913
H  H85  1  0.89177000  0.58799000  0.94326000  1.0 0.1266730208
H  H86  1  0.78550000  0.65339000  0.21343000  1.0 0.1205588166
H  H87  1  0.01814000  0.64140000  0.21556000  1.0 0.1538798198
H  H88  1  0.90476000  0.68812000  0.22866000  1.0 0.109192762
H  H89  1  0.13633000  0.65824000  0.09763000  1.0 0.142439377
H  H90  1  0.10552000  0.54409000  0.91943000  1.0 0.109192762
H  H91  1  0.80001000  0.48605000  0.90410000  1.0 0.1205588166
H  H92  1  0.68190000  0.44843000  0.88921000  1.0 0.1205588166
H  H93  1  0.09798000  0.50477000  0.77269000  1.0 0.1266730208
H  H94  1  0.91700000  0.65883000  0.88941000  1.0 0.1205588166
H  H95  1  0.90973000  0.62035000  0.74316000  1.0 0.1266730208
H  H96  1  0.25756000  0.70494000  0.25118000  1.0 0.109192762
H  H97  1  0.21707000  0.79248000  0.29715000  1.0 0.109192762
H  H98  1  0.34474000  0.82954000  0.43558000  1.0 0.109192762
H  H99  1  0.27487000  0.83321000  0.45992000  1.0 0.0916998815
H  H100  1  0.31100000  0.74167000  0.41389000  1.0 0.0681538933
H  H101  1  0.15658000  0.70324000  0.36364000  1.0 0.0916998815
H  H102  1  0.13453000  0.59048000  0.25891000  1.0 0.109192762
H  H103  1  0.29262000  0.72114000  0.41354000  1.0 0.0681538933
H  H104  1  0.26343000  0.63237000  0.39336000  1.0 0.0916998815
H  H105  1  0.27302000  0.61240000  0.30380000  1.0 0.1042156913
H  H106  1  0.64473000  0.94851000  0.05674000  1.0 0.1266730208
H  H107  1  0.43996000  0.57207000  0.78657000  1.0 0.1205588166
H  H108  1  0.42584000  0.80258000  0.78444000  1.0 0.1538798198
H  H109  1  0.45946000  0.67610000  0.77134000  1.0 0.109192762
H  H110  1  0.56061000  0.03870000  0.90237000  1.0 0.142439377
H  H111  1  0.62466000  0.18609000  0.08057000  1.0 0.109192762
H  H112  1  0.58195000  0.89591000  0.09590000  1.0 0.1205588166
H  H113  1  0.55922000  0.79269000  0.11079000  1.0 0.1205588166
H  H114  1  0.73208000  0.32529000  0.22731000  1.0 0.1266730208
H  H115  1  0.76942000  0.02759000  0.11059000  1.0 0.1205588166
H  H116  1  0.87719000  0.16657000  0.25684000  1.0 0.1266730208
H  H117  1  0.45376000  0.00638000  0.74882000  1.0 0.109192762
H  H118  1  0.49533000  0.91992000  0.70285000  1.0 0.109192762
H  H119  1  0.39396000  0.90916000  0.56442000  1.0 0.109192762
H  H120  1  0.37329000  0.81495000  0.54008000  1.0 0.0916998815
H  H121  1  0.32778000  0.89711000  0.58611000  1.0 0.0681538933
H  H122  1  0.33960000  0.79294000  0.63636000  1.0 0.0916998815
H  H123  1  0.33157000  0.87562000  0.74109000  1.0 0.109192762
H  H124  1  0.30760000  0.87908000  0.58646000  1.0 0.0681538933
H  H125  1  0.23901000  0.87007000  0.60664000  1.0 0.0916998815
H  H126  1  0.30860000  0.96922000  0.69620000  1.0 0.1042156913
H  H127  1  0.85527000  0.91201000  0.30378000  1.0 0.1266730208
H  H128  1  0.06004000  0.84661000  0.13211000  1.0 0.1205588166
H  H129  1  0.07416000  0.85860000  0.37674000  1.0 0.1538798198
H  H130  1  0.04054000  0.81188000  0.21664000  1.0 0.109192762
H  H131  1  0.93939000  0.84176000  0.47809000  1.0 0.142439377
H  H132  1  0.87534000  0.95591000  0.56143000  1.0 0.109192762
H  H133  1  0.91805000  0.01395000  0.31396000  1.0 0.1205588166
H  H134  1  0.94078000  0.05157000  0.23347000  1.0 0.1205588166
H  H135  1  0.76792000  0.99523000  0.59321000  1.0 0.1266730208
H  H136  1  0.73058000  0.84117000  0.25817000  1.0 0.1205588166
H  H137  1  0.62281000  0.87965000  0.28938000  1.0 0.1266730208
H  H138  1  0.04624000  0.79506000  0.55262000  1.0 0.109192762
H  H139  1  0.00467000  0.70752000  0.42459000  1.0 0.109192762
H  H140  1  0.10604000  0.67046000  0.51520000  1.0 0.109192762
H  H141  1  0.12671000  0.66679000  0.44166000  1.0 0.0916998815
H  H142  1  0.17222000  0.75833000  0.56933000  1.0 0.0681538933
H  H143  1  0.16040000  0.79676000  0.45334000  1.0 0.0916998815
H  H144  1  0.16843000  0.90952000  0.54405000  1.0 0.109192762
H  H145  1  0.19240000  0.77886000  0.57148000  1.0 0.0681538933
H  H146  1  0.26099000  0.86763000  0.63106000  1.0 0.0916998815
H  H147  1  0.19140000  0.88760000  0.66062000  1.0 0.1042156913
H  H148  1  0.60823000  0.55149000  0.69622000  1.0 0.1266730208
H  H149  1  0.71450000  0.92793000  0.86789000  1.0 0.1205588166
H  H150  1  0.48186000  0.69742000  0.62326000  1.0 0.1538798198
H  H151  1  0.59524000  0.82390000  0.78336000  1.0 0.109192762
H  H152  1  0.36367000  0.46130000  0.52191000  1.0 0.142439377
H  H153  1  0.39448000  0.31391000  0.43857000  1.0 0.109192762
H  H154  1  0.69999000  0.60409000  0.68604000  1.0 0.1205588166
H  H155  1  0.81810000  0.70731000  0.76653000  1.0 0.1205588166
H  H156  1  0.40202000  0.17471000  0.40679000  1.0 0.1266730208
H  H157  1  0.58300000  0.47241000  0.74183000  1.0 0.1205588166
H  H158  1  0.59027000  0.33343000  0.71062000  1.0 0.1266730208
H  H159  1  0.24244000  0.49362000  0.44738000  1.0 0.109192762
H  H160  1  0.28293000  0.58008000  0.57541000  1.0 0.109192762
H  H161  1  0.15526000  0.59084000  0.48480000  1.0 0.109192762
H  H162  1  0.22513000  0.68505000  0.55834000  1.0 0.0916998815
H  H163  1  0.18900000  0.60289000  0.43067000  1.0 0.0681538933
H  H164  1  0.34342000  0.70706000  0.54666000  1.0 0.0916998815
H  H165  1  0.36547000  0.62438000  0.45595000  1.0 0.109192762
H  H166  1  0.20738000  0.62092000  0.42852000  1.0 0.0681538933
H  H167  1  0.23657000  0.62993000  0.36894000  1.0 0.0916998815
H  H168  1  0.22698000  0.53078000  0.33938000  1.0 0.1042156913
C  C1  1  0.05749000  0.38883000  0.92246000  1.0 0.1042156913
C  C2  1  0.13391000  0.40907000  0.93124000  1.0 0.0681538933
C  C3  1  0.27916000  0.45302000  0.95034000  1.0 -0.0247465163
C  C4  1  0.98928000  0.39678000  0.08190000  1.0 0.0604318831
C  C5  1  0.05803000  0.39597000  0.99926000  1.0 -0.2067333512
C  C6  1  0.21174000  0.38159000  0.84995000  1.0 -0.1061692756
C  C7  1  0.98338000  0.36414000  0.83784000  1.0 -0.3183497448
C  C8  1  0.98691000  0.38035000  0.99396000  1.0 0.109192762
C  C9  1  0.91197000  0.34757000  0.83120000  1.0 0.2256791521
C  C10  1  0.14064000  0.36064000  0.84100000  1.0 -0.1469994059
C  C11  1  0.00304000  0.46754000  0.35210000  1.0 0.5544266779
C  C12  1  0.99706000  0.44206000  0.25700000  1.0 -0.0107153693
C  C13  1  0.91288000  0.35450000  0.90818000  1.0 -0.2922840114
C  C14  1  0.93510000  0.44110000  0.11700000  1.0 -0.1469994059
C  C15  1  0.20221000  0.48021000  0.03240000  1.0 -0.1594168019
C  C16  1  0.35771000  0.47426000  0.96245000  1.0 0.5755646009
C  C17  1  0.27284000  0.50204000  0.04120000  1.0 -0.0988472402
C  C18  1  0.93913000  0.46423000  0.20410000  1.0 -0.0988472402
C  C19  1  0.04645000  0.37315000  0.13450000  1.0 -0.1469994059
C  C20  1  0.05063000  0.39583000  0.22140000  1.0 -0.0988472402
C  C21  1  0.76670000  0.25790000  0.70240000  1.0 -0.077755692
C  C22  1  0.70350000  0.20910000  0.58820000  1.0 -0.4084638875
C  C23  1  0.82940000  0.34500000  0.69280000  1.0 -0.0865789256
C  C24  1  0.74240000  0.34480000  0.64100000  1.0 -0.2641377967
C  C25  1  0.46637000  0.13503000  0.07754000  1.0 0.1042156913
C  C26  1  0.47783000  0.20267000  0.06876000  1.0 0.0681538933
C  C27  1  0.50268000  0.32882000  0.04966000  1.0 -0.0247465163
C  C28  1  0.31488000  0.90738000  0.91810000  1.0 0.0604318831
C  C29  1  0.39671000  0.05877000  0.00074000  1.0 -0.2067333512
C  C30  1  0.53164000  0.36179000  0.15005000  1.0 -0.1061692756
C  C31  1  0.52630000  0.14554000  0.16216000  1.0 -0.3183497448
C  C32  1  0.38639000  0.99295000  0.00604000  1.0 0.109192762
C  C33  1  0.51637000  0.08077000  0.16880000  1.0 0.2256791521
C  C34  1  0.51964000  0.29964000  0.15900000  1.0 -0.1469994059
C  C35  1  0.11544000  0.65094000  0.64790000  1.0 0.5544266779
C  C36  1  0.18506000  0.74006000  0.74300000  1.0 -0.0107153693
C  C37  1  0.44632000  0.00470000  0.09182000  1.0 -0.2922840114
C  C38  1  0.32410000  0.81810000  0.88300000  1.0 -0.1469994059
C  C39  1  0.44781000  0.16981000  0.96760000  1.0 -0.1594168019
C  C40  1  0.51181000  0.39526000  0.03755000  1.0 0.5755646009
C  C41  1  0.46084000  0.23164000  0.95880000  1.0 -0.0988472402
C  C42  1  0.26013000  0.73503000  0.79590000  1.0 -0.0988472402
C  C43  1  0.23865000  0.91195000  0.86550000  1.0 -0.1469994059
C  C44  1  0.17443000  0.82923000  0.77860000  1.0 -0.0988472402
C  C45  1  0.55550000  0.06430000  0.29760000  1.0 -0.077755692
C  C46  1  0.62090000  0.11530000  0.41180000  1.0 -0.4084638875
C  C47  1  0.65220000  0.13660000  0.30720000  1.0 -0.0865789256
C  C48  1  0.70380000  0.10140000  0.35900000  1.0 -0.2641377967
C  C49  1  0.03363000  0.11117000  0.66866000  1.0 0.1042156913
C  C50  1  0.02217000  0.09093000  0.72484000  1.0 0.0681538933
C  C51  1  0.99732000  0.04698000  0.82614000  1.0 -0.0247465163
C  C52  1  0.18512000  0.10322000  0.59250000  1.0 0.0604318831
C  C53  1  0.10329000  0.10403000  0.66206000  1.0 -0.2067333512
C  C54  1  0.96836000  0.11841000  0.83015000  1.0 -0.1061692756
C  C55  1  0.97370000  0.13586000  0.61924000  1.0 -0.3183497448
C  C56  1  0.11361000  0.11965000  0.60656000  1.0 0.109192762
C  C57  1  0.98363000  0.15243000  0.56440000  1.0 0.2256791521
C  C58  1  0.98036000  0.13936000  0.78000000  1.0 -0.1469994059
C  C59  1  0.38456000  0.03246000  0.53550000  1.0 0.5544266779
C  C60  1  0.31494000  0.05794000  0.55500000  1.0 -0.0107153693
C  C61  1  0.05368000  0.14550000  0.55838000  1.0 -0.2922840114
C  C62  1  0.17590000  0.05890000  0.49400000  1.0 -0.1469994059
C  C63  1  0.05219000  0.01979000  0.72200000  1.0 -0.1594168019
C  C64  1  0.98819000  0.02574000  0.88345000  1.0 0.5755646009
C  C65  1  0.03916000  0.99796000  0.77080000  1.0 -0.0988472402
C  C66  1  0.23987000  0.03577000  0.47490000  1.0 -0.0988472402
C  C67  1  0.26135000  0.12685000  0.67330000  1.0 -0.1469994059
C  C68  1  0.32557000  0.10417000  0.65480000  1.0 -0.0988472402
C  C69  1  0.94450000  0.24210000  0.50880000  1.0 -0.0747053619
C  C70  1  0.87910000  0.29090000  0.49440000  1.0 -0.4084638875
C  C71  1  0.84780000  0.15500000  0.48440000  1.0 -0.0865789256
C  C72  1  0.79620000  0.15520000  0.39760000  1.0 -0.2641377967
C  C73  1  0.44251000  0.36497000  0.33134000  1.0 0.1042156913
C  C74  1  0.36609000  0.29733000  0.27516000  1.0 0.0681538933
C  C75  1  0.22084000  0.17118000  0.17386000  1.0 -0.0247465163
C  C76  1  0.51072000  0.59262000  0.40750000  1.0 0.0604318831
C  C77  1  0.44197000  0.44123000  0.33794000  1.0 -0.2067333512
C  C78  1  0.28826000  0.13821000  0.16985000  1.0 -0.1061692756
C  C79  1  0.51662000  0.35446000  0.38076000  1.0 -0.3183497448
C  C80  1  0.51309000  0.50705000  0.39344000  1.0 0.109192762
C  C81  1  0.58803000  0.41923000  0.43560000  1.0 0.2256791521
C  C82  1  0.35936000  0.20036000  0.22000000  1.0 -0.1469994059
C  C83  1  0.49696000  0.84906000  0.46450000  1.0 0.5544266779
C  C84  1  0.50294000  0.75994000  0.44500000  1.0 -0.0107153693
C  C85  1  0.58712000  0.49530000  0.44162000  1.0 -0.2922840114
C  C86  1  0.56490000  0.68190000  0.50600000  1.0 -0.1469994059
C  C87  1  0.29779000  0.33019000  0.27800000  1.0 -0.1594168019
C  C88  1  0.14229000  0.10474000  0.11655000  1.0 0.5755646009
C  C89  1  0.22716000  0.26836000  0.22920000  1.0 -0.0988472402
C  C90  1  0.56087000  0.76497000  0.52510000  1.0 -0.0988472402
C  C91  1  0.45355000  0.58805000  0.32670000  1.0 -0.1469994059
C  C92  1  0.44937000  0.67077000  0.34520000  1.0 -0.0988472402
C  C93  1  0.73330000  0.43570000  0.49120000  1.0 -0.077755692
C  C94  1  0.79650000  0.38470000  0.50560000  1.0 -0.4084638875
C  C95  1  0.67060000  0.36340000  0.51560000  1.0 -0.0865789256
C  C96  1  0.75760000  0.39860000  0.60240000  1.0 -0.2641377967
C  C97  1  0.94251000  0.61117000  0.07754000  1.0 0.1042156913
C  C98  1  0.86609000  0.59093000  0.06876000  1.0 0.0681538933
C  C99  1  0.72084000  0.54698000  0.04966000  1.0 -0.0247465163
C  C100  1  0.01072000  0.60322000  0.91810000  1.0 0.0604318831
C  C101  1  0.94197000  0.60403000  0.00074000  1.0 -0.2067333512
C  C102  1  0.78826000  0.61841000  0.15005000  1.0 -0.1061692756
C  C103  1  0.01662000  0.63586000  0.16216000  1.0 -0.3183497448
C  C104  1  0.01309000  0.61965000  0.00604000  1.0 0.109192762
C  C105  1  0.08803000  0.65243000  0.16880000  1.0 0.2249109525
C  C106  1  0.85936000  0.63936000  0.15900000  1.0 -0.1469994059
C  C107  1  0.99696000  0.53246000  0.64790000  1.0 0.5544266779
C  C108  1  0.00294000  0.55794000  0.74300000  1.0 -0.0107153693
C  C109  1  0.08712000  0.64550000  0.09182000  1.0 -0.2922840114
C  C110  1  0.06490000  0.55890000  0.88300000  1.0 -0.1469994059
C  C111  1  0.79779000  0.51979000  0.96760000  1.0 -0.1594168019
C  C112  1  0.64229000  0.52574000  0.03755000  1.0 0.5755646009
C  C113  1  0.72716000  0.49796000  0.95880000  1.0 -0.0988472402
C  C114  1  0.06087000  0.53577000  0.79590000  1.0 -0.0988472402
C  C115  1  0.95355000  0.62685000  0.86550000  1.0 -0.1469994059
C  C116  1  0.94937000  0.60417000  0.77860000  1.0 -0.0988472402
C  C117  1  0.23330000  0.74210000  0.29760000  1.0 -0.077755692
C  C118  1  0.29650000  0.79090000  0.41180000  1.0 -0.4084638875
C  C119  1  0.17060000  0.65500000  0.30720000  1.0 -0.0865789256
C  C120  1  0.25760000  0.65520000  0.35900000  1.0 -0.2641377967
C  C121  1  0.53363000  0.86497000  0.92246000  1.0 0.1042156913
C  C122  1  0.52217000  0.79733000  0.93124000  1.0 0.0681538933
C  C123  1  0.49732000  0.67118000  0.95034000  1.0 -0.0247465163
C  C124  1  0.68512000  0.09262000  0.08190000  1.0 0.0604318831
C  C125  1  0.60329000  0.94123000  0.99926000  1.0 -0.2067333512
C  C126  1  0.46836000  0.63821000  0.84995000  1.0 -0.1061692756
C  C127  1  0.47370000  0.85446000  0.83784000  1.0 -0.3183497448
C  C128  1  0.61361000  0.00705000  0.99396000  1.0 0.109192762
C  C129  1  0.48363000  0.91923000  0.83120000  1.0 0.2249109525
C  C130  1  0.48036000  0.70036000  0.84100000  1.0 -0.1469994059
C  C131  1  0.88456000  0.34906000  0.35210000  1.0 0.5544266779
C  C132  1  0.81494000  0.25994000  0.25700000  1.0 -0.0107153693
C  C133  1  0.55368000  0.99530000  0.90818000  1.0 -0.2922840114
C  C134  1  0.67590000  0.18190000  0.11700000  1.0 -0.1469994059
C  C135  1  0.55219000  0.83019000  0.03240000  1.0 -0.1594168019
C  C136  1  0.48819000  0.60474000  0.96245000  1.0 0.5755646009
C  C137  1  0.53916000  0.76836000  0.04120000  1.0 -0.0988472402
C  C138  1  0.73987000  0.26497000  0.20410000  1.0 -0.0988472402
C  C139  1  0.76135000  0.08805000  0.13450000  1.0 -0.1469994059
C  C140  1  0.82557000  0.17077000  0.22140000  1.0 -0.0988472402
C  C141  1  0.44450000  0.93570000  0.70240000  1.0 -0.077755692
C  C142  1  0.37910000  0.88470000  0.58820000  1.0 -0.4084638875
C  C143  1  0.34780000  0.86340000  0.69280000  1.0 -0.0865789256
C  C144  1  0.29620000  0.89860000  0.64100000  1.0 -0.2641377967
C  C145  1  0.96637000  0.88883000  0.33134000  1.0 0.1042156913
C  C146  1  0.97783000  0.90907000  0.27516000  1.0 0.0681538933
C  C147  1  0.00268000  0.95302000  0.17386000  1.0 -0.0247465163
C  C148  1  0.81488000  0.89678000  0.40750000  1.0 0.0604318831
C  C149  1  0.89671000  0.89597000  0.33794000  1.0 -0.2067333512
C  C150  1  0.03164000  0.88159000  0.16985000  1.0 -0.1061692756
C  C151  1  0.02630000  0.86414000  0.38076000  1.0 -0.3183497448
C  C152  1  0.88639000  0.88035000  0.39344000  1.0 0.109192762
C  C153  1  0.01637000  0.84757000  0.43560000  1.0 0.2249109525
C  C154  1  0.01964000  0.86064000  0.22000000  1.0 -0.1469994059
C  C155  1  0.61544000  0.96754000  0.46450000  1.0 0.5544266779
C  C156  1  0.68506000  0.94206000  0.44500000  1.0 -0.0107153693
C  C157  1  0.94632000  0.85450000  0.44162000  1.0 -0.2922840114
C  C158  1  0.82410000  0.94110000  0.50600000  1.0 -0.1469994059
C  C159  1  0.94781000  0.98021000  0.27800000  1.0 -0.1594168019
C  C160  1  0.01181000  0.97426000  0.11655000  1.0 0.5755646009
C  C161  1  0.96084000  0.00204000  0.22920000  1.0 -0.0988472402
C  C162  1  0.76013000  0.96423000  0.52510000  1.0 -0.0988472402
C  C163  1  0.73865000  0.87315000  0.32670000  1.0 -0.1469994059
C  C164  1  0.67443000  0.89583000  0.34520000  1.0 -0.0988472402
C  C165  1  0.05550000  0.75790000  0.49120000  1.0 -0.077755692
C  C166  1  0.12090000  0.70910000  0.50560000  1.0 -0.4084638875
C  C167  1  0.15220000  0.84500000  0.51560000  1.0 -0.0865789256
C  C168  1  0.20380000  0.84480000  0.60240000  1.0 -0.2641377967
C  C169  1  0.55749000  0.63503000  0.66866000  1.0 0.1042156913
C  C170  1  0.63391000  0.70267000  0.72484000  1.0 0.0681538933
C  C171  1  0.77916000  0.82882000  0.82614000  1.0 -0.0247465163
C  C172  1  0.48928000  0.40738000  0.59250000  1.0 0.0604318831
C  C173  1  0.55803000  0.55877000  0.66206000  1.0 -0.2067333512
C  C174  1  0.71174000  0.86179000  0.83015000  1.0 -0.1061692756
C  C175  1  0.48338000  0.64554000  0.61924000  1.0 -0.3183497448
C  C176  1  0.48691000  0.49295000  0.60656000  1.0 0.109192762
C  C177  1  0.41197000  0.58077000  0.56440000  1.0 0.2249109525
C  C178  1  0.64064000  0.79964000  0.78000000  1.0 -0.1469994059
C  C179  1  0.50304000  0.15094000  0.53550000  1.0 0.5544266779
C  C180  1  0.49706000  0.24006000  0.55500000  1.0 -0.0107153693
C  C181  1  0.41288000  0.50470000  0.55838000  1.0 -0.2922840114
C  C182  1  0.43510000  0.31810000  0.49400000  1.0 -0.1469994059
C  C183  1  0.70221000  0.66981000  0.72200000  1.0 -0.1594168019
C  C184  1  0.85771000  0.89526000  0.88345000  1.0 0.5755646009
C  C185  1  0.77284000  0.73164000  0.77080000  1.0 -0.0988472402
C  C186  1  0.43913000  0.23503000  0.47490000  1.0 -0.0988472402
C  C187  1  0.54645000  0.41195000  0.67330000  1.0 -0.1469994059
C  C188  1  0.55063000  0.32923000  0.65480000  1.0 -0.0988472402
C  C189  1  0.26670000  0.56430000  0.50880000  1.0 -0.077755692
C  C190  1  0.20350000  0.61530000  0.49440000  1.0 -0.4084638875
C  C191  1  0.32940000  0.63660000  0.48440000  1.0 -0.0865789256
C  C192  1  0.24240000  0.60140000  0.39760000  1.0 -0.2641377967
O  O1  1  0.41265000  0.54664000  0.05667000  1.0 -0.5360807102
O  O2  1  0.36468000  0.41853000  0.88027000  1.0 -0.5097296607
O  O3  1  0.96219000  0.52250000  0.39093000  1.0 -0.5206717845
O  O4  1  0.04636000  0.42993000  0.38361000  1.0 -0.5097296607
O  O5  1  0.83983000  0.32404000  0.74879000  1.0 -0.0865789256
O  O6  1  0.48997000  0.35598000  0.94333000  1.0 -0.5360807102
O  O7  1  0.53826000  0.48441000  0.11973000  1.0 -0.5097296607
O  O8  1  0.13157000  0.57126000  0.60907000  1.0 -0.5206717845
O  O9  1  0.04632000  0.66275000  0.61639000  1.0 -0.5097296607
O  O10  1  0.57525000  0.09104000  0.25121000  1.0 -0.0865789256
O  O11  1  0.01003000  0.95336000  0.86601000  1.0 -0.5360807102
O  O12  1  0.96174000  0.08147000  0.94615000  1.0 -0.5097296607
O  O13  1  0.36843000  0.97750000  0.43969000  1.0 -0.5206717845
O  O14  1  0.45368000  0.07007000  0.61643000  1.0 -0.5097296607
O  O15  1  0.92475000  0.17596000  0.51579000  1.0 -0.0865789256
O  O16  1  0.08735000  0.14402000  0.13399000  1.0 -0.5360807102
O  O17  1  0.13532000  0.01559000  0.05385000  1.0 -0.5097296607
O  O18  1  0.53781000  0.92874000  0.56031000  1.0 -0.5206717845
O  O19  1  0.45364000  0.83725000  0.38357000  1.0 -0.5097296607
O  O20  1  0.66017000  0.40896000  0.48421000  1.0 -0.0865789256
O  O21  1  0.58735000  0.45336000  0.94333000  1.0 -0.5360807102
O  O22  1  0.63532000  0.58147000  0.11973000  1.0 -0.5097296607
O  O23  1  0.03781000  0.47750000  0.60907000  1.0 -0.5206717845
O  O24  1  0.95364000  0.57007000  0.61639000  1.0 -0.5097296607
O  O25  1  0.16017000  0.67596000  0.25121000  1.0 -0.0865789256
O  O26  1  0.51003000  0.64402000  0.05667000  1.0 -0.5360807102
O  O27  1  0.46174000  0.51559000  0.88027000  1.0 -0.5097296607
O  O28  1  0.86843000  0.42874000  0.39093000  1.0 -0.5206717845
O  O29  1  0.95368000  0.33725000  0.38361000  1.0 -0.5097296607
O  O30  1  0.42475000  0.90896000  0.74879000  1.0 -0.077755692
O  O31  1  0.98997000  0.04664000  0.13399000  1.0 -0.5360807102
O  O32  1  0.03826000  0.91853000  0.05385000  1.0 -0.5097296607
O  O33  1  0.63157000  0.02250000  0.56031000  1.0 -0.5206717845
O  O34  1  0.54632000  0.92993000  0.38357000  1.0 -0.5097296607
O  O35  1  0.07525000  0.82404000  0.48421000  1.0 -0.0865789256
O  O36  1  0.91265000  0.85598000  0.86601000  1.0 -0.5360807102
O  O37  1  0.86468000  0.98441000  0.94615000  1.0 -0.5097296607
O  O38  1  0.46219000  0.07126000  0.43969000  1.0 -0.5206717845
O  O39  1  0.54636000  0.16275000  0.61643000  1.0 -0.5097296607
O  O40  1  0.33983000  0.59104000  0.51579000  1.0 -0.0865789256
