# DDEC6 charges by PACMAN v1.1 (https://github.com/mtap-research/PACMAN-charge/)
data_BUDYAD_ASR_pacman
_symmetry_space_group_name_H-M   'P 1'
_cell_length_a   19.61460000
_cell_length_b   19.61460000
_cell_length_c   19.61460000
_cell_angle_alpha   133.24600000
_cell_angle_beta   114.32700000
_cell_angle_gamma   84.42900000
_symmetry_Int_Tables_number   1
_chemical_formula_structural   CuH21C24O5
_chemical_formula_sum   'Cu8 H168 C192 O40'
_cell_volume   4810.00946628
_cell_formula_units_Z   8
loop_
 _symmetry_equiv_pos_site_id
 _symmetry_equiv_pos_as_xyz
  1  'x, y, z'
loop_
 _atom_site_type_symbol
 _atom_site_label
 _atom_site_symmetry_multiplicity
 _atom_site_fract_x
 _atom_site_fract_y
 _atom_site_fract_z
 _atom_site_occupancy
 _atom_site_charge
Cu  Cu1  1  0.97417000  0.92307000  0.89724000  1.0 0.8357207203
Cu  Cu2  1  0.02583000  0.07693000  0.10276000  1.0 0.8357207203
Cu  Cu3  1  0.47417000  0.57693000  0.05110000  1.0 0.8357207203
Cu  Cu4  1  0.52583000  0.42307000  0.94890000  1.0 0.8357207203
Cu  Cu5  1  0.54639000  0.94437000  0.49076000  1.0 0.8142145002
Cu  Cu6  1  0.45361000  0.05563000  0.50924000  1.0 0.8142145002
Cu  Cu7  1  0.04639000  0.55563000  0.60202000  1.0 0.8142145002
Cu  Cu8  1  0.95361000  0.44437000  0.39798000  1.0 0.8142145002
H  H1  1  0.49568000  0.85806000  0.79770000  1.0 0.1412219795
H  H2  1  0.72526000  0.84356000  0.79670000  1.0 0.1203274241
H  H3  1  0.61359000  0.92072000  0.06451000  1.0 0.1203274241
H  H4  1  0.58672000  0.85111000  0.11757000  1.0 0.1293241843
H  H5  1  0.41490000  0.00487000  0.24409000  1.0 0.1293241843
H  H6  1  0.41013000  0.96818000  0.10095000  1.0 0.1104124452
H  H7  1  0.60843000  0.81118000  0.78311000  1.0 0.1104124452
H  H8  1  0.38171000  0.84371000  0.91872000  1.0 0.1412219795
H  H9  1  0.81590000  0.06379000  0.11465000  1.0 0.1104124452
H  H10  1  0.58938000  0.88492000  0.25790000  1.0 0.1203274241
H  H11  1  0.70152000  0.02168000  0.09916000  1.0 0.1203274241
H  H12  1  0.30139000  0.70198000  0.71393000  1.0 0.1104124452
H  H13  1  0.26925000  0.79184000  0.77565000  1.0 0.1013254425
H  H14  1  0.18053000  0.69159000  0.61254000  1.0 0.1412219795
H  H15  1  0.24101000  0.67063000  0.57164000  1.0 0.1104124452
H  H16  1  0.22260000  0.77167000  0.63217000  1.0 0.0793972729
H  H17  1  0.23672000  0.75948000  0.60108000  1.0 0.0905957182
H  H18  1  0.25751000  0.83612000  0.60297000  1.0 0.1013254425
H  H19  1  0.24551000  0.86978000  0.69537000  1.0 0.0905957182
H  H20  1  0.36926000  0.79821000  0.65619000  1.0 0.0717154691
H  H21  1  0.37726000  0.90774000  0.75298000  1.0 0.1013254425
H  H22  1  0.06036000  0.69798000  0.20230000  1.0 0.1412219795
H  H23  1  0.04686000  0.92856000  0.20330000  1.0 0.1203274241
H  H24  1  0.85621000  0.54908000  0.93549000  1.0 0.1203274241
H  H25  1  0.73354000  0.46915000  0.88243000  1.0 0.1293241843
H  H26  1  0.76078000  0.17081000  0.75591000  1.0 0.1293241843
H  H27  1  0.86723000  0.30918000  0.89905000  1.0 0.1104124452
H  H28  1  0.02807000  0.82532000  0.21689000  1.0 0.1104124452
H  H29  1  0.92499000  0.46299000  0.08128000  1.0 0.1412219795
H  H30  1  0.94914000  0.70125000  0.88535000  1.0 0.1104124452
H  H31  1  0.62702000  0.33148000  0.74210000  1.0 0.1203274241
H  H32  1  0.92252000  0.60236000  0.90084000  1.0 0.1203274241
H  H33  1  0.98805000  0.58746000  0.28607000  1.0 0.1104124452
H  H34  1  0.01619000  0.49360000  0.22435000  1.0 0.1013254425
H  H35  1  0.07905000  0.56799000  0.38746000  1.0 0.1412219795
H  H36  1  0.09899000  0.66937000  0.42836000  1.0 0.1104124452
H  H37  1  0.13950000  0.59043000  0.36783000  1.0 0.0793972729
H  H38  1  0.15840000  0.63564000  0.39892000  1.0 0.0905957182
H  H39  1  0.23315000  0.65454000  0.39703000  1.0 0.1013254425
H  H40  1  0.17441000  0.55014000  0.30463000  1.0 0.0905957182
H  H41  1  0.14202000  0.71307000  0.34381000  1.0 0.0717154691
H  H42  1  0.15476000  0.62428000  0.24702000  1.0 0.1013254425
H  H43  1  0.43964000  0.64194000  0.63762000  1.0 0.1412219795
H  H44  1  0.45314000  0.65644000  0.88170000  1.0 0.1203274241
H  H45  1  0.64379000  0.57928000  0.69287000  1.0 0.1203274241
H  H46  1  0.76646000  0.64889000  0.73561000  1.0 0.1293241843
H  H47  1  0.73922000  0.49513000  0.41003000  1.0 0.1293241843
H  H48  1  0.63277000  0.53182000  0.44195000  1.0 0.1104124452
H  H49  1  0.47193000  0.68882000  0.79725000  1.0 0.1104124452
H  H50  1  0.57501000  0.65629000  0.53800000  1.0 0.1412219795
H  H51  1  0.55086000  0.43621000  0.75211000  1.0 0.1104124452
H  H52  1  0.87298000  0.61508000  0.70446000  1.0 0.1203274241
H  H53  1  0.57748000  0.47832000  0.67984000  1.0 0.1203274241
H  H54  1  0.51195000  0.79802000  0.59941000  1.0 0.1104124452
H  H55  1  0.48381000  0.70816000  0.47741000  1.0 0.1013254425
H  H56  1  0.42095000  0.80841000  0.48894000  1.0 0.1412219795
H  H57  1  0.40101000  0.82937000  0.57038000  1.0 0.1104124452
H  H58  1  0.36050000  0.72833000  0.45093000  1.0 0.0793972729
H  H59  1  0.34160000  0.74052000  0.47724000  1.0 0.0905957182
H  H60  1  0.26685000  0.66388000  0.42139000  1.0 0.1013254425
H  H61  1  0.32559000  0.63022000  0.37573000  1.0 0.1013254425
H  H62  1  0.35798000  0.70179000  0.57105000  1.0 0.0717154691
H  H63  1  0.34524000  0.59226000  0.46952000  1.0 0.1013254425
H  H64  1  0.00432000  0.80202000  0.36238000  1.0 0.1412219795
H  H65  1  0.77474000  0.57144000  0.11830000  1.0 0.1203274241
H  H66  1  0.88641000  0.95092000  0.30713000  1.0 0.1203274241
H  H67  1  0.91328000  0.03085000  0.26439000  1.0 0.1293241843
H  H68  1  0.08510000  0.32919000  0.58997000  1.0 0.1293241843
H  H69  1  0.08987000  0.19082000  0.55805000  1.0 0.1104124452
H  H70  1  0.89157000  0.67468000  0.20275000  1.0 0.1104124452
H  H71  1  0.11829000  0.03701000  0.46200000  1.0 0.1412219795
H  H72  1  0.68410000  0.79875000  0.24789000  1.0 0.1104124452
H  H73  1  0.91062000  0.16852000  0.29554000  1.0 0.1203274241
H  H74  1  0.79848000  0.89764000  0.32016000  1.0 0.1203274241
H  H75  1  0.19861000  0.91254000  0.40059000  1.0 0.1104124452
H  H76  1  0.23075000  0.00640000  0.52259000  1.0 0.1013254425
H  H77  1  0.31947000  0.93201000  0.51106000  1.0 0.1412219795
H  H78  1  0.25899000  0.83063000  0.42962000  1.0 0.1104124452
H  H79  1  0.27740000  0.90957000  0.54907000  1.0 0.0793972729
H  H80  1  0.26328000  0.86436000  0.52276000  1.0 0.0905957182
H  H81  1  0.24249000  0.84546000  0.57861000  1.0 0.1013254425
H  H82  1  0.25449000  0.94986000  0.62427000  1.0 0.1013254425
H  H83  1  0.13074000  0.78693000  0.42895000  1.0 0.0717154691
H  H84  1  0.12274000  0.87572000  0.53048000  1.0 0.1013254425
H  H85  1  0.50432000  0.14194000  0.20230000  1.0 0.1412219795
H  H86  1  0.27474000  0.15644000  0.20330000  1.0 0.1203274241
H  H87  1  0.38641000  0.07928000  0.93549000  1.0 0.1203274241
H  H88  1  0.41328000  0.14889000  0.88243000  1.0 0.1293241843
H  H89  1  0.58510000  0.99513000  0.75591000  1.0 0.1293241843
H  H90  1  0.58987000  0.03182000  0.89905000  1.0 0.1104124452
H  H91  1  0.39157000  0.18882000  0.21689000  1.0 0.1104124452
H  H92  1  0.61829000  0.15629000  0.08128000  1.0 0.1412219795
H  H93  1  0.18410000  0.93621000  0.88535000  1.0 0.1104124452
H  H94  1  0.41062000  0.11508000  0.74210000  1.0 0.1203274241
H  H95  1  0.29848000  0.97832000  0.90084000  1.0 0.1203274241
H  H96  1  0.69861000  0.29802000  0.28607000  1.0 0.1104124452
H  H97  1  0.73075000  0.20816000  0.22435000  1.0 0.1013254425
H  H98  1  0.81947000  0.30841000  0.38746000  1.0 0.1412219795
H  H99  1  0.75899000  0.32937000  0.42836000  1.0 0.1104124452
H  H100  1  0.77740000  0.22833000  0.36783000  1.0 0.0793972729
H  H101  1  0.76328000  0.24052000  0.39892000  1.0 0.0905957182
H  H102  1  0.74249000  0.16388000  0.39703000  1.0 0.1013254425
H  H103  1  0.75449000  0.13022000  0.30463000  1.0 0.0905957182
H  H104  1  0.63074000  0.20179000  0.34381000  1.0 0.0717154691
H  H105  1  0.62274000  0.09226000  0.24702000  1.0 0.1013254425
H  H106  1  0.93964000  0.30202000  0.79770000  1.0 0.1412219795
H  H107  1  0.95314000  0.07144000  0.79670000  1.0 0.1104124452
H  H108  1  0.14379000  0.45092000  0.06451000  1.0 0.1203274241
H  H109  1  0.26646000  0.53085000  0.11757000  1.0 0.1293241843
H  H110  1  0.23922000  0.82919000  0.24409000  1.0 0.1293241843
H  H111  1  0.13277000  0.69082000  0.10095000  1.0 0.1104124452
H  H112  1  0.97193000  0.17468000  0.78311000  1.0 0.1104124452
H  H113  1  0.07501000  0.53701000  0.91872000  1.0 0.1412219795
H  H114  1  0.05086000  0.29875000  0.11465000  1.0 0.1104124452
H  H115  1  0.37298000  0.66852000  0.25790000  1.0 0.1203274241
H  H116  1  0.07748000  0.39764000  0.09916000  1.0 0.1203274241
H  H117  1  0.01195000  0.41254000  0.71393000  1.0 0.1104124452
H  H118  1  0.98381000  0.50640000  0.77565000  1.0 0.1013254425
H  H119  1  0.92095000  0.43201000  0.61254000  1.0 0.1412219795
H  H120  1  0.90101000  0.33063000  0.57164000  1.0 0.1104124452
H  H121  1  0.86050000  0.40957000  0.63217000  1.0 0.0793972729
H  H122  1  0.84160000  0.36436000  0.60108000  1.0 0.0905957182
H  H123  1  0.76685000  0.34546000  0.60297000  1.0 0.1013254425
H  H124  1  0.82559000  0.44986000  0.69537000  1.0 0.0905957182
H  H125  1  0.85798000  0.28693000  0.65619000  1.0 0.0717154691
H  H126  1  0.84524000  0.37572000  0.75298000  1.0 0.1013254425
H  H127  1  0.56036000  0.35806000  0.36238000  1.0 0.1412219795
H  H128  1  0.54686000  0.34356000  0.11830000  1.0 0.1203274241
H  H129  1  0.35621000  0.42072000  0.30713000  1.0 0.1203274241
H  H130  1  0.23354000  0.35111000  0.26439000  1.0 0.1293241843
H  H131  1  0.26078000  0.50487000  0.58997000  1.0 0.1293241843
H  H132  1  0.36723000  0.46818000  0.55805000  1.0 0.1104124452
H  H133  1  0.52807000  0.31118000  0.20275000  1.0 0.1104124452
H  H134  1  0.42499000  0.34371000  0.46200000  1.0 0.1412219795
H  H135  1  0.44914000  0.56379000  0.24789000  1.0 0.1104124452
H  H136  1  0.12702000  0.38492000  0.29554000  1.0 0.1203274241
H  H137  1  0.42252000  0.52168000  0.32016000  1.0 0.1203274241
H  H138  1  0.48805000  0.20198000  0.40059000  1.0 0.1104124452
H  H139  1  0.51619000  0.29184000  0.52259000  1.0 0.1013254425
H  H140  1  0.57905000  0.19159000  0.51106000  1.0 0.1412219795
H  H141  1  0.59899000  0.17063000  0.42962000  1.0 0.1104124452
H  H142  1  0.63950000  0.27167000  0.54907000  1.0 0.0793972729
H  H143  1  0.65840000  0.25948000  0.52276000  1.0 0.0905957182
H  H144  1  0.73315000  0.33612000  0.57861000  1.0 0.1013254425
H  H145  1  0.67441000  0.36978000  0.62427000  1.0 0.0905957182
H  H146  1  0.64202000  0.29821000  0.42895000  1.0 0.0717154691
H  H147  1  0.65476000  0.40774000  0.53048000  1.0 0.1013254425
H  H148  1  0.99568000  0.19798000  0.63762000  1.0 0.1412219795
H  H149  1  0.22526000  0.42856000  0.88170000  1.0 0.1203274241
H  H150  1  0.11359000  0.04908000  0.69287000  1.0 0.1203274241
H  H151  1  0.08672000  0.96915000  0.73561000  1.0 0.1293241843
H  H152  1  0.91490000  0.67081000  0.41003000  1.0 0.1293241843
H  H153  1  0.91013000  0.80918000  0.44195000  1.0 0.1104124452
H  H154  1  0.10843000  0.32532000  0.79725000  1.0 0.1104124452
H  H155  1  0.88171000  0.96299000  0.53800000  1.0 0.1412219795
H  H156  1  0.31590000  0.20125000  0.75211000  1.0 0.1104124452
H  H157  1  0.08938000  0.83148000  0.70446000  1.0 0.1203274241
H  H158  1  0.20152000  0.10236000  0.67984000  1.0 0.1203274241
H  H159  1  0.80139000  0.08746000  0.59941000  1.0 0.1104124452
H  H160  1  0.76925000  0.99360000  0.47741000  1.0 0.1013254425
H  H161  1  0.68053000  0.06799000  0.48894000  1.0 0.1412219795
H  H162  1  0.74101000  0.16937000  0.57038000  1.0 0.1104124452
H  H163  1  0.72260000  0.09043000  0.45093000  1.0 0.0793972729
H  H164  1  0.73672000  0.13564000  0.47724000  1.0 0.0905957182
H  H165  1  0.75751000  0.15454000  0.42139000  1.0 0.1013254425
H  H166  1  0.74551000  0.05014000  0.37573000  1.0 0.0905957182
H  H167  1  0.86926000  0.21307000  0.57105000  1.0 0.0717154691
H  H168  1  0.87726000  0.12428000  0.46952000  1.0 0.1013254425
C  C1  1  0.78424000  0.95574000  0.95650000  1.0 -0.0312820253
C  C2  1  0.50480000  0.97140000  0.35640000  1.0 0.5467763567
C  C3  1  0.50185000  0.95065000  0.26520000  1.0 -0.0107402732
C  C4  1  0.56594000  0.89274000  0.93160000  1.0 0.1013254425
C  C5  1  0.49640000  0.86530000  0.85010000  1.0 -0.3069137758
C  C6  1  0.72061000  0.88101000  0.85820000  1.0 -0.1032471643
C  C7  1  0.42570000  0.84790000  0.84560000  1.0 0.2343852544
C  C8  1  0.56635000  0.90325000  0.00990000  1.0 -0.2113899994
C  C9  1  0.49910000  0.90480000  0.09510000  1.0 0.0629708986
C  C10  1  0.49700000  0.88780000  0.00720000  1.0 0.1013254425
C  C11  1  0.64180000  0.91540000  0.94060000  1.0 0.0629708986
C  C12  1  0.55150000  0.88160000  0.14210000  1.0 -0.1413757702
C  C13  1  0.44970000  0.97380000  0.21890000  1.0 -0.1032471643
C  C14  1  0.44650000  0.95180000  0.13270000  1.0 -0.149617461
C  C15  1  0.86140000  0.97740000  0.96880000  1.0 0.5749475011
C  C16  1  0.65050000  0.86120000  0.84990000  1.0 -0.1595515678
C  C17  1  0.42830000  0.85790000  0.92340000  1.0 -0.2784369266
C  C18  1  0.77510000  0.01130000  0.04780000  1.0 -0.1032471643
C  C19  1  0.55390000  0.90260000  0.22710000  1.0 -0.1032471643
C  C20  1  0.70550000  0.98750000  0.03780000  1.0 -0.1595515678
C  C21  1  0.28780000  0.75600000  0.72360000  1.0 -0.0781271197
C  C22  1  0.22840000  0.71960000  0.62760000  1.0 -0.324371166
C  C23  1  0.26480000  0.82520000  0.64600000  1.0 -0.324371166
C  C24  1  0.34880000  0.84080000  0.70540000  1.0 -0.149617461
C  C25  1  0.99924000  0.82774000  0.04350000  1.0 -0.0312820253
C  C26  1  0.61500000  0.14840000  0.64360000  1.0 0.5467763567
C  C27  1  0.68545000  0.23665000  0.73480000  1.0 -0.0107402732
C  C28  1  0.96114000  0.63434000  0.06840000  1.0 0.1013254425
C  C29  1  0.01520000  0.64630000  0.14990000  1.0 -0.3069137758
C  C30  1  0.02281000  0.86241000  0.14180000  1.0 -0.1032471643
C  C31  1  0.00230000  0.58010000  0.15440000  1.0 0.2343852544
C  C32  1  0.89335000  0.55645000  0.99010000  1.0 -0.2113899994
C  C33  1  0.80970000  0.40400000  0.90490000  1.0 0.0629708986
C  C34  1  0.88060000  0.48980000  0.99280000  1.0 0.1013254425
C  C35  1  0.97480000  0.70120000  0.05940000  1.0 0.0629708986
C  C36  1  0.73950000  0.40940000  0.85790000  1.0 -0.1413757702
C  C37  1  0.75490000  0.23080000  0.78110000  1.0 -0.1032471643
C  C38  1  0.81910000  0.31380000  0.86730000  1.0 -0.149617461
C  C39  1  0.00860000  0.89260000  0.03120000  1.0 0.5749475011
C  C40  1  0.01130000  0.80060000  0.15010000  1.0 -0.1595515678
C  C41  1  0.93450000  0.50490000  0.07660000  1.0 -0.2784369266
C  C42  1  0.96350000  0.72730000  0.95220000  1.0 -0.1032471643
C  C43  1  0.67550000  0.32680000  0.77290000  1.0 -0.1032471643
C  C44  1  0.94970000  0.66770000  0.96220000  1.0 -0.1595515678
C  C45  1  0.03240000  0.56420000  0.27640000  1.0 -0.0781271197
C  C46  1  0.09200000  0.60080000  0.37240000  1.0 -0.324371166
C  C47  1  0.17920000  0.61880000  0.35400000  1.0 -0.324371166
C  C48  1  0.13540000  0.64340000  0.29460000  1.0 -0.149617461
C  C49  1  0.50076000  0.54426000  0.82850000  1.0 -0.0312820253
C  C50  1  0.88500000  0.52860000  0.53340000  1.0 0.5467763567
C  C51  1  0.81455000  0.54935000  0.55120000  1.0 -0.0107402732
C  C52  1  0.53886000  0.60726000  0.67320000  1.0 0.1013254425
C  C53  1  0.48480000  0.63470000  0.63110000  1.0 -0.3069137758
C  C54  1  0.47719000  0.61899000  0.83960000  1.0 -0.1032471643
C  C55  1  0.49770000  0.65210000  0.57780000  1.0 0.2343852544
C  C56  1  0.60665000  0.59675000  0.66310000  1.0 -0.2113899994
C  C57  1  0.69030000  0.59520000  0.59430000  1.0 0.0629708986
C  C58  1  0.61940000  0.61220000  0.60920000  1.0 0.1013254425
C  C59  1  0.52520000  0.58460000  0.72640000  1.0 0.0629708986
C  C60  1  0.76050000  0.61840000  0.66990000  1.0 -0.1413757702
C  C61  1  0.74510000  0.52620000  0.47590000  1.0 -0.1032471643
C  C62  1  0.68090000  0.54820000  0.49470000  1.0 -0.149617461
C  C63  1  0.49140000  0.52260000  0.88400000  1.0 0.5749475011
C  C64  1  0.48870000  0.63880000  0.78930000  1.0 -0.1595515678
C  C65  1  0.56550000  0.64210000  0.57040000  1.0 -0.2784369266
C  C66  1  0.53650000  0.48870000  0.76380000  1.0 -0.1032471643
C  C67  1  0.82450000  0.59740000  0.65130000  1.0 -0.1032471643
C  C68  1  0.55030000  0.51250000  0.71800000  1.0 -0.1595515678
C  C69  1  0.46760000  0.74400000  0.53180000  1.0 -0.0781271197
C  C70  1  0.40800000  0.78040000  0.50880000  1.0 -0.324371166
C  C71  1  0.32080000  0.67480000  0.43960000  1.0 -0.324371166
C  C72  1  0.36460000  0.65920000  0.50800000  1.0 -0.149617461
C  C73  1  0.71576000  0.67226000  0.17150000  1.0 -0.0312820253
C  C74  1  0.99520000  0.35160000  0.46660000  1.0 0.5467763567
C  C75  1  0.99815000  0.26335000  0.44880000  1.0 -0.0107402732
C  C76  1  0.93406000  0.86566000  0.32680000  1.0 0.1013254425
C  C77  1  0.00360000  0.85370000  0.36890000  1.0 -0.3069137758
C  C78  1  0.77939000  0.63759000  0.16040000  1.0 -0.1032471643
C  C79  1  0.07430000  0.91990000  0.42220000  1.0 0.2343852544
C  C80  1  0.93365000  0.94355000  0.33690000  1.0 -0.2113899994
C  C81  1  0.00090000  0.09600000  0.40570000  1.0 0.0629708986
C  C82  1  0.00300000  0.01020000  0.39080000  1.0 0.1013254425
C  C83  1  0.85820000  0.79880000  0.27360000  1.0 0.0629708986
C  C84  1  0.94850000  0.09060000  0.33010000  1.0 -0.1413757702
C  C85  1  0.05030000  0.26920000  0.52410000  1.0 -0.1032471643
C  C86  1  0.05350000  0.18620000  0.50530000  1.0 -0.149617461
C  C87  1  0.63860000  0.60740000  0.11600000  1.0 0.5749475011
C  C88  1  0.84950000  0.69940000  0.21070000  1.0 -0.1595515678
C  C89  1  0.07170000  0.99510000  0.42960000  1.0 -0.2784369266
C  C90  1  0.72490000  0.77270000  0.23620000  1.0 -0.1054407856
C  C91  1  0.94610000  0.17320000  0.34870000  1.0 -0.1032471643
C  C92  1  0.79450000  0.83230000  0.28200000  1.0 -0.1595515678
C  C93  1  0.21220000  0.93580000  0.46820000  1.0 -0.0781271197
C  C94  1  0.27160000  0.89920000  0.49120000  1.0 -0.324371166
C  C95  1  0.23520000  0.88120000  0.56040000  1.0 -0.324371166
C  C96  1  0.15120000  0.85660000  0.49200000  1.0 -0.149617461
C  C97  1  0.21576000  0.04426000  0.04350000  1.0 -0.0312820253
C  C98  1  0.49520000  0.02860000  0.64360000  1.0 0.5467763567
C  C99  1  0.49815000  0.04935000  0.73480000  1.0 -0.0107402732
C  C100  1  0.43406000  0.10726000  0.06840000  1.0 0.1013254425
C  C101  1  0.50360000  0.13470000  0.14990000  1.0 -0.3048419482
C  C102  1  0.27939000  0.11899000  0.14180000  1.0 -0.1032471643
C  C103  1  0.57430000  0.15210000  0.15440000  1.0 0.2343852544
C  C104  1  0.43365000  0.09675000  0.99010000  1.0 -0.2113899994
C  C105  1  0.50090000  0.09520000  0.90490000  1.0 0.0629708986
C  C106  1  0.50300000  0.11220000  0.99280000  1.0 0.1013254425
C  C107  1  0.35820000  0.08460000  0.05940000  1.0 0.0629708986
C  C108  1  0.44850000  0.11840000  0.85790000  1.0 -0.1413757702
C  C109  1  0.55030000  0.02620000  0.78110000  1.0 -0.1032471643
C  C110  1  0.55350000  0.04820000  0.86730000  1.0 -0.149617461
C  C111  1  0.13860000  0.02260000  0.03120000  1.0 0.5749475011
C  C112  1  0.34950000  0.13880000  0.15010000  1.0 -0.1595515678
C  C113  1  0.57170000  0.14210000  0.07660000  1.0 -0.2784369266
C  C114  1  0.22490000  0.98870000  0.95220000  1.0 -0.1054407856
C  C115  1  0.44610000  0.09740000  0.77290000  1.0 -0.1032471643
C  C116  1  0.29450000  0.01250000  0.96220000  1.0 -0.1595515678
C  C117  1  0.71220000  0.24400000  0.27640000  1.0 -0.0781271197
C  C118  1  0.77160000  0.28040000  0.37240000  1.0 -0.324371166
C  C119  1  0.73520000  0.17480000  0.35400000  1.0 -0.324371166
C  C120  1  0.65120000  0.15920000  0.29460000  1.0 -0.149617461
C  C121  1  0.00076000  0.17226000  0.95650000  1.0 -0.0312820253
C  C122  1  0.38500000  0.85160000  0.35640000  1.0 0.5467763567
C  C123  1  0.31455000  0.76335000  0.26520000  1.0 -0.0107402732
C  C124  1  0.03886000  0.36566000  0.93160000  1.0 0.1013254425
C  C125  1  0.98480000  0.35370000  0.85010000  1.0 -0.3069137758
C  C126  1  0.97719000  0.13759000  0.85820000  1.0 -0.1032471643
C  C127  1  0.99770000  0.41990000  0.84560000  1.0 0.2343852544
C  C128  1  0.10665000  0.44355000  0.00990000  1.0 -0.2113899994
C  C129  1  0.19030000  0.59600000  0.09510000  1.0 0.0629708986
C  C130  1  0.11940000  0.51020000  0.00720000  1.0 0.1013254425
C  C131  1  0.02520000  0.29880000  0.94060000  1.0 0.0629708986
C  C132  1  0.26050000  0.59060000  0.14210000  1.0 -0.1413757702
C  C133  1  0.24510000  0.76920000  0.21890000  1.0 -0.1032471643
C  C134  1  0.18090000  0.68620000  0.13270000  1.0 -0.149617461
C  C135  1  0.99140000  0.10740000  0.96880000  1.0 0.5749475011
C  C136  1  0.98870000  0.19940000  0.84990000  1.0 -0.1595515678
C  C137  1  0.06550000  0.49510000  0.92340000  1.0 -0.2784369266
C  C138  1  0.03650000  0.27270000  0.04780000  1.0 -0.1032471643
C  C139  1  0.32450000  0.67320000  0.22710000  1.0 -0.1032471643
C  C140  1  0.05030000  0.33230000  0.03780000  1.0 -0.1595515678
C  C141  1  0.96760000  0.43580000  0.72360000  1.0 -0.0781271197
C  C142  1  0.90800000  0.39920000  0.62760000  1.0 -0.324371166
C  C143  1  0.82080000  0.38120000  0.64600000  1.0 -0.324371166
C  C144  1  0.86460000  0.35660000  0.70540000  1.0 -0.149617461
C  C145  1  0.49924000  0.45574000  0.17150000  1.0 -0.0312820253
C  C146  1  0.11500000  0.47140000  0.46660000  1.0 0.5467763567
C  C147  1  0.18545000  0.45065000  0.44880000  1.0 -0.0107402732
C  C148  1  0.46114000  0.39274000  0.32680000  1.0 0.1013254425
C  C149  1  0.51520000  0.36530000  0.36890000  1.0 -0.3069137758
C  C150  1  0.52281000  0.38101000  0.16040000  1.0 -0.1032471643
C  C151  1  0.50230000  0.34790000  0.42220000  1.0 0.2343852544
C  C152  1  0.39335000  0.40325000  0.33690000  1.0 -0.2113899994
C  C153  1  0.30970000  0.40480000  0.40570000  1.0 0.0629708986
C  C154  1  0.38060000  0.38780000  0.39080000  1.0 0.1013254425
C  C155  1  0.47480000  0.41540000  0.27360000  1.0 0.0629708986
C  C156  1  0.23950000  0.38160000  0.33010000  1.0 -0.1413757702
C  C157  1  0.25490000  0.47380000  0.52410000  1.0 -0.1032471643
C  C158  1  0.31910000  0.45180000  0.50530000  1.0 -0.149617461
C  C159  1  0.50860000  0.47740000  0.11600000  1.0 0.5749475011
C  C160  1  0.51130000  0.36120000  0.21070000  1.0 -0.1595515678
C  C161  1  0.43450000  0.35790000  0.42960000  1.0 -0.2784369266
C  C162  1  0.46350000  0.51130000  0.23620000  1.0 -0.1032471643
C  C163  1  0.17550000  0.40260000  0.34870000  1.0 -0.1032471643
C  C164  1  0.44970000  0.48750000  0.28200000  1.0 -0.1595515678
C  C165  1  0.53240000  0.25600000  0.46820000  1.0 -0.0781271197
C  C166  1  0.59200000  0.21960000  0.49120000  1.0 -0.324371166
C  C167  1  0.67920000  0.32520000  0.56040000  1.0 -0.324371166
C  C168  1  0.63540000  0.34080000  0.49200000  1.0 -0.149617461
C  C169  1  0.28424000  0.32774000  0.82850000  1.0 -0.0312820253
C  C170  1  0.00480000  0.64840000  0.53340000  1.0 0.5467763567
C  C171  1  0.00185000  0.73665000  0.55120000  1.0 -0.0107402732
C  C172  1  0.06594000  0.13434000  0.67320000  1.0 0.1013254425
C  C173  1  0.99640000  0.14630000  0.63110000  1.0 -0.3069137758
C  C174  1  0.22061000  0.36241000  0.83960000  1.0 -0.1032471643
C  C175  1  0.92570000  0.08010000  0.57780000  1.0 0.2343852544
C  C176  1  0.06635000  0.05645000  0.66310000  1.0 -0.2113899994
C  C177  1  0.99910000  0.90400000  0.59430000  1.0 0.0629708986
C  C178  1  0.99700000  0.98980000  0.60920000  1.0 0.1013254425
C  C179  1  0.14180000  0.20120000  0.72640000  1.0 0.0629708986
C  C180  1  0.05150000  0.90940000  0.66990000  1.0 -0.1413757702
C  C181  1  0.94970000  0.73080000  0.47590000  1.0 -0.1032471643
C  C182  1  0.94650000  0.81380000  0.49470000  1.0 -0.149617461
C  C183  1  0.36140000  0.39260000  0.88400000  1.0 0.5749475011
C  C184  1  0.15050000  0.30060000  0.78930000  1.0 -0.1595515678
C  C185  1  0.92830000  0.00490000  0.57040000  1.0 -0.2784369266
C  C186  1  0.27510000  0.22730000  0.76380000  1.0 -0.1032471643
C  C187  1  0.05390000  0.82680000  0.65130000  1.0 -0.1032471643
C  C188  1  0.20550000  0.16770000  0.71800000  1.0 -0.1595515678
C  C189  1  0.78780000  0.06420000  0.53180000  1.0 -0.0781271197
C  C190  1  0.72840000  0.10080000  0.50880000  1.0 -0.324371166
C  C191  1  0.76480000  0.11880000  0.43960000  1.0 -0.324371166
C  C192  1  0.84880000  0.14340000  0.50800000  1.0 -0.149617461
O  O1  1  0.86981000  0.91871000  0.88490000  1.0 -0.5355328745
O  O2  1  0.91431000  0.04871000  0.06040000  1.0 -0.5298470324
O  O3  1  0.46542000  0.02742000  0.39880000  1.0 -0.5146839893
O  O4  1  0.35748000  0.82018000  0.76450000  1.0 -0.0781271197
O  O5  1  0.54190000  0.93210000  0.38140000  1.0 -0.4709140486
O  O6  1  0.03381000  0.98491000  0.11510000  1.0 -0.5298470324
O  O7  1  0.98831000  0.85391000  0.93960000  1.0 -0.5298470324
O  O8  1  0.62862000  0.06662000  0.60120000  1.0 -0.5146839893
O  O9  1  0.05568000  0.59298000  0.23550000  1.0 -0.0781271197
O  O10  1  0.55070000  0.16050000  0.61860000  1.0 -0.4709140486
O  O11  1  0.46619000  0.58129000  0.95110000  1.0 -0.5298470324
O  O12  1  0.51169000  0.45129000  0.86560000  1.0 -0.5298470324
O  O13  1  0.87138000  0.47258000  0.43800000  1.0 -0.5153337544
O  O14  1  0.44432000  0.67982000  0.53730000  1.0 -0.0781271197
O  O15  1  0.94930000  0.56790000  0.60980000  1.0 -0.4709140486
O  O16  1  0.63019000  0.51509000  0.04890000  1.0 -0.5298470324
O  O17  1  0.58569000  0.64609000  0.13440000  1.0 -0.5298470324
O  O18  1  0.03458000  0.43338000  0.56200000  1.0 -0.5153337544
O  O19  1  0.14252000  0.90702000  0.46270000  1.0 -0.0781271197
O  O20  1  0.95810000  0.33950000  0.39020000  1.0 -0.4709140486
O  O21  1  0.13019000  0.08129000  0.11510000  1.0 -0.5298470324
O  O22  1  0.08569000  0.95129000  0.93960000  1.0 -0.5298470324
O  O23  1  0.53458000  0.97258000  0.60120000  1.0 -0.5146839893
O  O24  1  0.64252000  0.17982000  0.23550000  1.0 -0.0781271197
O  O25  1  0.45810000  0.06790000  0.61860000  1.0 -0.4709140486
O  O26  1  0.96619000  0.01509000  0.88490000  1.0 -0.5298470324
O  O27  1  0.01169000  0.14609000  0.06040000  1.0 -0.5298470324
O  O28  1  0.37138000  0.93338000  0.39880000  1.0 -0.5146839893
O  O29  1  0.94432000  0.40702000  0.76450000  1.0 -0.0781271197
O  O30  1  0.44930000  0.83950000  0.38140000  1.0 -0.4709140486
O  O31  1  0.53381000  0.41871000  0.04890000  1.0 -0.5298470324
O  O32  1  0.48831000  0.54871000  0.13440000  1.0 -0.5298470324
O  O33  1  0.12862000  0.52742000  0.56200000  1.0 -0.5153337544
O  O34  1  0.55568000  0.32018000  0.46270000  1.0 -0.0781271197
O  O35  1  0.05070000  0.43210000  0.39020000  1.0 -0.4709140486
O  O36  1  0.36981000  0.48491000  0.95110000  1.0 -0.5298470324
O  O37  1  0.41431000  0.35391000  0.86560000  1.0 -0.5298470324
O  O38  1  0.96542000  0.56662000  0.43800000  1.0 -0.5153337544
O  O39  1  0.85748000  0.09298000  0.53730000  1.0 -0.0781271197
O  O40  1  0.04190000  0.66050000  0.60980000  1.0 -0.4709140486
