# DDEC6 charges by PACMAN v1.1 (https://github.com/mtap-research/PACMAN-charge/)
data_BUGSOM_FSR_pacman
_symmetry_space_group_name_H-M   'P 1'
_cell_length_a   5.52940000
_cell_length_b   13.35230000
_cell_length_c   20.64200000
_cell_angle_alpha   90.00000000
_cell_angle_beta   95.37800000
_cell_angle_gamma   90.00000000
_symmetry_Int_Tables_number   1
_chemical_formula_structural   TbPH17C7NO8
_chemical_formula_sum   'Tb4 P4 H68 C28 N4 O32'
_cell_volume   1517.29452379
_cell_formula_units_Z   4
loop_
 _symmetry_equiv_pos_site_id
 _symmetry_equiv_pos_as_xyz
  1  'x, y, z'
loop_
 _atom_site_type_symbol
 _atom_site_label
 _atom_site_symmetry_multiplicity
 _atom_site_fract_x
 _atom_site_fract_y
 _atom_site_fract_z
 _atom_site_occupancy
 _atom_site_charge
Tb  Tb1  1  0.87235000  0.63267000  0.52782000  1.0 2.0002922179
Tb  Tb2  1  0.12765000  0.13267000  0.97218000  1.0 2.0002922179
Tb  Tb3  1  0.12765000  0.36733000  0.47218000  1.0 2.0002922179
Tb  Tb4  1  0.87235000  0.86733000  0.02782000  1.0 2.0002922179
P  P1  1  0.58990000  0.52088000  0.41395000  1.0 1.2620210114
P  P2  1  0.41010000  0.02088000  0.08605000  1.0 1.2620210114
P  P3  1  0.41010000  0.47912000  0.58605000  1.0 1.2620210114
P  P4  1  0.58990000  0.97912000  0.91395000  1.0 1.2620210114
H  H1  1  0.83510000  0.58020000  0.33670000  1.0 0.1219889881
H  H2  1  0.16490000  0.08020000  0.16330000  1.0 0.1219889881
H  H3  1  0.16490000  0.41980000  0.66330000  1.0 0.1219889881
H  H4  1  0.83510000  0.91980000  0.83670000  1.0 0.1219889881
H  H5  1  0.74060000  0.47290000  0.31710000  1.0 0.1403874071
H  H6  1  0.25940000  0.97290000  0.18290000  1.0 0.1403874071
H  H7  1  0.25940000  0.52710000  0.68290000  1.0 0.1403874071
H  H8  1  0.74060000  0.02710000  0.81710000  1.0 0.1403874071
H  H9  1  0.62260000  0.72860000  0.29840000  1.0 0.0914402479
H  H10  1  0.37740000  0.22860000  0.20160000  1.0 0.0914402479
H  H11  1  0.37740000  0.27140000  0.70160000  1.0 0.0914402479
H  H12  1  0.62260000  0.77140000  0.79840000  1.0 0.0914402479
H  H13  1  0.41440000  0.69890000  0.34170000  1.0 0.0784130903
H  H14  1  0.58560000  0.19890000  0.15830000  1.0 0.0784130903
H  H15  1  0.58560000  0.30110000  0.65830000  1.0 0.0784130903
H  H16  1  0.41440000  0.80110000  0.84170000  1.0 0.0784130903
H  H17  1  0.12480000  0.70130000  0.24880000  1.0 0.0986411794
H  H18  1  0.87520000  0.20130000  0.25120000  1.0 0.0986411794
H  H19  1  0.87520000  0.29870000  0.75120000  1.0 0.0986411794
H  H20  1  0.12480000  0.79870000  0.74880000  1.0 0.0986411794
H  H21  1  0.25350000  0.80610000  0.25490000  1.0 0.1082824214
H  H22  1  0.74650000  0.30610000  0.24510000  1.0 0.1082824214
H  H23  1  0.74650000  0.19390000  0.74510000  1.0 0.1082824214
H  H24  1  0.25350000  0.69390000  0.75490000  1.0 0.1082824214
H  H25  1  0.51540000  0.75850000  0.17540000  1.0 0.1219889881
H  H26  1  0.48460000  0.25850000  0.32460000  1.0 0.1219889881
H  H27  1  0.48460000  0.24150000  0.82460000  1.0 0.1219889881
H  H28  1  0.51540000  0.74150000  0.67540000  1.0 0.1219889881
H  H29  1  0.45170000  0.59980000  0.12200000  1.0 0.0986411794
H  H30  1  0.54830000  0.09980000  0.37800000  1.0 0.0986411794
H  H31  1  0.54830000  0.40020000  0.87800000  1.0 0.0986411794
H  H32  1  0.45170000  0.90020000  0.62200000  1.0 0.0986411794
H  H33  1  0.24810000  0.57360000  0.16760000  1.0 0.1082824214
H  H34  1  0.75190000  0.07360000  0.33240000  1.0 0.1082824214
H  H35  1  0.75190000  0.42640000  0.83240000  1.0 0.1082824214
H  H36  1  0.24810000  0.92640000  0.66760000  1.0 0.1082824214
H  H37  1  0.62530000  0.49770000  0.20980000  1.0 0.0986411794
H  H38  1  0.37470000  0.99770000  0.29020000  1.0 0.0986411794
H  H39  1  0.37470000  0.50230000  0.79020000  1.0 0.0986411794
H  H40  1  0.62530000  0.00230000  0.70980000  1.0 0.0986411794
H  H41  1  0.74850000  0.60390000  0.21510000  1.0 0.0914402479
H  H42  1  0.25150000  0.10390000  0.28490000  1.0 0.0914402479
H  H43  1  0.25150000  0.39610000  0.78490000  1.0 0.0914402479
H  H44  1  0.74850000  0.89610000  0.71510000  1.0 0.0914402479
H  H45  1  0.18620000  0.72300000  0.44710000  1.0 0.3511438431
H  H46  1  0.81380000  0.22300000  0.05290000  1.0 0.3511438431
H  H47  1  0.81380000  0.27700000  0.55290000  1.0 0.3511438431
H  H48  1  0.18620000  0.77700000  0.94710000  1.0 0.3511438431
H  H49  1  0.12750000  0.63190000  0.41770000  1.0 0.3683801057
H  H50  1  0.87250000  0.13190000  0.08230000  1.0 0.3683801057
H  H51  1  0.87250000  0.36810000  0.58230000  1.0 0.3683801057
H  H52  1  0.12750000  0.86810000  0.91770000  1.0 0.3683801057
H  H53  1  0.72050000  0.81910000  0.56540000  1.0 0.3400567757
H  H54  1  0.27950000  0.31910000  0.93460000  1.0 0.3400567757
H  H55  1  0.27950000  0.18090000  0.43460000  1.0 0.3400567757
H  H56  1  0.72050000  0.68090000  0.06540000  1.0 0.3400567757
H  H57  1  0.65290000  0.81530000  0.49940000  1.0 0.3584777774
H  H58  1  0.34710000  0.31530000  0.00060000  1.0 0.3584777774
H  H59  1  0.34710000  0.18470000  0.50060000  1.0 0.3584777774
H  H60  1  0.65290000  0.68470000  0.99940000  1.0 0.3584777774
H  H61  1  0.18460000  0.77220000  0.94690000  1.0 0.3788280251
H  H62  1  0.81540000  0.27220000  0.55310000  1.0 0.3788280251
H  H63  1  0.81540000  0.22780000  0.05310000  1.0 0.3788280251
H  H64  1  0.18460000  0.72780000  0.44690000  1.0 0.3788280251
H  H65  1  0.12900000  0.86300000  0.91660000  1.0 0.3511438431
H  H66  1  0.87100000  0.36300000  0.58340000  1.0 0.3511438431
H  H67  1  0.87100000  0.13700000  0.08340000  1.0 0.3511438431
H  H68  1  0.12900000  0.63700000  0.41660000  1.0 0.3511438431
C  C1  1  0.69220000  0.53770000  0.33280000  1.0 -0.4327161549
C  C2  1  0.30780000  0.03770000  0.16720000  1.0 -0.4327161549
C  C3  1  0.30780000  0.46230000  0.66720000  1.0 -0.4327161549
C  C4  1  0.69220000  0.96230000  0.83280000  1.0 -0.4327161549
C  C5  1  0.47090000  0.69220000  0.29880000  1.0 -0.1133837974
C  C6  1  0.52910000  0.19220000  0.20120000  1.0 -0.1133837974
C  C7  1  0.52910000  0.30780000  0.70120000  1.0 -0.1133837974
C  C8  1  0.47090000  0.80780000  0.79880000  1.0 -0.1133837974
C  C9  1  0.27830000  0.73560000  0.24640000  1.0 -0.2037150761
C  C10  1  0.72170000  0.23560000  0.25360000  1.0 -0.2037150761
C  C11  1  0.72170000  0.26440000  0.75360000  1.0 -0.2037150761
C  C12  1  0.27830000  0.76440000  0.74640000  1.0 -0.2037150761
C  C13  1  0.36150000  0.72300000  0.17790000  1.0 -0.0991030823
C  C14  1  0.63850000  0.22300000  0.32210000  1.0 -0.0991030823
C  C15  1  0.63850000  0.27700000  0.82210000  1.0 -0.0991030823
C  C16  1  0.36150000  0.77700000  0.67790000  1.0 -0.0991030823
C  C17  1  0.39960000  0.60940000  0.16510000  1.0 -0.2037150761
C  C18  1  0.60040000  0.10940000  0.33490000  1.0 -0.2037150761
C  C19  1  0.60040000  0.39060000  0.83490000  1.0 -0.2037150761
C  C20  1  0.39960000  0.89060000  0.66510000  1.0 -0.2037150761
C  C21  1  0.59690000  0.56820000  0.21750000  1.0 -0.0991030823
C  C22  1  0.40310000  0.06820000  0.28250000  1.0 -0.0991030823
C  C23  1  0.40310000  0.43180000  0.78250000  1.0 -0.0991030823
C  C24  1  0.59690000  0.93180000  0.71750000  1.0 -0.0991030823
C  C25  1  0.17040000  0.76420000  0.12510000  1.0 0.5575108292
C  C26  1  0.82960000  0.26420000  0.37490000  1.0 0.5575108292
C  C27  1  0.82960000  0.23580000  0.87490000  1.0 0.5575108292
C  C28  1  0.17040000  0.73580000  0.62510000  1.0 0.5575108292
N  N1  1  0.50950000  0.58220000  0.28340000  1.0 -0.0195383119
N  N2  1  0.49050000  0.08220000  0.21660000  1.0 -0.0195383119
N  N3  1  0.49050000  0.41780000  0.71660000  1.0 -0.0195383119
N  N4  1  0.50950000  0.91780000  0.78340000  1.0 -0.0195383119
O  O1  1  0.54080000  0.62300000  0.44440000  1.0 -0.8127781538
O  O2  1  0.45920000  0.12300000  0.05560000  1.0 -0.8127781538
O  O3  1  0.45920000  0.37700000  0.55560000  1.0 -0.8127781538
O  O4  1  0.54080000  0.87700000  0.94440000  1.0 -0.8127781538
O  O5  1  0.82240000  0.48140000  0.45430000  1.0 -0.9102786419
O  O6  1  0.17760000  0.98140000  0.04570000  1.0 -0.9102786419
O  O7  1  0.17760000  0.51860000  0.54570000  1.0 -0.9102786419
O  O8  1  0.82240000  0.01860000  0.95430000  1.0 -0.9102786419
O  O9  1  0.37600000  0.45020000  0.40914000  1.0 -0.8384788869
O  O10  1  0.62400000  0.95020000  0.09086000  1.0 -0.8384788869
O  O11  1  0.62400000  0.54980000  0.59086000  1.0 -0.8384788869
O  O12  1  0.37600000  0.04980000  0.90914000  1.0 -0.8384788869
O  O13  1  0.00200000  0.81920000  0.14090000  1.0 -0.6116304634
O  O14  1  0.99800000  0.31920000  0.35910000  1.0 -0.6116304634
O  O15  1  0.99800000  0.18080000  0.85910000  1.0 -0.6116304634
O  O16  1  0.00200000  0.68080000  0.64090000  1.0 -0.6116304634
O  O17  1  0.19780000  0.74880000  0.06740000  1.0 -0.5983144877
O  O18  1  0.80220000  0.24880000  0.43260000  1.0 -0.5983144877
O  O19  1  0.80220000  0.25120000  0.93260000  1.0 -0.5983144877
O  O20  1  0.19780000  0.75120000  0.56740000  1.0 -0.5983144877
O  O21  1  0.07100000  0.68300000  0.43500000  1.0 -0.7240174649
O  O22  1  0.92900000  0.18300000  0.06500000  1.0 -0.7240174649
O  O23  1  0.92900000  0.31700000  0.56500000  1.0 -0.7240174649
O  O24  1  0.07100000  0.81700000  0.93500000  1.0 -0.7240174649
O  O25  1  0.65400000  0.78400000  0.53500000  1.0 -0.7314802446
O  O26  1  0.34600000  0.28400000  0.96500000  1.0 -0.7314802446
O  O27  1  0.34600000  0.21600000  0.46500000  1.0 -0.7314802446
O  O28  1  0.65400000  0.71600000  0.03500000  1.0 -0.7314802446
O  O29  1  0.07100000  0.81300000  0.93500000  1.0 -0.7314802446
O  O30  1  0.92900000  0.31300000  0.56500000  1.0 -0.7314802446
O  O31  1  0.92900000  0.18700000  0.06500000  1.0 -0.7240174649
O  O32  1  0.07100000  0.68700000  0.43500000  1.0 -0.7240174649
