# DDEC6 charges by PACMAN v1.1 (https://github.com/mtap-research/PACMAN-charge/)
data_BUGSEC_ASR_pacman
_symmetry_space_group_name_H-M   'P 1'
_cell_length_a   5.55200000
_cell_length_b   13.36860000
_cell_length_c   20.79700000
_cell_angle_alpha   90.00000000
_cell_angle_beta   95.57700000
_cell_angle_gamma   90.00000000
_symmetry_Int_Tables_number   1
_chemical_formula_structural   EuPH15C7NO7
_chemical_formula_sum   'Eu4 P4 H60 C28 N4 O28'
_cell_volume   1536.29798552
_cell_formula_units_Z   4
loop_
 _symmetry_equiv_pos_site_id
 _symmetry_equiv_pos_as_xyz
  1  'x, y, z'
loop_
 _atom_site_type_symbol
 _atom_site_label
 _atom_site_symmetry_multiplicity
 _atom_site_fract_x
 _atom_site_fract_y
 _atom_site_fract_z
 _atom_site_occupancy
 _atom_site_charge
Eu  Eu1  1  0.87235000  0.63267000  0.52782000  1.0 2.0247735395
Eu  Eu2  1  0.12765000  0.13267000  0.97218000  1.0 2.0253168955
Eu  Eu3  1  0.12765000  0.36733000  0.47218000  1.0 2.0247735395
Eu  Eu4  1  0.87235000  0.86733000  0.02782000  1.0 2.0247735395
P  P1  1  0.58990000  0.52088000  0.41395000  1.0 1.2606961145
P  P2  1  0.41010000  0.02088000  0.08605000  1.0 1.2606961145
P  P3  1  0.41010000  0.47912000  0.58605000  1.0 1.2606961145
P  P4  1  0.58990000  0.97912000  0.91395000  1.0 1.2606961145
H  H1  1  0.83450000  0.58010000  0.33670000  1.0 0.1173933982
H  H2  1  0.16550000  0.08010000  0.16330000  1.0 0.1173933982
H  H3  1  0.16550000  0.41990000  0.66330000  1.0 0.1173933982
H  H4  1  0.83450000  0.91990000  0.83670000  1.0 0.1173933982
H  H5  1  0.74040000  0.47300000  0.31730000  1.0 0.1410189881
H  H6  1  0.25960000  0.97300000  0.18270000  1.0 0.1410189881
H  H7  1  0.25960000  0.52700000  0.68270000  1.0 0.1410189881
H  H8  1  0.74040000  0.02700000  0.81730000  1.0 0.1410189881
H  H9  1  0.62190000  0.72860000  0.29860000  1.0 0.0910264538
H  H10  1  0.37810000  0.22860000  0.20140000  1.0 0.0910264538
H  H11  1  0.37810000  0.27140000  0.70140000  1.0 0.0910264538
H  H12  1  0.62190000  0.77140000  0.79860000  1.0 0.0910264538
H  H13  1  0.41450000  0.69880000  0.34130000  1.0 0.0746312304
H  H14  1  0.58550000  0.19880000  0.15870000  1.0 0.0746312304
H  H15  1  0.58550000  0.30120000  0.65870000  1.0 0.0746312304
H  H16  1  0.41450000  0.80120000  0.84130000  1.0 0.0746312304
H  H17  1  0.12540000  0.70130000  0.24860000  1.0 0.0966393626
H  H18  1  0.87460000  0.20130000  0.25140000  1.0 0.0966393626
H  H19  1  0.87460000  0.29870000  0.75140000  1.0 0.0966393626
H  H20  1  0.12540000  0.79870000  0.74860000  1.0 0.0966393626
H  H21  1  0.25340000  0.80600000  0.25480000  1.0 0.1093579591
H  H22  1  0.74660000  0.30600000  0.24520000  1.0 0.1093579591
H  H23  1  0.74660000  0.19400000  0.74520000  1.0 0.1093579591
H  H24  1  0.25340000  0.69400000  0.75480000  1.0 0.1093579591
H  H25  1  0.51480000  0.75850000  0.17550000  1.0 0.1093579591
H  H26  1  0.48520000  0.25850000  0.32450000  1.0 0.1093579591
H  H27  1  0.48520000  0.24150000  0.82450000  1.0 0.1093579591
H  H28  1  0.51480000  0.74150000  0.67550000  1.0 0.1093579591
H  H29  1  0.45160000  0.59990000  0.12240000  1.0 0.1093579591
H  H30  1  0.54840000  0.09990000  0.37760000  1.0 0.1093579591
H  H31  1  0.54840000  0.40010000  0.87760000  1.0 0.1093579591
H  H32  1  0.45160000  0.90010000  0.62240000  1.0 0.1093579591
H  H33  1  0.24870000  0.57350000  0.16740000  1.0 0.1093579591
H  H34  1  0.75130000  0.07350000  0.33260000  1.0 0.1093579591
H  H35  1  0.75130000  0.42650000  0.83260000  1.0 0.1093579591
H  H36  1  0.24870000  0.92650000  0.66740000  1.0 0.1093579591
H  H37  1  0.62540000  0.49780000  0.20990000  1.0 0.0966393626
H  H38  1  0.37460000  0.99780000  0.29010000  1.0 0.0966393626
H  H39  1  0.37460000  0.50220000  0.79010000  1.0 0.0966393626
H  H40  1  0.62540000  0.00220000  0.70990000  1.0 0.0966393626
H  H41  1  0.74790000  0.60400000  0.21520000  1.0 0.0910264538
H  H42  1  0.25210000  0.10400000  0.28480000  1.0 0.0910264538
H  H43  1  0.25210000  0.39600000  0.78480000  1.0 0.0910264538
H  H44  1  0.74790000  0.89600000  0.71520000  1.0 0.0910264538
H  H45  1  0.18620000  0.72300000  0.44710000  1.0 0.3720925166
H  H46  1  0.81380000  0.22300000  0.05290000  1.0 0.3720925166
H  H47  1  0.81380000  0.27700000  0.55290000  1.0 0.3720925166
H  H48  1  0.18620000  0.77700000  0.94710000  1.0 0.3720925166
H  H49  1  0.12750000  0.63190000  0.41770000  1.0 0.3754795804
H  H50  1  0.87250000  0.13190000  0.08230000  1.0 0.3754795804
H  H51  1  0.87250000  0.36810000  0.58230000  1.0 0.3754795804
H  H52  1  0.12750000  0.86810000  0.91770000  1.0 0.3754795804
H  H53  1  0.18460000  0.77220000  0.94690000  1.0 0.3938159361
H  H54  1  0.81540000  0.27220000  0.55310000  1.0 0.3938159361
H  H55  1  0.81540000  0.22780000  0.05310000  1.0 0.3938159361
H  H56  1  0.18460000  0.72780000  0.44690000  1.0 0.3938159361
H  H57  1  0.12900000  0.86300000  0.91660000  1.0 0.3584763422
H  H58  1  0.87100000  0.36300000  0.58340000  1.0 0.3584763422
H  H59  1  0.87100000  0.13700000  0.08340000  1.0 0.3584763422
H  H60  1  0.12900000  0.63700000  0.41660000  1.0 0.3584763422
C  C1  1  0.69220000  0.53770000  0.33280000  1.0 -0.4307858185
C  C2  1  0.30780000  0.03770000  0.16720000  1.0 -0.4307858185
C  C3  1  0.30780000  0.46230000  0.66720000  1.0 -0.4307858185
C  C4  1  0.69220000  0.96230000  0.83280000  1.0 -0.4307858185
C  C5  1  0.47090000  0.69220000  0.29880000  1.0 -0.1138426871
C  C6  1  0.52910000  0.19220000  0.20120000  1.0 -0.1138426871
C  C7  1  0.52910000  0.30780000  0.70120000  1.0 -0.1138426871
C  C8  1  0.47090000  0.80780000  0.79880000  1.0 -0.1138426871
C  C9  1  0.27830000  0.73560000  0.24640000  1.0 -0.2005109475
C  C10  1  0.72170000  0.23560000  0.25360000  1.0 -0.2005109475
C  C11  1  0.72170000  0.26440000  0.75360000  1.0 -0.2005109475
C  C12  1  0.27830000  0.76440000  0.74640000  1.0 -0.2005109475
C  C13  1  0.36150000  0.72300000  0.17790000  1.0 -0.0974216149
C  C14  1  0.63850000  0.22300000  0.32210000  1.0 -0.0974216149
C  C15  1  0.63850000  0.27700000  0.82210000  1.0 -0.0974216149
C  C16  1  0.36150000  0.77700000  0.67790000  1.0 -0.0974216149
C  C17  1  0.39960000  0.60940000  0.16510000  1.0 -0.1919327513
C  C18  1  0.60040000  0.10940000  0.33490000  1.0 -0.1919327513
C  C19  1  0.60040000  0.39060000  0.83490000  1.0 -0.1919327513
C  C20  1  0.39960000  0.89060000  0.66510000  1.0 -0.1919327513
C  C21  1  0.59690000  0.56820000  0.21750000  1.0 -0.0974216149
C  C22  1  0.40310000  0.06820000  0.28250000  1.0 -0.0974216149
C  C23  1  0.40310000  0.43180000  0.78250000  1.0 -0.0974216149
C  C24  1  0.59690000  0.93180000  0.71750000  1.0 -0.0974216149
C  C25  1  0.17040000  0.76420000  0.12510000  1.0 0.5755200847
C  C26  1  0.82960000  0.26420000  0.37490000  1.0 0.5755200847
C  C27  1  0.82960000  0.23580000  0.87490000  1.0 0.5755200847
C  C28  1  0.17040000  0.73580000  0.62510000  1.0 0.5755200847
N  N1  1  0.50950000  0.58220000  0.28340000  1.0 -0.0184295967
N  N2  1  0.49050000  0.08220000  0.21660000  1.0 -0.0184295967
N  N3  1  0.49050000  0.41780000  0.71660000  1.0 -0.0184295967
N  N4  1  0.50950000  0.91780000  0.78340000  1.0 -0.0184295967
O  O1  1  0.54080000  0.62300000  0.44440000  1.0 -0.8388729678
O  O2  1  0.45920000  0.12300000  0.05560000  1.0 -0.8388729678
O  O3  1  0.45920000  0.37700000  0.55560000  1.0 -0.8388729678
O  O4  1  0.54080000  0.87700000  0.94440000  1.0 -0.8388729678
O  O5  1  0.82240000  0.48140000  0.45430000  1.0 -0.9411880062
O  O6  1  0.17760000  0.98140000  0.04570000  1.0 -0.9411880062
O  O7  1  0.17760000  0.51860000  0.54570000  1.0 -0.9411880062
O  O8  1  0.82240000  0.01860000  0.95430000  1.0 -0.9411880062
O  O9  1  0.37600000  0.45020000  0.40910000  1.0 -0.8530175076
O  O10  1  0.62400000  0.95020000  0.09090000  1.0 -0.8530175076
O  O11  1  0.62400000  0.54980000  0.59090000  1.0 -0.8530175076
O  O12  1  0.37600000  0.04980000  0.90910000  1.0 -0.8530175076
O  O13  1  0.00200000  0.81920000  0.14090000  1.0 -0.627225338
O  O14  1  0.99800000  0.31920000  0.35910000  1.0 -0.627225338
O  O15  1  0.99800000  0.18080000  0.85910000  1.0 -0.627225338
O  O16  1  0.00200000  0.68080000  0.64090000  1.0 -0.627225338
O  O17  1  0.19780000  0.74880000  0.06740000  1.0 -0.6376330242
O  O18  1  0.80220000  0.24880000  0.43260000  1.0 -0.6376330242
O  O19  1  0.80220000  0.25120000  0.93260000  1.0 -0.6376330242
O  O20  1  0.19780000  0.75120000  0.56740000  1.0 -0.6376330242
O  O21  1  0.07000000  0.68300000  0.43500000  1.0 -0.7292575822
O  O22  1  0.93000000  0.18300000  0.06500000  1.0 -0.7292575822
O  O23  1  0.93000000  0.31700000  0.56500000  1.0 -0.7292575822
O  O24  1  0.07000000  0.81700000  0.93500000  1.0 -0.7292575822
O  O25  1  0.07000000  0.81300000  0.93500000  1.0 -0.7292575822
O  O26  1  0.93000000  0.31300000  0.56500000  1.0 -0.7292575822
O  O27  1  0.93000000  0.18700000  0.06500000  1.0 -0.7292575822
O  O28  1  0.07000000  0.68700000  0.43500000  1.0 -0.7292575822
