# DDEC6 charges by PACMAN v1.1 (https://github.com/mtap-research/PACMAN-charge/)
data_BUJMEB_ASR_pacman
_symmetry_space_group_name_H-M   'P 1'
_cell_length_a   12.45700000
_cell_length_b   34.26500000
_cell_length_c   12.88800000
_cell_angle_alpha   90.00000000
_cell_angle_beta   100.61000000
_cell_angle_gamma   90.00000000
_symmetry_Int_Tables_number   1
_chemical_formula_structural   Mn3CoH66C75(NO)12
_chemical_formula_sum   'Mn6 Co2 H132 C150 N24 O24'
_cell_volume   5407.05129537
_cell_formula_units_Z   2
loop_
 _symmetry_equiv_pos_site_id
 _symmetry_equiv_pos_as_xyz
  1  'x, y, z'
loop_
 _atom_site_type_symbol
 _atom_site_label
 _atom_site_symmetry_multiplicity
 _atom_site_fract_x
 _atom_site_fract_y
 _atom_site_fract_z
 _atom_site_occupancy
 _atom_site_charge
Mn  Mn1  1  0.19590000  0.56714000  0.61152000  1.0 0.8810250158
Mn  Mn2  1  0.80410000  0.06714000  0.38848000  1.0 0.8810250158
Mn  Mn3  1  0.80410000  0.43286000  0.38848000  1.0 0.8810250158
Mn  Mn4  1  0.19590000  0.93286000  0.61152000  1.0 0.8810250158
Mn  Mn5  1  0.00000000  0.50000000  0.50000000  1.0 1.0676797623
Mn  Mn6  1  0.00000000  0.00000000  0.50000000  1.0 1.0676797623
Co  Co1  1  0.72422000  0.25000000  0.72283000  1.0 0.0703054034
Co  Co2  1  0.27578000  0.75000000  0.27717000  1.0 0.0703054034
H  H1  1  0.44540000  0.47080000  0.70980000  1.0 0.1207211919
H  H2  1  0.37610000  0.55490000  0.46600000  1.0 0.1594551861
H  H3  1  0.50640000  0.55660000  0.47990000  1.0 0.1514990116
H  H4  1  0.45030000  0.52850000  0.55350000  1.0 0.1594551861
H  H5  1  0.84040000  0.53760000  0.63140000  1.0 0.1207211919
H  H6  1  0.33290000  0.66666667  0.78800000  1.0 0.1287859574
H  H7  1  0.24170000  0.65020000  0.69420000  1.0 0.1514990116
H  H8  1  0.54640000  0.41460000  0.74810000  1.0 0.1207211919
H  H9  1  0.86570000  0.65400000  0.59410000  1.0 0.1207211919
H  H10  1  0.13940000  0.62100000  0.27380000  1.0 0.1287859574
H  H11  1  0.65610000  0.54460000  0.64890000  1.0 0.1207211919
H  H12  1  0.16560000  0.50500000  0.85310000  1.0 0.1594551861
H  H13  1  0.07280000  0.52510000  0.90560000  1.0 0.1400668823
H  H14  1  0.06710000  0.52770000  0.78070000  1.0 0.1670432707
H  H15  1  0.18880000  0.50560000  0.23050000  1.0 0.1207211919
H  H16  1  0.16800000  0.63440000  0.10720000  1.0 0.1106318189
H  H17  1  0.22170000  0.51860000  0.05930000  1.0 0.1207211919
H  H18  1  0.68380000  0.66210000  0.60900000  1.0 0.1207211919
H  H19  1  0.16660000  0.40640000  0.65180000  1.0 0.1287859574
H  H20  1  0.55350000  0.34730000  0.56060000  1.0 0.1594551861
H  H21  1  0.64170000  0.37080000  0.64340000  1.0 0.1594551861
H  H22  1  0.67190000  0.32900000  0.60140000  1.0 0.1594551861
H  H23  1  0.41880000  0.30390000  0.97100000  1.0 0.1287859574
H  H24  1  0.34570000  0.33560000  0.89880000  1.0 0.1594551861
H  H25  1  0.32860000  0.29010000  0.87300000  1.0 0.1514990116
H  H26  1  0.30770000  0.67600000  0.95450000  1.0 0.1400668823
H  H27  1  0.30950000  0.65140000  0.06030000  1.0 0.1400668823
H  H28  1  0.40880000  0.64800000  0.99780000  1.0 0.1400668823
H  H29  1  0.53660000  0.65790000  0.86090000  1.0 0.1400668823
H  H30  1  0.63380000  0.65850000  0.79530000  1.0 0.1514990116
H  H31  1  0.53400000  0.68830000  0.76630000  1.0 0.1400668823
H  H32  1  0.26740000  0.34990000  0.68780000  1.0 0.1207211919
H  H33  1  0.55460000  0.97080000  0.29020000  1.0 0.1207211919
H  H34  1  0.62390000  0.05490000  0.53400000  1.0 0.1594551861
H  H35  1  0.49360000  0.05660000  0.52010000  1.0 0.1514990116
H  H36  1  0.54970000  0.02850000  0.44650000  1.0 0.1594551861
H  H37  1  0.15960000  0.03760000  0.36860000  1.0 0.1207211919
H  H38  1  0.66710000  0.16667000  0.21200000  1.0 0.1287859574
H  H39  1  0.75830000  0.15020000  0.30580000  1.0 0.1514990116
H  H40  1  0.45360000  0.91460000  0.25190000  1.0 0.1207211919
H  H41  1  0.13430000  0.15400000  0.40590000  1.0 0.1207211919
H  H42  1  0.86060000  0.12100000  0.72620000  1.0 0.1287859574
H  H43  1  0.34390000  0.04460000  0.35110000  1.0 0.1207211919
H  H44  1  0.83440000  0.00500000  0.14690000  1.0 0.1594551861
H  H45  1  0.92720000  0.02510000  0.09440000  1.0 0.1400668823
H  H46  1  0.93290000  0.02770000  0.21930000  1.0 0.1670432707
H  H47  1  0.81120000  0.00560000  0.76950000  1.0 0.1207211919
H  H48  1  0.83200000  0.13440000  0.89280000  1.0 0.1106318189
H  H49  1  0.77830000  0.01860000  0.94070000  1.0 0.1207211919
H  H50  1  0.31620000  0.16210000  0.39100000  1.0 0.1207211919
H  H51  1  0.83340000  0.90640000  0.34820000  1.0 0.1287859574
H  H52  1  0.44650000  0.84730000  0.43940000  1.0 0.1594551861
H  H53  1  0.35830000  0.87080000  0.35660000  1.0 0.1594551861
H  H54  1  0.32810000  0.82900000  0.39860000  1.0 0.1594551861
H  H55  1  0.58120000  0.80390000  0.02900000  1.0 0.1287859574
H  H56  1  0.65430000  0.83560000  0.10120000  1.0 0.1594551861
H  H57  1  0.67140000  0.79010000  0.12700000  1.0 0.1514990116
H  H58  1  0.69230000  0.17600000  0.04550000  1.0 0.1400668823
H  H59  1  0.69050000  0.15140000  0.93970000  1.0 0.1400668823
H  H60  1  0.59120000  0.14800000  0.00220000  1.0 0.1400668823
H  H61  1  0.46340000  0.15790000  0.13910000  1.0 0.1400668823
H  H62  1  0.36620000  0.15850000  0.20470000  1.0 0.1514990116
H  H63  1  0.46600000  0.18830000  0.23370000  1.0 0.1400668823
H  H64  1  0.73260000  0.84990000  0.31220000  1.0 0.1207211919
H  H65  1  0.55460000  0.52920000  0.29020000  1.0 0.1207211919
H  H66  1  0.62390000  0.44510000  0.53400000  1.0 0.1594551861
H  H67  1  0.49360000  0.44340000  0.52010000  1.0 0.1514990116
H  H68  1  0.54970000  0.47150000  0.44650000  1.0 0.1594551861
H  H69  1  0.15960000  0.46240000  0.36860000  1.0 0.1207211919
H  H70  1  0.66710000  0.33333333  0.21200000  1.0 0.1287859574
H  H71  1  0.75830000  0.34980000  0.30580000  1.0 0.1514990116
H  H72  1  0.45360000  0.58540000  0.25190000  1.0 0.1207211919
H  H73  1  0.13430000  0.34600000  0.40590000  1.0 0.1207211919
H  H74  1  0.86060000  0.37900000  0.72620000  1.0 0.1287859574
H  H75  1  0.34390000  0.45540000  0.35110000  1.0 0.1207211919
H  H76  1  0.83440000  0.49500000  0.14690000  1.0 0.1594551861
H  H77  1  0.92720000  0.47490000  0.09440000  1.0 0.1400668823
H  H78  1  0.93290000  0.47230000  0.21930000  1.0 0.1670432707
H  H79  1  0.81120000  0.49440000  0.76950000  1.0 0.1207211919
H  H80  1  0.83200000  0.36560000  0.89280000  1.0 0.1106318189
H  H81  1  0.77830000  0.48140000  0.94070000  1.0 0.1207211919
H  H82  1  0.31620000  0.33790000  0.39100000  1.0 0.1207211919
H  H83  1  0.83340000  0.59360000  0.34820000  1.0 0.1287859574
H  H84  1  0.44650000  0.65270000  0.43940000  1.0 0.1594551861
H  H85  1  0.35830000  0.62920000  0.35660000  1.0 0.1594551861
H  H86  1  0.32810000  0.67100000  0.39860000  1.0 0.1594551861
H  H87  1  0.58120000  0.69610000  0.02900000  1.0 0.1287859574
H  H88  1  0.65430000  0.66440000  0.10120000  1.0 0.1594551861
H  H89  1  0.67140000  0.70990000  0.12700000  1.0 0.1514990116
H  H90  1  0.69230000  0.32400000  0.04550000  1.0 0.1400668823
H  H91  1  0.69050000  0.34860000  0.93970000  1.0 0.1400668823
H  H92  1  0.59120000  0.35200000  0.00220000  1.0 0.1400668823
H  H93  1  0.46340000  0.34210000  0.13910000  1.0 0.1400668823
H  H94  1  0.36620000  0.34150000  0.20470000  1.0 0.1514990116
H  H95  1  0.46600000  0.31170000  0.23370000  1.0 0.1400668823
H  H96  1  0.73260000  0.65010000  0.31220000  1.0 0.1207211919
H  H97  1  0.44540000  0.02920000  0.70980000  1.0 0.1207211919
H  H98  1  0.37610000  0.94510000  0.46600000  1.0 0.1594551861
H  H99  1  0.50640000  0.94340000  0.47990000  1.0 0.1514990116
H  H100  1  0.45030000  0.97150000  0.55350000  1.0 0.1594551861
H  H101  1  0.84040000  0.96240000  0.63140000  1.0 0.1207211919
H  H102  1  0.33290000  0.83333000  0.78800000  1.0 0.1287859574
H  H103  1  0.24170000  0.84980000  0.69420000  1.0 0.1514990116
H  H104  1  0.54640000  0.08540000  0.74810000  1.0 0.1207211919
H  H105  1  0.86570000  0.84600000  0.59410000  1.0 0.1207211919
H  H106  1  0.13940000  0.87900000  0.27380000  1.0 0.1287859574
H  H107  1  0.65610000  0.95540000  0.64890000  1.0 0.1207211919
H  H108  1  0.16560000  0.99500000  0.85310000  1.0 0.1594551861
H  H109  1  0.07280000  0.97490000  0.90560000  1.0 0.1400668823
H  H110  1  0.06710000  0.97230000  0.78070000  1.0 0.1670432707
H  H111  1  0.18880000  0.99440000  0.23050000  1.0 0.1207211919
H  H112  1  0.16800000  0.86560000  0.10720000  1.0 0.1106318189
H  H113  1  0.22170000  0.98140000  0.05930000  1.0 0.1207211919
H  H114  1  0.68380000  0.83790000  0.60900000  1.0 0.1207211919
H  H115  1  0.16660000  0.09360000  0.65180000  1.0 0.1287859574
H  H116  1  0.55350000  0.15270000  0.56060000  1.0 0.1594551861
H  H117  1  0.64170000  0.12920000  0.64340000  1.0 0.1594551861
H  H118  1  0.67190000  0.17100000  0.60140000  1.0 0.1594551861
H  H119  1  0.41880000  0.19610000  0.97100000  1.0 0.1287859574
H  H120  1  0.34570000  0.16440000  0.89880000  1.0 0.1594551861
H  H121  1  0.32860000  0.20990000  0.87300000  1.0 0.1514990116
H  H122  1  0.30770000  0.82400000  0.95450000  1.0 0.1400668823
H  H123  1  0.30950000  0.84860000  0.06030000  1.0 0.1400668823
H  H124  1  0.40880000  0.85200000  0.99780000  1.0 0.1400668823
H  H125  1  0.53660000  0.84210000  0.86090000  1.0 0.1400668823
H  H126  1  0.63380000  0.84150000  0.79530000  1.0 0.1514990116
H  H127  1  0.53400000  0.81170000  0.76630000  1.0 0.1400668823
H  H128  1  0.26740000  0.15010000  0.68780000  1.0 0.1207211919
H  H129  1  0.52290000  0.25000000  0.94990000  1.0 0.1287859574
H  H130  1  0.64430000  0.25000000  0.92480000  1.0 0.1400668823
H  H131  1  0.47710000  0.75000000  0.05010000  1.0 0.1287859574
H  H132  1  0.35570000  0.75000000  0.07520000  1.0 0.1400668823
C  C1  1  0.22570000  0.47968000  0.63770000  1.0 0.576610664
C  C2  1  0.53760000  0.60806000  0.64840000  1.0 -0.1765959208
C  C3  1  0.98580000  0.58966000  0.60470000  1.0 0.576610664
C  C4  1  0.14410000  0.55405000  0.38080000  1.0 0.5713686938
C  C5  1  0.40960000  0.44622000  0.70460000  1.0 -0.1073796618
C  C6  1  0.27290000  0.61822000  0.92680000  1.0 0.1670432707
C  C7  1  0.86670000  0.59489000  0.61230000  1.0 -0.0210092538
C  C8  1  0.18260000  0.56518000  0.86420000  1.0 0.2598300273
C  C9  1  0.46680000  0.31235000  0.82770000  1.0 0.1670432707
C  C10  1  0.49510000  0.63286000  0.71550000  1.0 0.1514990116
C  C11  1  0.16190000  0.56159000  0.27100000  1.0 -0.030929195
C  C12  1  0.44490000  0.55370000  0.51700000  1.0 -0.5018918966
C  C13  1  0.80780000  0.56273000  0.62790000  1.0 -0.1073796618
C  C14  1  0.44770000  0.58580000  0.59550000  1.0 0.2469826187
C  C15  1  0.21780000  0.58572000  0.96010000  1.0 -0.1684461417
C  C16  1  0.30460000  0.64273000  0.74950000  1.0 -0.0789089903
C  C17  1  0.46920000  0.41280000  0.72870000  1.0 -0.1524573774
C  C18  1  0.82250000  0.63210000  0.60540000  1.0 -0.0993861523
C  C19  1  0.19790000  0.57727000  0.06610000  1.0 0.1106318189
C  C20  1  0.15580000  0.60026000  0.23050000  1.0 -0.1170804245
C  C21  1  0.69790000  0.56702000  0.63870000  1.0 -0.1524573774
C  C22  1  0.11600000  0.52734000  0.84960000  1.0 -0.4801793699
C  C23  1  0.18540000  0.53173000  0.20550000  1.0 -0.1073796618
C  C24  1  0.65030000  0.60356000  0.63450000  1.0 0.1106318189
C  C25  1  0.17270000  0.60831000  0.13230000  1.0 -0.1524573774
C  C26  1  0.48040000  0.33978000  0.75200000  1.0 -0.189764068
C  C27  1  0.20460000  0.53930000  0.10260000  1.0 -0.1684461417
C  C28  1  0.41990000  0.37651000  0.72550000  1.0 0.1106318189
C  C29  1  0.71550000  0.63680000  0.61510000  1.0 -0.1684461417
C  C30  1  0.24400000  0.40800000  0.66970000  1.0 -0.0993861523
C  C31  1  0.61340000  0.34480000  0.62130000  1.0 -0.4924119269
C  C32  1  0.38250000  0.31030000  0.89900000  1.0 -0.5018918966
C  C33  1  0.32960000  0.65120000  0.99030000  1.0 -0.5216596131
C  C34  1  0.57380000  0.32632000  0.70680000  1.0 0.2437682743
C  C35  1  0.55500000  0.66190000  0.79100000  1.0 -0.4924119269
C  C36  1  0.30320000  0.37450000  0.69300000  1.0 -0.1524573774
C  C37  1  0.29350000  0.44425000  0.67160000  1.0 -0.030929195
C  C38  1  0.77430000  0.97968000  0.36230000  1.0 0.5713686938
C  C39  1  0.46240000  0.10806000  0.35160000  1.0 -0.1765959208
C  C40  1  0.01420000  0.08966000  0.39530000  1.0 0.576610664
C  C41  1  0.85590000  0.05405000  0.61920000  1.0 0.5713686938
C  C42  1  0.59040000  0.94622000  0.29540000  1.0 -0.1073796618
C  C43  1  0.72710000  0.11822000  0.07320000  1.0 0.1670432707
C  C44  1  0.13330000  0.09489000  0.38770000  1.0 -0.0210092538
C  C45  1  0.81740000  0.06518000  0.13580000  1.0 0.2598300273
C  C46  1  0.53320000  0.81235000  0.17230000  1.0 0.1670432707
C  C47  1  0.50490000  0.13286000  0.28450000  1.0 0.1514990116
C  C48  1  0.83810000  0.06159000  0.72900000  1.0 -0.030929195
C  C49  1  0.55510000  0.05370000  0.48300000  1.0 -0.5018918966
C  C50  1  0.19220000  0.06273000  0.37210000  1.0 -0.1073796618
C  C51  1  0.55230000  0.08580000  0.40450000  1.0 0.2469826187
C  C52  1  0.78220000  0.08572000  0.03990000  1.0 -0.1765959208
C  C53  1  0.69540000  0.14273000  0.25050000  1.0 -0.0789089903
C  C54  1  0.53080000  0.91280000  0.27130000  1.0 -0.1524573774
C  C55  1  0.17750000  0.13210000  0.39460000  1.0 -0.0993861523
C  C56  1  0.80210000  0.07727000  0.93390000  1.0 0.1106318189
C  C57  1  0.84420000  0.10026000  0.76950000  1.0 -0.1170804245
C  C58  1  0.30210000  0.06702000  0.36130000  1.0 -0.1524573774
C  C59  1  0.88400000  0.02734000  0.15040000  1.0 -0.4801793699
C  C60  1  0.81460000  0.03173000  0.79450000  1.0 -0.1073796618
C  C61  1  0.34970000  0.10356000  0.36550000  1.0 0.1106318189
C  C62  1  0.82730000  0.10831000  0.86770000  1.0 -0.1524573774
C  C63  1  0.51960000  0.83978000  0.24800000  1.0 -0.189764068
C  C64  1  0.79540000  0.03930000  0.89740000  1.0 -0.1684461417
C  C65  1  0.58010000  0.87651000  0.27450000  1.0 0.1106318189
C  C66  1  0.28450000  0.13680000  0.38490000  1.0 -0.1684461417
C  C67  1  0.75600000  0.90800000  0.33030000  1.0 -0.0993861523
C  C68  1  0.38660000  0.84480000  0.37870000  1.0 -0.4924119269
C  C69  1  0.61750000  0.81030000  0.10100000  1.0 -0.5018918966
C  C70  1  0.67040000  0.15120000  0.00970000  1.0 -0.5216596131
C  C71  1  0.42620000  0.82632000  0.29320000  1.0 0.2437682743
C  C72  1  0.44500000  0.16190000  0.20900000  1.0 -0.4924119269
C  C73  1  0.69680000  0.87450000  0.30700000  1.0 -0.1524573774
C  C74  1  0.70650000  0.94425000  0.32840000  1.0 -0.030929195
C  C75  1  0.77430000  0.52032000  0.36230000  1.0 0.5713686938
C  C76  1  0.46240000  0.39194000  0.35160000  1.0 -0.1765959208
C  C77  1  0.01420000  0.41034000  0.39530000  1.0 0.576610664
C  C78  1  0.85590000  0.44595000  0.61920000  1.0 0.5713686938
C  C79  1  0.59040000  0.55378000  0.29540000  1.0 -0.1073796618
C  C80  1  0.72710000  0.38178000  0.07320000  1.0 0.1670432707
C  C81  1  0.13330000  0.40511000  0.38770000  1.0 -0.0210092538
C  C82  1  0.81740000  0.43482000  0.13580000  1.0 0.2598300273
C  C83  1  0.53320000  0.68765000  0.17230000  1.0 0.1670432707
C  C84  1  0.50490000  0.36714000  0.28450000  1.0 0.1514990116
C  C85  1  0.83810000  0.43841000  0.72900000  1.0 -0.030929195
C  C86  1  0.55510000  0.44630000  0.48300000  1.0 -0.5018918966
C  C87  1  0.19220000  0.43727000  0.37210000  1.0 -0.1073796618
C  C88  1  0.55230000  0.41420000  0.40450000  1.0 0.2469826187
C  C89  1  0.78220000  0.41428000  0.03990000  1.0 -0.1684461417
C  C90  1  0.69540000  0.35727000  0.25050000  1.0 -0.0789089903
C  C91  1  0.53080000  0.58720000  0.27130000  1.0 -0.1524573774
C  C92  1  0.17750000  0.36790000  0.39460000  1.0 -0.0993861523
C  C93  1  0.80210000  0.42273000  0.93390000  1.0 0.1106318189
C  C94  1  0.84420000  0.39974000  0.76950000  1.0 -0.1170804245
C  C95  1  0.30210000  0.43298000  0.36130000  1.0 -0.1524573774
C  C96  1  0.88400000  0.47266000  0.15040000  1.0 -0.4801793699
C  C97  1  0.81460000  0.46827000  0.79450000  1.0 -0.1073796618
C  C98  1  0.34970000  0.39644000  0.36550000  1.0 0.1106318189
C  C99  1  0.82730000  0.39169000  0.86770000  1.0 -0.1524573774
C  C100  1  0.51960000  0.66022000  0.24800000  1.0 -0.189764068
C  C101  1  0.79540000  0.46070000  0.89740000  1.0 -0.1684461417
C  C102  1  0.58010000  0.62349000  0.27450000  1.0 0.1106318189
C  C103  1  0.28450000  0.36320000  0.38490000  1.0 -0.1684461417
C  C104  1  0.75600000  0.59200000  0.33030000  1.0 -0.0993861523
C  C105  1  0.38660000  0.65520000  0.37870000  1.0 -0.4924119269
C  C106  1  0.61750000  0.68970000  0.10100000  1.0 -0.5018918966
C  C107  1  0.67040000  0.34880000  0.00970000  1.0 -0.5216596131
C  C108  1  0.42620000  0.67368000  0.29320000  1.0 0.2437682743
C  C109  1  0.44500000  0.33810000  0.20900000  1.0 -0.4924119269
C  C110  1  0.69680000  0.62550000  0.30700000  1.0 -0.1524573774
C  C111  1  0.70650000  0.55575000  0.32840000  1.0 -0.030929195
C  C112  1  0.22570000  0.02032000  0.63770000  1.0 0.576610664
C  C113  1  0.53760000  0.89194000  0.64840000  1.0 -0.1765959208
C  C114  1  0.98580000  0.91034000  0.60470000  1.0 0.576610664
C  C115  1  0.14410000  0.94595000  0.38080000  1.0 0.5713686938
C  C116  1  0.40960000  0.05378000  0.70460000  1.0 -0.1073796618
C  C117  1  0.27290000  0.88178000  0.92680000  1.0 0.1670432707
C  C118  1  0.86670000  0.90511000  0.61230000  1.0 -0.0210092538
C  C119  1  0.18260000  0.93482000  0.86420000  1.0 0.2598300273
C  C120  1  0.46680000  0.18765000  0.82770000  1.0 0.1670432707
C  C121  1  0.49510000  0.86714000  0.71550000  1.0 0.1514990116
C  C122  1  0.16190000  0.93841000  0.27100000  1.0 -0.030929195
C  C123  1  0.44490000  0.94630000  0.51700000  1.0 -0.5018918966
C  C124  1  0.80780000  0.93727000  0.62790000  1.0 -0.1073796618
C  C125  1  0.44770000  0.91420000  0.59550000  1.0 0.2469826187
C  C126  1  0.21780000  0.91428000  0.96010000  1.0 -0.1684461417
C  C127  1  0.30460000  0.85727000  0.74950000  1.0 -0.0789089903
C  C128  1  0.46920000  0.08720000  0.72870000  1.0 -0.1524573774
C  C129  1  0.82250000  0.86790000  0.60540000  1.0 -0.0993861523
C  C130  1  0.19790000  0.92273000  0.06610000  1.0 0.1106318189
C  C131  1  0.15580000  0.89974000  0.23050000  1.0 -0.1170804245
C  C132  1  0.69790000  0.93298000  0.63870000  1.0 -0.1524573774
C  C133  1  0.11600000  0.97266000  0.84960000  1.0 -0.4801793699
C  C134  1  0.18540000  0.96827000  0.20550000  1.0 -0.1073796618
C  C135  1  0.65030000  0.89644000  0.63450000  1.0 0.1106318189
C  C136  1  0.17270000  0.89169000  0.13230000  1.0 -0.1524573774
C  C137  1  0.48040000  0.16022000  0.75200000  1.0 -0.189764068
C  C138  1  0.20460000  0.96070000  0.10260000  1.0 -0.1684461417
C  C139  1  0.41990000  0.12349000  0.72550000  1.0 0.1106318189
C  C140  1  0.71550000  0.86320000  0.61510000  1.0 -0.1684461417
C  C141  1  0.24400000  0.09200000  0.66970000  1.0 -0.0993861523
C  C142  1  0.61340000  0.15520000  0.62130000  1.0 -0.4924119269
C  C143  1  0.38250000  0.18970000  0.89900000  1.0 -0.5018918966
C  C144  1  0.32960000  0.84880000  0.99030000  1.0 -0.5216596131
C  C145  1  0.57380000  0.17368000  0.70680000  1.0 0.2437682743
C  C146  1  0.55500000  0.83810000  0.79100000  1.0 -0.4924119269
C  C147  1  0.30320000  0.12550000  0.69300000  1.0 -0.1524573774
C  C148  1  0.29350000  0.05575000  0.67160000  1.0 -0.030929195
C  C149  1  0.56580000  0.25000000  0.89250000  1.0 -0.0789089903
C  C150  1  0.43420000  0.75000000  0.10750000  1.0 -0.0789089903
N  N1  1  0.38630000  0.62625000  0.70210000  1.0 0.0703054034
N  N2  1  0.26820000  0.61513000  0.82320000  1.0 0.0703054034
N  N3  1  0.35620000  0.59664000  0.62820000  1.0 -0.3095232551
N  N4  1  0.21010000  0.58248000  0.78240000  1.0 -0.3095232551
N  N5  1  0.53980000  0.28488000  0.82690000  1.0 0.0703054034
N  N6  1  0.60850000  0.29289000  0.75600000  1.0 -0.2979512517
N  N7  1  0.61370000  0.12625000  0.29790000  1.0 0.0703054034
N  N8  1  0.73180000  0.11513000  0.17680000  1.0 0.0703054034
N  N9  1  0.64380000  0.09664000  0.37180000  1.0 -0.3095232551
N  N10  1  0.78990000  0.08248000  0.21760000  1.0 -0.3095232551
N  N11  1  0.46020000  0.78488000  0.17310000  1.0 0.0703054034
N  N12  1  0.39150000  0.79289000  0.24400000  1.0 -0.2979512517
N  N13  1  0.61370000  0.37375000  0.29790000  1.0 0.0703054034
N  N14  1  0.73180000  0.38487000  0.17680000  1.0 0.0703054034
N  N15  1  0.64380000  0.40336000  0.37180000  1.0 -0.3095232551
N  N16  1  0.78990000  0.41752000  0.21760000  1.0 -0.3095232551
N  N17  1  0.46020000  0.71512000  0.17310000  1.0 0.0703054034
N  N18  1  0.39150000  0.70711000  0.24400000  1.0 -0.2979512517
N  N19  1  0.38630000  0.87375000  0.70210000  1.0 0.0703054034
N  N20  1  0.26820000  0.88487000  0.82320000  1.0 0.0703054034
N  N21  1  0.35620000  0.90336000  0.62820000  1.0 -0.3095232551
N  N22  1  0.21010000  0.91752000  0.78240000  1.0 -0.3095232551
N  N23  1  0.53980000  0.21512000  0.82690000  1.0 0.0703054034
N  N24  1  0.60850000  0.20711000  0.75600000  1.0 -0.2979512517
O  O1  1  0.02300000  0.55482000  0.59790000  1.0 -0.5866348003
O  O2  1  0.27430000  0.51264000  0.64870000  1.0 -0.5498310183
O  O3  1  0.12830000  0.47393000  0.60490000  1.0 -0.5298234974
O  O4  1  0.10690000  0.52184000  0.39950000  1.0 -0.5498310183
O  O5  1  0.04920000  0.61815000  0.60440000  1.0 -0.5404657726
O  O6  1  0.17430000  0.58073000  0.44800000  1.0 -0.5404657726
O  O7  1  0.97700000  0.05482000  0.40210000  1.0 -0.5866348003
O  O8  1  0.72570000  0.01264000  0.35130000  1.0 -0.5498310183
O  O9  1  0.87170000  0.97393000  0.39510000  1.0 -0.5298234974
O  O10  1  0.89310000  0.02184000  0.60050000  1.0 -0.5498310183
O  O11  1  0.95080000  0.11815000  0.39560000  1.0 -0.5404657726
O  O12  1  0.82570000  0.08073000  0.55200000  1.0 -0.5404657726
O  O13  1  0.97700000  0.44518000  0.40210000  1.0 -0.5866348003
O  O14  1  0.72570000  0.48736000  0.35130000  1.0 -0.5498310183
O  O15  1  0.87170000  0.52607000  0.39510000  1.0 -0.5298234974
O  O16  1  0.89310000  0.47816000  0.60050000  1.0 -0.5498310183
O  O17  1  0.95080000  0.38185000  0.39560000  1.0 -0.5404657726
O  O18  1  0.82570000  0.41927000  0.55200000  1.0 -0.5404657726
O  O19  1  0.02300000  0.94518000  0.59790000  1.0 -0.5866348003
O  O20  1  0.27430000  0.98736000  0.64870000  1.0 -0.5498310183
O  O21  1  0.12830000  0.02607000  0.60490000  1.0 -0.5298234974
O  O22  1  0.10690000  0.97816000  0.39950000  1.0 -0.5498310183
O  O23  1  0.04920000  0.88185000  0.60440000  1.0 -0.5404657726
O  O24  1  0.17430000  0.91927000  0.44800000  1.0 -0.5404657726
