# DDEC6 charges by PACMAN v1.1 (https://github.com/mtap-research/PACMAN-charge/)
data_BUJVAG_FSR_pacman
_symmetry_space_group_name_H-M   'P 1'
_cell_length_a   8.89869000
_cell_length_b   8.89869000
_cell_length_c   7.22250000
_cell_angle_alpha   90.00000000
_cell_angle_beta   90.00000000
_cell_angle_gamma   92.11720000
_symmetry_Int_Tables_number   1
_chemical_formula_structural   CoH24(C5N8)2
_chemical_formula_sum   'Co2 H48 C20 N32'
_cell_volume   571.53539708
_cell_formula_units_Z   2
loop_
 _symmetry_equiv_pos_site_id
 _symmetry_equiv_pos_as_xyz
  1  'x, y, z'
loop_
 _atom_site_type_symbol
 _atom_site_label
 _atom_site_symmetry_multiplicity
 _atom_site_fract_x
 _atom_site_fract_y
 _atom_site_fract_z
 _atom_site_occupancy
 _atom_site_charge
Co  Co1  1  0.00000000  0.00000000  0.75000000  1.0 0.2905895167
Co  Co2  1  0.00000000  0.00000000  0.25000000  1.0 0.2905895167
H  H1  1  0.92250000  0.63070000  0.24060000  1.0 0.0794410153
H  H2  1  0.07170000  0.63950000  0.75940000  1.0 0.0794410153
H  H3  1  0.90090000  0.50870000  0.15700000  1.0 0.1698919094
H  H4  1  0.87840000  0.68360000  0.09000000  1.0 0.0879940955
H  H5  1  0.09850000  0.52030000  0.84300000  1.0 0.1698919094
H  H6  1  0.11340000  0.69740000  0.91000000  1.0 0.0879940955
H  H7  1  0.07750000  0.36930000  0.24060000  1.0 0.0794410153
H  H8  1  0.92830000  0.36050000  0.75940000  1.0 0.0794410153
H  H9  1  0.09910000  0.49130000  0.15700000  1.0 0.1698919094
H  H10  1  0.12160000  0.31640000  0.09000000  1.0 0.0879940955
H  H11  1  0.90150000  0.47970000  0.84300000  1.0 0.1698919094
H  H12  1  0.88660000  0.30260000  0.91000000  1.0 0.0879940955
H  H13  1  0.36930000  0.07750000  0.25940000  1.0 0.0794410153
H  H14  1  0.36050000  0.92830000  0.74060000  1.0 0.0794410153
H  H15  1  0.49130000  0.09910000  0.34300000  1.0 0.1698919094
H  H16  1  0.31640000  0.12160000  0.41000000  1.0 0.0879940955
H  H17  1  0.47970000  0.90150000  0.65700000  1.0 0.1698919094
H  H18  1  0.30260000  0.88660000  0.59000000  1.0 0.0879940955
H  H19  1  0.63070000  0.92250000  0.25940000  1.0 0.0794410153
H  H20  1  0.63950000  0.07170000  0.74060000  1.0 0.0794410153
H  H21  1  0.50870000  0.90090000  0.34300000  1.0 0.1698919094
H  H22  1  0.68360000  0.87840000  0.41000000  1.0 0.0879940955
H  H23  1  0.52030000  0.09850000  0.65700000  1.0 0.1698919094
H  H24  1  0.69740000  0.11340000  0.59000000  1.0 0.0879940955
H  H25  1  0.07750000  0.36930000  0.75940000  1.0 0.0794410153
H  H26  1  0.92830000  0.36050000  0.24060000  1.0 0.0794410153
H  H27  1  0.09910000  0.49130000  0.84300000  1.0 0.1698919094
H  H28  1  0.12160000  0.31640000  0.91000000  1.0 0.0879940955
H  H29  1  0.90150000  0.47970000  0.15700000  1.0 0.1698919094
H  H30  1  0.88660000  0.30260000  0.09000000  1.0 0.0879940955
H  H31  1  0.92250000  0.63070000  0.75940000  1.0 0.0794410153
H  H32  1  0.07170000  0.63950000  0.24060000  1.0 0.0794410153
H  H33  1  0.90090000  0.50870000  0.84300000  1.0 0.1698919094
H  H34  1  0.87840000  0.68360000  0.91000000  1.0 0.0879940955
H  H35  1  0.09850000  0.52030000  0.15700000  1.0 0.1698919094
H  H36  1  0.11340000  0.69740000  0.09000000  1.0 0.0879940955
H  H37  1  0.63070000  0.92250000  0.74060000  1.0 0.0794410153
H  H38  1  0.63950000  0.07170000  0.25940000  1.0 0.0794410153
H  H39  1  0.50870000  0.90090000  0.65700000  1.0 0.1698919094
H  H40  1  0.68360000  0.87840000  0.59000000  1.0 0.0879940955
H  H41  1  0.52030000  0.09850000  0.34300000  1.0 0.1698919094
H  H42  1  0.69740000  0.11340000  0.41000000  1.0 0.0879940955
H  H43  1  0.36930000  0.07750000  0.74060000  1.0 0.0794410153
H  H44  1  0.36050000  0.92830000  0.25940000  1.0 0.0794410153
H  H45  1  0.49130000  0.09910000  0.65700000  1.0 0.1698919094
H  H46  1  0.31640000  0.12160000  0.59000000  1.0 0.0879940955
H  H47  1  0.47970000  0.90150000  0.34300000  1.0 0.1698919094
H  H48  1  0.30260000  0.88660000  0.41000000  1.0 0.0879940955
C  C1  1  0.95560000  0.66560000  0.35850000  1.0 0.0794410153
C  C2  1  0.03700000  0.67040000  0.64150000  1.0 0.0794410153
C  C3  1  0.04440000  0.33440000  0.35850000  1.0 0.0794410153
C  C4  1  0.96300000  0.32960000  0.64150000  1.0 0.0794410153
C  C5  1  0.33440000  0.04440000  0.14150000  1.0 0.0794410153
C  C6  1  0.32960000  0.96300000  0.85850000  1.0 0.0794410153
C  C7  1  0.66560000  0.95560000  0.14150000  1.0 0.0794410153
C  C8  1  0.67040000  0.03700000  0.85850000  1.0 0.0794410153
C  C9  1  0.04440000  0.33440000  0.64150000  1.0 0.0794410153
C  C10  1  0.96300000  0.32960000  0.35850000  1.0 0.0794410153
C  C11  1  0.95560000  0.66560000  0.64150000  1.0 0.0794410153
C  C12  1  0.03700000  0.67040000  0.35850000  1.0 0.0794410153
C  C13  1  0.66560000  0.95560000  0.85850000  1.0 0.0794410153
C  C14  1  0.67040000  0.03700000  0.14150000  1.0 0.0794410153
C  C15  1  0.33440000  0.04440000  0.85850000  1.0 0.0794410153
C  C16  1  0.32960000  0.96300000  0.14150000  1.0 0.0794410153
C  C17  1  0.99820000  0.57960000  0.50000000  1.0 -0.213472212
C  C18  1  0.00180000  0.42040000  0.50000000  1.0 -0.213472212
C  C19  1  0.42040000  0.00180000  0.00000000  1.0 -0.213472212
C  C20  1  0.57960000  0.99820000  0.00000000  1.0 -0.213472212
N  N1  1  0.96770000  0.80830000  0.41220000  1.0 -0.1034566937
N  N2  1  0.01900000  0.81100000  0.58780000  1.0 -0.1034566937
N  N3  1  0.90610000  0.61350000  0.18300000  1.0 -0.2938531883
N  N4  1  0.08880000  0.62420000  0.81700000  1.0 -0.2980023793
N  N5  1  0.03230000  0.19170000  0.41220000  1.0 -0.1034566937
N  N6  1  0.98100000  0.18900000  0.58780000  1.0 -0.1034566937
N  N7  1  0.09390000  0.38650000  0.18300000  1.0 -0.2938531883
N  N8  1  0.91120000  0.37580000  0.81700000  1.0 -0.2980023793
N  N9  1  0.19170000  0.03230000  0.08780000  1.0 -0.1034566937
N  N10  1  0.18900000  0.98100000  0.91220000  1.0 -0.1034566937
N  N11  1  0.38650000  0.09390000  0.31700000  1.0 -0.2938531883
N  N12  1  0.37580000  0.91120000  0.68300000  1.0 -0.2980023793
N  N13  1  0.80830000  0.96770000  0.08780000  1.0 -0.1034566937
N  N14  1  0.81100000  0.01900000  0.91220000  1.0 -0.1034566937
N  N15  1  0.61350000  0.90610000  0.31700000  1.0 -0.2938531883
N  N16  1  0.62420000  0.08880000  0.68300000  1.0 -0.2980023793
N  N17  1  0.03230000  0.19170000  0.58780000  1.0 -0.1052657313
N  N18  1  0.98100000  0.18900000  0.41220000  1.0 -0.1034566937
N  N19  1  0.09390000  0.38650000  0.81700000  1.0 -0.2938531883
N  N20  1  0.91120000  0.37580000  0.18300000  1.0 -0.2980023793
N  N21  1  0.96770000  0.80830000  0.58780000  1.0 -0.1034566937
N  N22  1  0.01900000  0.81100000  0.41220000  1.0 -0.1034566937
N  N23  1  0.90610000  0.61350000  0.81700000  1.0 -0.2938531883
N  N24  1  0.08880000  0.62420000  0.18300000  1.0 -0.2980023793
N  N25  1  0.80830000  0.96770000  0.91220000  1.0 -0.1052657313
N  N26  1  0.81100000  0.01900000  0.08780000  1.0 -0.1034566937
N  N27  1  0.61350000  0.90610000  0.68300000  1.0 -0.2938531883
N  N28  1  0.62420000  0.08880000  0.31700000  1.0 -0.2980023793
N  N29  1  0.19170000  0.03230000  0.91220000  1.0 -0.1052657313
N  N30  1  0.18900000  0.98100000  0.08780000  1.0 -0.1034566937
N  N31  1  0.38650000  0.09390000  0.68300000  1.0 -0.2938531883
N  N32  1  0.37580000  0.91120000  0.31700000  1.0 -0.2980023793
