# DDEC6 charges by PACMAN v1.1 (https://github.com/mtap-research/PACMAN-charge/)
data_BUKSAD_ASR_pacman
_symmetry_space_group_name_H-M   'P 1'
_cell_length_a   20.08720000
_cell_length_b   20.08720000
_cell_length_c   20.08720000
_cell_angle_alpha   90.00000000
_cell_angle_beta   90.00000000
_cell_angle_gamma   90.00000000
_symmetry_Int_Tables_number   1
_chemical_formula_structural   Zn3H3C6N3O4
_chemical_formula_sum   'Zn24 H24 C48 N24 O32'
_cell_volume   8105.09689345
_cell_formula_units_Z   8
loop_
 _symmetry_equiv_pos_site_id
 _symmetry_equiv_pos_as_xyz
  1  'x, y, z'
loop_
 _atom_site_type_symbol
 _atom_site_label
 _atom_site_symmetry_multiplicity
 _atom_site_fract_x
 _atom_site_fract_y
 _atom_site_fract_z
 _atom_site_occupancy
 _atom_site_charge
Zn  Zn1  1  0.97563000  0.99838000  0.10108000  1.0 0.6897942707
Zn  Zn2  1  0.52437000  0.00162000  0.60108000  1.0 0.6897942707
Zn  Zn3  1  0.02437000  0.49838000  0.39892000  1.0 0.6897942707
Zn  Zn4  1  0.47563000  0.50162000  0.89892000  1.0 0.6897942707
Zn  Zn5  1  0.10108000  0.97563000  0.99838000  1.0 0.6897942707
Zn  Zn6  1  0.60108000  0.52437000  0.00162000  1.0 0.6897942707
Zn  Zn7  1  0.39892000  0.02437000  0.49838000  1.0 0.6897942707
Zn  Zn8  1  0.89892000  0.47563000  0.50162000  1.0 0.6897942707
Zn  Zn9  1  0.99838000  0.10108000  0.97563000  1.0 0.6897942707
Zn  Zn10  1  0.00162000  0.60108000  0.52437000  1.0 0.6897942707
Zn  Zn11  1  0.49838000  0.39892000  0.02437000  1.0 0.6897942707
Zn  Zn12  1  0.50162000  0.89892000  0.47563000  1.0 0.6897942707
Zn  Zn13  1  0.60126000  0.02418000  0.99652000  1.0 0.9538595611
Zn  Zn14  1  0.89874000  0.97582000  0.49652000  1.0 0.9538595611
Zn  Zn15  1  0.39874000  0.52418000  0.50348000  1.0 0.9538595611
Zn  Zn16  1  0.10126000  0.47582000  0.00348000  1.0 0.9538595611
Zn  Zn17  1  0.99652000  0.60126000  0.02418000  1.0 0.9538595611
Zn  Zn18  1  0.49652000  0.89874000  0.97582000  1.0 0.9538595611
Zn  Zn19  1  0.50348000  0.39874000  0.52418000  1.0 0.9538595611
Zn  Zn20  1  0.00348000  0.10126000  0.47582000  1.0 0.9538595611
Zn  Zn21  1  0.02418000  0.99652000  0.60126000  1.0 0.9538595611
Zn  Zn22  1  0.97582000  0.49652000  0.89874000  1.0 0.9538595611
Zn  Zn23  1  0.52418000  0.50348000  0.39874000  1.0 0.9538595611
Zn  Zn24  1  0.47582000  0.00348000  0.10126000  1.0 0.9538595611
H  H1  1  0.83310000  0.12190000  0.94880000  1.0 0.1201747442
H  H2  1  0.66690000  0.87810000  0.44880000  1.0 0.1201747442
H  H3  1  0.16690000  0.62190000  0.55120000  1.0 0.1201747442
H  H4  1  0.33310000  0.37810000  0.05120000  1.0 0.1201747442
H  H5  1  0.94880000  0.83310000  0.12190000  1.0 0.1201747442
H  H6  1  0.44880000  0.66690000  0.87810000  1.0 0.1201747442
H  H7  1  0.55120000  0.16690000  0.62190000  1.0 0.1201747442
H  H8  1  0.05120000  0.33310000  0.37810000  1.0 0.1201747442
H  H9  1  0.12190000  0.94880000  0.83310000  1.0 0.1201747442
H  H10  1  0.87810000  0.44880000  0.66690000  1.0 0.1201747442
H  H11  1  0.62190000  0.55120000  0.16690000  1.0 0.1201747442
H  H12  1  0.37810000  0.05120000  0.33310000  1.0 0.1201747442
H  H13  1  0.81600000  0.97830000  0.07860000  1.0 0.1274609476
H  H14  1  0.68400000  0.02170000  0.57860000  1.0 0.1274609476
H  H15  1  0.18400000  0.47830000  0.42140000  1.0 0.1274609476
H  H16  1  0.31600000  0.52170000  0.92140000  1.0 0.1274609476
H  H17  1  0.07860000  0.81600000  0.97830000  1.0 0.1274609476
H  H18  1  0.57860000  0.68400000  0.02170000  1.0 0.1274609476
H  H19  1  0.42140000  0.18400000  0.47830000  1.0 0.1274609476
H  H20  1  0.92140000  0.31600000  0.52170000  1.0 0.1274609476
H  H21  1  0.97830000  0.07860000  0.81600000  1.0 0.1274609476
H  H22  1  0.02170000  0.57860000  0.68400000  1.0 0.1274609476
H  H23  1  0.47830000  0.42140000  0.18400000  1.0 0.1274609476
H  H24  1  0.52170000  0.92140000  0.31600000  1.0 0.1274609476
C  C1  1  0.80580000  0.05130000  0.01790000  1.0 -0.0773506453
C  C2  1  0.69420000  0.94870000  0.51790000  1.0 -0.0773506453
C  C3  1  0.19420000  0.55130000  0.48210000  1.0 -0.0773506453
C  C4  1  0.30580000  0.44870000  0.98210000  1.0 -0.0773506453
C  C5  1  0.01790000  0.80580000  0.05130000  1.0 -0.0773506453
C  C6  1  0.51790000  0.69420000  0.94870000  1.0 -0.0773506453
C  C7  1  0.48210000  0.19420000  0.55130000  1.0 -0.0773506453
C  C8  1  0.98210000  0.30580000  0.44870000  1.0 -0.0773506453
C  C9  1  0.05130000  0.01790000  0.80580000  1.0 -0.0773506453
C  C10  1  0.94870000  0.51790000  0.69420000  1.0 -0.0773506453
C  C11  1  0.55130000  0.48210000  0.19420000  1.0 -0.0773506453
C  C12  1  0.44870000  0.98210000  0.30580000  1.0 -0.0773506453
C  C13  1  0.73240000  0.04370000  0.00040000  1.0 0.6070675884
C  C14  1  0.76760000  0.95630000  0.50040000  1.0 0.6070675884
C  C15  1  0.26760000  0.54370000  0.49960000  1.0 0.6070675884
C  C16  1  0.23240000  0.45630000  0.99960000  1.0 0.6070675884
C  C17  1  0.00040000  0.73240000  0.04370000  1.0 0.6070675884
C  C18  1  0.50040000  0.76760000  0.95630000  1.0 0.6070675884
C  C19  1  0.49960000  0.26760000  0.54370000  1.0 0.6070675884
C  C20  1  0.99960000  0.23240000  0.45630000  1.0 0.6070675884
C  C21  1  0.04370000  0.00040000  0.73240000  1.0 0.6070675884
C  C22  1  0.95630000  0.50040000  0.76760000  1.0 0.6070675884
C  C23  1  0.54370000  0.49960000  0.26760000  1.0 0.6070675884
C  C24  1  0.45630000  0.99960000  0.23240000  1.0 0.6070675884
C  C25  1  0.84590000  0.09030000  0.98160000  1.0 -0.0396695783
C  C26  1  0.65410000  0.90970000  0.48160000  1.0 -0.0396695783
C  C27  1  0.15410000  0.59030000  0.51840000  1.0 -0.0396695783
C  C28  1  0.34590000  0.40970000  0.01840000  1.0 -0.0396695783
C  C29  1  0.98160000  0.84590000  0.09030000  1.0 -0.0396695783
C  C30  1  0.48160000  0.65410000  0.90970000  1.0 -0.0396695783
C  C31  1  0.51840000  0.15410000  0.59030000  1.0 -0.0396695783
C  C32  1  0.01840000  0.34590000  0.40970000  1.0 -0.0396695783
C  C33  1  0.09030000  0.98160000  0.84590000  1.0 -0.0396695783
C  C34  1  0.90970000  0.48160000  0.65410000  1.0 -0.0396695783
C  C35  1  0.59030000  0.51840000  0.15410000  1.0 -0.0396695783
C  C36  1  0.40970000  0.01840000  0.34590000  1.0 -0.0396695783
C  C37  1  0.83480000  0.01380000  0.05360000  1.0 -0.0396695783
C  C38  1  0.66520000  0.98620000  0.55360000  1.0 -0.0396695783
C  C39  1  0.16520000  0.51380000  0.44640000  1.0 -0.0396695783
C  C40  1  0.33480000  0.48620000  0.94640000  1.0 -0.0396695783
C  C41  1  0.05360000  0.83480000  0.01380000  1.0 -0.0396695783
C  C42  1  0.55360000  0.66520000  0.98620000  1.0 -0.0396695783
C  C43  1  0.44640000  0.16520000  0.51380000  1.0 -0.0396695783
C  C44  1  0.94640000  0.33480000  0.48620000  1.0 -0.0396695783
C  C45  1  0.01380000  0.05360000  0.83480000  1.0 -0.0396695783
C  C46  1  0.98620000  0.55360000  0.66520000  1.0 -0.0396695783
C  C47  1  0.51380000  0.44640000  0.16520000  1.0 -0.0396695783
C  C48  1  0.48620000  0.94640000  0.33480000  1.0 -0.0396695783
N  N1  1  0.91130000  0.07440000  0.00250000  1.0 -0.214348511
N  N2  1  0.58870000  0.92560000  0.50250000  1.0 -0.2154318159
N  N3  1  0.08870000  0.57440000  0.49750000  1.0 -0.214348511
N  N4  1  0.41130000  0.42560000  0.99750000  1.0 -0.214348511
N  N5  1  0.00250000  0.91130000  0.07440000  1.0 -0.214348511
N  N6  1  0.50250000  0.58870000  0.92560000  1.0 -0.214348511
N  N7  1  0.49750000  0.08870000  0.57440000  1.0 -0.214348511
N  N8  1  0.99750000  0.41130000  0.42560000  1.0 -0.214348511
N  N9  1  0.07440000  0.00250000  0.91130000  1.0 -0.214348511
N  N10  1  0.92560000  0.50250000  0.58870000  1.0 -0.214348511
N  N11  1  0.57440000  0.49750000  0.08870000  1.0 -0.214348511
N  N12  1  0.42560000  0.99750000  0.41130000  1.0 -0.214348511
N  N13  1  0.89430000  0.03030000  0.05170000  1.0 -0.1121027845
N  N14  1  0.60570000  0.96970000  0.55170000  1.0 -0.1121027845
N  N15  1  0.10570000  0.53030000  0.44830000  1.0 -0.1121027845
N  N16  1  0.39430000  0.46970000  0.94830000  1.0 -0.1121027845
N  N17  1  0.05170000  0.89430000  0.03030000  1.0 -0.1121027845
N  N18  1  0.55170000  0.60570000  0.96970000  1.0 -0.1121027845
N  N19  1  0.44830000  0.10570000  0.53030000  1.0 -0.1121027845
N  N20  1  0.94830000  0.39430000  0.46970000  1.0 -0.1121027845
N  N21  1  0.03030000  0.05170000  0.89430000  1.0 -0.1121027845
N  N22  1  0.96970000  0.55170000  0.60570000  1.0 -0.1121027845
N  N23  1  0.53030000  0.44830000  0.10570000  1.0 -0.1121027845
N  N24  1  0.46970000  0.94830000  0.39430000  1.0 -0.1121027845
O  O1  1  0.04310000  0.04310000  0.04310000  1.0 -0.899152807
O  O2  1  0.45690000  0.95690000  0.54310000  1.0 -0.899152807
O  O3  1  0.95690000  0.54310000  0.45690000  1.0 -0.899152807
O  O4  1  0.54310000  0.45690000  0.95690000  1.0 -0.899152807
O  O5  1  0.54550000  0.95450000  0.04550000  1.0 -1.0662864562
O  O6  1  0.95450000  0.04550000  0.54550000  1.0 -1.0646200692
O  O7  1  0.45450000  0.45450000  0.45450000  1.0 -1.0662864562
O  O8  1  0.04550000  0.54550000  0.95450000  1.0 -1.0662864562
O  O9  1  0.69910000  0.08930000  0.96060000  1.0 -0.7356730467
O  O10  1  0.80090000  0.91070000  0.46060000  1.0 -0.7347941241
O  O11  1  0.30090000  0.58930000  0.53940000  1.0 -0.7347941241
O  O12  1  0.19910000  0.41070000  0.03940000  1.0 -0.7347941241
O  O13  1  0.96060000  0.69910000  0.08930000  1.0 -0.7347941241
O  O14  1  0.46060000  0.80090000  0.91070000  1.0 -0.7347941241
O  O15  1  0.53940000  0.30090000  0.58930000  1.0 -0.7347941241
O  O16  1  0.03940000  0.19910000  0.41070000  1.0 -0.7356730467
O  O17  1  0.08930000  0.96060000  0.69910000  1.0 -0.7347941241
O  O18  1  0.91070000  0.46060000  0.80090000  1.0 -0.7347941241
O  O19  1  0.58930000  0.53940000  0.30090000  1.0 -0.7356730467
O  O20  1  0.41070000  0.03940000  0.19910000  1.0 -0.7356730467
O  O21  1  0.69260000  0.00740000  0.02950000  1.0 -0.6261373675
O  O22  1  0.80740000  0.99260000  0.52950000  1.0 -0.6244779443
O  O23  1  0.30740000  0.50740000  0.47050000  1.0 -0.6244779443
O  O24  1  0.19260000  0.49260000  0.97050000  1.0 -0.6244779443
O  O25  1  0.02950000  0.69260000  0.00740000  1.0 -0.6261373675
O  O26  1  0.52950000  0.80740000  0.99260000  1.0 -0.6244779443
O  O27  1  0.47050000  0.30740000  0.50740000  1.0 -0.6244779443
O  O28  1  0.97050000  0.19260000  0.49260000  1.0 -0.6244779443
O  O29  1  0.00740000  0.02950000  0.69260000  1.0 -0.6244779443
O  O30  1  0.99260000  0.52950000  0.80740000  1.0 -0.6244779443
O  O31  1  0.50740000  0.47050000  0.30740000  1.0 -0.6261373675
O  O32  1  0.49260000  0.97050000  0.19260000  1.0 -0.6261373675
