# DDEC6 charges by PACMAN v1.1 (https://github.com/mtap-research/PACMAN-charge/)
data_BUKYAJ_FSR_pacman
_symmetry_space_group_name_H-M   'P 1'
_cell_length_a   7.15550000
_cell_length_b   12.42380000
_cell_length_c   11.75750000
_cell_angle_alpha   90.00000000
_cell_angle_beta   91.78200000
_cell_angle_gamma   90.00000000
_symmetry_Int_Tables_number   1
_chemical_formula_structural   LiH8C7NO2
_chemical_formula_sum   'Li4 H32 C28 N4 O8'
_cell_volume   1044.71863202
_cell_formula_units_Z   4
loop_
 _symmetry_equiv_pos_site_id
 _symmetry_equiv_pos_as_xyz
  1  'x, y, z'
loop_
 _atom_site_type_symbol
 _atom_site_label
 _atom_site_symmetry_multiplicity
 _atom_site_fract_x
 _atom_site_fract_y
 _atom_site_fract_z
 _atom_site_occupancy
 _atom_site_charge
Li  Li1  1  0.39700000  0.94750000  0.57280000  1.0 0.756679798
Li  Li2  1  0.60300000  0.44750000  0.92720000  1.0 0.756679798
Li  Li3  1  0.60300000  0.05250000  0.42720000  1.0 0.756679798
Li  Li4  1  0.39700000  0.55250000  0.07280000  1.0 0.756679798
H  H1  1  0.62100000  0.90620000  0.22580000  1.0 0.1265795627
H  H2  1  0.37900000  0.40620000  0.27420000  1.0 0.1265795627
H  H3  1  0.37900000  0.09380000  0.77420000  1.0 0.1265795627
H  H4  1  0.62100000  0.59380000  0.72580000  1.0 0.1265795627
H  H5  1  0.29300000  0.73940000  0.43340000  1.0 0.1203880334
H  H6  1  0.70700000  0.23940000  0.06660000  1.0 0.1203880334
H  H7  1  0.70700000  0.26060000  0.56660000  1.0 0.1203880334
H  H8  1  0.29300000  0.76060000  0.93340000  1.0 0.1203880334
H  H9  1  0.27460000  0.60940000  0.29950000  1.0 0.0946146217
H  H10  1  0.72540000  0.10940000  0.20050000  1.0 0.0946146217
H  H11  1  0.72540000  0.39060000  0.70050000  1.0 0.0946146217
H  H12  1  0.27460000  0.89060000  0.79950000  1.0 0.0946146217
H  H13  1  0.59600000  0.76810000  0.10040000  1.0 0.0946146217
H  H14  1  0.40400000  0.26810000  0.39960000  1.0 0.0946146217
H  H15  1  0.40400000  0.23190000  0.89960000  1.0 0.0946146217
H  H16  1  0.59600000  0.73190000  0.60040000  1.0 0.0946146217
H  H17  1  0.02600000  0.84050000  0.59440000  1.0 0.1087187329
H  H18  1  0.97400000  0.34050000  0.90560000  1.0 0.1087187329
H  H19  1  0.97400000  0.15950000  0.40560000  1.0 0.1087187329
H  H20  1  0.02600000  0.65950000  0.09440000  1.0 0.1087187329
H  H21  1  0.87330000  0.92920000  0.61150000  1.0 0.1203880334
H  H22  1  0.12670000  0.42920000  0.88850000  1.0 0.1203880334
H  H23  1  0.12670000  0.07080000  0.38850000  1.0 0.1203880334
H  H24  1  0.87330000  0.57080000  0.11150000  1.0 0.1203880334
H  H25  1  0.95700000  0.11420000  0.59630000  1.0 0.1087187329
H  H26  1  0.04300000  0.61420000  0.90370000  1.0 0.1087187329
H  H27  1  0.04300000  0.88580000  0.40370000  1.0 0.1087187329
H  H28  1  0.95700000  0.38580000  0.09630000  1.0 0.1087187329
H  H29  1  0.16390000  0.14450000  0.56900000  1.0 0.1087187329
H  H30  1  0.83610000  0.64450000  0.93100000  1.0 0.1087187329
H  H31  1  0.83610000  0.85550000  0.43100000  1.0 0.1087187329
H  H32  1  0.16390000  0.35550000  0.06900000  1.0 0.1087187329
C  C1  1  0.45790000  0.84274000  0.34774000  1.0 0.4147882411
C  C2  1  0.54210000  0.34274000  0.15226000  1.0 0.4147882411
C  C3  1  0.54210000  0.15726000  0.65226000  1.0 0.4147882411
C  C4  1  0.45790000  0.65726000  0.84774000  1.0 0.4147882411
C  C5  1  0.54920000  0.84645000  0.24356000  1.0 -0.3129231534
C  C6  1  0.45080000  0.34645000  0.25644000  1.0 -0.3129231534
C  C7  1  0.45080000  0.15355000  0.75644000  1.0 -0.3129231534
C  C8  1  0.54920000  0.65355000  0.74356000  1.0 -0.3129231534
C  C9  1  0.35520000  0.74846000  0.36577000  1.0 -0.326445838
C  C10  1  0.64480000  0.24846000  0.13423000  1.0 -0.326445838
C  C11  1  0.64480000  0.25154000  0.63423000  1.0 -0.326445838
C  C12  1  0.35520000  0.75154000  0.86577000  1.0 -0.326445838
C  C13  1  0.34620000  0.66996000  0.28459000  1.0 0.0733828456
C  C14  1  0.65380000  0.16996000  0.21541000  1.0 0.0733828456
C  C15  1  0.65380000  0.33004000  0.71541000  1.0 0.0733828456
C  C16  1  0.34620000  0.83004000  0.78459000  1.0 0.0733828456
C  C17  1  0.53290000  0.76259000  0.16815000  1.0 0.0796029368
C  C18  1  0.46710000  0.26259000  0.33185000  1.0 0.0796029368
C  C19  1  0.46710000  0.23741000  0.83185000  1.0 0.0796029368
C  C20  1  0.53290000  0.73741000  0.66815000  1.0 0.0796029368
C  C21  1  0.98350000  0.91102000  0.56960000  1.0 -0.0727465353
C  C22  1  0.01650000  0.41102000  0.93040000  1.0 -0.0727465353
C  C23  1  0.01650000  0.08898000  0.43040000  1.0 -0.0727465353
C  C24  1  0.98350000  0.58898000  0.06960000  1.0 -0.0727465353
C  C25  1  0.06550000  0.09212000  0.55460000  1.0 -0.0727465353
C  C26  1  0.93450000  0.59212000  0.94540000  1.0 -0.0727465353
C  C27  1  0.93450000  0.90788000  0.44540000  1.0 -0.0727465353
C  C28  1  0.06550000  0.40788000  0.05460000  1.0 -0.0727465353
N  N1  1  0.43250000  0.67323000  0.18503000  1.0 -0.4254074818
N  N2  1  0.56750000  0.17323000  0.31497000  1.0 -0.4254074818
N  N3  1  0.56750000  0.32677000  0.81497000  1.0 -0.4254074818
N  N4  1  0.43250000  0.82677000  0.68503000  1.0 -0.4254074818
O  O1  1  0.46870000  0.92045000  0.42124000  1.0 -0.7222994021
O  O2  1  0.53130000  0.42045000  0.07876000  1.0 -0.7222994021
O  O3  1  0.53130000  0.07955000  0.57876000  1.0 -0.7222994021
O  O4  1  0.46870000  0.57955000  0.92124000  1.0 -0.7222994021
O  O5  1  0.12670000  0.98844000  0.59341000  1.0 -0.2737777582
O  O6  1  0.87330000  0.48844000  0.90659000  1.0 -0.2737777582
O  O7  1  0.87330000  0.01156000  0.40659000  1.0 -0.2754741362
O  O8  1  0.12670000  0.51156000  0.09341000  1.0 -0.2754741362
