# DDEC6 charges by PACMAN v1.1 (https://github.com/mtap-research/PACMAN-charge/)
data_BULBER_FSR_pacman
_symmetry_space_group_name_H-M   'P 1'
_cell_length_a   11.89280000
_cell_length_b   19.13650000
_cell_length_c   23.25980000
_cell_angle_alpha   90.00000000
_cell_angle_beta   90.00000000
_cell_angle_gamma   90.00000000
_symmetry_Int_Tables_number   1
_chemical_formula_structural   Tb3H28C32NO25
_chemical_formula_sum   'Tb12 H112 C128 N4 O100'
_cell_volume   5293.61803576
_cell_formula_units_Z   4
loop_
 _symmetry_equiv_pos_site_id
 _symmetry_equiv_pos_as_xyz
  1  'x, y, z'
loop_
 _atom_site_type_symbol
 _atom_site_label
 _atom_site_symmetry_multiplicity
 _atom_site_fract_x
 _atom_site_fract_y
 _atom_site_fract_z
 _atom_site_occupancy
 _atom_site_charge
Tb  Tb1  1  0.41600000  0.75000000  0.43956000  1.0 1.866354047
Tb  Tb2  1  0.41600000  0.25000000  0.06044000  1.0 1.866354047
Tb  Tb3  1  0.58400000  0.75000000  0.93956000  1.0 1.866354047
Tb  Tb4  1  0.58400000  0.25000000  0.56044000  1.0 1.866354047
Tb  Tb5  1  0.92774000  0.75000000  0.56628000  1.0 1.9912165391
Tb  Tb6  1  0.92774000  0.25000000  0.93372000  1.0 1.9912165391
Tb  Tb7  1  0.07226000  0.75000000  0.06628000  1.0 1.9912165391
Tb  Tb8  1  0.07226000  0.25000000  0.43372000  1.0 1.9912165391
Tb  Tb9  1  0.26610000  0.00000000  0.25000000  1.0 2.0165898191
Tb  Tb10  1  0.73390000  0.50000000  0.75000000  1.0 2.0165898191
Tb  Tb11  1  0.73390000  0.00000000  0.75000000  1.0 2.0165898191
Tb  Tb12  1  0.26610000  0.50000000  0.25000000  1.0 2.0165898191
H  H1  1  0.41040000  0.90990000  0.18720000  1.0 0.3822543609
H  H2  1  0.41040000  0.09010000  0.31280000  1.0 0.3822543609
H  H3  1  0.58960000  0.59010000  0.68720000  1.0 0.3822543609
H  H4  1  0.58960000  0.40990000  0.81280000  1.0 0.3822543609
H  H5  1  0.58960000  0.09010000  0.81280000  1.0 0.3822543609
H  H6  1  0.58960000  0.90990000  0.68720000  1.0 0.3822543609
H  H7  1  0.41040000  0.40990000  0.31280000  1.0 0.3822543609
H  H8  1  0.41040000  0.59010000  0.18720000  1.0 0.3822543609
H  H9  1  0.48100000  0.96410000  0.20680000  1.0 0.3468577552
H  H10  1  0.48100000  0.03590000  0.29320000  1.0 0.3468577552
H  H11  1  0.51900000  0.53590000  0.70680000  1.0 0.3468577552
H  H12  1  0.51900000  0.46410000  0.79320000  1.0 0.3468577552
H  H13  1  0.51900000  0.03590000  0.79320000  1.0 0.3468577552
H  H14  1  0.51900000  0.96410000  0.70680000  1.0 0.3468577552
H  H15  1  0.48100000  0.46410000  0.29320000  1.0 0.3468577552
H  H16  1  0.48100000  0.53590000  0.20680000  1.0 0.3468577552
H  H17  1  0.20100000  0.90590000  0.47390000  1.0 0.1193458277
H  H18  1  0.20100000  0.09410000  0.02610000  1.0 0.1193458277
H  H19  1  0.79900000  0.59410000  0.97390000  1.0 0.1193458277
H  H20  1  0.79900000  0.40590000  0.52610000  1.0 0.1193458277
H  H21  1  0.79900000  0.09410000  0.52610000  1.0 0.1193458277
H  H22  1  0.79900000  0.90590000  0.97390000  1.0 0.1193458277
H  H23  1  0.20100000  0.40590000  0.02610000  1.0 0.1193458277
H  H24  1  0.20100000  0.59410000  0.47390000  1.0 0.1193458277
H  H25  1  0.30360000  0.09760000  0.46950000  1.0 0.1316248464
H  H26  1  0.30360000  0.90240000  0.03050000  1.0 0.1316248464
H  H27  1  0.69640000  0.40240000  0.96950000  1.0 0.1316248464
H  H28  1  0.69640000  0.59760000  0.53050000  1.0 0.1316248464
H  H29  1  0.69640000  0.90240000  0.53050000  1.0 0.1316248464
H  H30  1  0.69640000  0.09760000  0.96950000  1.0 0.1316248464
H  H31  1  0.30360000  0.59760000  0.03050000  1.0 0.1316248464
H  H32  1  0.30360000  0.40240000  0.46950000  1.0 0.1316248464
H  H33  1  0.94410000  0.05310000  0.38620000  1.0 0.1122507826
H  H34  1  0.94410000  0.94690000  0.11380000  1.0 0.1122507826
H  H35  1  0.05590000  0.44690000  0.88620000  1.0 0.1122507826
H  H36  1  0.05590000  0.55310000  0.61380000  1.0 0.1122507826
H  H37  1  0.05590000  0.94690000  0.61380000  1.0 0.1122507826
H  H38  1  0.05590000  0.05310000  0.88620000  1.0 0.1122507826
H  H39  1  0.94410000  0.55310000  0.11380000  1.0 0.1122507826
H  H40  1  0.94410000  0.44690000  0.38620000  1.0 0.1122507826
H  H41  1  0.88190000  0.95500000  0.43380000  1.0 0.1193458277
H  H42  1  0.88190000  0.04500000  0.06620000  1.0 0.1193458277
H  H43  1  0.11810000  0.54500000  0.93380000  1.0 0.1193458277
H  H44  1  0.11810000  0.45500000  0.56620000  1.0 0.1193458277
H  H45  1  0.11810000  0.04500000  0.56620000  1.0 0.1193458277
H  H46  1  0.11810000  0.95500000  0.93380000  1.0 0.1193458277
H  H47  1  0.88190000  0.45500000  0.06620000  1.0 0.1193458277
H  H48  1  0.88190000  0.54500000  0.43380000  1.0 0.1193458277
H  H49  1  0.55400000  0.94210000  0.38700000  1.0 0.1122507826
H  H50  1  0.55400000  0.05790000  0.11300000  1.0 0.1122507826
H  H51  1  0.44600000  0.55790000  0.88700000  1.0 0.1122507826
H  H52  1  0.44600000  0.44210000  0.61300000  1.0 0.1122507826
H  H53  1  0.44600000  0.05790000  0.61300000  1.0 0.1122507826
H  H54  1  0.44600000  0.94210000  0.88700000  1.0 0.1122507826
H  H55  1  0.55400000  0.44210000  0.11300000  1.0 0.1122507826
H  H56  1  0.55400000  0.55790000  0.38700000  1.0 0.1122507826
H  H57  1  0.62050000  0.04250000  0.43220000  1.0 0.1122507826
H  H58  1  0.62050000  0.95750000  0.06780000  1.0 0.1122507826
H  H59  1  0.37950000  0.45750000  0.93220000  1.0 0.1122507826
H  H60  1  0.37950000  0.54250000  0.56780000  1.0 0.1122507826
H  H61  1  0.37950000  0.95750000  0.56780000  1.0 0.1122507826
H  H62  1  0.37950000  0.04250000  0.93220000  1.0 0.1122507826
H  H63  1  0.62050000  0.54250000  0.06780000  1.0 0.1122507826
H  H64  1  0.62050000  0.45750000  0.43220000  1.0 0.1122507826
H  H65  1  0.18500000  0.72700000  0.41760000  1.0 0.2347789991
H  H66  1  0.18500000  0.27300000  0.08240000  1.0 0.2347789991
H  H67  1  0.81500000  0.77300000  0.91760000  1.0 0.2347789991
H  H68  1  0.81500000  0.22700000  0.58240000  1.0 0.2347789991
H  H69  1  0.81500000  0.27300000  0.58240000  1.0 0.2347789991
H  H70  1  0.81500000  0.72700000  0.91760000  1.0 0.2347789991
H  H71  1  0.18500000  0.22700000  0.08240000  1.0 0.2347789991
H  H72  1  0.18500000  0.77300000  0.41760000  1.0 0.2347789991
H  H73  1  0.19450000  0.72900000  0.48010000  1.0 0.2359858441
H  H74  1  0.19450000  0.27100000  0.01990000  1.0 0.2359858441
H  H75  1  0.80550000  0.77100000  0.98010000  1.0 0.2359858441
H  H76  1  0.80550000  0.22900000  0.51990000  1.0 0.2359858441
H  H77  1  0.80550000  0.27100000  0.51990000  1.0 0.2359858441
H  H78  1  0.80550000  0.72900000  0.98010000  1.0 0.2359858441
H  H79  1  0.19450000  0.22900000  0.01990000  1.0 0.2359858441
H  H80  1  0.19450000  0.77100000  0.48010000  1.0 0.2359858441
H  H81  1  0.53820000  0.72790000  0.33630000  1.0 0.1358942675
H  H82  1  0.53820000  0.27210000  0.16370000  1.0 0.1358942675
H  H83  1  0.46180000  0.77210000  0.83630000  1.0 0.1358942675
H  H84  1  0.46180000  0.22790000  0.66370000  1.0 0.1358942675
H  H85  1  0.46180000  0.27210000  0.66370000  1.0 0.1358942675
H  H86  1  0.46180000  0.72790000  0.83630000  1.0 0.1358942675
H  H87  1  0.53820000  0.22790000  0.16370000  1.0 0.1358942675
H  H88  1  0.53820000  0.77210000  0.33630000  1.0 0.1358942675
H  H89  1  0.57910000  0.79310000  0.35760000  1.0 0.2100713688
H  H90  1  0.57910000  0.20690000  0.14240000  1.0 0.2100713688
H  H91  1  0.42090000  0.70690000  0.85760000  1.0 0.2100713688
H  H92  1  0.42090000  0.29310000  0.64240000  1.0 0.2100713688
H  H93  1  0.42090000  0.20690000  0.64240000  1.0 0.2100713688
H  H94  1  0.42090000  0.79310000  0.85760000  1.0 0.2100713688
H  H95  1  0.57910000  0.29310000  0.14240000  1.0 0.2100713688
H  H96  1  0.57910000  0.70690000  0.35760000  1.0 0.2100713688
H  H97  1  0.16110000  0.70740000  0.63560000  1.0 0.3606946791
H  H98  1  0.16110000  0.29260000  0.86440000  1.0 0.3606946791
H  H99  1  0.83890000  0.79260000  0.13560000  1.0 0.3606946791
H  H100  1  0.83890000  0.20740000  0.36440000  1.0 0.3606946791
H  H101  1  0.83890000  0.29260000  0.36440000  1.0 0.3606946791
H  H102  1  0.83890000  0.70740000  0.13560000  1.0 0.3606946791
H  H103  1  0.16110000  0.20740000  0.86440000  1.0 0.3606946791
H  H104  1  0.16110000  0.79260000  0.63560000  1.0 0.3606946791
H  H105  1  0.14550000  0.80140000  0.64540000  1.0 0.3606946791
H  H106  1  0.14550000  0.19860000  0.85460000  1.0 0.3606946791
H  H107  1  0.85450000  0.69860000  0.14540000  1.0 0.3606946791
H  H108  1  0.85450000  0.30140000  0.35460000  1.0 0.3606946791
H  H109  1  0.85450000  0.19860000  0.35460000  1.0 0.3606946791
H  H110  1  0.85450000  0.80140000  0.14540000  1.0 0.3606946791
H  H111  1  0.14550000  0.30140000  0.85460000  1.0 0.3606946791
H  H112  1  0.14550000  0.69860000  0.64540000  1.0 0.3606946791
C  C1  1  0.34720000  0.90070000  0.36390000  1.0 0.6392202179
C  C2  1  0.34720000  0.09930000  0.13610000  1.0 0.6392202179
C  C3  1  0.65280000  0.59930000  0.86390000  1.0 0.6392202179
C  C4  1  0.65280000  0.40070000  0.63610000  1.0 0.6392202179
C  C5  1  0.65280000  0.09930000  0.63610000  1.0 0.6392202179
C  C6  1  0.65280000  0.90070000  0.86390000  1.0 0.6392202179
C  C7  1  0.34720000  0.40070000  0.13610000  1.0 0.6392202179
C  C8  1  0.34720000  0.59930000  0.36390000  1.0 0.6392202179
C  C9  1  0.50930000  0.14250000  0.48740000  1.0 0.5510796892
C  C10  1  0.50930000  0.85750000  0.01260000  1.0 0.5510796892
C  C11  1  0.49070000  0.35750000  0.98740000  1.0 0.5510796892
C  C12  1  0.49070000  0.64250000  0.51260000  1.0 0.5510796892
C  C13  1  0.49070000  0.85750000  0.51260000  1.0 0.5510796892
C  C14  1  0.49070000  0.14250000  0.98740000  1.0 0.5510796892
C  C15  1  0.50930000  0.64250000  0.01260000  1.0 0.5510796892
C  C16  1  0.50930000  0.35750000  0.48740000  1.0 0.5510796892
C  C17  1  0.46900000  0.08010000  0.45540000  1.0 -0.0277539634
C  C18  1  0.46900000  0.91990000  0.04460000  1.0 -0.0277539634
C  C19  1  0.53100000  0.41990000  0.95540000  1.0 -0.0277539634
C  C20  1  0.53100000  0.58010000  0.54460000  1.0 -0.0277539634
C  C21  1  0.53100000  0.91990000  0.54460000  1.0 -0.0277539634
C  C22  1  0.53100000  0.08010000  0.95540000  1.0 -0.0277539634
C  C23  1  0.46900000  0.58010000  0.04460000  1.0 -0.0277539634
C  C24  1  0.46900000  0.41990000  0.45540000  1.0 -0.0277539634
C  C25  1  0.38880000  0.96180000  0.39950000  1.0 -0.0989568954
C  C26  1  0.38880000  0.03820000  0.10050000  1.0 -0.0989568954
C  C27  1  0.61120000  0.53820000  0.89950000  1.0 -0.0989568954
C  C28  1  0.61120000  0.46180000  0.60050000  1.0 -0.0989568954
C  C29  1  0.61120000  0.03820000  0.60050000  1.0 -0.0989568954
C  C30  1  0.61120000  0.96180000  0.89950000  1.0 -0.0989568954
C  C31  1  0.38880000  0.46180000  0.10050000  1.0 -0.0989568954
C  C32  1  0.38880000  0.53820000  0.39950000  1.0 -0.0989568954
C  C33  1  0.14970000  0.93480000  0.45530000  1.0 -0.1669026029
C  C34  1  0.14970000  0.06520000  0.04470000  1.0 -0.1669026029
C  C35  1  0.85030000  0.56520000  0.95530000  1.0 -0.1669026029
C  C36  1  0.85030000  0.43480000  0.54470000  1.0 -0.1669026029
C  C37  1  0.85030000  0.06520000  0.54470000  1.0 -0.1669026029
C  C38  1  0.85030000  0.93480000  0.95530000  1.0 -0.1669026029
C  C39  1  0.14970000  0.43480000  0.04470000  1.0 -0.1669026029
C  C40  1  0.14970000  0.56520000  0.45530000  1.0 -0.1669026029
C  C41  1  0.35360000  0.06660000  0.45240000  1.0 -0.1480350283
C  C42  1  0.35360000  0.93340000  0.04760000  1.0 -0.1480350283
C  C43  1  0.64640000  0.43340000  0.95240000  1.0 -0.1480350283
C  C44  1  0.64640000  0.56660000  0.54760000  1.0 -0.1480350283
C  C45  1  0.64640000  0.93340000  0.54760000  1.0 -0.1480350283
C  C46  1  0.64640000  0.06660000  0.95240000  1.0 -0.1480350283
C  C47  1  0.35360000  0.56660000  0.04760000  1.0 -0.1480350283
C  C48  1  0.35360000  0.43340000  0.45240000  1.0 -0.1480350283
C  C49  1  0.11040000  0.03660000  0.39840000  1.0 -0.0835881842
C  C50  1  0.11040000  0.96340000  0.10160000  1.0 -0.0835881842
C  C51  1  0.88960000  0.46340000  0.89840000  1.0 -0.0835881842
C  C52  1  0.88960000  0.53660000  0.60160000  1.0 -0.0835881842
C  C53  1  0.88960000  0.96340000  0.60160000  1.0 -0.0835881842
C  C54  1  0.88960000  0.03660000  0.89840000  1.0 -0.0835881842
C  C55  1  0.11040000  0.53660000  0.10160000  1.0 -0.0835881842
C  C56  1  0.11040000  0.46340000  0.39840000  1.0 -0.0835881842
C  C57  1  0.31250000  0.00840000  0.42470000  1.0 0.0384091206
C  C58  1  0.31250000  0.99160000  0.07530000  1.0 0.0384091206
C  C59  1  0.68750000  0.49160000  0.92470000  1.0 0.0384091206
C  C60  1  0.68750000  0.50840000  0.57530000  1.0 0.0384091206
C  C61  1  0.68750000  0.99160000  0.57530000  1.0 0.0384091206
C  C62  1  0.68750000  0.00840000  0.92470000  1.0 0.0384091206
C  C63  1  0.31250000  0.50840000  0.07530000  1.0 0.0384091206
C  C64  1  0.31250000  0.49160000  0.42470000  1.0 0.0384091206
C  C65  1  0.03530000  0.91970000  0.45840000  1.0 -0.0249616572
C  C66  1  0.03530000  0.08030000  0.04160000  1.0 -0.0249616572
C  C67  1  0.96470000  0.58030000  0.95840000  1.0 -0.0249616572
C  C68  1  0.96470000  0.41970000  0.54160000  1.0 -0.0249616572
C  C69  1  0.96470000  0.08030000  0.54160000  1.0 -0.0249616572
C  C70  1  0.96470000  0.91970000  0.95840000  1.0 -0.0249616572
C  C71  1  0.03530000  0.41970000  0.04160000  1.0 -0.0249616572
C  C72  1  0.03530000  0.58030000  0.45840000  1.0 -0.0249616572
C  C73  1  0.99580000  0.02280000  0.40290000  1.0 -0.109086823
C  C74  1  0.99580000  0.97720000  0.09710000  1.0 -0.109086823
C  C75  1  0.00420000  0.47720000  0.90290000  1.0 -0.109086823
C  C76  1  0.00420000  0.52280000  0.59710000  1.0 -0.109086823
C  C77  1  0.00420000  0.97720000  0.59710000  1.0 -0.109086823
C  C78  1  0.00420000  0.02280000  0.90290000  1.0 -0.109086823
C  C79  1  0.99580000  0.52280000  0.09710000  1.0 -0.109086823
C  C80  1  0.99580000  0.47720000  0.40290000  1.0 -0.109086823
C  C81  1  0.18820000  0.99270000  0.42490000  1.0 0.0531032027
C  C82  1  0.18820000  0.00730000  0.07510000  1.0 0.0531032027
C  C83  1  0.81180000  0.50730000  0.92490000  1.0 0.0531032027
C  C84  1  0.81180000  0.49270000  0.57510000  1.0 0.0531032027
C  C85  1  0.81180000  0.00730000  0.57510000  1.0 0.0531032027
C  C86  1  0.81180000  0.99270000  0.92490000  1.0 0.0531032027
C  C87  1  0.18820000  0.49270000  0.07510000  1.0 0.0531032027
C  C88  1  0.18820000  0.50730000  0.42490000  1.0 0.0531032027
C  C89  1  0.14970000  0.09710000  0.36160000  1.0 0.6392202179
C  C90  1  0.14970000  0.90290000  0.13840000  1.0 0.6392202179
C  C91  1  0.85030000  0.40290000  0.86160000  1.0 0.6392202179
C  C92  1  0.85030000  0.59710000  0.63840000  1.0 0.6392202179
C  C93  1  0.85030000  0.90290000  0.63840000  1.0 0.6392202179
C  C94  1  0.85030000  0.09710000  0.86160000  1.0 0.6392202179
C  C95  1  0.14970000  0.59710000  0.13840000  1.0 0.6392202179
C  C96  1  0.14970000  0.40290000  0.36160000  1.0 0.6392202179
C  C97  1  0.95840000  0.96450000  0.43190000  1.0 -0.0989568954
C  C98  1  0.95840000  0.03550000  0.06810000  1.0 -0.0989568954
C  C99  1  0.04160000  0.53550000  0.93190000  1.0 -0.0989568954
C  C100  1  0.04160000  0.46450000  0.56810000  1.0 -0.0989568954
C  C101  1  0.04160000  0.03550000  0.56810000  1.0 -0.0989568954
C  C102  1  0.04160000  0.96450000  0.93190000  1.0 -0.0989568954
C  C103  1  0.95840000  0.46450000  0.06810000  1.0 -0.0989568954
C  C104  1  0.95840000  0.53550000  0.43190000  1.0 -0.0989568954
C  C105  1  0.99680000  0.85800000  0.49260000  1.0 0.5318752515
C  C106  1  0.99680000  0.14200000  0.00740000  1.0 0.5318752515
C  C107  1  0.00320000  0.64200000  0.99260000  1.0 0.5318752515
C  C108  1  0.00320000  0.35800000  0.50740000  1.0 0.5318752515
C  C109  1  0.00320000  0.14200000  0.50740000  1.0 0.5318752515
C  C110  1  0.00320000  0.85800000  0.99260000  1.0 0.5318752515
C  C111  1  0.99680000  0.35800000  0.00740000  1.0 0.5318752515
C  C112  1  0.99680000  0.64200000  0.49260000  1.0 0.5318752515
C  C113  1  0.50370000  0.97380000  0.40300000  1.0 -0.1480350283
C  C114  1  0.50370000  0.02620000  0.09700000  1.0 -0.1480350283
C  C115  1  0.49630000  0.52620000  0.90300000  1.0 -0.1480350283
C  C116  1  0.49630000  0.47380000  0.59700000  1.0 -0.1480350283
C  C117  1  0.49630000  0.02620000  0.59700000  1.0 -0.1480350283
C  C118  1  0.49630000  0.97380000  0.90300000  1.0 -0.1480350283
C  C119  1  0.50370000  0.47380000  0.09700000  1.0 -0.1480350283
C  C120  1  0.50370000  0.52620000  0.40300000  1.0 -0.1480350283
C  C121  1  0.54360000  0.03380000  0.43060000  1.0 -0.120727829
C  C122  1  0.54360000  0.96620000  0.06940000  1.0 -0.120727829
C  C123  1  0.45640000  0.46620000  0.93060000  1.0 -0.120727829
C  C124  1  0.45640000  0.53380000  0.56940000  1.0 -0.120727829
C  C125  1  0.45640000  0.96620000  0.56940000  1.0 -0.120727829
C  C126  1  0.45640000  0.03380000  0.93060000  1.0 -0.120727829
C  C127  1  0.54360000  0.53380000  0.06940000  1.0 -0.120727829
C  C128  1  0.54360000  0.46620000  0.43060000  1.0 -0.120727829
N  N1  1  0.02280000  0.00000000  0.25000000  1.0 0.6818843472
N  N2  1  0.97720000  0.50000000  0.75000000  1.0 0.6818843472
N  N3  1  0.97720000  0.00000000  0.75000000  1.0 0.6818843472
N  N4  1  0.02280000  0.50000000  0.25000000  1.0 0.6818843472
O  O1  1  0.92180000  0.00000000  0.25000000  1.0 -0.3487948862
O  O2  1  0.07820000  0.50000000  0.75000000  1.0 -0.3487948862
O  O3  1  0.07820000  0.00000000  0.75000000  1.0 -0.3487948862
O  O4  1  0.92180000  0.50000000  0.25000000  1.0 -0.3487948862
O  O5  1  0.72610000  0.75000000  0.55770000  1.0 -0.2992685673
O  O6  1  0.72610000  0.25000000  0.94230000  1.0 -0.2992685673
O  O7  1  0.27390000  0.75000000  0.05770000  1.0 -0.2992685673
O  O8  1  0.27390000  0.25000000  0.44230000  1.0 -0.2992685673
O  O9  1  0.20920000  0.08280000  0.31820000  1.0 -0.666337685
O  O10  1  0.20920000  0.91720000  0.18180000  1.0 -0.666337685
O  O11  1  0.79080000  0.41720000  0.81820000  1.0 -0.666337685
O  O12  1  0.79080000  0.58280000  0.68180000  1.0 -0.666337685
O  O13  1  0.79080000  0.91720000  0.68180000  1.0 -0.666337685
O  O14  1  0.79080000  0.08280000  0.81820000  1.0 -0.666337685
O  O15  1  0.20920000  0.58280000  0.18180000  1.0 -0.666337685
O  O16  1  0.20920000  0.41720000  0.31820000  1.0 -0.666337685
O  O17  1  0.12130000  0.15750000  0.37420000  1.0 -0.6266767395
O  O18  1  0.12130000  0.84250000  0.12580000  1.0 -0.6266767395
O  O19  1  0.87870000  0.34250000  0.87420000  1.0 -0.6266767395
O  O20  1  0.87870000  0.65750000  0.62580000  1.0 -0.6266767395
O  O21  1  0.87870000  0.84250000  0.62580000  1.0 -0.6266767395
O  O22  1  0.87870000  0.15750000  0.87420000  1.0 -0.6266767395
O  O23  1  0.12130000  0.65750000  0.12580000  1.0 -0.6266767395
O  O24  1  0.12130000  0.34250000  0.37420000  1.0 -0.6266767395
O  O25  1  0.89560000  0.83700000  0.49050000  1.0 -0.6137563897
O  O26  1  0.89560000  0.16300000  0.00950000  1.0 -0.6137563897
O  O27  1  0.10440000  0.66300000  0.99050000  1.0 -0.6137563897
O  O28  1  0.10440000  0.33700000  0.50950000  1.0 -0.6137563897
O  O29  1  0.10440000  0.16300000  0.50950000  1.0 -0.6137563897
O  O30  1  0.10440000  0.83700000  0.99050000  1.0 -0.6137563897
O  O31  1  0.89560000  0.33700000  0.00950000  1.0 -0.6137563897
O  O32  1  0.89560000  0.66300000  0.49050000  1.0 -0.6137563897
O  O33  1  0.61080000  0.16240000  0.48380000  1.0 -0.666337685
O  O34  1  0.61080000  0.83760000  0.01620000  1.0 -0.666337685
O  O35  1  0.38920000  0.33760000  0.98380000  1.0 -0.666337685
O  O36  1  0.38920000  0.66240000  0.51620000  1.0 -0.666337685
O  O37  1  0.38920000  0.83760000  0.51620000  1.0 -0.666337685
O  O38  1  0.38920000  0.16240000  0.98380000  1.0 -0.666337685
O  O39  1  0.61080000  0.66240000  0.01620000  1.0 -0.666337685
O  O40  1  0.61080000  0.33760000  0.48380000  1.0 -0.666337685
O  O41  1  0.36690000  0.83990000  0.37990000  1.0 -0.6626632375
O  O42  1  0.36690000  0.16010000  0.12010000  1.0 -0.6626632375
O  O43  1  0.63310000  0.66010000  0.87990000  1.0 -0.6626632375
O  O44  1  0.63310000  0.33990000  0.62010000  1.0 -0.6626632375
O  O45  1  0.63310000  0.16010000  0.62010000  1.0 -0.6626632375
O  O46  1  0.63310000  0.83990000  0.87990000  1.0 -0.6626632375
O  O47  1  0.36690000  0.33990000  0.12010000  1.0 -0.6626632375
O  O48  1  0.36690000  0.66010000  0.37990000  1.0 -0.6626632375
O  O49  1  0.29470000  0.91510000  0.31870000  1.0 -0.6483979684
O  O50  1  0.29470000  0.08490000  0.18130000  1.0 -0.6483979684
O  O51  1  0.70530000  0.58490000  0.81870000  1.0 -0.6483979684
O  O52  1  0.70530000  0.41510000  0.68130000  1.0 -0.6483979684
O  O53  1  0.70530000  0.08490000  0.68130000  1.0 -0.6483979684
O  O54  1  0.70530000  0.91510000  0.81870000  1.0 -0.6483979684
O  O55  1  0.29470000  0.41510000  0.18130000  1.0 -0.6483979684
O  O56  1  0.29470000  0.58490000  0.31870000  1.0 -0.6483979684
O  O57  1  0.42800000  0.93540000  0.21680000  1.0 -0.7683032391
O  O58  1  0.42800000  0.06460000  0.28320000  1.0 -0.7683032391
O  O59  1  0.57200000  0.56460000  0.71680000  1.0 -0.7683032391
O  O60  1  0.57200000  0.43540000  0.78320000  1.0 -0.7683032391
O  O61  1  0.57200000  0.06460000  0.78320000  1.0 -0.7683032391
O  O62  1  0.57200000  0.93540000  0.71680000  1.0 -0.7683032391
O  O63  1  0.42800000  0.43540000  0.28320000  1.0 -0.7683032391
O  O64  1  0.42800000  0.56460000  0.21680000  1.0 -0.7683032391
O  O65  1  0.06580000  0.82640000  0.52450000  1.0 -0.6765931261
O  O66  1  0.06580000  0.17360000  0.97550000  1.0 -0.6765931261
O  O67  1  0.93420000  0.67360000  0.02450000  1.0 -0.6765931261
O  O68  1  0.93420000  0.32640000  0.47550000  1.0 -0.6765931261
O  O69  1  0.93420000  0.17360000  0.47550000  1.0 -0.6765931261
O  O70  1  0.93420000  0.82640000  0.02450000  1.0 -0.6765931261
O  O71  1  0.06580000  0.32640000  0.97550000  1.0 -0.6765931261
O  O72  1  0.06580000  0.67360000  0.52450000  1.0 -0.6765931261
O  O73  1  0.07730000  0.95990000  0.28220000  1.0 -0.4938317326
O  O74  1  0.07730000  0.04010000  0.21780000  1.0 -0.4938317326
O  O75  1  0.92270000  0.54010000  0.78220000  1.0 -0.4938317326
O  O76  1  0.92270000  0.45990000  0.71780000  1.0 -0.4938317326
O  O77  1  0.92270000  0.04010000  0.71780000  1.0 -0.4938317326
O  O78  1  0.92270000  0.95990000  0.78220000  1.0 -0.4938317326
O  O79  1  0.07730000  0.45990000  0.21780000  1.0 -0.4938317326
O  O80  1  0.07730000  0.54010000  0.28220000  1.0 -0.4938317326
O  O81  1  0.21900000  0.75000000  0.44720000  1.0 -0.5986345274
O  O82  1  0.21900000  0.25000000  0.05280000  1.0 -0.5986345274
O  O83  1  0.78100000  0.75000000  0.94720000  1.0 -0.5986345274
O  O84  1  0.78100000  0.25000000  0.55280000  1.0 -0.5986345274
O  O85  1  0.07690000  0.75000000  0.63530000  1.0 -0.7794009161
O  O86  1  0.07690000  0.25000000  0.86470000  1.0 -0.7794009161
O  O87  1  0.92310000  0.75000000  0.13530000  1.0 -0.7794009161
O  O88  1  0.92310000  0.25000000  0.36470000  1.0 -0.7794009161
O  O89  1  0.56050000  0.75000000  0.36760000  1.0 -0.5125770581
O  O90  1  0.56050000  0.25000000  0.13240000  1.0 -0.5125770581
O  O91  1  0.43950000  0.75000000  0.86760000  1.0 -0.5125770581
O  O92  1  0.43950000  0.25000000  0.63240000  1.0 -0.5125770581
O  O93  1  0.44300000  0.17580000  0.51990000  1.0 -0.5859901917
O  O94  1  0.44300000  0.82420000  0.98010000  1.0 -0.5859901917
O  O95  1  0.55700000  0.32420000  0.01990000  1.0 -0.5859901917
O  O96  1  0.55700000  0.67580000  0.48010000  1.0 -0.5859901917
O  O97  1  0.55700000  0.82420000  0.48010000  1.0 -0.5859901917
O  O98  1  0.55700000  0.17580000  0.01990000  1.0 -0.5859901917
O  O99  1  0.44300000  0.67580000  0.98010000  1.0 -0.5859901917
O  O100  1  0.44300000  0.32420000  0.51990000  1.0 -0.5859901917
