# DDEC6 charges by PACMAN v1.1 (https://github.com/mtap-research/PACMAN-charge/)
data_BUNMUV_ASR_pacman
_symmetry_space_group_name_H-M   'P 1'
_cell_length_a   14.31710000
_cell_length_b   16.40270000
_cell_length_c   26.74930000
_cell_angle_alpha   81.90700000
_cell_angle_beta   89.51900000
_cell_angle_gamma   89.05700000
_symmetry_Int_Tables_number   1
_chemical_formula_structural   Zn2H14C21N3O5
_chemical_formula_sum   'Zn16 H112 C168 N24 O40'
_cell_volume   6218.26079346
_cell_formula_units_Z   8
loop_
 _symmetry_equiv_pos_site_id
 _symmetry_equiv_pos_as_xyz
  1  'x, y, z'
loop_
 _atom_site_type_symbol
 _atom_site_label
 _atom_site_symmetry_multiplicity
 _atom_site_fract_x
 _atom_site_fract_y
 _atom_site_fract_z
 _atom_site_occupancy
 _atom_site_charge
Zn  Zn1  1  0.32158000  0.21550000  0.81130000  1.0 0.8911997503
Zn  Zn2  1  0.31031000  0.41735000  0.83289000  1.0 0.5488552576
Zn  Zn3  1  0.85608000  0.17673000  0.31842000  1.0 0.5607043828
Zn  Zn4  1  0.85346000  0.38041000  0.33593000  1.0 0.5607043828
Zn  Zn5  1  0.33110000  0.19700000  0.81390000  1.0 0.8992481059
Zn  Zn6  1  0.35000000  0.38450000  0.83570000  1.0 0.3869632906
Zn  Zn7  1  0.82640000  0.21460000  0.31300000  1.0 0.3821264034
Zn  Zn8  1  0.82650000  0.39570000  0.33310000  1.0 0.5607043828
Zn  Zn9  1  0.67842000  0.78450000  0.18870000  1.0 0.8911997503
Zn  Zn10  1  0.68969000  0.58265000  0.16711000  1.0 0.5488552576
Zn  Zn11  1  0.14392000  0.82327000  0.68158000  1.0 0.5607043828
Zn  Zn12  1  0.14654000  0.61959000  0.66407000  1.0 0.5607043828
Zn  Zn13  1  0.66890000  0.80300000  0.18610000  1.0 0.8992481059
Zn  Zn14  1  0.65000000  0.61550000  0.16430000  1.0 0.3869632906
Zn  Zn15  1  0.17360000  0.78540000  0.68700000  1.0 0.3821264034
Zn  Zn16  1  0.17350000  0.60430000  0.66690000  1.0 0.5607043828
H  H1  1  0.16518000  0.55775000  0.79539000  1.0 0.119668221
H  H2  1  0.58344000  0.42496000  0.27308000  1.0 0.119668221
H  H3  1  0.24579000  0.81669000  0.82072000  1.0 0.1509682922
H  H4  1  0.70764000  0.52180000  0.29898000  1.0 0.1285854905
H  H5  1  0.47276000  0.99512000  0.85631000  1.0 0.1787806502
H  H6  1  0.45893000  0.09061000  0.85385000  1.0 0.1401434517
H  H7  1  0.43185000  0.03185000  0.90305000  1.0 0.161679114
H  H8  1  0.22410000  0.28237000  0.07298000  1.0 0.109412494
H  H9  1  0.16694000  0.69961000  0.81285000  1.0 0.1401434517
H  H10  1  0.15199000  0.16174000  0.26989000  1.0 0.119668221
H  H11  1  0.71304000  0.66400000  0.31673000  1.0 0.1401434517
H  H12  1  0.03676000  0.45706000  0.76794000  1.0 0.119668221
H  H13  1  0.92903000  0.23446000  0.69658000  1.0 0.119668221
H  H14  1  0.06876000  0.22258000  0.74094000  1.0 0.119668221
H  H15  1  0.99155000  0.16818000  0.14671000  1.0 0.119668221
H  H16  1  0.28369000  0.15165000  0.22053000  1.0 0.109412494
H  H17  1  0.15817000  0.94281000  0.81613000  1.0 0.1401434517
H  H18  1  0.15653000  0.09214000  0.79101000  1.0 0.1285854905
H  H19  1  0.49747000  0.40313000  0.69369000  1.0 0.119668221
H  H20  1  0.46622000  0.18718000  0.63966000  1.0 0.119668221
H  H21  1  0.12386000  0.16009000  0.09720000  1.0 0.1017294105
H  H22  1  0.61328000  0.18165000  0.76732000  1.0 0.119668221
H  H23  1  0.03704000  0.38383000  0.19515000  1.0 0.119668221
H  H24  1  0.39657000  0.14319000  0.96235000  1.0 0.119668221
H  H25  1  0.77689000  0.35848000  0.78075000  1.0 0.109412494
H  H26  1  0.43869000  0.43951000  0.23458000  1.0 0.109412494
H  H27  1  0.60278000  0.19221000  0.24303000  1.0 0.119668221
H  H28  1  0.23626000  0.33643000  0.98912000  1.0 0.1285854905
H  H29  1  0.95554000  0.99046000  0.41456000  1.0 0.1509682922
H  H30  1  0.01151000  0.97562000  0.36594000  1.0 0.161679114
H  H31  1  0.97839000  0.06488000  0.37301000  1.0 0.1654749153
H  H32  1  0.17851000  0.34512000  0.32587000  1.0 0.119668221
H  H33  1  0.89556000  0.46481000  0.72937000  1.0 0.109412494
H  H34  1  0.70466000  0.05203000  0.28866000  1.0 0.119668221
H  H35  1  0.77720000  0.77901000  0.33057000  1.0 0.1509682922
H  H36  1  0.31734000  0.33221000  0.28210000  1.0 0.1017294105
H  H37  1  0.46779000  0.21168000  0.19656000  1.0 0.119668221
H  H38  1  0.63576000  0.38925000  0.64957000  1.0 0.109412494
H  H39  1  0.39251000  0.09267000  0.04803000  1.0 0.109412494
H  H40  1  0.60278000  0.16858000  0.59567000  1.0 0.109412494
H  H41  1  0.89047000  0.10610000  0.47611000  1.0 0.1285854905
H  H42  1  0.63969000  0.37273000  0.82410000  1.0 0.1285854905
H  H43  1  0.17696000  0.37728000  0.15085000  1.0 0.109412494
H  H44  1  0.43780000  0.79141000  0.95600000  1.0 0.0944042331
H  H45  1  0.70799000  0.90256000  0.31314000  1.0 0.1285854905
H  H46  1  0.72590000  0.27822000  0.57149000  1.0 0.109412494
H  H47  1  0.75919000  0.32079000  0.48745000  1.0 0.1285854905
H  H48  1  0.43869000  0.51257000  0.88736000  1.0 0.1509682922
H  H49  1  0.46221000  0.60633000  0.88294000  1.0 0.161679114
H  H50  1  0.40196000  0.56480000  0.92843000  1.0 0.161679114
H  H51  1  0.74882000  0.15669000  0.72349000  1.0 0.109412494
H  H52  1  0.86402000  0.06413000  0.56052000  1.0 0.119668221
H  H53  1  0.01003000  0.55900000  0.38223000  1.0 0.161679114
H  H54  1  0.94934000  0.53561000  0.43104000  1.0 0.1654749153
H  H55  1  0.97308000  0.46912000  0.39593000  1.0 0.161679114
H  H56  1  0.00558000  0.75836000  0.44693000  1.0 0.1017294105
H  H57  1  0.83482000  0.44225000  0.20461000  1.0 0.119668221
H  H58  1  0.41656000  0.57504000  0.72692000  1.0 0.119668221
H  H59  1  0.75421000  0.18331000  0.17928000  1.0 0.1509682922
H  H60  1  0.29236000  0.47820000  0.70102000  1.0 0.1285854905
H  H61  1  0.52724000  0.00488000  0.14369000  1.0 0.1787806502
H  H62  1  0.54107000  0.90939000  0.14615000  1.0 0.1401434517
H  H63  1  0.56815000  0.96815000  0.09695000  1.0 0.161679114
H  H64  1  0.77590000  0.71763000  0.92702000  1.0 0.109412494
H  H65  1  0.83306000  0.30039000  0.18715000  1.0 0.1401434517
H  H66  1  0.84801000  0.83826000  0.73011000  1.0 0.119668221
H  H67  1  0.28696000  0.33600000  0.68327000  1.0 0.1401434517
H  H68  1  0.96324000  0.54294000  0.23206000  1.0 0.119668221
H  H69  1  0.07097000  0.76554000  0.30342000  1.0 0.119668221
H  H70  1  0.93124000  0.77742000  0.25906000  1.0 0.119668221
H  H71  1  0.00845000  0.83182000  0.85329000  1.0 0.119668221
H  H72  1  0.71631000  0.84835000  0.77947000  1.0 0.109412494
H  H73  1  0.84183000  0.05719000  0.18387000  1.0 0.1401434517
H  H74  1  0.84347000  0.90786000  0.20899000  1.0 0.1285854905
H  H75  1  0.50253000  0.59687000  0.30631000  1.0 0.119668221
H  H76  1  0.53378000  0.81282000  0.36034000  1.0 0.119668221
H  H77  1  0.87614000  0.83991000  0.90280000  1.0 0.1017294105
H  H78  1  0.38672000  0.81835000  0.23268000  1.0 0.119668221
H  H79  1  0.96296000  0.61617000  0.80485000  1.0 0.119668221
H  H80  1  0.60343000  0.85681000  0.03765000  1.0 0.119668221
H  H81  1  0.22311000  0.64152000  0.21925000  1.0 0.109412494
H  H82  1  0.56131000  0.56049000  0.76542000  1.0 0.109412494
H  H83  1  0.39722000  0.80779000  0.75697000  1.0 0.119668221
H  H84  1  0.76374000  0.66357000  0.01088000  1.0 0.1285854905
H  H85  1  0.04446000  0.00954000  0.58544000  1.0 0.1509682922
H  H86  1  0.98849000  0.02438000  0.63406000  1.0 0.161679114
H  H87  1  0.02161000  0.93512000  0.62699000  1.0 0.1654749153
H  H88  1  0.82149000  0.65488000  0.67413000  1.0 0.119668221
H  H89  1  0.10444000  0.53519000  0.27063000  1.0 0.109412494
H  H90  1  0.29534000  0.94797000  0.71134000  1.0 0.119668221
H  H91  1  0.22280000  0.22099000  0.66943000  1.0 0.1509682922
H  H92  1  0.68266000  0.66779000  0.71790000  1.0 0.1017294105
H  H93  1  0.53221000  0.78832000  0.80344000  1.0 0.119668221
H  H94  1  0.36424000  0.61075000  0.35043000  1.0 0.109412494
H  H95  1  0.60749000  0.90733000  0.95197000  1.0 0.109412494
H  H96  1  0.39722000  0.83142000  0.40433000  1.0 0.109412494
H  H97  1  0.10953000  0.89390000  0.52389000  1.0 0.1285854905
H  H98  1  0.36031000  0.62727000  0.17590000  1.0 0.1285854905
H  H99  1  0.82304000  0.62272000  0.84915000  1.0 0.109412494
H  H100  1  0.56220000  0.20859000  0.04400000  1.0 0.0944042331
H  H101  1  0.29201000  0.09744000  0.68686000  1.0 0.1285854905
H  H102  1  0.27410000  0.72178000  0.42851000  1.0 0.109412494
H  H103  1  0.24081000  0.67921000  0.51255000  1.0 0.1285854905
H  H104  1  0.56131000  0.48743000  0.11264000  1.0 0.1509682922
H  H105  1  0.53779000  0.39367000  0.11706000  1.0 0.161679114
H  H106  1  0.59804000  0.43520000  0.07157000  1.0 0.161679114
H  H107  1  0.25118000  0.84331000  0.27651000  1.0 0.109412494
H  H108  1  0.13598000  0.93587000  0.43948000  1.0 0.119668221
H  H109  1  0.98997000  0.44100000  0.61777000  1.0 0.161679114
H  H110  1  0.05066000  0.46439000  0.56896000  1.0 0.1654749153
H  H111  1  0.02692000  0.53088000  0.60407000  1.0 0.161679114
H  H112  1  0.99442000  0.24164000  0.55307000  1.0 0.1017294105
C  C1  1  0.43810000  0.20490000  0.73582000  1.0 0.5202516383
C  C2  1  0.05860000  0.16590000  0.21301000  1.0 -0.0191365211
C  C3  1  0.20910000  0.57970000  0.81493000  1.0 -0.0513155683
C  C4  1  0.33610000  0.03160000  0.84684000  1.0 0.2920822626
C  C5  1  0.97220000  0.17400000  0.24439000  1.0 0.5386083549
C  C6  1  0.52660000  0.18950000  0.70739000  1.0 -0.00823922
C  C7  1  0.31920000  0.27980000  0.91181000  1.0 0.5202516383
C  C8  1  0.55870000  0.38140000  0.25900000  1.0 -0.102415548
C  C9  1  0.28440000  0.81190000  0.84880000  1.0 -0.3598290408
C  C10  1  0.75180000  0.54320000  0.31870000  1.0 -0.0822933713
C  C11  1  0.71990000  0.37400000  0.71050000  1.0 -0.00823922
C  C12  1  0.43380000  0.03790000  0.86680000  1.0 -0.5497302288
C  C13  1  0.30820000  0.18130000  0.06906000  1.0 0.0021353375
C  C14  1  0.25990000  0.25530000  0.05103000  1.0 -0.1193344319
C  C15  1  0.69870000  0.29500000  0.28960000  1.0 0.2408437556
C  C16  1  0.16060000  0.33370000  0.78548000  1.0 0.5685493624
C  C17  1  0.20930000  0.65780000  0.82450000  1.0 -0.1193344319
C  C18  1  0.14640000  0.16120000  0.23533000  1.0 -0.102415548
C  C19  1  0.75430000  0.62130000  0.32840000  1.0 -0.0901237974
C  C20  1  0.89690000  0.35100000  0.70920000  1.0 -0.00823922
C  C21  1  0.31670000  0.24570000  0.96741000  1.0 -0.0191365211
C  C22  1  0.60730000  0.30740000  0.26220000  1.0 0.0064236451
C  C23  1  0.01460000  0.41170000  0.75460000  1.0 -0.1111145666
C  C24  1  0.43860000  0.32770000  0.21110000  1.0 0.0021353375
C  C25  1  0.95000000  0.27820000  0.71190000  1.0 -0.1111145666
C  C26  1  0.87610000  0.99560000  0.35381000  1.0 0.3484697914
C  C27  1  0.03450000  0.27170000  0.73780000  1.0 -0.1111145666
C  C28  1  0.05040000  0.16530000  0.16142000  1.0 -0.1193344319
C  C29  1  0.32990000  0.58670000  0.86360000  1.0 0.3484697914
C  C30  1  0.22500000  0.15570000  0.20564000  1.0 -0.102415548
C  C31  1  0.20450000  0.97920000  0.82220000  1.0 -0.0901237974
C  C32  1  0.84360000  0.24660000  0.41798000  1.0 0.5685493624
C  C33  1  0.06800000  0.33820000  0.75906000  1.0 -0.0311348844
C  C34  1  0.26160000  0.35250000  0.21220000  1.0 -0.00823922
C  C35  1  0.20440000  0.06140000  0.80820000  1.0 -0.0703237491
C  C36  1  0.31610000  0.87990000  0.86866000  1.0 0.3484697914
C  C37  1  0.09510000  0.36370000  0.26500000  1.0 -0.00823922
C  C38  1  0.86310000  0.69930000  0.37520000  1.0 0.3395443647
C  C39  1  0.31410000  0.73670000  0.87355000  1.0 0.3395443647
C  C40  1  0.30530000  0.14760000  0.12376000  1.0 0.3324523693
C  C41  1  0.46530000  0.39670000  0.79240000  1.0 0.2667078799
C  C42  1  0.55360000  0.39440000  0.71110000  1.0 -0.1193344319
C  C43  1  0.87400000  0.54970000  0.36760000  1.0 0.2920822626
C  C44  1  0.52320000  0.18300000  0.65630000  1.0 -0.1193344319
C  C45  1  0.55410000  0.38960000  0.76350000  1.0 0.0064236451
C  C46  1  0.12950000  0.16040000  0.13180000  1.0 -0.1304111393
C  C47  1  0.61110000  0.17890000  0.73290000  1.0 -0.1111145666
C  C48  1  0.09320000  0.37400000  0.21230000  1.0 -0.1193344319
C  C49  1  0.36350000  0.17150000  0.98475000  1.0 -0.1193344319
C  C50  1  0.72090000  0.36800000  0.76330000  1.0 -0.1357817972
C  C51  1  0.47300000  0.39080000  0.23490000  1.0 -0.1304111393
C  C52  1  0.34810000  0.33720000  0.18360000  1.0 0.3324523693
C  C53  1  0.57130000  0.24270000  0.23980000  1.0 -0.1193344319
C  C54  1  0.26620000  0.28680000  0.00087000  1.0 -0.1111145666
C  C55  1  0.86370000  0.84240000  0.37040000  1.0 0.3395443647
C  C56  1  0.96260000  0.00770000  0.37890000  1.0 -0.5279630397
C  C57  1  0.17830000  0.34990000  0.29080000  1.0 -0.102415548
C  C58  1  0.93100000  0.41650000  0.73100000  1.0 -0.1304111393
C  C59  1  0.00630000  0.36710000  0.29470000  1.0 0.5202516383
C  C60  1  0.75020000  0.02250000  0.30850000  1.0 -0.0513155683
C  C61  1  0.21770000  0.15600000  0.15376000  1.0 -0.0022602137
C  C62  1  0.82520000  0.77460000  0.35406000  1.0 -0.3652408892
C  C63  1  0.82700000  0.21830000  0.47290000  1.0 -0.0445951732
C  C64  1  0.26170000  0.34310000  0.26460000  1.0 -0.1357817972
C  C65  1  0.48950000  0.25360000  0.21330000  1.0 -0.1193344319
C  C66  1  0.63640000  0.38640000  0.68450000  1.0 -0.1111145666
C  C67  1  0.35990000  0.14080000  0.03598000  1.0 -0.1193344319
C  C68  1  0.60480000  0.17030000  0.63020000  1.0 -0.1193344319
C  C69  1  0.85830000  0.14060000  0.49530000  1.0 -0.1193344319
C  C70  1  0.63890000  0.37620000  0.78910000  1.0 -0.1111145666
C  C71  1  0.17690000  0.36930000  0.18600000  1.0 -0.1111145666
C  C72  1  0.39760000  0.79680000  0.92860000  1.0 0.2204053155
C  C73  1  0.75140000  0.93980000  0.32160000  1.0 -0.1304111393
C  C74  1  0.75920000  0.24410000  0.55260000  1.0 -0.1357817972
C  C75  1  0.68970000  0.16010000  0.65520000  1.0 -0.0022602137
C  C76  1  0.77880000  0.26870000  0.50230000  1.0 -0.102415548
C  C77  1  0.80660000  0.35620000  0.68170000  1.0 0.3395443647
C  C78  1  0.41570000  0.56580000  0.89320000  1.0 -0.5279630397
C  C79  1  0.69220000  0.16400000  0.70650000  1.0 -0.102415548
C  C80  1  0.84160000  0.11530000  0.54560000  1.0 -0.1111145666
C  C81  1  0.95890000  0.52630000  0.39670000  1.0 -0.5279630397
C  C82  1  0.79140000  0.16510000  0.57460000  1.0 -0.00823922
C  C83  1  0.77730000  0.13950000  0.62940000  1.0 0.3236297196
C  C84  1  0.95930000  0.76240000  0.42250000  1.0 0.2061066306
C  C85  1  0.56190000  0.79510000  0.26418000  1.0 0.5202516383
C  C86  1  0.94140000  0.83410000  0.78699000  1.0 -0.0191365211
C  C87  1  0.79090000  0.42030000  0.18507000  1.0 -0.0513155683
C  C88  1  0.66390000  0.96840000  0.15316000  1.0 0.2920822626
C  C89  1  0.02780000  0.82600000  0.75561000  1.0 0.5386083549
C  C90  1  0.47340000  0.81050000  0.29261000  1.0 -0.00823922
C  C91  1  0.68080000  0.72020000  0.08819000  1.0 0.5149960941
C  C92  1  0.44130000  0.61860000  0.74100000  1.0 -0.102415548
C  C93  1  0.71560000  0.18810000  0.15120000  1.0 -0.3490900372
C  C94  1  0.24820000  0.45680000  0.68130000  1.0 -0.0822933713
C  C95  1  0.28010000  0.62600000  0.28950000  1.0 -0.00823922
C  C96  1  0.56620000  0.96210000  0.13320000  1.0 -0.5497302288
C  C97  1  0.69180000  0.81870000  0.93094000  1.0 0.0021353375
C  C98  1  0.74010000  0.74470000  0.94897000  1.0 -0.1193344319
C  C99  1  0.30130000  0.70500000  0.71040000  1.0 0.245330376
C  C100  1  0.83940000  0.66630000  0.21452000  1.0 0.5685493624
C  C101  1  0.79070000  0.34220000  0.17550000  1.0 -0.1193344319
C  C102  1  0.85360000  0.83880000  0.76467000  1.0 -0.102415548
C  C103  1  0.24570000  0.37870000  0.67160000  1.0 -0.0901237974
C  C104  1  0.10310000  0.64900000  0.29080000  1.0 -0.00823922
C  C105  1  0.68330000  0.75430000  0.03259000  1.0 -0.0191365211
C  C106  1  0.39270000  0.69260000  0.73780000  1.0 0.0021353375
C  C107  1  0.98540000  0.58830000  0.24540000  1.0 -0.102415548
C  C108  1  0.56140000  0.67230000  0.78890000  1.0 0.0021353375
C  C109  1  0.05000000  0.72180000  0.28810000  1.0 -0.1111145666
C  C110  1  0.12390000  0.00440000  0.64619000  1.0 0.3484697914
C  C111  1  0.96550000  0.72830000  0.26220000  1.0 -0.1111145666
C  C112  1  0.94960000  0.83470000  0.83858000  1.0 -0.1193344319
C  C113  1  0.67010000  0.41330000  0.13640000  1.0 0.3484697914
C  C114  1  0.77500000  0.84430000  0.79436000  1.0 -0.102415548
C  C115  1  0.79550000  0.02080000  0.17780000  1.0 -0.0901237974
C  C116  1  0.15640000  0.75340000  0.58202000  1.0 0.5685493624
C  C117  1  0.93200000  0.66180000  0.24094000  1.0 -0.0311348844
C  C118  1  0.73840000  0.64750000  0.78780000  1.0 -0.00823922
C  C119  1  0.79560000  0.93860000  0.19180000  1.0 -0.0703237491
C  C120  1  0.68390000  0.12010000  0.13134000  1.0 0.3484697914
C  C121  1  0.90490000  0.63630000  0.73500000  1.0 -0.00823922
C  C122  1  0.13690000  0.30070000  0.62480000  1.0 0.3395443647
C  C123  1  0.68590000  0.26330000  0.12645000  1.0 0.3395443647
C  C124  1  0.69470000  0.85240000  0.87624000  1.0 0.3324523693
C  C125  1  0.53470000  0.60330000  0.20760000  1.0 0.2667078799
C  C126  1  0.44640000  0.60560000  0.28890000  1.0 -0.1193344319
C  C127  1  0.12600000  0.45030000  0.63240000  1.0 0.2959165102
C  C128  1  0.47680000  0.81700000  0.34370000  1.0 -0.1193344319
C  C129  1  0.44590000  0.61040000  0.23650000  1.0 0.0064236451
C  C130  1  0.87050000  0.83960000  0.86820000  1.0 -0.1304111393
C  C131  1  0.38890000  0.82110000  0.26710000  1.0 -0.1111145666
C  C132  1  0.90680000  0.62600000  0.78770000  1.0 -0.1193344319
C  C133  1  0.63650000  0.82850000  0.01525000  1.0 -0.1193344319
C  C134  1  0.27910000  0.63200000  0.23670000  1.0 -0.1357817972
C  C135  1  0.52700000  0.60920000  0.76510000  1.0 -0.1304111393
C  C136  1  0.65190000  0.66280000  0.81640000  1.0 0.3324523693
C  C137  1  0.42870000  0.75730000  0.76020000  1.0 -0.1193344319
C  C138  1  0.73380000  0.71320000  0.99913000  1.0 -0.1111145666
C  C139  1  0.13630000  0.15760000  0.62960000  1.0 0.3395443647
C  C140  1  0.03740000  0.99230000  0.62110000  1.0 -0.5279630397
C  C141  1  0.82170000  0.65010000  0.70920000  1.0 -0.102415548
C  C142  1  0.06900000  0.58350000  0.26900000  1.0 -0.1304111393
C  C143  1  0.99370000  0.63290000  0.70530000  1.0 0.5202516383
C  C144  1  0.24980000  0.97750000  0.69150000  1.0 -0.0513155683
C  C145  1  0.78230000  0.84400000  0.84624000  1.0 -0.0022602137
C  C146  1  0.17480000  0.22540000  0.64594000  1.0 -0.3598290408
C  C147  1  0.17300000  0.78170000  0.52710000  1.0 -0.0445951732
C  C148  1  0.73830000  0.65690000  0.73540000  1.0 -0.1357817972
C  C149  1  0.51050000  0.74640000  0.78670000  1.0 -0.1193344319
C  C150  1  0.36360000  0.61360000  0.31550000  1.0 -0.1111145666
C  C151  1  0.64010000  0.85920000  0.96402000  1.0 -0.1193344319
C  C152  1  0.39520000  0.82970000  0.36980000  1.0 -0.1193344319
C  C153  1  0.14170000  0.85940000  0.50470000  1.0 -0.1193344319
C  C154  1  0.36110000  0.62380000  0.21090000  1.0 -0.1111145666
C  C155  1  0.82310000  0.63070000  0.81400000  1.0 -0.1111145666
C  C156  1  0.60240000  0.20320000  0.07140000  1.0 0.2204053155
C  C157  1  0.24860000  0.06020000  0.67840000  1.0 -0.1304111393
C  C158  1  0.24080000  0.75590000  0.44740000  1.0 -0.1357817972
C  C159  1  0.31030000  0.83990000  0.34480000  1.0 -0.0022602137
C  C160  1  0.22120000  0.73130000  0.49770000  1.0 -0.102415548
C  C161  1  0.19340000  0.64380000  0.31830000  1.0 0.3395443647
C  C162  1  0.58430000  0.43420000  0.10680000  1.0 -0.5279630397
C  C163  1  0.30780000  0.83600000  0.29350000  1.0 -0.102415548
C  C164  1  0.15840000  0.88470000  0.45440000  1.0 -0.1111145666
C  C165  1  0.04110000  0.47370000  0.60330000  1.0 -0.5279630397
C  C166  1  0.20860000  0.83490000  0.42540000  1.0 -0.00823922
C  C167  1  0.22270000  0.86050000  0.37060000  1.0 0.3236297196
C  C168  1  0.04070000  0.23760000  0.57750000  1.0 0.2061066306
N  N1  1  0.28530000  0.53630000  0.83878000  1.0 -0.3490900372
N  N2  1  0.82620000  0.50010000  0.34305000  1.0 -0.3241946423
N  N3  1  0.83110000  0.62560000  0.35952000  1.0 -0.056763657
N  N4  1  0.28890000  0.96000000  0.84771000  1.0 -0.0513155683
N  N5  1  0.28720000  0.09320000  0.82361000  1.0 -0.4603857869
N  N6  1  0.82520000  0.05660000  0.32861000  1.0 -0.3301163563
N  N7  1  0.83180000  0.92240000  0.35064000  1.0 -0.056763657
N  N8  1  0.37040000  0.72770000  0.91337000  1.0 -0.3788286621
N  N9  1  0.28590000  0.66330000  0.85570000  1.0 -0.0703237491
N  N10  1  0.37360000  0.87330000  0.90877000  1.0 -0.3788286621
N  N11  1  0.93010000  0.69050000  0.41000000  1.0 -0.3891661489
N  N12  1  0.93110000  0.83830000  0.40490000  1.0 -0.3891661489
N  N13  1  0.71470000  0.46370000  0.16122000  1.0 -0.3490900372
N  N14  1  0.17380000  0.49990000  0.65695000  1.0 -0.3241946423
N  N15  1  0.16890000  0.37440000  0.64048000  1.0 -0.056763657
N  N16  1  0.71110000  0.04000000  0.15229000  1.0 -0.0513155683
N  N17  1  0.71280000  0.90680000  0.17639000  1.0 -0.4516596073
N  N18  1  0.17480000  0.94340000  0.67139000  1.0 -0.3301163563
N  N19  1  0.16820000  0.07760000  0.64936000  1.0 -0.056763657
N  N20  1  0.62960000  0.27230000  0.08663000  1.0 -0.3788286621
N  N21  1  0.71410000  0.33670000  0.14430000  1.0 -0.0703237491
N  N22  1  0.62640000  0.12670000  0.09123000  1.0 -0.3788286621
N  N23  1  0.06990000  0.30950000  0.59000000  1.0 -0.3891661489
N  N24  1  0.06890000  0.16170000  0.59510000  1.0 -0.3891661489
O  O1  1  0.18710000  0.39380000  0.80332000  1.0 -0.4689046914
O  O2  1  0.20380000  0.26370000  0.78801000  1.0 -0.6332677776
O  O3  1  0.83000000  0.32180000  0.40365000  1.0 -0.4603857869
O  O4  1  0.29360000  0.35410000  0.90015000  1.0 -0.4098150506
O  O5  1  0.38870000  0.40150000  0.76992000  1.0 -0.423451441
O  O6  1  0.89350000  0.17090000  0.22495000  1.0 -0.5593369776
O  O7  1  0.34650000  0.23230000  0.88195000  1.0 -0.5963014239
O  O8  1  0.86870000  0.19390000  0.39004000  1.0 -0.4516596073
O  O9  1  0.36170000  0.20900000  0.71443000  1.0 -0.5497302288
O  O10  1  0.44890000  0.21360000  0.78270000  1.0 -0.5802706057
O  O11  1  0.92830000  0.37240000  0.27124000  1.0 -0.517056095
O  O12  1  0.72930000  0.35910000  0.30659000  1.0 -0.4516596073
O  O13  1  0.37430000  0.11160000  0.14376000  1.0 -0.435611921
O  O14  1  0.98330000  0.18470000  0.29062000  1.0 -0.4845599705
O  O15  1  0.73710000  0.22700000  0.29331000  1.0 -0.3301163563
O  O16  1  0.00800000  0.36500000  0.34132000  1.0 -0.4869678194
O  O17  1  0.46940000  0.40090000  0.83924000  1.0 -0.4098150506
O  O18  1  0.34520000  0.32980000  0.13863000  1.0 -0.4098150506
O  O19  1  0.80470000  0.34400000  0.63844000  1.0 -0.3891661489
O  O20  1  0.83870000  0.09660000  0.65347000  1.0 -0.4319458926
O  O21  1  0.81290000  0.60620000  0.19668000  1.0 -0.4689046914
O  O22  1  0.79620000  0.73630000  0.21199000  1.0 -0.6332677776
O  O23  1  0.17000000  0.67820000  0.59635000  1.0 -0.4603857869
O  O24  1  0.70640000  0.64590000  0.09985000  1.0 -0.4098150506
O  O25  1  0.61130000  0.59850000  0.23008000  1.0 -0.423451441
O  O26  1  0.10650000  0.82910000  0.77505000  1.0 -0.5593369776
O  O27  1  0.65350000  0.76770000  0.11805000  1.0 -0.5963014239
O  O28  1  0.13130000  0.80610000  0.60996000  1.0 -0.4516596073
O  O29  1  0.63830000  0.79100000  0.28557000  1.0 -0.5497302288
O  O30  1  0.55110000  0.78640000  0.21730000  1.0 -0.5802706057
O  O31  1  0.07170000  0.62760000  0.72876000  1.0 -0.517056095
O  O32  1  0.27070000  0.64090000  0.69341000  1.0 -0.4516596073
O  O33  1  0.62570000  0.88840000  0.85624000  1.0 -0.435611921
O  O34  1  0.01670000  0.81530000  0.70938000  1.0 -0.4845599705
O  O35  1  0.26290000  0.77300000  0.70669000  1.0 -0.3301163563
O  O36  1  0.99200000  0.63500000  0.65868000  1.0 -0.4869678194
O  O37  1  0.53060000  0.59910000  0.16076000  1.0 -0.4098150506
O  O38  1  0.65480000  0.67020000  0.86137000  1.0 -0.4098150506
O  O39  1  0.19530000  0.65600000  0.36156000  1.0 -0.3891661489
O  O40  1  0.16130000  0.90340000  0.34653000  1.0 -0.4319458926
