# DDEC6 charges by PACMAN v1.1 (https://github.com/mtap-research/PACMAN-charge/)
data_BUPDOH_ASR_pacman
_symmetry_space_group_name_H-M   'P 1'
_cell_length_a   16.61390000
_cell_length_b   16.61390000
_cell_length_c   16.61390000
_cell_angle_alpha   68.75800000
_cell_angle_beta   68.75800000
_cell_angle_gamma   68.75800000
_symmetry_Int_Tables_number   1
_chemical_formula_structural   CuH7C14(NO)4
_chemical_formula_sum   'Cu6 H42 C84 N24 O24'
_cell_volume   3840.36048611
_cell_formula_units_Z   6
loop_
 _symmetry_equiv_pos_site_id
 _symmetry_equiv_pos_as_xyz
  1  'x, y, z'
loop_
 _atom_site_type_symbol
 _atom_site_label
 _atom_site_symmetry_multiplicity
 _atom_site_fract_x
 _atom_site_fract_y
 _atom_site_fract_z
 _atom_site_occupancy
 _atom_site_charge
Cu  Cu1  1  0.92479000  0.49405000  0.49405000  1.0 0.8119935713
Cu  Cu2  1  0.49405000  0.49405000  0.92479000  1.0 0.8119935713
Cu  Cu3  1  0.49405000  0.92479000  0.49405000  1.0 0.8119935713
Cu  Cu4  1  0.07521000  0.50595000  0.50595000  1.0 0.8119935713
Cu  Cu5  1  0.50595000  0.50595000  0.07521000  1.0 0.8119935713
Cu  Cu6  1  0.50595000  0.07521000  0.50595000  1.0 0.8119935713
H  H1  1  0.76985000  0.47170000  0.76985000  1.0 0.0970212219
H  H2  1  0.47170000  0.76985000  0.76985000  1.0 0.0970212219
H  H3  1  0.76985000  0.76985000  0.47170000  1.0 0.0970212219
H  H4  1  0.23015000  0.23015000  0.52830000  1.0 0.0970212219
H  H5  1  0.23015000  0.52830000  0.23015000  1.0 0.0970212219
H  H6  1  0.52830000  0.23015000  0.23015000  1.0 0.0970212219
H  H7  1  0.00020000  0.48340000  0.78730000  1.0 0.0821291274
H  H8  1  0.48340000  0.78730000  0.00020000  1.0 0.0821291274
H  H9  1  0.78730000  0.00020000  0.48340000  1.0 0.0821291274
H  H10  1  0.99980000  0.21270000  0.51660000  1.0 0.0821291274
H  H11  1  0.21270000  0.51660000  0.99980000  1.0 0.0821291274
H  H12  1  0.51660000  0.99980000  0.21270000  1.0 0.0821291274
H  H13  1  0.99980000  0.51660000  0.21270000  1.0 0.0821291274
H  H14  1  0.51660000  0.21270000  0.99980000  1.0 0.0821291274
H  H15  1  0.21270000  0.99980000  0.51660000  1.0 0.0821291274
H  H16  1  0.00020000  0.78730000  0.48340000  1.0 0.0821291274
H  H17  1  0.78730000  0.48340000  0.00020000  1.0 0.0821291274
H  H18  1  0.48340000  0.00020000  0.78730000  1.0 0.0821291274
H  H19  1  0.83940000  0.58740000  0.02140000  1.0 0.0207833288
H  H20  1  0.58740000  0.02140000  0.83940000  1.0 0.0207833288
H  H21  1  0.02140000  0.83940000  0.58740000  1.0 0.0207833288
H  H22  1  0.16060000  0.97860000  0.41260000  1.0 0.0304137875
H  H23  1  0.97860000  0.41260000  0.16060000  1.0 0.0207833288
H  H24  1  0.41260000  0.16060000  0.97860000  1.0 0.0207833288
H  H25  1  0.16060000  0.41260000  0.97860000  1.0 0.0304137875
H  H26  1  0.41260000  0.97860000  0.16060000  1.0 0.0207833288
H  H27  1  0.97860000  0.16060000  0.41260000  1.0 0.0207833288
H  H28  1  0.83940000  0.02140000  0.58740000  1.0 0.0207833288
H  H29  1  0.02140000  0.58740000  0.83940000  1.0 0.0304137875
H  H30  1  0.58740000  0.83940000  0.02140000  1.0 0.0207833288
H  H31  1  0.91550000  0.60750000  0.09650000  1.0 0.038505639
H  H32  1  0.60750000  0.09650000  0.91550000  1.0 0.038505639
H  H33  1  0.09650000  0.91550000  0.60750000  1.0 0.0304137875
H  H34  1  0.08450000  0.90350000  0.39250000  1.0 0.038505639
H  H35  1  0.90350000  0.39250000  0.08450000  1.0 0.038505639
H  H36  1  0.39250000  0.08450000  0.90350000  1.0 0.038505639
H  H37  1  0.08450000  0.39250000  0.90350000  1.0 0.038505639
H  H38  1  0.39250000  0.90350000  0.08450000  1.0 0.038505639
H  H39  1  0.90350000  0.08450000  0.39250000  1.0 0.038505639
H  H40  1  0.91550000  0.09650000  0.60750000  1.0 0.038505639
H  H41  1  0.09650000  0.60750000  0.91550000  1.0 0.038505639
H  H42  1  0.60750000  0.91550000  0.09650000  1.0 0.038505639
C  C1  1  0.93299000  0.48059000  0.66589000  1.0 0.5541943413
C  C2  1  0.48059000  0.66589000  0.93299000  1.0 0.5541943413
C  C3  1  0.66589000  0.93299000  0.48059000  1.0 0.5541943413
C  C4  1  0.06701000  0.33411000  0.51941000  1.0 0.5541943413
C  C5  1  0.33411000  0.51941000  0.06701000  1.0 0.5541943413
C  C6  1  0.51941000  0.06701000  0.33411000  1.0 0.5541943413
C  C7  1  0.06701000  0.51941000  0.33411000  1.0 0.5541943413
C  C8  1  0.51941000  0.33411000  0.06701000  1.0 0.5541943413
C  C9  1  0.33411000  0.06701000  0.51941000  1.0 0.5553979498
C  C10  1  0.93299000  0.66589000  0.48059000  1.0 0.5541943413
C  C11  1  0.66589000  0.48059000  0.93299000  1.0 0.5553979498
C  C12  1  0.48059000  0.93299000  0.66589000  1.0 0.5541943413
C  C13  1  0.89158000  0.47718000  0.76348000  1.0 -0.0283194526
C  C14  1  0.47718000  0.76348000  0.89158000  1.0 -0.0283194526
C  C15  1  0.76348000  0.89158000  0.47718000  1.0 -0.0283194526
C  C16  1  0.10842000  0.23652000  0.52282000  1.0 -0.0283194526
C  C17  1  0.23652000  0.52282000  0.10842000  1.0 -0.0283194526
C  C18  1  0.52282000  0.10842000  0.23652000  1.0 -0.0283194526
C  C19  1  0.10842000  0.52282000  0.23652000  1.0 -0.0283194526
C  C20  1  0.52282000  0.23652000  0.10842000  1.0 -0.0283194526
C  C21  1  0.23652000  0.10842000  0.52282000  1.0 -0.0283194526
C  C22  1  0.89158000  0.76348000  0.47718000  1.0 -0.0283194526
C  C23  1  0.76348000  0.47718000  0.89158000  1.0 -0.0283194526
C  C24  1  0.47718000  0.89158000  0.76348000  1.0 -0.0283194526
C  C25  1  0.80291000  0.47476000  0.80291000  1.0 -0.1156846436
C  C26  1  0.47476000  0.80291000  0.80291000  1.0 -0.1135934482
C  C27  1  0.80291000  0.80291000  0.47476000  1.0 -0.1135934482
C  C28  1  0.19709000  0.19709000  0.52524000  1.0 -0.1135934482
C  C29  1  0.19709000  0.52524000  0.19709000  1.0 -0.1156846436
C  C30  1  0.52524000  0.19709000  0.19709000  1.0 -0.1135934482
C  C31  1  0.94066000  0.48206000  0.81356000  1.0 -0.0976599029
C  C32  1  0.48206000  0.81356000  0.94066000  1.0 -0.0976599029
C  C33  1  0.81356000  0.94066000  0.48206000  1.0 -0.0976599029
C  C34  1  0.05934000  0.18644000  0.51794000  1.0 -0.0976599029
C  C35  1  0.18644000  0.51794000  0.05934000  1.0 -0.0976599029
C  C36  1  0.51794000  0.05934000  0.18644000  1.0 -0.0976599029
C  C37  1  0.05934000  0.51794000  0.18644000  1.0 -0.0976599029
C  C38  1  0.51794000  0.18644000  0.05934000  1.0 -0.0976599029
C  C39  1  0.18644000  0.05934000  0.51794000  1.0 -0.0933255705
C  C40  1  0.94066000  0.81356000  0.48206000  1.0 -0.0933255705
C  C41  1  0.81356000  0.48206000  0.94066000  1.0 -0.0976599029
C  C42  1  0.48206000  0.94066000  0.81356000  1.0 -0.0976599029
C  C43  1  0.90172000  0.48492000  0.90172000  1.0 0.0304137875
C  C44  1  0.48492000  0.90172000  0.90172000  1.0 0.0304137875
C  C45  1  0.90172000  0.90172000  0.48492000  1.0 0.038505639
C  C46  1  0.09828000  0.09828000  0.51508000  1.0 0.038505639
C  C47  1  0.09828000  0.51508000  0.09828000  1.0 0.038505639
C  C48  1  0.51508000  0.09828000  0.09828000  1.0 0.0304137875
C  C49  1  0.94830000  0.50840000  0.94830000  1.0 0.0207833288
C  C50  1  0.50840000  0.94830000  0.94830000  1.0 0.0207833288
C  C51  1  0.94830000  0.94830000  0.50840000  1.0 0.0084427077
C  C52  1  0.05170000  0.05170000  0.49160000  1.0 0.0084427077
C  C53  1  0.05170000  0.49160000  0.05170000  1.0 0.0304137875
C  C54  1  0.49160000  0.05170000  0.05170000  1.0 0.0207833288
C  C55  1  0.90310000  0.55870000  0.00920000  1.0 0.038505639
C  C56  1  0.55870000  0.00920000  0.90310000  1.0 0.038505639
C  C57  1  0.00920000  0.90310000  0.55870000  1.0 0.038505639
C  C58  1  0.09690000  0.99080000  0.44130000  1.0 0.038505639
C  C59  1  0.99080000  0.44130000  0.09690000  1.0 0.038505639
C  C60  1  0.44130000  0.09690000  0.99080000  1.0 0.038505639
C  C61  1  0.09690000  0.44130000  0.99080000  1.0 0.038505639
C  C62  1  0.44130000  0.99080000  0.09690000  1.0 0.038505639
C  C63  1  0.99080000  0.09690000  0.44130000  1.0 0.038505639
C  C64  1  0.90310000  0.00920000  0.55870000  1.0 0.038505639
C  C65  1  0.00920000  0.55870000  0.90310000  1.0 0.038505639
C  C66  1  0.55870000  0.90310000  0.00920000  1.0 0.038505639
C  C67  1  0.94980000  0.57170000  0.05540000  1.0 0.047575933
C  C68  1  0.57170000  0.05540000  0.94980000  1.0 0.047575933
C  C69  1  0.05540000  0.94980000  0.57170000  1.0 0.047575933
C  C70  1  0.05020000  0.94460000  0.42830000  1.0 0.047575933
C  C71  1  0.94460000  0.42830000  0.05020000  1.0 0.047575933
C  C72  1  0.42830000  0.05020000  0.94460000  1.0 0.047575933
C  C73  1  0.05020000  0.42830000  0.94460000  1.0 0.047575933
C  C74  1  0.42830000  0.94460000  0.05020000  1.0 0.047575933
C  C75  1  0.94460000  0.05020000  0.42830000  1.0 0.047575933
C  C76  1  0.94980000  0.05540000  0.57170000  1.0 0.047575933
C  C77  1  0.05540000  0.57170000  0.94980000  1.0 0.047575933
C  C78  1  0.57170000  0.94980000  0.05540000  1.0 0.047575933
C  C79  1  0.04060000  0.52960000  0.04060000  1.0 0.0207833288
C  C80  1  0.52960000  0.04060000  0.04060000  1.0 0.0207833288
C  C81  1  0.04060000  0.04060000  0.52960000  1.0 0.0207833288
C  C82  1  0.95940000  0.95940000  0.47040000  1.0 0.0207833288
C  C83  1  0.95940000  0.47040000  0.95940000  1.0 0.0207833288
C  C84  1  0.47040000  0.95940000  0.95940000  1.0 0.0207833288
N  N1  1  0.08530000  0.48540000  0.97500000  1.0 0.0084427077
N  N2  1  0.48540000  0.97500000  0.08530000  1.0 0.0084427077
N  N3  1  0.97500000  0.08530000  0.48540000  1.0 0.0084427077
N  N4  1  0.91470000  0.02500000  0.51460000  1.0 0.0084427077
N  N5  1  0.02500000  0.51460000  0.91470000  1.0 0.0084427077
N  N6  1  0.51460000  0.91470000  0.02500000  1.0 0.0084427077
N  N7  1  0.91470000  0.51460000  0.02500000  1.0 0.0084427077
N  N8  1  0.51460000  0.02500000  0.91470000  1.0 0.0084427077
N  N9  1  0.02500000  0.91470000  0.51460000  1.0 0.0207833288
N  N10  1  0.08530000  0.97500000  0.48540000  1.0 0.0084427077
N  N11  1  0.97500000  0.48540000  0.08530000  1.0 0.0084427077
N  N12  1  0.48540000  0.08530000  0.97500000  1.0 0.0084427077
N  N13  1  0.03910000  0.47180000  0.92980000  1.0 -0.0014880275
N  N14  1  0.47180000  0.92980000  0.03910000  1.0 0.0084427077
N  N15  1  0.92980000  0.03910000  0.47180000  1.0 0.0084427077
N  N16  1  0.96090000  0.07020000  0.52820000  1.0 0.0084427077
N  N17  1  0.07020000  0.52820000  0.96090000  1.0 -0.0014880275
N  N18  1  0.52820000  0.96090000  0.07020000  1.0 0.0013487088
N  N19  1  0.96090000  0.52820000  0.07020000  1.0 0.0013487088
N  N20  1  0.52820000  0.07020000  0.96090000  1.0 -0.0014880275
N  N21  1  0.07020000  0.96090000  0.52820000  1.0 -0.0014880275
N  N22  1  0.03910000  0.92980000  0.47180000  1.0 0.0084427077
N  N23  1  0.92980000  0.47180000  0.03910000  1.0 0.0013487088
N  N24  1  0.47180000  0.03910000  0.92980000  1.0 0.0084427077
O  O1  1  0.88492000  0.47833000  0.62361000  1.0 -0.5750022906
O  O2  1  0.47833000  0.62361000  0.88492000  1.0 -0.573865966
O  O3  1  0.62361000  0.88492000  0.47833000  1.0 -0.573865966
O  O4  1  0.11508000  0.37639000  0.52167000  1.0 -0.573865966
O  O5  1  0.37639000  0.52167000  0.11508000  1.0 -0.573865966
O  O6  1  0.52167000  0.11508000  0.37639000  1.0 -0.573865966
O  O7  1  0.11508000  0.52167000  0.37639000  1.0 -0.573865966
O  O8  1  0.52167000  0.37639000  0.11508000  1.0 -0.573865966
O  O9  1  0.37639000  0.11508000  0.52167000  1.0 -0.573865966
O  O10  1  0.88492000  0.62361000  0.47833000  1.0 -0.573865966
O  O11  1  0.62361000  0.47833000  0.88492000  1.0 -0.573865966
O  O12  1  0.47833000  0.88492000  0.62361000  1.0 -0.573865966
O  O13  1  0.01169000  0.48714000  0.63419000  1.0 -0.5313614262
O  O14  1  0.48714000  0.63419000  0.01169000  1.0 -0.5313614262
O  O15  1  0.63419000  0.01169000  0.48714000  1.0 -0.5313614262
O  O16  1  0.98831000  0.36581000  0.51286000  1.0 -0.5313614262
O  O17  1  0.36581000  0.51286000  0.98831000  1.0 -0.5313614262
O  O18  1  0.51286000  0.98831000  0.36581000  1.0 -0.5313614262
O  O19  1  0.98831000  0.51286000  0.36581000  1.0 -0.5313614262
O  O20  1  0.51286000  0.36581000  0.98831000  1.0 -0.5313614262
O  O21  1  0.36581000  0.98831000  0.51286000  1.0 -0.5313614262
O  O22  1  0.01169000  0.63419000  0.48714000  1.0 -0.5313614262
O  O23  1  0.63419000  0.48714000  0.01169000  1.0 -0.5313614262
O  O24  1  0.48714000  0.01169000  0.63419000  1.0 -0.5313614262
