# DDEC6 charges by PACMAN v1.1 (https://github.com/mtap-research/PACMAN-charge/)
data_BUPVEP_ASR_pacman
_symmetry_space_group_name_H-M   'P 1'
_cell_length_a   18.57280000
_cell_length_b   18.57280000
_cell_length_c   18.57280000
_cell_angle_alpha   90.00000000
_cell_angle_beta   90.00000000
_cell_angle_gamma   90.00000000
_symmetry_Int_Tables_number   1
_chemical_formula_structural   Ce3(C3O4)4
_chemical_formula_sum   'Ce24 C96 O128'
_cell_volume   6406.66692695
_cell_formula_units_Z   8
loop_
 _symmetry_equiv_pos_site_id
 _symmetry_equiv_pos_as_xyz
  1  'x, y, z'
loop_
 _atom_site_type_symbol
 _atom_site_label
 _atom_site_symmetry_multiplicity
 _atom_site_fract_x
 _atom_site_fract_y
 _atom_site_fract_z
 _atom_site_occupancy
 _atom_site_charge
Ce  Ce1  1  0.39290000  0.25980000  0.24410000  1.0 2.2318859835
Ce  Ce2  1  0.60710000  0.25980000  0.75590000  1.0 2.2318859835
Ce  Ce3  1  0.10710000  0.24020000  0.25590000  1.0 2.2318859835
Ce  Ce4  1  0.10710000  0.75980000  0.74410000  1.0 2.2318859835
Ce  Ce5  1  0.74020000  0.75590000  0.39290000  1.0 2.2318859835
Ce  Ce6  1  0.74020000  0.24410000  0.60710000  1.0 2.2318859835
Ce  Ce7  1  0.24020000  0.25590000  0.10710000  1.0 2.2318859835
Ce  Ce8  1  0.24020000  0.74410000  0.89290000  1.0 2.2318859835
Ce  Ce9  1  0.75590000  0.60710000  0.25980000  1.0 2.2318859835
Ce  Ce10  1  0.75590000  0.39290000  0.74020000  1.0 2.2318859835
Ce  Ce11  1  0.25590000  0.10710000  0.24020000  1.0 2.2318859835
Ce  Ce12  1  0.25590000  0.89290000  0.75980000  1.0 2.2318859835
Ce  Ce13  1  0.24410000  0.60710000  0.74020000  1.0 2.2318859835
Ce  Ce14  1  0.24410000  0.39290000  0.25980000  1.0 2.2318859835
Ce  Ce15  1  0.74410000  0.10710000  0.75980000  1.0 2.2318859835
Ce  Ce16  1  0.74410000  0.89290000  0.24020000  1.0 2.2318859835
Ce  Ce17  1  0.25980000  0.75590000  0.60710000  1.0 2.2318859835
Ce  Ce18  1  0.25980000  0.24410000  0.39290000  1.0 2.2318859835
Ce  Ce19  1  0.75980000  0.25590000  0.89290000  1.0 2.2318859835
Ce  Ce20  1  0.75980000  0.74410000  0.10710000  1.0 2.2318859835
Ce  Ce21  1  0.39290000  0.74020000  0.75590000  1.0 2.2318859835
Ce  Ce22  1  0.60710000  0.74020000  0.24410000  1.0 2.2318859835
Ce  Ce23  1  0.89290000  0.24020000  0.74410000  1.0 2.2318859835
Ce  Ce24  1  0.89290000  0.75980000  0.25590000  1.0 2.2318859835
C  C1  1  0.42600000  0.26900000  0.06400000  1.0 0.7191902339
C  C2  1  0.57400000  0.26900000  0.93600000  1.0 0.7191902339
C  C3  1  0.07400000  0.23100000  0.43600000  1.0 0.7191902339
C  C4  1  0.07400000  0.76900000  0.56400000  1.0 0.7191902339
C  C5  1  0.73100000  0.93600000  0.42600000  1.0 0.7191902339
C  C6  1  0.73100000  0.06400000  0.57400000  1.0 0.7191902339
C  C7  1  0.23100000  0.43600000  0.07400000  1.0 0.7191902339
C  C8  1  0.23100000  0.56400000  0.92600000  1.0 0.7191902339
C  C9  1  0.93600000  0.57400000  0.26900000  1.0 0.7191902339
C  C10  1  0.93600000  0.42600000  0.73100000  1.0 0.7191902339
C  C11  1  0.43600000  0.07400000  0.23100000  1.0 0.7191902339
C  C12  1  0.43600000  0.92600000  0.76900000  1.0 0.7191902339
C  C13  1  0.06400000  0.57400000  0.73100000  1.0 0.7191902339
C  C14  1  0.06400000  0.42600000  0.26900000  1.0 0.7191902339
C  C15  1  0.56400000  0.07400000  0.76900000  1.0 0.7191902339
C  C16  1  0.56400000  0.92600000  0.23100000  1.0 0.7191902339
C  C17  1  0.26900000  0.93600000  0.57400000  1.0 0.7191902339
C  C18  1  0.26900000  0.06400000  0.42600000  1.0 0.7191902339
C  C19  1  0.76900000  0.43600000  0.92600000  1.0 0.7191902339
C  C20  1  0.76900000  0.56400000  0.07400000  1.0 0.7191902339
C  C21  1  0.42600000  0.73100000  0.93600000  1.0 0.7191902339
C  C22  1  0.57400000  0.73100000  0.06400000  1.0 0.7191902339
C  C23  1  0.92600000  0.23100000  0.56400000  1.0 0.7191902339
C  C24  1  0.92600000  0.76900000  0.43600000  1.0 0.7191902339
C  C25  1  0.46300000  0.27400000  0.00000000  1.0 -0.0638582885
C  C26  1  0.53700000  0.27400000  0.00000000  1.0 -0.0638582885
C  C27  1  0.03700000  0.22600000  0.50000000  1.0 -0.0638582885
C  C28  1  0.03700000  0.77400000  0.50000000  1.0 -0.0638582885
C  C29  1  0.72600000  0.00000000  0.46300000  1.0 -0.0638582885
C  C30  1  0.72600000  0.00000000  0.53700000  1.0 -0.0638582885
C  C31  1  0.22600000  0.50000000  0.03700000  1.0 -0.0638582885
C  C32  1  0.22600000  0.50000000  0.96300000  1.0 -0.0638582885
C  C33  1  0.00000000  0.53700000  0.27400000  1.0 -0.0638582885
C  C34  1  0.00000000  0.46300000  0.72600000  1.0 -0.0638582885
C  C35  1  0.50000000  0.03700000  0.22600000  1.0 -0.0652363211
C  C36  1  0.50000000  0.96300000  0.77400000  1.0 -0.0638582885
C  C37  1  0.00000000  0.53700000  0.72600000  1.0 -0.0638582885
C  C38  1  0.00000000  0.46300000  0.27400000  1.0 -0.0652363211
C  C39  1  0.50000000  0.03700000  0.77400000  1.0 -0.0638582885
C  C40  1  0.50000000  0.96300000  0.22600000  1.0 -0.0638582885
C  C41  1  0.27400000  0.00000000  0.53700000  1.0 -0.0638582885
C  C42  1  0.27400000  0.00000000  0.46300000  1.0 -0.0638582885
C  C43  1  0.77400000  0.50000000  0.96300000  1.0 -0.0638582885
C  C44  1  0.77400000  0.50000000  0.03700000  1.0 -0.0638582885
C  C45  1  0.46300000  0.72600000  0.00000000  1.0 -0.0638582885
C  C46  1  0.53700000  0.72600000  0.00000000  1.0 -0.0638582885
C  C47  1  0.96300000  0.22600000  0.50000000  1.0 -0.0638582885
C  C48  1  0.96300000  0.77400000  0.50000000  1.0 -0.0638582885
C  C49  1  0.45000000  0.25900000  0.41900000  1.0 0.71229873
C  C50  1  0.55000000  0.25900000  0.58100000  1.0 0.71229873
C  C51  1  0.05000000  0.24100000  0.08100000  1.0 0.71229873
C  C52  1  0.05000000  0.75900000  0.91900000  1.0 0.71229873
C  C53  1  0.74100000  0.58100000  0.45000000  1.0 0.71229873
C  C54  1  0.74100000  0.41900000  0.55000000  1.0 0.71229873
C  C55  1  0.24100000  0.08100000  0.05000000  1.0 0.71229873
C  C56  1  0.24100000  0.91900000  0.95000000  1.0 0.71229873
C  C57  1  0.58100000  0.55000000  0.25900000  1.0 0.71229873
C  C58  1  0.58100000  0.45000000  0.74100000  1.0 0.71229873
C  C59  1  0.08100000  0.05000000  0.24100000  1.0 0.71229873
C  C60  1  0.08100000  0.95000000  0.75900000  1.0 0.71229873
C  C61  1  0.41900000  0.55000000  0.74100000  1.0 0.71229873
C  C62  1  0.41900000  0.45000000  0.25900000  1.0 0.71229873
C  C63  1  0.91900000  0.05000000  0.75900000  1.0 0.71229873
C  C64  1  0.91900000  0.95000000  0.24100000  1.0 0.71229873
C  C65  1  0.25900000  0.58100000  0.55000000  1.0 0.71229873
C  C66  1  0.25900000  0.41900000  0.45000000  1.0 0.71229873
C  C67  1  0.75900000  0.08100000  0.95000000  1.0 0.71229873
C  C68  1  0.75900000  0.91900000  0.05000000  1.0 0.71229873
C  C69  1  0.45000000  0.74100000  0.58100000  1.0 0.71229873
C  C70  1  0.55000000  0.74100000  0.41900000  1.0 0.71229873
C  C71  1  0.95000000  0.24100000  0.91900000  1.0 0.71229873
C  C72  1  0.95000000  0.75900000  0.08100000  1.0 0.71229873
C  C73  1  0.50900000  0.26700000  0.46400000  1.0 -0.0491670883
C  C74  1  0.49100000  0.26700000  0.53600000  1.0 -0.0491670883
C  C75  1  0.99100000  0.23300000  0.03600000  1.0 -0.0491670883
C  C76  1  0.99100000  0.76700000  0.96400000  1.0 -0.0491670883
C  C77  1  0.73300000  0.53600000  0.50900000  1.0 -0.0491670883
C  C78  1  0.73300000  0.46400000  0.49100000  1.0 -0.0491670883
C  C79  1  0.23300000  0.03600000  0.99100000  1.0 -0.0491670883
C  C80  1  0.23300000  0.96400000  0.00900000  1.0 -0.0491670883
C  C81  1  0.53600000  0.49100000  0.26700000  1.0 -0.0491670883
C  C82  1  0.53600000  0.50900000  0.73300000  1.0 -0.0491670883
C  C83  1  0.03600000  0.99100000  0.23300000  1.0 -0.0491670883
C  C84  1  0.03600000  0.00900000  0.76700000  1.0 -0.0491670883
C  C85  1  0.46400000  0.49100000  0.73300000  1.0 -0.0491670883
C  C86  1  0.46400000  0.50900000  0.26700000  1.0 -0.0491670883
C  C87  1  0.96400000  0.99100000  0.76700000  1.0 -0.0491670883
C  C88  1  0.96400000  0.00900000  0.23300000  1.0 -0.0491670883
C  C89  1  0.26700000  0.53600000  0.49100000  1.0 -0.0491670883
C  C90  1  0.26700000  0.46400000  0.50900000  1.0 -0.0491670883
C  C91  1  0.76700000  0.03600000  0.00900000  1.0 -0.0491670883
C  C92  1  0.76700000  0.96400000  0.99100000  1.0 -0.0491670883
C  C93  1  0.50900000  0.73300000  0.53600000  1.0 -0.0491670883
C  C94  1  0.49100000  0.73300000  0.46400000  1.0 -0.0491670883
C  C95  1  0.00900000  0.23300000  0.96400000  1.0 -0.0491670883
C  C96  1  0.00900000  0.76700000  0.03600000  1.0 -0.0491670883
O  O1  1  0.32250000  0.32250000  0.17750000  1.0 -1.0812680036
O  O2  1  0.67750000  0.32250000  0.82250000  1.0 -1.0812680036
O  O3  1  0.17750000  0.17750000  0.32250000  1.0 -1.0812680036
O  O4  1  0.17750000  0.82250000  0.67750000  1.0 -1.0812680036
O  O5  1  0.67750000  0.82250000  0.32250000  1.0 -1.0812680036
O  O6  1  0.67750000  0.17750000  0.67750000  1.0 -1.0812680036
O  O7  1  0.17750000  0.32250000  0.17750000  1.0 -1.0812680036
O  O8  1  0.17750000  0.67750000  0.82250000  1.0 -1.0812680036
O  O9  1  0.82250000  0.67750000  0.32250000  1.0 -1.0812680036
O  O10  1  0.82250000  0.32250000  0.67750000  1.0 -1.0812680036
O  O11  1  0.32250000  0.17750000  0.17750000  1.0 -1.0812680036
O  O12  1  0.32250000  0.82250000  0.82250000  1.0 -1.0812680036
O  O13  1  0.17750000  0.67750000  0.67750000  1.0 -1.0812680036
O  O14  1  0.17750000  0.32250000  0.32250000  1.0 -1.0812680036
O  O15  1  0.67750000  0.17750000  0.82250000  1.0 -1.0812680036
O  O16  1  0.67750000  0.82250000  0.17750000  1.0 -1.0812680036
O  O17  1  0.32250000  0.82250000  0.67750000  1.0 -1.0812680036
O  O18  1  0.32250000  0.17750000  0.32250000  1.0 -1.0812680036
O  O19  1  0.82250000  0.32250000  0.82250000  1.0 -1.0812680036
O  O20  1  0.82250000  0.67750000  0.17750000  1.0 -1.0812680036
O  O21  1  0.32250000  0.67750000  0.82250000  1.0 -1.0812680036
O  O22  1  0.67750000  0.67750000  0.17750000  1.0 -1.0812680036
O  O23  1  0.82250000  0.17750000  0.67750000  1.0 -1.0812680036
O  O24  1  0.82250000  0.82250000  0.32250000  1.0 -1.0812680036
O  O25  1  0.33490000  0.33490000  0.33490000  1.0 -1.0562272281
O  O26  1  0.66510000  0.33490000  0.66510000  1.0 -1.0562272281
O  O27  1  0.16510000  0.16510000  0.16510000  1.0 -1.0562272281
O  O28  1  0.16510000  0.83490000  0.83490000  1.0 -1.0562272281
O  O29  1  0.66510000  0.66510000  0.33490000  1.0 -1.0562272281
O  O30  1  0.33490000  0.66510000  0.66510000  1.0 -1.0562272281
O  O31  1  0.83490000  0.16510000  0.83490000  1.0 -1.0562272281
O  O32  1  0.83490000  0.83490000  0.16510000  1.0 -1.0562272281
O  O33  1  0.45200000  0.27300000  0.12800000  1.0 -0.4947375591
O  O34  1  0.54800000  0.27300000  0.87200000  1.0 -0.4947375591
O  O35  1  0.04800000  0.22700000  0.37200000  1.0 -0.4947375591
O  O36  1  0.04800000  0.77300000  0.62800000  1.0 -0.4947375591
O  O37  1  0.72700000  0.87200000  0.45200000  1.0 -0.4947375591
O  O38  1  0.72700000  0.12800000  0.54800000  1.0 -0.4947375591
O  O39  1  0.22700000  0.37200000  0.04800000  1.0 -0.4947375591
O  O40  1  0.22700000  0.62800000  0.95200000  1.0 -0.4947375591
O  O41  1  0.87200000  0.54800000  0.27300000  1.0 -0.4947375591
O  O42  1  0.87200000  0.45200000  0.72700000  1.0 -0.4947375591
O  O43  1  0.37200000  0.04800000  0.22700000  1.0 -0.4947375591
O  O44  1  0.37200000  0.95200000  0.77300000  1.0 -0.4947375591
O  O45  1  0.12800000  0.54800000  0.72700000  1.0 -0.4947375591
O  O46  1  0.12800000  0.45200000  0.27300000  1.0 -0.4947375591
O  O47  1  0.62800000  0.04800000  0.77300000  1.0 -0.4947375591
O  O48  1  0.62800000  0.95200000  0.22700000  1.0 -0.4947375591
O  O49  1  0.27300000  0.87200000  0.54800000  1.0 -0.4947375591
O  O50  1  0.27300000  0.12800000  0.45200000  1.0 -0.4947375591
O  O51  1  0.77300000  0.37200000  0.95200000  1.0 -0.4947375591
O  O52  1  0.77300000  0.62800000  0.04800000  1.0 -0.4947375591
O  O53  1  0.45200000  0.72700000  0.87200000  1.0 -0.4947375591
O  O54  1  0.54800000  0.72700000  0.12800000  1.0 -0.4947375591
O  O55  1  0.95200000  0.22700000  0.62800000  1.0 -0.4947375591
O  O56  1  0.95200000  0.77300000  0.37200000  1.0 -0.4947375591
O  O57  1  0.35700000  0.25700000  0.05300000  1.0 -0.542278564
O  O58  1  0.64300000  0.25700000  0.94700000  1.0 -0.542278564
O  O59  1  0.14300000  0.24300000  0.44700000  1.0 -0.542278564
O  O60  1  0.14300000  0.75700000  0.55300000  1.0 -0.542278564
O  O61  1  0.74300000  0.94700000  0.35700000  1.0 -0.542278564
O  O62  1  0.74300000  0.05300000  0.64300000  1.0 -0.542278564
O  O63  1  0.24300000  0.44700000  0.14300000  1.0 -0.542278564
O  O64  1  0.24300000  0.55300000  0.85700000  1.0 -0.542278564
O  O65  1  0.94700000  0.64300000  0.25700000  1.0 -0.542278564
O  O66  1  0.94700000  0.35700000  0.74300000  1.0 -0.542278564
O  O67  1  0.44700000  0.14300000  0.24300000  1.0 -0.542278564
O  O68  1  0.44700000  0.85700000  0.75700000  1.0 -0.542278564
O  O69  1  0.05300000  0.64300000  0.74300000  1.0 -0.542278564
O  O70  1  0.05300000  0.35700000  0.25700000  1.0 -0.542278564
O  O71  1  0.55300000  0.14300000  0.75700000  1.0 -0.542278564
O  O72  1  0.55300000  0.85700000  0.24300000  1.0 -0.542278564
O  O73  1  0.25700000  0.94700000  0.64300000  1.0 -0.542278564
O  O74  1  0.25700000  0.05300000  0.35700000  1.0 -0.542278564
O  O75  1  0.75700000  0.44700000  0.85700000  1.0 -0.542278564
O  O76  1  0.75700000  0.55300000  0.14300000  1.0 -0.542278564
O  O77  1  0.35700000  0.74300000  0.94700000  1.0 -0.542278564
O  O78  1  0.64300000  0.74300000  0.05300000  1.0 -0.542278564
O  O79  1  0.85700000  0.24300000  0.55300000  1.0 -0.542278564
O  O80  1  0.85700000  0.75700000  0.44700000  1.0 -0.542278564
O  O81  1  0.46960000  0.25700000  0.34900000  1.0 -0.5527796358
O  O82  1  0.53040000  0.25700000  0.65100000  1.0 -0.5527796358
O  O83  1  0.03040000  0.24300000  0.15100000  1.0 -0.5527796358
O  O84  1  0.03040000  0.75700000  0.84900000  1.0 -0.5527796358
O  O85  1  0.74300000  0.65100000  0.46960000  1.0 -0.5527796358
O  O86  1  0.74300000  0.34900000  0.53040000  1.0 -0.5527796358
O  O87  1  0.24300000  0.15100000  0.03040000  1.0 -0.5527796358
O  O88  1  0.24300000  0.84900000  0.96960000  1.0 -0.5527796358
O  O89  1  0.65100000  0.53040000  0.25700000  1.0 -0.5527796358
O  O90  1  0.65100000  0.46960000  0.74300000  1.0 -0.5527796358
O  O91  1  0.15100000  0.03040000  0.24300000  1.0 -0.5527796358
O  O92  1  0.15100000  0.96960000  0.75700000  1.0 -0.5527796358
O  O93  1  0.34900000  0.53040000  0.74300000  1.0 -0.5527796358
O  O94  1  0.34900000  0.46960000  0.25700000  1.0 -0.5527796358
O  O95  1  0.84900000  0.03040000  0.75700000  1.0 -0.5527796358
O  O96  1  0.84900000  0.96960000  0.24300000  1.0 -0.5527796358
O  O97  1  0.25700000  0.65100000  0.53040000  1.0 -0.5527796358
O  O98  1  0.25700000  0.34900000  0.46960000  1.0 -0.5527796358
O  O99  1  0.75700000  0.15100000  0.96960000  1.0 -0.5527796358
O  O100  1  0.75700000  0.84900000  0.03040000  1.0 -0.5527796358
O  O101  1  0.46960000  0.74300000  0.65100000  1.0 -0.5527796358
O  O102  1  0.53040000  0.74300000  0.34900000  1.0 -0.5527796358
O  O103  1  0.96960000  0.24300000  0.84900000  1.0 -0.5527796358
O  O104  1  0.96960000  0.75700000  0.15100000  1.0 -0.5527796358
O  O105  1  0.38300000  0.25200000  0.43450000  1.0 -0.5270952294
O  O106  1  0.61700000  0.25200000  0.56550000  1.0 -0.5270952294
O  O107  1  0.11700000  0.24800000  0.06550000  1.0 -0.5270952294
O  O108  1  0.11700000  0.75200000  0.93450000  1.0 -0.5270952294
O  O109  1  0.74800000  0.56550000  0.38300000  1.0 -0.5270952294
O  O110  1  0.74800000  0.43450000  0.61700000  1.0 -0.5270952294
O  O111  1  0.24800000  0.06550000  0.11700000  1.0 -0.5270952294
O  O112  1  0.24800000  0.93450000  0.88300000  1.0 -0.5270952294
O  O113  1  0.56550000  0.61700000  0.25200000  1.0 -0.5270952294
O  O114  1  0.56550000  0.38300000  0.74800000  1.0 -0.5270952294
O  O115  1  0.06550000  0.11700000  0.24800000  1.0 -0.5270952294
O  O116  1  0.06550000  0.88300000  0.75200000  1.0 -0.5270952294
O  O117  1  0.43450000  0.61700000  0.74800000  1.0 -0.5270952294
O  O118  1  0.43450000  0.38300000  0.25200000  1.0 -0.5270952294
O  O119  1  0.93450000  0.11700000  0.75200000  1.0 -0.5270952294
O  O120  1  0.93450000  0.88300000  0.24800000  1.0 -0.5270952294
O  O121  1  0.25200000  0.56550000  0.61700000  1.0 -0.5270952294
O  O122  1  0.25200000  0.43450000  0.38300000  1.0 -0.5270952294
O  O123  1  0.75200000  0.06550000  0.88300000  1.0 -0.5270952294
O  O124  1  0.75200000  0.93450000  0.11700000  1.0 -0.5270952294
O  O125  1  0.38300000  0.74800000  0.56550000  1.0 -0.5270952294
O  O126  1  0.61700000  0.74800000  0.43450000  1.0 -0.5270952294
O  O127  1  0.88300000  0.24800000  0.93450000  1.0 -0.5270952294
O  O128  1  0.88300000  0.75200000  0.06550000  1.0 -0.5270952294
