# DDEC6 charges by PACMAN v1.1 (https://github.com/mtap-research/PACMAN-charge/)
data_BUSSEP_ion_pacman
_symmetry_space_group_name_H-M   'P 1'
_cell_length_a   28.54420000
_cell_length_b   28.54420000
_cell_length_c   12.32800000
_cell_angle_alpha   83.49540000
_cell_angle_beta   96.50460000
_cell_angle_gamma   147.30100000
_symmetry_Int_Tables_number   1
_chemical_formula_structural   Nd9H18C54(N13O46)2
_chemical_formula_sum   'Nd18 H36 C108 N52 O184'
_cell_volume   5388.35003118
_cell_formula_units_Z   2
loop_
 _symmetry_equiv_pos_site_id
 _symmetry_equiv_pos_as_xyz
  1  'x, y, z'
loop_
 _atom_site_type_symbol
 _atom_site_label
 _atom_site_symmetry_multiplicity
 _atom_site_fract_x
 _atom_site_fract_y
 _atom_site_fract_z
 _atom_site_occupancy
 _atom_site_charge
Nd  Nd1  1  0.20410000  0.74746000  0.61616000  1.0 1.9070584288
Nd  Nd2  1  0.74746000  0.20410000  0.88384000  1.0 1.9070584288
Nd  Nd3  1  0.79590000  0.25254000  0.38384000  1.0 1.9070584288
Nd  Nd4  1  0.25254000  0.79590000  0.11616000  1.0 1.9070584288
Nd  Nd5  1  0.04246000  0.85092000  0.81987000  1.0 1.7560425809
Nd  Nd6  1  0.85092000  0.04246000  0.68013000  1.0 1.7560425809
Nd  Nd7  1  0.95754000  0.14908000  0.18013000  1.0 1.7560425809
Nd  Nd8  1  0.14908000  0.95754000  0.31987000  1.0 1.7560425809
Nd  Nd9  1  0.83299000  0.48941000  0.78614000  1.0 1.9173896423
Nd  Nd10  1  0.48941000  0.83299000  0.71386000  1.0 1.9173896423
Nd  Nd11  1  0.16701000  0.51059000  0.21386000  1.0 1.9173896423
Nd  Nd12  1  0.51059000  0.16701000  0.28614000  1.0 1.9173896423
Nd  Nd13  1  0.16307000  0.16307000  0.75000000  1.0 1.6722143701
Nd  Nd14  1  0.83693000  0.83693000  0.25000000  1.0 1.6722143701
Nd  Nd15  1  0.59705000  0.45893000  0.15969000  1.0 1.6970493904
Nd  Nd16  1  0.45893000  0.59705000  0.34031000  1.0 1.6970493904
Nd  Nd17  1  0.40295000  0.54107000  0.84031000  1.0 1.6970493904
Nd  Nd18  1  0.54107000  0.40295000  0.65969000  1.0 1.6970493904
H  H1  1  0.14840000  0.83580000  0.27410000  1.0 0.1211818599
H  H2  1  0.83580000  0.14840000  0.22590000  1.0 0.1211818599
H  H3  1  0.85160000  0.16420000  0.72590000  1.0 0.1211818599
H  H4  1  0.16420000  0.85160000  0.77410000  1.0 0.1211818599
H  H5  1  0.08120000  0.75280000  0.62960000  1.0 0.1391829512
H  H6  1  0.75280000  0.08120000  0.87040000  1.0 0.1391829512
H  H7  1  0.91880000  0.24720000  0.37040000  1.0 0.1391829512
H  H8  1  0.24720000  0.91880000  0.12960000  1.0 0.1391829512
H  H9  1  0.86810000  0.39530000  0.57370000  1.0 0.1211818599
H  H10  1  0.39530000  0.86810000  0.92630000  1.0 0.1211818599
H  H11  1  0.13190000  0.60470000  0.42630000  1.0 0.1211818599
H  H12  1  0.60470000  0.13190000  0.07370000  1.0 0.1211818599
H  H13  1  0.65000000  0.23680000  0.09830000  1.0 0.1319677195
H  H14  1  0.23680000  0.65000000  0.40170000  1.0 0.1319677195
H  H15  1  0.35000000  0.76320000  0.90170000  1.0 0.1319677195
H  H16  1  0.76320000  0.35000000  0.59830000  1.0 0.1319677195
H  H17  1  0.65920000  0.39560000  0.93800000  1.0 0.1211818599
H  H18  1  0.39560000  0.65920000  0.56200000  1.0 0.1211818599
H  H19  1  0.34080000  0.60440000  0.06200000  1.0 0.1211818599
H  H20  1  0.60440000  0.34080000  0.43800000  1.0 0.1211818599
H  H21  1  0.75590000  0.52810000  0.01870000  1.0 0.1211818599
H  H22  1  0.52810000  0.75590000  0.48130000  1.0 0.1211818599
H  H23  1  0.24410000  0.47190000  0.98130000  1.0 0.1211818599
H  H24  1  0.47190000  0.24410000  0.51870000  1.0 0.1211818599
H  H25  1  0.92540000  0.79860000  0.04890000  1.0 0.1211818599
H  H26  1  0.79860000  0.92540000  0.45110000  1.0 0.1211818599
H  H27  1  0.07460000  0.20140000  0.95110000  1.0 0.1211818599
H  H28  1  0.20140000  0.07460000  0.54890000  1.0 0.1211818599
H  H29  1  0.92040000  0.86660000  0.00520000  1.0 0.1211818599
H  H30  1  0.86660000  0.92040000  0.49480000  1.0 0.1211818599
H  H31  1  0.07960000  0.13340000  0.99480000  1.0 0.1211818599
H  H32  1  0.13340000  0.07960000  0.50520000  1.0 0.1211818599
H  H33  1  0.51180000  0.50400000  0.18220000  1.0 0.1211818599
H  H34  1  0.50400000  0.51180000  0.31780000  1.0 0.1211818599
H  H35  1  0.48820000  0.49600000  0.81780000  1.0 0.1211818599
H  H36  1  0.49600000  0.48820000  0.68220000  1.0 0.1211818599
C  C1  1  0.14746000  0.78574000  0.40550000  1.0 0.0603514863
C  C2  1  0.78574000  0.14746000  0.09450000  1.0 0.0603514863
C  C3  1  0.85254000  0.21426000  0.59450000  1.0 0.0603514863
C  C4  1  0.21426000  0.85254000  0.90550000  1.0 0.0603514863
C  C5  1  0.13950000  0.82410000  0.34880000  1.0 0.0784049115
C  C6  1  0.82410000  0.13950000  0.15120000  1.0 0.0784049115
C  C7  1  0.86050000  0.17590000  0.65120000  1.0 0.0784049115
C  C8  1  0.17590000  0.86050000  0.84880000  1.0 0.0784049115
C  C9  1  0.10075000  0.81965000  0.50490000  1.0 0.0603514863
C  C10  1  0.81965000  0.10075000  0.99510000  1.0 0.0603514863
C  C11  1  0.89925000  0.18035000  0.49510000  1.0 0.0603514863
C  C12  1  0.18035000  0.89925000  0.00490000  1.0 0.0603514863
C  C13  1  0.10108000  0.77452000  0.55890000  1.0 0.0784049115
C  C14  1  0.77452000  0.10108000  0.94110000  1.0 0.0784049115
C  C15  1  0.89892000  0.22548000  0.44110000  1.0 0.0784049115
C  C16  1  0.22548000  0.89892000  0.05890000  1.0 0.0784049115
C  C17  1  0.18710000  0.77930000  0.35340000  1.0 0.5678404084
C  C18  1  0.77930000  0.18710000  0.14660000  1.0 0.5678404084
C  C19  1  0.81290000  0.22070000  0.64660000  1.0 0.5678404084
C  C20  1  0.22070000  0.81290000  0.85340000  1.0 0.5678404084
C  C21  1  0.08321000  0.84799000  0.56310000  1.0 0.5541467053
C  C22  1  0.84799000  0.08321000  0.93690000  1.0 0.5541467053
C  C23  1  0.91679000  0.15201000  0.43690000  1.0 0.5602719119
C  C24  1  0.15201000  0.91679000  0.06310000  1.0 0.5541467053
C  C25  1  0.99188000  0.52332000  0.57280000  1.0 0.0510980891
C  C26  1  0.52332000  0.99188000  0.92720000  1.0 0.0510980891
C  C27  1  0.00812000  0.47668000  0.42720000  1.0 0.0510980891
C  C28  1  0.47668000  0.00812000  0.07280000  1.0 0.0510980891
C  C29  1  0.92145000  0.43715000  0.54200000  1.0 0.0784049115
C  C30  1  0.43715000  0.92145000  0.95800000  1.0 0.0784049115
C  C31  1  0.07855000  0.56285000  0.45800000  1.0 0.0784049115
C  C32  1  0.56285000  0.07855000  0.04200000  1.0 0.0784049115
C  C33  1  0.98307000  0.55233000  0.65260000  1.0 0.5678404084
C  C34  1  0.55233000  0.98307000  0.84740000  1.0 0.5678404084
C  C35  1  0.01693000  0.44767000  0.34740000  1.0 0.5678404084
C  C36  1  0.44767000  0.01693000  0.15260000  1.0 0.5678404084
C  C37  1  0.68972000  0.31168000  0.96630000  1.0 0.0603514863
C  C38  1  0.31168000  0.68972000  0.53370000  1.0 0.0603514863
C  C39  1  0.31028000  0.68832000  0.03370000  1.0 0.0603514863
C  C40  1  0.68832000  0.31028000  0.46630000  1.0 0.0603514863
C  C41  1  0.65126000  0.26894000  0.06660000  1.0 0.0784049115
C  C42  1  0.26894000  0.65126000  0.43340000  1.0 0.0784049115
C  C43  1  0.34874000  0.73106000  0.93340000  1.0 0.0784049115
C  C44  1  0.73106000  0.34874000  0.56660000  1.0 0.0784049115
C  C45  1  0.62049000  0.32071000  0.06970000  1.0 0.0694374818
C  C46  1  0.32071000  0.62049000  0.43030000  1.0 0.0694374818
C  C47  1  0.37951000  0.67929000  0.93030000  1.0 0.0694374818
C  C48  1  0.67929000  0.37951000  0.56970000  1.0 0.0694374818
C  C49  1  0.65855000  0.36385000  0.96960000  1.0 0.0694374818
C  C50  1  0.36385000  0.65855000  0.53040000  1.0 0.0694374818
C  C51  1  0.34145000  0.63615000  0.03040000  1.0 0.0694374818
C  C52  1  0.63615000  0.34145000  0.46960000  1.0 0.0694374818
C  C53  1  0.73266000  0.31114000  0.90830000  1.0 0.5678404084
C  C54  1  0.31114000  0.73266000  0.59170000  1.0 0.5678404084
C  C55  1  0.26734000  0.68886000  0.09170000  1.0 0.5678404084
C  C56  1  0.68886000  0.26734000  0.40830000  1.0 0.5678404084
C  C57  1  0.58589000  0.32871000  0.13420000  1.0 0.5541467053
C  C58  1  0.32871000  0.58589000  0.36580000  1.0 0.5541467053
C  C59  1  0.41411000  0.67129000  0.86580000  1.0 0.5541467053
C  C60  1  0.67129000  0.41411000  0.63420000  1.0 0.5541467053
C  C61  1  0.86618000  0.65402000  0.96680000  1.0 0.0900497597
C  C62  1  0.65402000  0.86618000  0.53320000  1.0 0.0900497597
C  C63  1  0.13382000  0.34598000  0.03320000  1.0 0.0900497597
C  C64  1  0.34598000  0.13382000  0.46680000  1.0 0.0900497597
C  C65  1  0.78790000  0.58250000  0.02180000  1.0 0.0694374818
C  C66  1  0.58250000  0.78790000  0.47820000  1.0 0.0694374818
C  C67  1  0.21210000  0.41750000  0.97820000  1.0 0.0694374818
C  C68  1  0.41750000  0.21210000  0.52180000  1.0 0.0694374818
C  C69  1  0.81118000  0.67222000  0.08480000  1.0 0.0694374818
C  C70  1  0.67222000  0.81118000  0.41520000  1.0 0.0694374818
C  C71  1  0.18882000  0.32778000  0.91520000  1.0 0.0694374818
C  C72  1  0.32778000  0.18882000  0.58480000  1.0 0.0694374818
C  C73  1  0.89017000  0.74343000  0.03710000  1.0 0.0510980891
C  C74  1  0.74343000  0.89017000  0.46290000  1.0 0.0510980891
C  C75  1  0.10983000  0.25657000  0.96290000  1.0 0.0510980891
C  C76  1  0.25657000  0.10983000  0.53710000  1.0 0.0510980891
C  C77  1  0.89535000  0.64245000  0.89450000  1.0 0.5799542031
C  C78  1  0.64245000  0.89535000  0.60550000  1.0 0.5799542031
C  C79  1  0.10465000  0.35755000  0.10550000  1.0 0.5799542031
C  C80  1  0.35755000  0.10465000  0.39450000  1.0 0.5799542031
C  C81  1  0.77594000  0.68126000  0.14800000  1.0 0.5954210124
C  C82  1  0.68126000  0.77594000  0.35200000  1.0 0.5954210124
C  C83  1  0.22406000  0.31874000  0.85200000  1.0 0.5954210124
C  C84  1  0.31874000  0.22406000  0.64800000  1.0 0.5954210124
C  C85  1  0.01770000  0.98430000  0.93030000  1.0 0.0784049115
C  C86  1  0.98430000  0.01770000  0.56970000  1.0 0.0784049115
C  C87  1  0.98230000  0.01570000  0.06970000  1.0 0.0784049115
C  C88  1  0.01570000  0.98230000  0.43030000  1.0 0.0784049115
C  C89  1  0.95280000  0.92140000  0.00480000  1.0 0.1074633187
C  C90  1  0.92140000  0.95280000  0.49520000  1.0 0.1074633187
C  C91  1  0.04720000  0.07860000  0.99520000  1.0 0.1074633187
C  C92  1  0.07860000  0.04720000  0.50480000  1.0 0.1074633187
C  C93  1  0.04013000  0.96807000  0.85300000  1.0 0.5678404084
C  C94  1  0.96807000  0.04013000  0.64700000  1.0 0.5678404084
C  C95  1  0.95987000  0.03193000  0.14700000  1.0 0.5678404084
C  C96  1  0.03193000  0.95987000  0.35300000  1.0 0.5678404084
C  C97  1  0.52589000  0.48511000  0.95150000  1.0 0.0900497597
C  C98  1  0.48511000  0.52589000  0.54850000  1.0 0.0900497597
C  C99  1  0.47411000  0.51489000  0.04850000  1.0 0.0900497597
C  C100  1  0.51489000  0.47411000  0.45150000  1.0 0.0900497597
C  C101  1  0.50720000  0.50180000  0.10650000  1.0 0.1211818599
C  C102  1  0.50180000  0.50720000  0.39350000  1.0 0.1211818599
C  C103  1  0.49280000  0.49820000  0.89350000  1.0 0.1211818599
C  C104  1  0.49820000  0.49280000  0.60650000  1.0 0.1211818599
C  C105  1  0.55530000  0.46830000  0.89860000  1.0 0.5602719119
C  C106  1  0.46830000  0.55530000  0.60140000  1.0 0.5602719119
C  C107  1  0.44470000  0.53170000  0.10140000  1.0 0.5602719119
C  C108  1  0.53170000  0.44470000  0.39860000  1.0 0.5602719119
N  N1  1  0.12912000  0.76188000  0.51190000  1.0 -0.2695878511
N  N2  1  0.76188000  0.12912000  0.98810000  1.0 -0.2695878511
N  N3  1  0.87088000  0.23812000  0.48810000  1.0 -0.2695878511
N  N4  1  0.23812000  0.87088000  0.01190000  1.0 -0.2695878511
N  N5  1  0.11949000  0.84411000  0.39960000  1.0 -0.3302858213
N  N6  1  0.84411000  0.11949000  0.10040000  1.0 -0.3302858213
N  N7  1  0.88051000  0.15589000  0.60040000  1.0 -0.3302858213
N  N8  1  0.15589000  0.88051000  0.89960000  1.0 -0.3302858213
N  N9  1  0.06992000  0.58548000  0.53230000  1.0 -0.2754687727
N  N10  1  0.58548000  0.06992000  0.96770000  1.0 -0.2754687727
N  N11  1  0.93008000  0.41452000  0.46770000  1.0 -0.2754687727
N  N12  1  0.41452000  0.93008000  0.03230000  1.0 -0.2754687727
N  N13  1  0.69410000  0.36050000  0.91870000  1.0 -0.2631375977
N  N14  1  0.36050000  0.69410000  0.58130000  1.0 -0.2631375977
N  N15  1  0.30590000  0.63950000  0.08130000  1.0 -0.2631375977
N  N16  1  0.63950000  0.30590000  0.41870000  1.0 -0.2631375977
N  N17  1  0.61619000  0.27301000  0.11880000  1.0 -0.2695878511
N  N18  1  0.27301000  0.61619000  0.38120000  1.0 -0.2754687727
N  N19  1  0.38381000  0.72699000  0.88120000  1.0 -0.2754687727
N  N20  1  0.72699000  0.38381000  0.61880000  1.0 -0.2754687727
N  N21  1  0.91656000  0.73364000  0.97350000  1.0 -0.2483202109
N  N22  1  0.73364000  0.91656000  0.52650000  1.0 -0.2483202109
N  N23  1  0.08344000  0.26636000  0.02650000  1.0 -0.2483202109
N  N24  1  0.26636000  0.08344000  0.47350000  1.0 -0.2483202109
N  N25  1  0.75876000  0.59144000  0.07840000  1.0 -0.3071653137
N  N26  1  0.59144000  0.75876000  0.42160000  1.0 -0.3071653137
N  N27  1  0.24124000  0.40856000  0.92160000  1.0 -0.3071653137
N  N28  1  0.40856000  0.24124000  0.57840000  1.0 -0.3071653137
N  N29  1  0.06415000  0.06305000  0.92480000  1.0 -0.2695878511
N  N30  1  0.06305000  0.06415000  0.57520000  1.0 -0.2695878511
N  N31  1  0.93585000  0.93695000  0.07520000  1.0 -0.2695878511
N  N32  1  0.93695000  0.93585000  0.42480000  1.0 -0.2695878511
N  N33  1  0.53239000  0.48641000  0.05950000  1.0 -0.2695878511
N  N34  1  0.48641000  0.53239000  0.44050000  1.0 -0.2695878511
N  N35  1  0.46761000  0.51359000  0.94050000  1.0 -0.2695878511
N  N36  1  0.51359000  0.46761000  0.55950000  1.0 -0.2695878511
N  N37  1  0.23390000  0.03410000  0.77800000  1.0 0.4912872276
N  N38  1  0.03410000  0.23390000  0.72200000  1.0 0.4912872276
N  N39  1  0.76610000  0.96590000  0.22200000  1.0 0.4912872276
N  N40  1  0.96590000  0.76610000  0.27800000  1.0 0.4912872276
N  N41  1  0.48700000  0.28300000  0.83200000  1.0 0.46478964
N  N42  1  0.28300000  0.48700000  0.66800000  1.0 0.4672524145
N  N43  1  0.51300000  0.71700000  0.16800000  1.0 0.46478964
N  N44  1  0.71700000  0.51300000  0.33200000  1.0 0.46478964
N  N45  1  0.30720000  0.24280000  0.37000000  1.0 0.6846349648
N  N46  1  0.24280000  0.30720000  0.13000000  1.0 0.6846349648
N  N47  1  0.69280000  0.75720000  0.63000000  1.0 0.6846349648
N  N48  1  0.75720000  0.69280000  0.87000000  1.0 0.6846349648
N  N49  1  0.47620000  0.05860000  0.78160000  1.0 0.6745142749
N  N50  1  0.05860000  0.47620000  0.71840000  1.0 0.6745142749
N  N51  1  0.52380000  0.94140000  0.21840000  1.0 0.6745142749
N  N52  1  0.94140000  0.52380000  0.28160000  1.0 0.6745142749
O  O1  1  0.20930000  0.76150000  0.41650000  1.0 -0.5594795971
O  O2  1  0.76150000  0.20930000  0.08350000  1.0 -0.5594795971
O  O3  1  0.79070000  0.23850000  0.58350000  1.0 -0.5594795971
O  O4  1  0.23850000  0.79070000  0.91650000  1.0 -0.5594795971
O  O5  1  0.19930000  0.79670000  0.25400000  1.0 -0.551458996
O  O6  1  0.79670000  0.19930000  0.24600000  1.0 -0.551458996
O  O7  1  0.80070000  0.20330000  0.74600000  1.0 -0.551458996
O  O8  1  0.20330000  0.80070000  0.75400000  1.0 -0.551458996
O  O9  1  0.09334000  0.89586000  0.50690000  1.0 -0.587853212
O  O10  1  0.89586000  0.09334000  0.99310000  1.0 -0.587853212
O  O11  1  0.90666000  0.10414000  0.49310000  1.0 -0.587853212
O  O12  1  0.10414000  0.90666000  0.00690000  1.0 -0.587853212
O  O13  1  0.06419000  0.82561000  0.66130000  1.0 -0.5594795971
O  O14  1  0.82561000  0.06419000  0.83870000  1.0 -0.5594795971
O  O15  1  0.93581000  0.17439000  0.33870000  1.0 -0.5594795971
O  O16  1  0.17439000  0.93581000  0.16130000  1.0 -0.5594795971
O  O17  1  0.05321000  0.63159000  0.67760000  1.0 -0.5594795971
O  O18  1  0.63159000  0.05321000  0.82240000  1.0 -0.5594795971
O  O19  1  0.94679000  0.36841000  0.32240000  1.0 -0.5700442355
O  O20  1  0.36841000  0.94679000  0.17760000  1.0 -0.5594795971
O  O21  1  0.90911000  0.49829000  0.68530000  1.0 -0.5700442355
O  O22  1  0.49829000  0.90911000  0.81470000  1.0 -0.5700442355
O  O23  1  0.09089000  0.50171000  0.31470000  1.0 -0.5700442355
O  O24  1  0.50171000  0.09089000  0.18530000  1.0 -0.5700442355
O  O25  1  0.72046000  0.25874000  0.94380000  1.0 -0.5700442355
O  O26  1  0.25874000  0.72046000  0.55620000  1.0 -0.5700442355
O  O27  1  0.27954000  0.74126000  0.05620000  1.0 -0.5700442355
O  O28  1  0.74126000  0.27954000  0.44380000  1.0 -0.5700442355
O  O29  1  0.77688000  0.36332000  0.82780000  1.0 -0.5594795971
O  O30  1  0.36332000  0.77688000  0.67220000  1.0 -0.5594795971
O  O31  1  0.22312000  0.63668000  0.17220000  1.0 -0.5594795971
O  O32  1  0.63668000  0.22312000  0.32780000  1.0 -0.5594795971
O  O33  1  0.54698000  0.28162000  0.21970000  1.0 -0.5277100393
O  O34  1  0.28162000  0.54698000  0.28030000  1.0 -0.5277100393
O  O35  1  0.45302000  0.71838000  0.78030000  1.0 -0.5277100393
O  O36  1  0.71838000  0.45302000  0.71970000  1.0 -0.5277100393
O  O37  1  0.60183000  0.38437000  0.10080000  1.0 -0.6228533799
O  O38  1  0.38437000  0.60183000  0.39920000  1.0 -0.6228533799
O  O39  1  0.39817000  0.61563000  0.89920000  1.0 -0.6228533799
O  O40  1  0.61563000  0.39817000  0.60080000  1.0 -0.6228533799
O  O41  1  0.96969000  0.71171000  0.85430000  1.0 -0.5430223534
O  O42  1  0.71171000  0.96969000  0.64570000  1.0 -0.5430223534
O  O43  1  0.03031000  0.28829000  0.14570000  1.0 -0.5430223534
O  O44  1  0.28829000  0.03031000  0.35430000  1.0 -0.5430223534
O  O45  1  0.84461000  0.56699000  0.88050000  1.0 -0.551458996
O  O46  1  0.56699000  0.84461000  0.61950000  1.0 -0.551458996
O  O47  1  0.15539000  0.43301000  0.11950000  1.0 -0.551458996
O  O48  1  0.43301000  0.15539000  0.38050000  1.0 -0.551458996
O  O49  1  0.69984000  0.61136000  0.18160000  1.0 -0.5950184652
O  O50  1  0.61136000  0.69984000  0.31840000  1.0 -0.5950184652
O  O51  1  0.30016000  0.38864000  0.81840000  1.0 -0.5950184652
O  O52  1  0.38864000  0.30016000  0.68160000  1.0 -0.5950184652
O  O53  1  0.82432000  0.75648000  0.15780000  1.0 -0.6228533799
O  O54  1  0.75648000  0.82432000  0.34220000  1.0 -0.6228533799
O  O55  1  0.17568000  0.24352000  0.84220000  1.0 -0.6228533799
O  O56  1  0.24352000  0.17568000  0.65780000  1.0 -0.6228533799
O  O57  1  0.08604000  0.02216000  0.77480000  1.0 -0.5700442355
O  O58  1  0.02216000  0.08604000  0.72520000  1.0 -0.5700442355
O  O59  1  0.91396000  0.97784000  0.22520000  1.0 -0.5700442355
O  O60  1  0.97784000  0.91396000  0.27480000  1.0 -0.5700442355
O  O61  1  0.01337000  0.90423000  0.87450000  1.0 -0.5700442355
O  O62  1  0.90423000  0.01337000  0.62550000  1.0 -0.5700442355
O  O63  1  0.98663000  0.09577000  0.12550000  1.0 -0.5700442355
O  O64  1  0.09577000  0.98663000  0.37450000  1.0 -0.5700442355
O  O65  1  0.18676000  0.67604000  0.78080000  1.0 -0.1597925426
O  O66  1  0.67604000  0.18676000  0.71920000  1.0 -0.1597925426
O  O67  1  0.81324000  0.32396000  0.21920000  1.0 -0.1597925426
O  O68  1  0.32396000  0.81324000  0.28080000  1.0 -0.1597925426
O  O69  1  0.34669000  0.85431000  0.71270000  1.0 -0.086533012
O  O70  1  0.85431000  0.34669000  0.78730000  1.0 -0.086533012
O  O71  1  0.65331000  0.14569000  0.28730000  1.0 -0.086533012
O  O72  1  0.14569000  0.65331000  0.21270000  1.0 -0.086533012
O  O73  1  0.30868000  0.90152000  0.55840000  1.0 -0.2695878511
O  O74  1  0.90152000  0.30868000  0.94160000  1.0 -0.2695878511
O  O75  1  0.69132000  0.09848000  0.44160000  1.0 -0.2695878511
O  O76  1  0.09848000  0.69132000  0.05840000  1.0 -0.2695878511
O  O77  1  0.89250000  0.73170000  0.73980000  1.0 -0.3302858213
O  O78  1  0.73170000  0.89250000  0.76020000  1.0 -0.3302858213
O  O79  1  0.10750000  0.26830000  0.26020000  1.0 -0.3384174035
O  O80  1  0.26830000  0.10750000  0.23980000  1.0 -0.3384174035
O  O81  1  0.03967000  0.90813000  0.65310000  1.0 -0.2938906366
O  O82  1  0.90813000  0.03967000  0.84690000  1.0 -0.2938906366
O  O83  1  0.96033000  0.09187000  0.34690000  1.0 -0.2938906366
O  O84  1  0.09187000  0.96033000  0.15310000  1.0 -0.2938906366
O  O85  1  0.88956000  0.58724000  0.62900000  1.0 -0.3870132029
O  O86  1  0.58724000  0.88956000  0.87100000  1.0 -0.3870132029
O  O87  1  0.11044000  0.41276000  0.37100000  1.0 -0.3836737463
O  O88  1  0.41276000  0.11044000  0.12900000  1.0 -0.3870132029
O  O89  1  0.99298000  0.63502000  0.82540000  1.0 -0.0505381843
O  O90  1  0.63502000  0.99298000  0.67460000  1.0 -0.0405939521
O  O91  1  0.00702000  0.36498000  0.17460000  1.0 -0.0405939521
O  O92  1  0.36498000  0.00702000  0.32540000  1.0 -0.0505381843
O  O93  1  0.87084000  0.49356000  0.98250000  1.0 -0.3460861483
O  O94  1  0.49356000  0.87084000  0.51750000  1.0 -0.3384174035
O  O95  1  0.12916000  0.50644000  0.01750000  1.0 -0.3384174035
O  O96  1  0.50644000  0.12916000  0.48250000  1.0 -0.3460861483
O  O97  1  0.18530000  0.00070000  0.77310000  1.0 0.2434992528
O  O98  1  0.00070000  0.18530000  0.72690000  1.0 0.2434992528
O  O99  1  0.81470000  0.99930000  0.22690000  1.0 0.2434992528
O  O100  1  0.99930000  0.81470000  0.27310000  1.0 0.2434992528
O  O101  1  0.22170000  0.14930000  0.90200000  1.0 -0.0085664981
O  O102  1  0.14930000  0.22170000  0.59800000  1.0 -0.0085664981
O  O103  1  0.77830000  0.85070000  0.09800000  1.0 -0.0085664981
O  O104  1  0.85070000  0.77830000  0.40200000  1.0 -0.0085664981
O  O105  1  0.59456000  0.46904000  0.95920000  1.0 -0.5700442355
O  O106  1  0.46904000  0.59456000  0.54080000  1.0 -0.5700442355
O  O107  1  0.40544000  0.53096000  0.04080000  1.0 -0.5700442355
O  O108  1  0.53096000  0.40544000  0.45920000  1.0 -0.5700442355
O  O109  1  0.53894000  0.45486000  0.79880000  1.0 -0.587853212
O  O110  1  0.45486000  0.53894000  0.70120000  1.0 -0.587853212
O  O111  1  0.46106000  0.54514000  0.20120000  1.0 -0.587853212
O  O112  1  0.54514000  0.46106000  0.29880000  1.0 -0.587853212
O  O113  1  0.51030000  0.33350000  0.29160000  1.0 -0.3164556512
O  O114  1  0.33350000  0.51030000  0.20840000  1.0 -0.3164556512
O  O115  1  0.48970000  0.66650000  0.70840000  1.0 -0.3164556512
O  O116  1  0.66650000  0.48970000  0.79160000  1.0 -0.3164556512
O  O117  1  0.43640000  0.32280000  0.11510000  1.0 0.0900497597
O  O118  1  0.32280000  0.43640000  0.38490000  1.0 0.0900497597
O  O119  1  0.56360000  0.67720000  0.88490000  1.0 0.0900497597
O  O120  1  0.67720000  0.56360000  0.61510000  1.0 0.0900497597
O  O121  1  0.69360000  0.50100000  0.29870000  1.0 0.2713585383
O  O122  1  0.50100000  0.69360000  0.20130000  1.0 0.2713585383
O  O123  1  0.30640000  0.49900000  0.70130000  1.0 0.2713585383
O  O124  1  0.49900000  0.30640000  0.79870000  1.0 0.2713585383
O  O125  1  0.19710000  0.02090000  0.83100000  1.0 0.0603514863
O  O126  1  0.02090000  0.19710000  0.66900000  1.0 0.0603514863
O  O127  1  0.80290000  0.97910000  0.16900000  1.0 0.0510980891
O  O128  1  0.97910000  0.80290000  0.33100000  1.0 0.0603514863
O  O129  1  0.20080000  0.97720000  0.72900000  1.0 -0.1597925426
O  O130  1  0.97720000  0.20080000  0.77100000  1.0 -0.1597925426
O  O131  1  0.79920000  0.02280000  0.27100000  1.0 -0.1597925426
O  O132  1  0.02280000  0.79920000  0.22900000  1.0 -0.1597925426
O  O133  1  0.32030000  0.11770000  0.77000000  1.0 -0.4818029144
O  O134  1  0.11770000  0.32030000  0.73000000  1.0 -0.4818029144
O  O135  1  0.67970000  0.88230000  0.23000000  1.0 -0.4818029144
O  O136  1  0.88230000  0.67970000  0.27000000  1.0 -0.4818029144
O  O137  1  0.51570000  0.29430000  0.76300000  1.0 -0.0085664981
O  O138  1  0.29430000  0.51570000  0.73700000  1.0 -0.0085664981
O  O139  1  0.48430000  0.70570000  0.23700000  1.0 -0.0085664981
O  O140  1  0.70570000  0.48430000  0.26300000  1.0 -0.0085664981
O  O141  1  0.47230000  0.30870000  0.84500000  1.0 -0.0505381843
O  O142  1  0.30870000  0.47230000  0.65500000  1.0 -0.0505381843
O  O143  1  0.52770000  0.69130000  0.15500000  1.0 -0.0505381843
O  O144  1  0.69130000  0.52770000  0.34500000  1.0 -0.0505381843
O  O145  1  0.46740000  0.23060000  0.92500000  1.0 -0.4031683469
O  O146  1  0.23060000  0.46740000  0.57500000  1.0 -0.4031683469
O  O147  1  0.53260000  0.76940000  0.07500000  1.0 -0.4031683469
O  O148  1  0.76940000  0.53260000  0.42500000  1.0 -0.4031683469
O  O149  1  0.67690000  0.54870000  0.57370000  1.0 0.041227281
O  O150  1  0.54870000  0.67690000  0.92630000  1.0 0.041227281
O  O151  1  0.32310000  0.45130000  0.42630000  1.0 0.041227281
O  O152  1  0.45130000  0.32310000  0.07370000  1.0 0.041227281
O  O153  1  0.26110000  0.21490000  0.89220000  1.0 -0.0034422583
O  O154  1  0.21490000  0.26110000  0.60780000  1.0 -0.0034422583
O  O155  1  0.73890000  0.78510000  0.10780000  1.0 -0.0034422583
O  O156  1  0.78510000  0.73890000  0.39220000  1.0 -0.0034422583
O  O157  1  0.31140000  0.32240000  0.69610000  1.0 -0.1685421506
O  O158  1  0.32240000  0.31140000  0.80390000  1.0 -0.1685421506
O  O159  1  0.68860000  0.67760000  0.30390000  1.0 -0.1685421506
O  O160  1  0.67760000  0.68860000  0.19610000  1.0 -0.1685421506
O  O161  1  0.34020000  0.23780000  0.31500000  1.0 -0.3579165378
O  O162  1  0.21900000  0.16900000  0.30300000  1.0 -0.4297547342
O  O163  1  0.31500000  0.28660000  0.42900000  1.0 -0.4818029144
O  O164  1  0.23780000  0.34020000  0.18500000  1.0 -0.3579165378
O  O165  1  0.16900000  0.21900000  0.19700000  1.0 -0.4297547342
O  O166  1  0.28660000  0.31500000  0.07100000  1.0 -0.4818029144
O  O167  1  0.65980000  0.76220000  0.68500000  1.0 -0.3579165378
O  O168  1  0.78100000  0.83100000  0.69700000  1.0 -0.4297547342
O  O169  1  0.68500000  0.71340000  0.57100000  1.0 -0.4818029144
O  O170  1  0.76220000  0.65980000  0.81500000  1.0 -0.3579165378
O  O171  1  0.83100000  0.78100000  0.80300000  1.0 -0.4297547342
O  O172  1  0.71340000  0.68500000  0.92900000  1.0 -0.4818029144
O  O173  1  0.49049000  0.03931000  0.71920000  1.0 -0.3384174035
O  O174  1  0.54000000  0.13820000  0.80920000  1.0 -0.4297547342
O  O175  1  0.40870000  0.00610000  0.82800000  1.0 -0.3870132029
O  O176  1  0.03931000  0.49049000  0.78080000  1.0 -0.3384174035
O  O177  1  0.13820000  0.54000000  0.69080000  1.0 -0.4297547342
O  O178  1  0.00610000  0.40870000  0.67200000  1.0 -0.3870132029
O  O179  1  0.50951000  0.96069000  0.28080000  1.0 -0.3384174035
O  O180  1  0.46000000  0.86180000  0.19080000  1.0 -0.4297547342
O  O181  1  0.59130000  0.99390000  0.17200000  1.0 -0.3870132029
O  O182  1  0.96069000  0.50951000  0.21920000  1.0 -0.3384174035
O  O183  1  0.86180000  0.46000000  0.30920000  1.0 -0.4297547342
O  O184  1  0.99390000  0.59130000  0.32800000  1.0 -0.3870132029
