# DDEC6 charges by PACMAN v1.1 (https://github.com/mtap-research/PACMAN-charge/)
data_BUVVIZ_FSR_pacman
_symmetry_space_group_name_H-M   'P 1'
_cell_length_a   16.79210000
_cell_length_b   16.79210000
_cell_length_c   22.71340000
_cell_angle_alpha   86.69050000
_cell_angle_beta   93.30950000
_cell_angle_gamma   55.22500000
_symmetry_Int_Tables_number   1
_chemical_formula_structural   Tb5H46C95(N4O9)4
_chemical_formula_sum   'Tb10 H92 C190 N32 O72'
_cell_volume   5219.76223258
_cell_formula_units_Z   2
loop_
 _symmetry_equiv_pos_site_id
 _symmetry_equiv_pos_as_xyz
  1  'x, y, z'
loop_
 _atom_site_type_symbol
 _atom_site_label
 _atom_site_symmetry_multiplicity
 _atom_site_fract_x
 _atom_site_fract_y
 _atom_site_fract_z
 _atom_site_occupancy
 _atom_site_charge
Tb  Tb1  1  0.27249000  0.38611000  0.61512000  1.0 1.7112082004
Tb  Tb2  1  0.38611000  0.27249000  0.88488000  1.0 1.7112082004
Tb  Tb3  1  0.72751000  0.61389000  0.38488000  1.0 1.7112082004
Tb  Tb4  1  0.61389000  0.72751000  0.11512000  1.0 1.7112082004
Tb  Tb5  1  0.13163000  0.75465000  0.40319000  1.0 1.7732467611
Tb  Tb6  1  0.75465000  0.13163000  0.09681000  1.0 1.7732467611
Tb  Tb7  1  0.86837000  0.24535000  0.59681000  1.0 1.7732467611
Tb  Tb8  1  0.24535000  0.86837000  0.90319000  1.0 1.7764115691
Tb  Tb9  1  0.47695000  0.47695000  0.25000000  1.0 1.9994105458
Tb  Tb10  1  0.52305000  0.52305000  0.75000000  1.0 1.9994105458
H  H1  1  0.22850000  0.23590000  0.42400000  1.0 0.1306671117
H  H2  1  0.23590000  0.22850000  0.07600000  1.0 0.1306671117
H  H3  1  0.77150000  0.76410000  0.57600000  1.0 0.1306671117
H  H4  1  0.76410000  0.77150000  0.92400000  1.0 0.1306671117
H  H5  1  0.07150000  0.27910000  0.42870000  1.0 0.1194407105
H  H6  1  0.27910000  0.07150000  0.07130000  1.0 0.1194407105
H  H7  1  0.92850000  0.72090000  0.57130000  1.0 0.1194407105
H  H8  1  0.72090000  0.92850000  0.92870000  1.0 0.1194407105
H  H9  1  0.98200000  0.37380000  0.50230000  1.0 0.1389545262
H  H10  1  0.37380000  0.98200000  0.99770000  1.0 0.1389545262
H  H11  1  0.01800000  0.62620000  0.49770000  1.0 0.1389545262
H  H12  1  0.62620000  0.01800000  0.00230000  1.0 0.1306671117
H  H13  1  0.91560000  0.44520000  0.57860000  1.0 0.1389545262
H  H14  1  0.44520000  0.91560000  0.92140000  1.0 0.1389545262
H  H15  1  0.08440000  0.55480000  0.42140000  1.0 0.1389545262
H  H16  1  0.55480000  0.08440000  0.07860000  1.0 0.1389545262
H  H17  1  0.93500000  0.57000000  0.71830000  1.0 0.1389545262
H  H18  1  0.57000000  0.93500000  0.78170000  1.0 0.1389545262
H  H19  1  0.06500000  0.43000000  0.28170000  1.0 0.1389545262
H  H20  1  0.43000000  0.06500000  0.21830000  1.0 0.1389545262
H  H21  1  0.99700000  0.64560000  0.74920000  1.0 0.1306671117
H  H22  1  0.64560000  0.99700000  0.75080000  1.0 0.1306671117
H  H23  1  0.00300000  0.35440000  0.25080000  1.0 0.1306671117
H  H24  1  0.35440000  0.00300000  0.24920000  1.0 0.1306671117
H  H25  1  0.08600000  0.69760000  0.79080000  1.0 0.1306671117
H  H26  1  0.69760000  0.08600000  0.70920000  1.0 0.1306671117
H  H27  1  0.91400000  0.30240000  0.20920000  1.0 0.1306671117
H  H28  1  0.30240000  0.91400000  0.29080000  1.0 0.1306671117
H  H29  1  0.23860000  0.64080000  0.76170000  1.0 0.1389545262
H  H30  1  0.64080000  0.23860000  0.73830000  1.0 0.1389545262
H  H31  1  0.76140000  0.35920000  0.23830000  1.0 0.1389545262
H  H32  1  0.35920000  0.76140000  0.26170000  1.0 0.1389545262
H  H33  1  0.60370000  0.59290000  0.62750000  1.0 0.1102309662
H  H34  1  0.59290000  0.60370000  0.87250000  1.0 0.1102309662
H  H35  1  0.39630000  0.40710000  0.37250000  1.0 0.1102309662
H  H36  1  0.40710000  0.39630000  0.12750000  1.0 0.1102309662
H  H37  1  0.73540000  0.58080000  0.59480000  1.0 0.1389545262
H  H38  1  0.58080000  0.73540000  0.90520000  1.0 0.1389545262
H  H39  1  0.26460000  0.41920000  0.40520000  1.0 0.1389545262
H  H40  1  0.41920000  0.26460000  0.09480000  1.0 0.1389545262
H  H41  1  0.87730000  0.45770000  0.75780000  1.0 0.1389545262
H  H42  1  0.45770000  0.87730000  0.74220000  1.0 0.1389545262
H  H43  1  0.12270000  0.54230000  0.24220000  1.0 0.1389545262
H  H44  1  0.54230000  0.12270000  0.25780000  1.0 0.1389545262
H  H45  1  0.75030000  0.92790000  0.41020000  1.0 0.1389545262
H  H46  1  0.92790000  0.75030000  0.08980000  1.0 0.1389545262
H  H47  1  0.24970000  0.07210000  0.58980000  1.0 0.1389545262
H  H48  1  0.07210000  0.24970000  0.91020000  1.0 0.1389545262
H  H49  1  0.72680000  0.01960000  0.48860000  1.0 0.1306671117
H  H50  1  0.01960000  0.72680000  0.01140000  1.0 0.1306671117
H  H51  1  0.27320000  0.98040000  0.51140000  1.0 0.1306671117
H  H52  1  0.98040000  0.27320000  0.98860000  1.0 0.1306671117
H  H53  1  0.86160000  0.99460000  0.54430000  1.0 0.1467042383
H  H54  1  0.99460000  0.86160000  0.95570000  1.0 0.1467042383
H  H55  1  0.13840000  0.00540000  0.45570000  1.0 0.1467042383
H  H56  1  0.00540000  0.13840000  0.04430000  1.0 0.1467042383
H  H57  1  0.99600000  0.92720000  0.60450000  1.0 0.1389545262
H  H58  1  0.92720000  0.99600000  0.89550000  1.0 0.1389545262
H  H59  1  0.00400000  0.07280000  0.39550000  1.0 0.1389545262
H  H60  1  0.07280000  0.00400000  0.10450000  1.0 0.1389545262
H  H61  1  0.28600000  0.78600000  0.61110000  1.0 0.1467042383
H  H62  1  0.78600000  0.28600000  0.88890000  1.0 0.1467042383
H  H63  1  0.71400000  0.21400000  0.38890000  1.0 0.1467042383
H  H64  1  0.21400000  0.71400000  0.11110000  1.0 0.1467042383
H  H65  1  0.41210000  0.70570000  0.56540000  1.0 0.1467042383
H  H66  1  0.70570000  0.41210000  0.93460000  1.0 0.1467042383
H  H67  1  0.58790000  0.29430000  0.43460000  1.0 0.1467042383
H  H68  1  0.29430000  0.58790000  0.06540000  1.0 0.1467042383
H  H69  1  0.54240000  0.61720000  0.50960000  1.0 0.1306671117
H  H70  1  0.61720000  0.54240000  0.99040000  1.0 0.1306671117
H  H71  1  0.45760000  0.38280000  0.49040000  1.0 0.1306671117
H  H72  1  0.38280000  0.45760000  0.00960000  1.0 0.1306671117
H  H73  1  0.51590000  0.58070000  0.41700000  1.0 0.1467042383
H  H74  1  0.58070000  0.51590000  0.08300000  1.0 0.1467042383
H  H75  1  0.48410000  0.41930000  0.58300000  1.0 0.1467042383
H  H76  1  0.41930000  0.48410000  0.91700000  1.0 0.1467042383
H  H77  1  0.25210000  0.95850000  0.76210000  1.0 0.1194407105
H  H78  1  0.95850000  0.25210000  0.73790000  1.0 0.1194407105
H  H79  1  0.74790000  0.04150000  0.23790000  1.0 0.1194407105
H  H80  1  0.04150000  0.74790000  0.26210000  1.0 0.1194407105
H  H81  1  0.23680000  0.92780000  0.66590000  1.0 0.1306671117
H  H82  1  0.92780000  0.23680000  0.83410000  1.0 0.1306671117
H  H83  1  0.76320000  0.07220000  0.33410000  1.0 0.1306671117
H  H84  1  0.07220000  0.76320000  0.16590000  1.0 0.1306671117
H  H85  1  0.05580000  0.85760000  0.71420000  1.0 0.1389545262
H  H86  1  0.85760000  0.05580000  0.78580000  1.0 0.1389545262
H  H87  1  0.94420000  0.14240000  0.28580000  1.0 0.1389545262
H  H88  1  0.14240000  0.94420000  0.21420000  1.0 0.1389545262
H  H89  1  0.27900000  0.55780000  0.52280000  1.0 0.1306671117
H  H90  1  0.55780000  0.27900000  0.97720000  1.0 0.1306671117
H  H91  1  0.72100000  0.44220000  0.47720000  1.0 0.1306671117
H  H92  1  0.44220000  0.72100000  0.02280000  1.0 0.1306671117
C  C1  1  0.33270000  0.27850000  0.49580000  1.0 0.518825373
C  C2  1  0.27850000  0.33270000  0.00420000  1.0 0.518825373
C  C3  1  0.66730000  0.72150000  0.50420000  1.0 0.518825373
C  C4  1  0.72150000  0.66730000  0.99580000  1.0 0.518825373
C  C5  1  0.23030000  0.30250000  0.49500000  1.0 0.1102309662
C  C6  1  0.30250000  0.23030000  0.00500000  1.0 0.1102309662
C  C7  1  0.76970000  0.69750000  0.50500000  1.0 0.1102309662
C  C8  1  0.69750000  0.76970000  0.99500000  1.0 0.1102309662
C  C9  1  0.19190000  0.27270000  0.45330000  1.0 -0.1417586036
C  C10  1  0.27270000  0.19190000  0.04670000  1.0 -0.1417586036
C  C11  1  0.80810000  0.72730000  0.54670000  1.0 -0.1417586036
C  C12  1  0.72730000  0.80810000  0.95330000  1.0 -0.1417586036
C  C13  1  0.09890000  0.29850000  0.45600000  1.0 -0.0357145496
C  C14  1  0.29850000  0.09890000  0.04400000  1.0 -0.0357145496
C  C15  1  0.90110000  0.70150000  0.54400000  1.0 -0.0288634007
C  C16  1  0.70150000  0.90110000  0.95600000  1.0 -0.0357145496
C  C17  1  0.04574000  0.35434000  0.50020000  1.0 -0.1609660881
C  C18  1  0.35434000  0.04574000  0.99980000  1.0 -0.1609660881
C  C19  1  0.95426000  0.64566000  0.49980000  1.0 -0.1609660881
C  C20  1  0.64566000  0.95426000  0.00020000  1.0 -0.1609660881
C  C21  1  0.08946000  0.38046000  0.54090000  1.0 0.1783698012
C  C22  1  0.38046000  0.08946000  0.95910000  1.0 0.1783698012
C  C23  1  0.91054000  0.61954000  0.45910000  1.0 0.1783698012
C  C24  1  0.61954000  0.91054000  0.04090000  1.0 0.1783698012
C  C25  1  0.04035000  0.43775000  0.59050000  1.0 0.1968575714
C  C26  1  0.43775000  0.04035000  0.90950000  1.0 0.1968575714
C  C27  1  0.95965000  0.56225000  0.40950000  1.0 0.1968575714
C  C28  1  0.56225000  0.95965000  0.09050000  1.0 0.1968575714
C  C29  1  0.95000000  0.46060000  0.60330000  1.0 -0.1804386684
C  C30  1  0.46060000  0.95000000  0.89670000  1.0 -0.1804386684
C  C31  1  0.05000000  0.53940000  0.39670000  1.0 -0.1804386684
C  C32  1  0.53940000  0.05000000  0.10330000  1.0 -0.1804386684
C  C33  1  0.91184000  0.50664000  0.65320000  1.0 0.1306671117
C  C34  1  0.50664000  0.91184000  0.84680000  1.0 0.1306671117
C  C35  1  0.08816000  0.49336000  0.34680000  1.0 0.1306671117
C  C36  1  0.49336000  0.08816000  0.15320000  1.0 0.1306671117
C  C37  1  0.96000000  0.53720000  0.68530000  1.0 -0.2185146153
C  C38  1  0.53720000  0.96000000  0.81470000  1.0 -0.2185146153
C  C39  1  0.04000000  0.46280000  0.31470000  1.0 -0.2185146153
C  C40  1  0.46280000  0.04000000  0.18530000  1.0 -0.2185146153
C  C41  1  0.04633000  0.51853000  0.66760000  1.0 0.1914088934
C  C42  1  0.51853000  0.04633000  0.83240000  1.0 0.1914088934
C  C43  1  0.95367000  0.48147000  0.33240000  1.0 0.1914088934
C  C44  1  0.48147000  0.95367000  0.16760000  1.0 0.1914088934
C  C45  1  0.09826000  0.55586000  0.69730000  1.0 0.1690156818
C  C46  1  0.55586000  0.09826000  0.80270000  1.0 0.1690156818
C  C47  1  0.90174000  0.44414000  0.30270000  1.0 0.1690156818
C  C48  1  0.44414000  0.90174000  0.19730000  1.0 0.1690156818
C  C49  1  0.05870000  0.62230000  0.73830000  1.0 -0.1677649156
C  C50  1  0.62230000  0.05870000  0.76170000  1.0 -0.1609660881
C  C51  1  0.94130000  0.37770000  0.26170000  1.0 -0.1609660881
C  C52  1  0.37770000  0.94130000  0.23830000  1.0 -0.1677649156
C  C53  1  0.11150000  0.65350000  0.76270000  1.0 -0.0081028161
C  C54  1  0.65350000  0.11150000  0.73730000  1.0 -0.0081028161
C  C55  1  0.88850000  0.34650000  0.23730000  1.0 -0.0081028161
C  C56  1  0.34650000  0.88850000  0.26270000  1.0 -0.0081028161
C  C57  1  0.20201000  0.62001000  0.74560000  1.0 -0.1276984659
C  C58  1  0.62001000  0.20201000  0.75440000  1.0 -0.1276984659
C  C59  1  0.79799000  0.37999000  0.25440000  1.0 -0.1276984659
C  C60  1  0.37999000  0.79799000  0.24560000  1.0 -0.1276984659
C  C61  1  0.23667000  0.55467000  0.70410000  1.0 0.1039177015
C  C62  1  0.55467000  0.23667000  0.79590000  1.0 0.1039177015
C  C63  1  0.76333000  0.44533000  0.29590000  1.0 0.1039177015
C  C64  1  0.44533000  0.76333000  0.20410000  1.0 0.1039177015
C  C65  1  0.33637000  0.51077000  0.68290000  1.0 0.5929716885
C  C66  1  0.51077000  0.33637000  0.81710000  1.0 0.5929716885
C  C67  1  0.66363000  0.48923000  0.31710000  1.0 0.5929716885
C  C68  1  0.48923000  0.66363000  0.18290000  1.0 0.5929716885
C  C69  1  0.66012000  0.56412000  0.65370000  1.0 0.1102309662
C  C70  1  0.56412000  0.66012000  0.84630000  1.0 0.1102309662
C  C71  1  0.33988000  0.43588000  0.34630000  1.0 0.1102309662
C  C72  1  0.43588000  0.33988000  0.15370000  1.0 0.1102309662
C  C73  1  0.73829000  0.55809000  0.63370000  1.0 -0.1609660881
C  C74  1  0.55809000  0.73829000  0.86630000  1.0 -0.1609660881
C  C75  1  0.26171000  0.44191000  0.36630000  1.0 -0.1609660881
C  C76  1  0.44191000  0.26171000  0.13370000  1.0 -0.1609660881
C  C77  1  0.82242000  0.51742000  0.67280000  1.0 0.1194407105
C  C78  1  0.51742000  0.82242000  0.82720000  1.0 0.1194407105
C  C79  1  0.17758000  0.48258000  0.32720000  1.0 0.1194407105
C  C80  1  0.48258000  0.17758000  0.17280000  1.0 0.1194407105
C  C81  1  0.82277000  0.48417000  0.73020000  1.0 -0.1677649156
C  C82  1  0.48417000  0.82277000  0.76980000  1.0 -0.1677649156
C  C83  1  0.17723000  0.51583000  0.26980000  1.0 -0.1677649156
C  C84  1  0.51583000  0.17723000  0.23020000  1.0 -0.1677649156
C  C85  1  0.74103000  0.49083000  0.74590000  1.0 0.1194407105
C  C86  1  0.49083000  0.74103000  0.75410000  1.0 0.1194407105
C  C87  1  0.25897000  0.50917000  0.25410000  1.0 0.1194407105
C  C88  1  0.50917000  0.25897000  0.24590000  1.0 0.1194407105
C  C89  1  0.74007000  0.44907000  0.80670000  1.0 0.5324637651
C  C90  1  0.44907000  0.74007000  0.69330000  1.0 0.5324637651
C  C91  1  0.25993000  0.55093000  0.19330000  1.0 0.5324637651
C  C92  1  0.55093000  0.25993000  0.30670000  1.0 0.5324637651
C  C93  1  0.92313000  0.79013000  0.36960000  1.0 0.5324637651
C  C94  1  0.79013000  0.92313000  0.13040000  1.0 0.5324637651
C  C95  1  0.07687000  0.20987000  0.63040000  1.0 0.5324637651
C  C96  1  0.20987000  0.07687000  0.86960000  1.0 0.5324637651
C  C97  1  0.89747000  0.85707000  0.41740000  1.0 0.1102309662
C  C98  1  0.85707000  0.89747000  0.08260000  1.0 0.1102309662
C  C99  1  0.10253000  0.14293000  0.58260000  1.0 0.1102309662
C  C100  1  0.14293000  0.10253000  0.91740000  1.0 0.1102309662
C  C101  1  0.80290000  0.92110000  0.43180000  1.0 -0.1417586036
C  C102  1  0.92110000  0.80290000  0.06820000  1.0 -0.1417586036
C  C103  1  0.19710000  0.07890000  0.56820000  1.0 -0.1417586036
C  C104  1  0.07890000  0.19710000  0.93180000  1.0 -0.1417586036
C  C105  1  0.78950000  0.97430000  0.47900000  1.0 -0.0288634007
C  C106  1  0.97430000  0.78950000  0.02100000  1.0 -0.0288634007
C  C107  1  0.21050000  0.02570000  0.52100000  1.0 -0.0288634007
C  C108  1  0.02570000  0.21050000  0.97900000  1.0 -0.0288634007
C  C109  1  0.86950000  0.96010000  0.51200000  1.0 -0.1609660881
C  C110  1  0.96010000  0.86950000  0.98800000  1.0 -0.1609660881
C  C111  1  0.13050000  0.03990000  0.48800000  1.0 -0.1609660881
C  C112  1  0.03990000  0.13050000  0.01200000  1.0 -0.1609660881
C  C113  1  0.96127000  0.89367000  0.49570000  1.0 0.1783698012
C  C114  1  0.89367000  0.96127000  0.00430000  1.0 0.1783698012
C  C115  1  0.03873000  0.10633000  0.50430000  1.0 0.1783698012
C  C116  1  0.10633000  0.03873000  0.99570000  1.0 0.1783698012
C  C117  1  0.05374000  0.86554000  0.52980000  1.0 0.1968575714
C  C118  1  0.86554000  0.05374000  0.97020000  1.0 0.1968575714
C  C119  1  0.94626000  0.13446000  0.47020000  1.0 0.1968575714
C  C120  1  0.13446000  0.94626000  0.02980000  1.0 0.1968575714
C  C121  1  0.05383000  0.89083000  0.58730000  1.0 -0.2040131629
C  C122  1  0.89083000  0.05383000  0.91270000  1.0 -0.2040131629
C  C123  1  0.94617000  0.10917000  0.41270000  1.0 -0.2040131629
C  C124  1  0.10917000  0.94617000  0.08730000  1.0 -0.2040131629
C  C125  1  0.14187000  0.86067000  0.61820000  1.0 0.1194407105
C  C126  1  0.86067000  0.14187000  0.88180000  1.0 0.1194407105
C  C127  1  0.85813000  0.13933000  0.38180000  1.0 0.1194407105
C  C128  1  0.13933000  0.85813000  0.11820000  1.0 0.1194407105
C  C129  1  0.22630000  0.80630000  0.59130000  1.0 -0.2052169681
C  C130  1  0.80630000  0.22630000  0.90870000  1.0 -0.2040131629
C  C131  1  0.77370000  0.19370000  0.40870000  1.0 -0.2040131629
C  C132  1  0.19370000  0.77370000  0.09130000  1.0 -0.2052169681
C  C133  1  0.22154000  0.78194000  0.53400000  1.0 0.1968575714
C  C134  1  0.78194000  0.22154000  0.96600000  1.0 0.1968575714
C  C135  1  0.77846000  0.21806000  0.46600000  1.0 0.1968575714
C  C136  1  0.21806000  0.77846000  0.03400000  1.0 0.1968575714
C  C137  1  0.31035000  0.72195000  0.50360000  1.0 0.1783698012
C  C138  1  0.72195000  0.31035000  0.99640000  1.0 0.1783698012
C  C139  1  0.68965000  0.27805000  0.49640000  1.0 0.1783698012
C  C140  1  0.27805000  0.68965000  0.00360000  1.0 0.1783698012
C  C141  1  0.40250000  0.69110000  0.52790000  1.0 -0.1417586036
C  C142  1  0.69110000  0.40250000  0.97210000  1.0 -0.1417586036
C  C143  1  0.59750000  0.30890000  0.47210000  1.0 -0.1417586036
C  C144  1  0.30890000  0.59750000  0.02790000  1.0 -0.1417586036
C  C145  1  0.47990000  0.63790000  0.49470000  1.0 -0.024845881
C  C146  1  0.63790000  0.47990000  0.00530000  1.0 -0.024845881
C  C147  1  0.52010000  0.36210000  0.50530000  1.0 -0.024845881
C  C148  1  0.36210000  0.52010000  0.99470000  1.0 -0.024845881
C  C149  1  0.46470000  0.61570000  0.43980000  1.0 -0.1248074413
C  C150  1  0.61570000  0.46470000  0.06020000  1.0 -0.1248074413
C  C151  1  0.53530000  0.38430000  0.56020000  1.0 -0.1248074413
C  C152  1  0.38430000  0.53530000  0.93980000  1.0 -0.1248074413
C  C153  1  0.37273000  0.64613000  0.41960000  1.0 0.1102309662
C  C154  1  0.64613000  0.37273000  0.08040000  1.0 0.1102309662
C  C155  1  0.62727000  0.35387000  0.58040000  1.0 0.1102309662
C  C156  1  0.35387000  0.62727000  0.91960000  1.0 0.1102309662
C  C157  1  0.34641000  0.62541000  0.35970000  1.0 0.5929716885
C  C158  1  0.62541000  0.34641000  0.14030000  1.0 0.5929716885
C  C159  1  0.65359000  0.37459000  0.64030000  1.0 0.5929716885
C  C160  1  0.37459000  0.65359000  0.85970000  1.0 0.5929716885
C  C161  1  0.21463000  0.93543000  0.75240000  1.0 0.1194407105
C  C162  1  0.93543000  0.21463000  0.74760000  1.0 0.1194407105
C  C163  1  0.78537000  0.06457000  0.24760000  1.0 0.1194407105
C  C164  1  0.06457000  0.78537000  0.25240000  1.0 0.1194407105
C  C165  1  0.20478000  0.91818000  0.69440000  1.0 -0.1677649156
C  C166  1  0.91818000  0.20478000  0.80560000  1.0 -0.1677649156
C  C167  1  0.79522000  0.08182000  0.30560000  1.0 -0.1677649156
C  C168  1  0.08182000  0.79522000  0.19440000  1.0 -0.1677649156
C  C169  1  0.14690000  0.88670000  0.67930000  1.0 0.1194407105
C  C170  1  0.88670000  0.14690000  0.82070000  1.0 0.1194407105
C  C171  1  0.85310000  0.11330000  0.32070000  1.0 0.1194407105
C  C172  1  0.11330000  0.85310000  0.17930000  1.0 0.1194407105
C  C173  1  0.09795000  0.87535000  0.72320000  1.0 -0.1804386684
C  C174  1  0.87535000  0.09795000  0.77680000  1.0 -0.1804386684
C  C175  1  0.90205000  0.12465000  0.27680000  1.0 -0.1804386684
C  C176  1  0.12465000  0.90205000  0.22320000  1.0 -0.1804386684
C  C177  1  0.11374000  0.89134000  0.78020000  1.0 0.1102309662
C  C178  1  0.89134000  0.11374000  0.71980000  1.0 0.1102309662
C  C179  1  0.88626000  0.10866000  0.21980000  1.0 0.1102309662
C  C180  1  0.10866000  0.88626000  0.28020000  1.0 0.1102309662
C  C181  1  0.07048000  0.87328000  0.83160000  1.0 0.5324637651
C  C182  1  0.87328000  0.07048000  0.66840000  1.0 0.5324637651
C  C183  1  0.92952000  0.12672000  0.16840000  1.0 0.5324637651
C  C184  1  0.12672000  0.92952000  0.33160000  1.0 0.5324637651
C  C185  1  0.21988000  0.56688000  0.51200000  1.0 0.5324637651
C  C186  1  0.56688000  0.21988000  0.98800000  1.0 0.5324637651
C  C187  1  0.78012000  0.43312000  0.48800000  1.0 0.5324637651
C  C188  1  0.43312000  0.78012000  0.01200000  1.0 0.5324637651
C  C189  1  0.28300000  0.28300000  0.75000000  1.0 0.4572319597
C  C190  1  0.71700000  0.71700000  0.25000000  1.0 0.4572319597
N  N1  1  0.18078000  0.35578000  0.53830000  1.0 -0.3645609558
N  N2  1  0.35578000  0.18078000  0.96170000  1.0 -0.3645609558
N  N3  1  0.81922000  0.64422000  0.46170000  1.0 -0.3645609558
N  N4  1  0.64422000  0.81922000  0.03830000  1.0 -0.3645609558
N  N5  1  0.08934000  0.46454000  0.62290000  1.0 -0.3919742247
N  N6  1  0.46454000  0.08934000  0.87710000  1.0 -0.3919742247
N  N7  1  0.91066000  0.53546000  0.37710000  1.0 -0.3919742247
N  N8  1  0.53546000  0.91066000  0.12290000  1.0 -0.3919742247
N  N9  1  0.18585000  0.52325000  0.67991000  1.0 -0.4044521094
N  N10  1  0.52325000  0.18585000  0.82009000  1.0 -0.4044521094
N  N11  1  0.81415000  0.47675000  0.32009000  1.0 -0.4044521094
N  N12  1  0.47675000  0.81415000  0.17991000  1.0 -0.4044521094
N  N13  1  0.65965000  0.53105000  0.70888000  1.0 -0.349835822
N  N14  1  0.53105000  0.65965000  0.79112000  1.0 -0.349835822
N  N15  1  0.34035000  0.46895000  0.29112000  1.0 -0.349835822
N  N16  1  0.46895000  0.34035000  0.20888000  1.0 -0.349835822
N  N17  1  0.97455000  0.84575000  0.44817000  1.0 -0.3919742247
N  N18  1  0.84575000  0.97455000  0.05183000  1.0 -0.3919742247
N  N19  1  0.02545000  0.15425000  0.55183000  1.0 -0.3919742247
N  N20  1  0.15425000  0.02545000  0.94817000  1.0 -0.3919742247
N  N21  1  0.13595000  0.81135000  0.50408000  1.0 -0.3845529795
N  N22  1  0.81135000  0.13595000  0.99592000  1.0 -0.3845529795
N  N23  1  0.86405000  0.18865000  0.49592000  1.0 -0.3845529795
N  N24  1  0.18865000  0.86405000  0.00408000  1.0 -0.3845529795
N  N25  1  0.29589000  0.69929000  0.45014000  1.0 -0.3919742247
N  N26  1  0.69929000  0.29589000  0.04986000  1.0 -0.3919742247
N  N27  1  0.70411000  0.30071000  0.54986000  1.0 -0.3919742247
N  N28  1  0.30071000  0.70411000  0.95014000  1.0 -0.3919742247
N  N29  1  0.17106000  0.91966000  0.79512000  1.0 -0.3387059361
N  N30  1  0.91966000  0.17106000  0.70488000  1.0 -0.3387059361
N  N31  1  0.82894000  0.08034000  0.20488000  1.0 -0.3387059361
N  N32  1  0.08034000  0.82894000  0.29512000  1.0 -0.3387059361
O  O1  1  0.35372000  0.31892000  0.53140000  1.0 -0.5896458716
O  O2  1  0.31892000  0.35372000  0.96860000  1.0 -0.5896458716
O  O3  1  0.64628000  0.68108000  0.46860000  1.0 -0.5896458716
O  O4  1  0.68108000  0.64628000  0.03140000  1.0 -0.5896458716
O  O5  1  0.38580000  0.22300000  0.46130000  1.0 -0.4786432401
O  O6  1  0.22300000  0.38580000  0.03870000  1.0 -0.4786432401
O  O7  1  0.61420000  0.77700000  0.53870000  1.0 -0.4786432401
O  O8  1  0.77700000  0.61420000  0.96130000  1.0 -0.4786432401
O  O9  1  0.36053000  0.45033000  0.64571000  1.0 -0.5896458716
O  O10  1  0.45033000  0.36053000  0.85429000  1.0 -0.5896458716
O  O11  1  0.63947000  0.54967000  0.35429000  1.0 -0.5896458716
O  O12  1  0.54967000  0.63947000  0.14571000  1.0 -0.5896458716
O  O13  1  0.38553000  0.53813000  0.70450000  1.0 -0.5980603933
O  O14  1  0.53813000  0.38553000  0.79550000  1.0 -0.5980603933
O  O15  1  0.61447000  0.46187000  0.29550000  1.0 -0.5980603933
O  O16  1  0.46187000  0.61447000  0.20450000  1.0 -0.5980603933
O  O17  1  0.80712000  0.42252000  0.84590000  1.0 -0.5187209487
O  O18  1  0.42252000  0.80712000  0.65410000  1.0 -0.5187209487
O  O19  1  0.19288000  0.57748000  0.15410000  1.0 -0.5187209487
O  O20  1  0.57748000  0.19288000  0.34590000  1.0 -0.5187209487
O  O21  1  0.66763000  0.44443000  0.81302000  1.0 -0.6655282617
O  O22  1  0.44443000  0.66763000  0.68698000  1.0 -0.6655282617
O  O23  1  0.33237000  0.55557000  0.18698000  1.0 -0.6655282617
O  O24  1  0.55557000  0.33237000  0.31302000  1.0 -0.6655282617
O  O25  1  0.01365000  0.73425000  0.36362000  1.0 -0.6431994379
O  O26  1  0.73425000  0.01365000  0.13638000  1.0 -0.6431994379
O  O27  1  0.98635000  0.26575000  0.63638000  1.0 -0.6431994379
O  O28  1  0.26575000  0.98635000  0.86362000  1.0 -0.6431994379
O  O29  1  0.85790000  0.79070000  0.34055000  1.0 -0.4864104331
O  O30  1  0.79070000  0.85790000  0.15945000  1.0 -0.4864104331
O  O31  1  0.14210000  0.20930000  0.65945000  1.0 -0.4864104331
O  O32  1  0.20930000  0.14210000  0.84055000  1.0 -0.4864104331
O  O33  1  0.25870000  0.65770000  0.34681000  1.0 -0.6090169937
O  O34  1  0.65770000  0.25870000  0.15319000  1.0 -0.6090169937
O  O35  1  0.74130000  0.34230000  0.65319000  1.0 -0.6090169937
O  O36  1  0.34230000  0.74130000  0.84681000  1.0 -0.6090169937
O  O37  1  0.41416000  0.57736000  0.32860000  1.0 -0.6090169937
O  O38  1  0.57736000  0.41416000  0.17140000  1.0 -0.6090169937
O  O39  1  0.58584000  0.42264000  0.67140000  1.0 -0.6090169937
O  O40  1  0.42264000  0.58584000  0.82860000  1.0 -0.6090169937
O  O41  1  0.00581000  0.86201000  0.82193000  1.0 -0.4998367966
O  O42  1  0.86201000  0.00581000  0.67807000  1.0 -0.4998367966
O  O43  1  0.99419000  0.13799000  0.17807000  1.0 -0.4998367966
O  O44  1  0.13799000  0.99419000  0.32193000  1.0 -0.4998367966
O  O45  1  0.10699000  0.87239000  0.88336000  1.0 -0.6771565914
O  O46  1  0.87239000  0.10699000  0.61664000  1.0 -0.6771565914
O  O47  1  0.89301000  0.12761000  0.11664000  1.0 -0.6771565914
O  O48  1  0.12761000  0.89301000  0.38336000  1.0 -0.6771565914
O  O49  1  0.19889000  0.52369000  0.54445000  1.0 -0.5392320991
O  O50  1  0.52369000  0.19889000  0.95555000  1.0 -0.5392320991
O  O51  1  0.80111000  0.47631000  0.45555000  1.0 -0.5392320991
O  O52  1  0.47631000  0.80111000  0.04445000  1.0 -0.5392320991
O  O53  1  0.17279000  0.62139000  0.46649000  1.0 -0.5697262228
O  O54  1  0.62139000  0.17279000  0.03351000  1.0 -0.5697262228
O  O55  1  0.82721000  0.37861000  0.53351000  1.0 -0.5697262228
O  O56  1  0.37861000  0.82721000  0.96649000  1.0 -0.5697262228
O  O57  1  0.30230000  0.33070000  0.71860000  1.0 0.0101890735
O  O58  1  0.33070000  0.30230000  0.78140000  1.0 0.0101890735
O  O59  1  0.69770000  0.66930000  0.28140000  1.0 0.0101890735
O  O60  1  0.66930000  0.69770000  0.21860000  1.0 0.0101890735
O  O61  1  0.44090000  0.24710000  0.64530000  1.0 -0.2790855507
O  O62  1  0.24710000  0.44090000  0.85470000  1.0 -0.2790855507
O  O63  1  0.55910000  0.75290000  0.35470000  1.0 -0.2790855507
O  O64  1  0.75290000  0.55910000  0.14530000  1.0 -0.2854654134
O  O65  1  0.29940000  0.21960000  0.62340000  1.0 -0.1804386684
O  O66  1  0.21960000  0.29940000  0.87660000  1.0 -0.1859014273
O  O67  1  0.70060000  0.78040000  0.37660000  1.0 -0.1804386684
O  O68  1  0.78040000  0.70060000  0.12340000  1.0 -0.1804386684
O  O69  1  0.31360000  0.25800000  0.80280000  1.0 -0.2277833313
O  O70  1  0.25800000  0.31360000  0.69720000  1.0 -0.2277833313
O  O71  1  0.68640000  0.74200000  0.19720000  1.0 -0.2277833313
O  O72  1  0.74200000  0.68640000  0.30280000  1.0 -0.2277833313
