# DDEC6 charges by PACMAN v1.1 (https://github.com/mtap-research/PACMAN-charge/)
data_BUVVOF_ASR_pacman
_symmetry_space_group_name_H-M   'P 1'
_cell_length_a   16.76560000
_cell_length_b   16.76560000
_cell_length_c   22.62060000
_cell_angle_alpha   86.51500000
_cell_angle_beta   93.48500000
_cell_angle_gamma   55.12280000
_symmetry_Int_Tables_number   1
_chemical_formula_structural   Dy7H48C94(N4O9)4
_chemical_formula_sum   'Dy14 H96 C188 N32 O72'
_cell_volume   5171.02390405
_cell_formula_units_Z   2
loop_
 _symmetry_equiv_pos_site_id
 _symmetry_equiv_pos_as_xyz
  1  'x, y, z'
loop_
 _atom_site_type_symbol
 _atom_site_label
 _atom_site_symmetry_multiplicity
 _atom_site_fract_x
 _atom_site_fract_y
 _atom_site_fract_z
 _atom_site_occupancy
 _atom_site_charge
Dy  Dy1  1  0.47488000  0.47488000  0.75000000  1.0 2.0056167198
Dy  Dy2  1  0.52512000  0.52512000  0.25000000  1.0 2.0034151627
Dy  Dy3  1  0.75198000  0.13264000  0.59666000  1.0 1.7872614516
Dy  Dy4  1  0.13264000  0.75198000  0.90334000  1.0 1.7872614516
Dy  Dy5  1  0.24802000  0.86736000  0.40334000  1.0 1.7872614516
Dy  Dy6  1  0.86736000  0.24802000  0.09666000  1.0 1.7872614516
Dy  Dy7  1  0.38843000  0.27303000  0.38176000  1.0 0.8181094481
Dy  Dy8  1  0.27303000  0.38843000  0.11824000  1.0 0.812549944
Dy  Dy9  1  0.61157000  0.72697000  0.61824000  1.0 0.8181094481
Dy  Dy10  1  0.72697000  0.61157000  0.88176000  1.0 0.8181094481
Dy  Dy11  1  0.57580000  0.74000000  0.60570000  1.0 0.7010628683
Dy  Dy12  1  0.74000000  0.57580000  0.89430000  1.0 0.7010628683
Dy  Dy13  1  0.42420000  0.26000000  0.39430000  1.0 0.7010628683
Dy  Dy14  1  0.26000000  0.42420000  0.10570000  1.0 0.7010628683
H  H1  1  0.40540000  0.39520000  0.62680000  1.0 0.1102341102
H  H2  1  0.39520000  0.40540000  0.87320000  1.0 0.1102341102
H  H3  1  0.59460000  0.60480000  0.37320000  1.0 0.1102341102
H  H4  1  0.60480000  0.59460000  0.12680000  1.0 0.1102341102
H  H5  1  0.53950000  0.12070000  0.75900000  1.0 0.1391135971
H  H6  1  0.12070000  0.53950000  0.74100000  1.0 0.1391135971
H  H7  1  0.46050000  0.87930000  0.24100000  1.0 0.1391135971
H  H8  1  0.87930000  0.46050000  0.25900000  1.0 0.1391135971
H  H9  1  0.41500000  0.26360000  0.59410000  1.0 0.1391135971
H  H10  1  0.26360000  0.41500000  0.90590000  1.0 0.1391135971
H  H11  1  0.58500000  0.73640000  0.40590000  1.0 0.1391135971
H  H12  1  0.73640000  0.58500000  0.09410000  1.0 0.1391135971
H  H13  1  0.57560000  0.51840000  0.58260000  1.0 0.1391135971
H  H14  1  0.51840000  0.57560000  0.91740000  1.0 0.1391135971
H  H15  1  0.42440000  0.48160000  0.41740000  1.0 0.1391135971
H  H16  1  0.48160000  0.42440000  0.08260000  1.0 0.1391135971
H  H17  1  0.61450000  0.54310000  0.48930000  1.0 0.1189273516
H  H18  1  0.54310000  0.61450000  0.01070000  1.0 0.1189273516
H  H19  1  0.38550000  0.45690000  0.51070000  1.0 0.1189273516
H  H20  1  0.45690000  0.38550000  0.98930000  1.0 0.1189273516
H  H21  1  0.55670000  0.07910000  0.58020000  1.0 0.1391135971
H  H22  1  0.07910000  0.55670000  0.91980000  1.0 0.1391135971
H  H23  1  0.44330000  0.92090000  0.41980000  1.0 0.1391135971
H  H24  1  0.92090000  0.44330000  0.08020000  1.0 0.1391135971
H  H25  1  0.42620000  0.06440000  0.71940000  1.0 0.1391135971
H  H26  1  0.06440000  0.42620000  0.78060000  1.0 0.1391135971
H  H27  1  0.57380000  0.93560000  0.28060000  1.0 0.1391135971
H  H28  1  0.93560000  0.57380000  0.21940000  1.0 0.1391135971
H  H29  1  0.69840000  0.41640000  0.43350000  1.0 0.1516198817
H  H30  1  0.41640000  0.69840000  0.06650000  1.0 0.1516198817
H  H31  1  0.30160000  0.58360000  0.56650000  1.0 0.1516198817
H  H32  1  0.58360000  0.30160000  0.93350000  1.0 0.1516198817
H  H33  1  0.54560000  0.28120000  0.48030000  1.0 0.1670492636
H  H34  1  0.28120000  0.54560000  0.01970000  1.0 0.1670492636
H  H35  1  0.45440000  0.71880000  0.51970000  1.0 0.1670492636
H  H36  1  0.71880000  0.45440000  0.98030000  1.0 0.1670492636
H  H37  1  0.78230000  0.28690000  0.38840000  1.0 0.1516198817
H  H38  1  0.28690000  0.78230000  0.11160000  1.0 0.1516198817
H  H39  1  0.21770000  0.71310000  0.61160000  1.0 0.1516198817
H  H40  1  0.71310000  0.21770000  0.88840000  1.0 0.1516198817
H  H41  1  0.92570000  0.99690000  0.39640000  1.0 0.128556774
H  H42  1  0.99690000  0.92570000  0.10360000  1.0 0.128556774
H  H43  1  0.07430000  0.00310000  0.60360000  1.0 0.128556774
H  H44  1  0.00310000  0.07430000  0.89640000  1.0 0.128556774
H  H45  1  0.99590000  0.85950000  0.45950000  1.0 0.128556774
H  H46  1  0.85950000  0.99590000  0.04050000  1.0 0.128556774
H  H47  1  0.00410000  0.14050000  0.54050000  1.0 0.128556774
H  H48  1  0.14050000  0.00410000  0.95950000  1.0 0.128556774
H  H49  1  0.92720000  0.75160000  0.59320000  1.0 0.1516198817
H  H50  1  0.75160000  0.92720000  0.90680000  1.0 0.1516198817
H  H51  1  0.07280000  0.24840000  0.40680000  1.0 0.1516198817
H  H52  1  0.24840000  0.07280000  0.09320000  1.0 0.1516198817
H  H53  1  0.02040000  0.72720000  0.51540000  1.0 0.128556774
H  H54  1  0.72720000  0.02040000  0.98460000  1.0 0.128556774
H  H55  1  0.97960000  0.27280000  0.48460000  1.0 0.128556774
H  H56  1  0.27280000  0.97960000  0.01540000  1.0 0.128556774
H  H57  1  0.63180000  0.00960000  0.50510000  1.0 0.1391135971
H  H58  1  0.00960000  0.63180000  0.99490000  1.0 0.1391135971
H  H59  1  0.36820000  0.99040000  0.49490000  1.0 0.1391135971
H  H60  1  0.99040000  0.36820000  0.00510000  1.0 0.1391135971
H  H61  1  0.35420000  0.00000000  0.75160000  1.0 0.128556774
H  H62  1  0.00000000  0.35420000  0.74840000  1.0 0.128556774
H  H63  1  0.64580000  0.00000000  0.24840000  1.0 0.128556774
H  H64  1  0.00000000  0.64580000  0.25160000  1.0 0.128556774
H  H65  1  0.72210000  0.91970000  0.43030000  1.0 0.128556774
H  H66  1  0.91970000  0.72210000  0.06970000  1.0 0.128556774
H  H67  1  0.27790000  0.08030000  0.56970000  1.0 0.128556774
H  H68  1  0.08030000  0.27790000  0.93030000  1.0 0.128556774
H  H69  1  0.30730000  0.90770000  0.79800000  1.0 0.0970819117
H  H70  1  0.90770000  0.30730000  0.70200000  1.0 0.0970819117
H  H71  1  0.69270000  0.09230000  0.20200000  1.0 0.0970819117
H  H72  1  0.09230000  0.69270000  0.29800000  1.0 0.0970819117
H  H73  1  0.92800000  0.23600000  0.33550000  1.0 0.1391135971
H  H74  1  0.23600000  0.92800000  0.16450000  1.0 0.1391135971
H  H75  1  0.07200000  0.76400000  0.66450000  1.0 0.1391135971
H  H76  1  0.76400000  0.07200000  0.83550000  1.0 0.1391135971
H  H77  1  0.85540000  0.05700000  0.28500000  1.0 0.128556774
H  H78  1  0.05700000  0.85540000  0.21500000  1.0 0.128556774
H  H79  1  0.14460000  0.94300000  0.71500000  1.0 0.128556774
H  H80  1  0.94300000  0.14460000  0.78500000  1.0 0.128556774
H  H81  1  0.77050000  0.76170000  0.43130000  1.0 0.1391135971
H  H82  1  0.76170000  0.77050000  0.06870000  1.0 0.1391135971
H  H83  1  0.22950000  0.23830000  0.56870000  1.0 0.1391135971
H  H84  1  0.23830000  0.22950000  0.93130000  1.0 0.1391135971
H  H85  1  0.35850000  0.75870000  0.76330000  1.0 0.1391135971
H  H86  1  0.75870000  0.35850000  0.73670000  1.0 0.1391135971
H  H87  1  0.64150000  0.24130000  0.23670000  1.0 0.1391135971
H  H88  1  0.24130000  0.64150000  0.26330000  1.0 0.1391135971
H  H89  1  0.95520000  0.25480000  0.23800000  1.0 0.1189273516
H  H90  1  0.25480000  0.95520000  0.26200000  1.0 0.1189273516
H  H91  1  0.04480000  0.74520000  0.76200000  1.0 0.1189273516
H  H92  1  0.74520000  0.04480000  0.73800000  1.0 0.1189273516
H  H93  1  0.81130000  0.02090000  0.15680000  1.0 0.3240444986
H  H94  1  0.02090000  0.81130000  0.34320000  1.0 0.3240444986
H  H95  1  0.18870000  0.97910000  0.84320000  1.0 0.3240444986
H  H96  1  0.97910000  0.18870000  0.65680000  1.0 0.3240444986
C  C1  1  0.50720000  0.25720000  0.74660000  1.0 0.128556774
C  C2  1  0.25720000  0.50720000  0.75340000  1.0 0.128556774
C  C3  1  0.49280000  0.74280000  0.25340000  1.0 0.128556774
C  C4  1  0.74280000  0.49280000  0.24660000  1.0 0.128556774
C  C5  1  0.43380000  0.33860000  0.65330000  1.0 0.1189273516
C  C6  1  0.33860000  0.43380000  0.84670000  1.0 0.1189273516
C  C7  1  0.56620000  0.66140000  0.34670000  1.0 0.1189273516
C  C8  1  0.66140000  0.56620000  0.15330000  1.0 0.1189273516
C  C9  1  0.54960000  0.25760000  0.80820000  1.0 0.5303185536
C  C10  1  0.25760000  0.54960000  0.69180000  1.0 0.5303185536
C  C11  1  0.45040000  0.74240000  0.19180000  1.0 0.5303185536
C  C12  1  0.74240000  0.45040000  0.30820000  1.0 0.5303185536
C  C13  1  0.62040000  0.34820000  0.63940000  1.0 0.6003263323
C  C14  1  0.34820000  0.62040000  0.86060000  1.0 0.6003263323
C  C15  1  0.37960000  0.65180000  0.36060000  1.0 0.6003263323
C  C16  1  0.65180000  0.37960000  0.13940000  1.0 0.6003263323
C  C17  1  0.51360000  0.17520000  0.73100000  1.0 -0.1697528319
C  C18  1  0.17520000  0.51360000  0.76900000  1.0 -0.1697528319
C  C19  1  0.48640000  0.82480000  0.26900000  1.0 -0.1697528319
C  C20  1  0.82480000  0.48640000  0.23100000  1.0 -0.1697528319
C  C21  1  0.43870000  0.26030000  0.63310000  1.0 -0.1697528319
C  C22  1  0.26030000  0.43870000  0.86690000  1.0 -0.1697528319
C  C23  1  0.56130000  0.73970000  0.36690000  1.0 -0.1697528319
C  C24  1  0.73970000  0.56130000  0.13310000  1.0 -0.1697528319
C  C25  1  0.64170000  0.37390000  0.57960000  1.0 0.0970819117
C  C26  1  0.37390000  0.64170000  0.92040000  1.0 0.0970819117
C  C27  1  0.35830000  0.62610000  0.42040000  1.0 0.0970819117
C  C28  1  0.62610000  0.35830000  0.07960000  1.0 0.0970819117
C  C29  1  0.48090000  0.17530000  0.67330000  1.0 0.1189273516
C  C30  1  0.17530000  0.48090000  0.82670000  1.0 0.1189273516
C  C31  1  0.51910000  0.82470000  0.32670000  1.0 0.1189273516
C  C32  1  0.82470000  0.51910000  0.17330000  1.0 0.1189273516
C  C33  1  0.61070000  0.46690000  0.55990000  1.0 -0.1389369191
C  C34  1  0.46690000  0.61070000  0.94010000  1.0 -0.1389369191
C  C35  1  0.38930000  0.53310000  0.44010000  1.0 -0.1389369191
C  C36  1  0.53310000  0.38930000  0.05990000  1.0 -0.1389369191
C  C37  1  0.49190000  0.08630000  0.65400000  1.0 0.128556774
C  C38  1  0.08630000  0.49190000  0.84600000  1.0 0.128556774
C  C39  1  0.50810000  0.91370000  0.34600000  1.0 0.128556774
C  C40  1  0.91370000  0.50810000  0.15400000  1.0 0.128556774
C  C41  1  0.63420000  0.48080000  0.50430000  1.0 -0.0248991018
C  C42  1  0.48080000  0.63420000  0.99570000  1.0 -0.0307963589
C  C43  1  0.36580000  0.51920000  0.49570000  1.0 -0.0248991018
C  C44  1  0.51920000  0.36580000  0.00430000  1.0 -0.0248991018
C  C45  1  0.71920000  0.30960000  0.49540000  1.0 0.1934783636
C  C46  1  0.30960000  0.71920000  0.00460000  1.0 0.1934783636
C  C47  1  0.28080000  0.69040000  0.50460000  1.0 0.1934783636
C  C48  1  0.69040000  0.28080000  0.99540000  1.0 0.1934783636
C  C49  1  0.53940000  0.04600000  0.60460000  1.0 -0.1825220259
C  C50  1  0.04600000  0.53940000  0.89540000  1.0 -0.1825220259
C  C51  1  0.46060000  0.95400000  0.39540000  1.0 -0.1825220259
C  C52  1  0.95400000  0.46060000  0.10460000  1.0 -0.1825220259
C  C53  1  0.46040000  0.03840000  0.68690000  1.0 -0.2210651012
C  C54  1  0.03840000  0.46040000  0.81310000  1.0 -0.2210651012
C  C55  1  0.53960000  0.96160000  0.31310000  1.0 -0.2210651012
C  C56  1  0.96160000  0.53960000  0.18690000  1.0 -0.2210651012
C  C57  1  0.68560000  0.40540000  0.47140000  1.0 -0.1504424981
C  C58  1  0.40540000  0.68560000  0.02860000  1.0 -0.1504424981
C  C59  1  0.31440000  0.59460000  0.52860000  1.0 -0.1504424981
C  C60  1  0.59460000  0.31440000  0.97140000  1.0 -0.1504424981
C  C61  1  0.77830000  0.22270000  0.46550000  1.0 0.181861042
C  C62  1  0.22270000  0.77830000  0.03450000  1.0 0.181861042
C  C63  1  0.22170000  0.77730000  0.53450000  1.0 0.181861042
C  C64  1  0.77730000  0.22170000  0.96550000  1.0 0.181861042
C  C65  1  0.86480000  0.05360000  0.47050000  1.0 0.181861042
C  C66  1  0.05360000  0.86480000  0.02950000  1.0 0.181861042
C  C67  1  0.13520000  0.94640000  0.52950000  1.0 0.181861042
C  C68  1  0.94640000  0.13520000  0.97050000  1.0 0.181861042
C  C69  1  0.89240000  0.96300000  0.50580000  1.0 0.1989843091
C  C70  1  0.96300000  0.89240000  0.99420000  1.0 0.1989843091
C  C71  1  0.10760000  0.03700000  0.49420000  1.0 0.1989843091
C  C72  1  0.03700000  0.10760000  0.00580000  1.0 0.1989843091
C  C73  1  0.85800000  0.89600000  0.58390000  1.0 0.0970819117
C  C74  1  0.89600000  0.85800000  0.91610000  1.0 0.0970819117
C  C75  1  0.14200000  0.10400000  0.41610000  1.0 0.0970819117
C  C76  1  0.10400000  0.14200000  0.08390000  1.0 0.0970819117
C  C77  1  0.78670000  0.92610000  0.63180000  1.0 0.5421955539
C  C78  1  0.92610000  0.78670000  0.86820000  1.0 0.5421955539
C  C79  1  0.21330000  0.07390000  0.36820000  1.0 0.5421955539
C  C80  1  0.07390000  0.21330000  0.13180000  1.0 0.5421955539
C  C81  1  0.56370000  0.21750000  0.48860000  1.0 0.2515240166
C  C82  1  0.21750000  0.56370000  0.01140000  1.0 0.2515240166
C  C83  1  0.43630000  0.78250000  0.51140000  1.0 0.2515240166
C  C84  1  0.78250000  0.43630000  0.98860000  1.0 0.2550862683
C  C85  1  0.56110000  0.95710000  0.59190000  1.0 0.1989843091
C  C86  1  0.95710000  0.56110000  0.90810000  1.0 0.1989843091
C  C87  1  0.43890000  0.04290000  0.40810000  1.0 0.1989843091
C  C88  1  0.04290000  0.43890000  0.09190000  1.0 0.1989843091
C  C89  1  0.48150000  0.95030000  0.66990000  1.0 0.1989843091
C  C90  1  0.95030000  0.48150000  0.83010000  1.0 0.1989843091
C  C91  1  0.51850000  0.04970000  0.33010000  1.0 0.1989843091
C  C92  1  0.04970000  0.51850000  0.16990000  1.0 0.1989843091
C  C93  1  0.80320000  0.22700000  0.40870000  1.0 -0.1857045433
C  C94  1  0.22700000  0.80320000  0.09130000  1.0 -0.1857045433
C  C95  1  0.19680000  0.77300000  0.59130000  1.0 -0.1857045433
C  C96  1  0.77300000  0.19680000  0.90870000  1.0 -0.1857045433
C  C97  1  0.88910000  0.05490000  0.41360000  1.0 -0.1988349156
C  C98  1  0.05490000  0.88910000  0.08640000  1.0 -0.1988349156
C  C99  1  0.11090000  0.94510000  0.58640000  1.0 -0.1988349156
C  C100  1  0.94510000  0.11090000  0.91360000  1.0 -0.1988349156
C  C101  1  0.96040000  0.86860000  0.49150000  1.0 -0.1857045433
C  C102  1  0.86860000  0.96040000  0.00850000  1.0 -0.1857045433
C  C103  1  0.03960000  0.13140000  0.50850000  1.0 -0.1857045433
C  C104  1  0.13140000  0.03960000  0.99150000  1.0 -0.1857045433
C  C105  1  0.92040000  0.80420000  0.57120000  1.0 -0.1266407939
C  C106  1  0.80420000  0.92040000  0.92880000  1.0 -0.1266407939
C  C107  1  0.07960000  0.19580000  0.42880000  1.0 -0.1266407939
C  C108  1  0.19580000  0.07960000  0.07120000  1.0 -0.1266407939
C  C109  1  0.61990000  0.90590000  0.54340000  1.0 0.1934783636
C  C110  1  0.90590000  0.61990000  0.95660000  1.0 0.1934783636
C  C111  1  0.38010000  0.09410000  0.45660000  1.0 0.1934783636
C  C112  1  0.09410000  0.38010000  0.04340000  1.0 0.1934783636
C  C113  1  0.44320000  0.89980000  0.69910000  1.0 0.1934783636
C  C114  1  0.89980000  0.44320000  0.80090000  1.0 0.1934783636
C  C115  1  0.55680000  0.10020000  0.30090000  1.0 0.1934783636
C  C116  1  0.10020000  0.55680000  0.19910000  1.0 0.1934783636
C  C117  1  0.85910000  0.14170000  0.38240000  1.0 0.1102341102
C  C118  1  0.14170000  0.85910000  0.11760000  1.0 0.1102341102
C  C119  1  0.14090000  0.85830000  0.61760000  1.0 0.1102341102
C  C120  1  0.85830000  0.14090000  0.88240000  1.0 0.1102341102
C  C121  1  0.97440000  0.79020000  0.52440000  1.0 -0.0307963589
C  C122  1  0.79020000  0.97440000  0.97560000  1.0 -0.0307963589
C  C123  1  0.02560000  0.20980000  0.47560000  1.0 -0.0307963589
C  C124  1  0.20980000  0.02560000  0.02440000  1.0 -0.0307963589
C  C125  1  0.64900000  0.94640000  0.50300000  1.0 -0.1697528319
C  C126  1  0.94640000  0.64900000  0.99700000  1.0 -0.1697528319
C  C127  1  0.35100000  0.05360000  0.49700000  1.0 -0.1697528319
C  C128  1  0.05360000  0.35100000  0.00300000  1.0 -0.1697528319
C  C129  1  0.37800000  0.93780000  0.74120000  1.0 -0.1825220259
C  C130  1  0.93780000  0.37800000  0.75880000  1.0 -0.1825220259
C  C131  1  0.62200000  0.06220000  0.25880000  1.0 -0.1825220259
C  C132  1  0.06220000  0.62200000  0.24120000  1.0 -0.1825220259
C  C133  1  0.88530000  0.14690000  0.32190000  1.0 0.128556774
C  C134  1  0.14690000  0.88530000  0.17810000  1.0 0.128556774
C  C135  1  0.11470000  0.85310000  0.67810000  1.0 0.128556774
C  C136  1  0.85310000  0.11470000  0.82190000  1.0 0.128556774
C  C137  1  0.70420000  0.89260000  0.45910000  1.0 -0.0446502389
C  C138  1  0.89260000  0.70420000  0.04090000  1.0 -0.0446502389
C  C139  1  0.29580000  0.10740000  0.54090000  1.0 -0.0446502389
C  C140  1  0.10740000  0.29580000  0.95910000  1.0 -0.0446502389
C  C141  1  0.70120000  0.76220000  0.50010000  1.0 0.1102341102
C  C142  1  0.76220000  0.70120000  0.99990000  1.0 0.1102341102
C  C143  1  0.29880000  0.23780000  0.49990000  1.0 0.1102341102
C  C144  1  0.23780000  0.29880000  0.00010000  1.0 0.1102341102
C  C145  1  0.34780000  0.88440000  0.76790000  1.0 -0.0488426024
C  C146  1  0.88440000  0.34780000  0.73210000  1.0 -0.0488426024
C  C147  1  0.65220000  0.11560000  0.23210000  1.0 -0.0488426024
C  C148  1  0.11560000  0.65220000  0.26790000  1.0 -0.0488426024
C  C149  1  0.44370000  0.76190000  0.70700000  1.0 0.1189273516
C  C150  1  0.76190000  0.44370000  0.79300000  1.0 0.1189273516
C  C151  1  0.55630000  0.23810000  0.29300000  1.0 0.1189273516
C  C152  1  0.23810000  0.55630000  0.20700000  1.0 0.1189273516
C  C153  1  0.91730000  0.20490000  0.30670000  1.0 -0.1504424981
C  C154  1  0.20490000  0.91730000  0.19330000  1.0 -0.1504424981
C  C155  1  0.08270000  0.79510000  0.69330000  1.0 -0.1504424981
C  C156  1  0.79510000  0.08270000  0.80670000  1.0 -0.1504424981
C  C157  1  0.87390000  0.09870000  0.27670000  1.0 -0.2210651012
C  C158  1  0.09870000  0.87390000  0.22330000  1.0 -0.2210651012
C  C159  1  0.12610000  0.90130000  0.72330000  1.0 -0.2210651012
C  C160  1  0.90130000  0.12610000  0.77670000  1.0 -0.2210651012
C  C161  1  0.73110000  0.80010000  0.45920000  1.0 -0.1504424981
C  C162  1  0.80010000  0.73110000  0.04080000  1.0 -0.1504424981
C  C163  1  0.26890000  0.19990000  0.54080000  1.0 -0.1504424981
C  C164  1  0.19990000  0.26890000  0.95920000  1.0 -0.1504424981
C  C165  1  0.72530000  0.65990000  0.50350000  1.0 0.5213710619
C  C166  1  0.65990000  0.72530000  0.99650000  1.0 0.5213710619
C  C167  1  0.27470000  0.34010000  0.49650000  1.0 0.5213710619
C  C168  1  0.34010000  0.27470000  0.00350000  1.0 0.5213710619
C  C169  1  0.48640000  0.66280000  0.68450000  1.0 0.6003263323
C  C170  1  0.66280000  0.48640000  0.81550000  1.0 0.6003263323
C  C171  1  0.51360000  0.33720000  0.31550000  1.0 0.6003263323
C  C172  1  0.33720000  0.51360000  0.18450000  1.0 0.6003263323
C  C173  1  0.38020000  0.79520000  0.74830000  1.0 -0.1389369191
C  C174  1  0.79520000  0.38020000  0.75170000  1.0 -0.1389369191
C  C175  1  0.61980000  0.20480000  0.25170000  1.0 -0.1389369191
C  C176  1  0.20480000  0.61980000  0.24830000  1.0 -0.1389369191
C  C177  1  0.93330000  0.21630000  0.24770000  1.0 0.128556774
C  C178  1  0.21630000  0.93330000  0.25230000  1.0 0.128556774
C  C179  1  0.06670000  0.78370000  0.75230000  1.0 0.128556774
C  C180  1  0.78370000  0.06670000  0.74770000  1.0 0.128556774
C  C181  1  0.89100000  0.11500000  0.21950000  1.0 0.1102341102
C  C182  1  0.11500000  0.89100000  0.28050000  1.0 0.1102341102
C  C183  1  0.10900000  0.88500000  0.78050000  1.0 0.1102341102
C  C184  1  0.88500000  0.10900000  0.71950000  1.0 0.1102341102
C  C185  1  0.87190000  0.07250000  0.16720000  1.0 0.5129711433
C  C186  1  0.07250000  0.87190000  0.33280000  1.0 0.5129711433
C  C187  1  0.12810000  0.92750000  0.83280000  1.0 0.5129711433
C  C188  1  0.92750000  0.12810000  0.66720000  1.0 0.5129711433
N  N1  1  0.46740000  0.33880000  0.70860000  1.0 -0.3521604212
N  N2  1  0.33880000  0.46740000  0.79140000  1.0 -0.3521604212
N  N3  1  0.53260000  0.66120000  0.29140000  1.0 -0.3521604212
N  N4  1  0.66120000  0.53260000  0.20860000  1.0 -0.3521604212
N  N5  1  0.69580000  0.29600000  0.54880000  1.0 -0.4071740734
N  N6  1  0.29600000  0.69580000  0.95120000  1.0 -0.4071740734
N  N7  1  0.30420000  0.70400000  0.45120000  1.0 -0.4071740734
N  N8  1  0.70400000  0.30420000  0.04880000  1.0 -0.4071740734
N  N9  1  0.80910000  0.13610000  0.49590000  1.0 -0.3919894827
N  N10  1  0.13610000  0.80910000  0.00410000  1.0 -0.3919894827
N  N11  1  0.19090000  0.86390000  0.50410000  1.0 -0.3919894827
N  N12  1  0.86390000  0.19090000  0.99590000  1.0 -0.3919894827
N  N13  1  0.84450000  0.97590000  0.55300000  1.0 -0.3919894827
N  N14  1  0.97590000  0.84450000  0.94700000  1.0 -0.3990424322
N  N15  1  0.15550000  0.02410000  0.44700000  1.0 -0.3990424322
N  N16  1  0.02410000  0.15550000  0.05300000  1.0 -0.3919894827
N  N17  1  0.91780000  0.17320000  0.20470000  1.0 -0.3290115194
N  N18  1  0.17320000  0.91780000  0.29530000  1.0 -0.3290115194
N  N19  1  0.08220000  0.82680000  0.79530000  1.0 -0.3290115194
N  N20  1  0.82680000  0.08220000  0.70470000  1.0 -0.3290115194
N  N21  1  0.53420000  0.90860000  0.62530000  1.0 -0.3919894827
N  N22  1  0.90860000  0.53420000  0.87470000  1.0 -0.3919894827
N  N23  1  0.46580000  0.09140000  0.37470000  1.0 -0.3919894827
N  N24  1  0.09140000  0.46580000  0.12530000  1.0 -0.3919894827
N  N25  1  0.64560000  0.81500000  0.54240000  1.0 -0.3782010796
N  N26  1  0.81500000  0.64560000  0.95760000  1.0 -0.3782010796
N  N27  1  0.35440000  0.18500000  0.45760000  1.0 -0.3782010796
N  N28  1  0.18500000  0.35440000  0.04240000  1.0 -0.3782010796
N  N29  1  0.47470000  0.81250000  0.68260000  1.0 -0.4209121959
N  N30  1  0.81250000  0.47470000  0.81740000  1.0 -0.4209121959
N  N31  1  0.52530000  0.18750000  0.31740000  1.0 -0.4209121959
N  N32  1  0.18750000  0.52530000  0.18260000  1.0 -0.4209121959
O  O1  1  0.55503000  0.33023000  0.81330000  1.0 -0.6783503043
O  O2  1  0.33023000  0.55503000  0.68670000  1.0 -0.6783503043
O  O3  1  0.44497000  0.66977000  0.18670000  1.0 -0.6783503043
O  O4  1  0.66977000  0.44497000  0.31330000  1.0 -0.6783503043
O  O5  1  0.57195000  0.41515000  0.67030000  1.0 -0.6019428419
O  O6  1  0.41515000  0.57195000  0.82970000  1.0 -0.6019428419
O  O7  1  0.42805000  0.58485000  0.32970000  1.0 -0.6019428419
O  O8  1  0.58485000  0.42805000  0.17030000  1.0 -0.6019428419
O  O9  1  0.45810000  0.61390000  0.70590000  1.0 -0.5824036446
O  O10  1  0.61390000  0.45810000  0.79410000  1.0 -0.5856967615
O  O11  1  0.54190000  0.38610000  0.29410000  1.0 -0.5824036446
O  O12  1  0.38610000  0.54190000  0.20590000  1.0 -0.5856967615
O  O13  1  0.57590000  0.19090000  0.84780000  1.0 -0.5243344055
O  O14  1  0.19090000  0.57590000  0.65220000  1.0 -0.5243344055
O  O15  1  0.42410000  0.80910000  0.15220000  1.0 -0.5243344055
O  O16  1  0.80910000  0.42410000  0.34780000  1.0 -0.5243344055
O  O17  1  0.65620000  0.25840000  0.65330000  1.0 -0.6321516978
O  O18  1  0.25840000  0.65620000  0.84670000  1.0 -0.6321516978
O  O19  1  0.34380000  0.74160000  0.34670000  1.0 -0.6321516978
O  O20  1  0.74160000  0.34380000  0.15330000  1.0 -0.6321516978
O  O21  1  0.73098000  0.01638000  0.63670000  1.0 -0.6393298554
O  O22  1  0.01638000  0.73098000  0.86330000  1.0 -0.6393298554
O  O23  1  0.26902000  0.98362000  0.36330000  1.0 -0.6393298554
O  O24  1  0.98362000  0.26902000  0.13670000  1.0 -0.6393298554
O  O25  1  0.61960000  0.17260000  0.53370000  1.0 -0.5292751761
O  O26  1  0.17260000  0.61960000  0.96630000  1.0 -0.5292751761
O  O27  1  0.38040000  0.82740000  0.46630000  1.0 -0.5292751761
O  O28  1  0.82740000  0.38040000  0.03370000  1.0 -0.5292751761
O  O29  1  0.87086000  0.11026000  0.11470000  1.0 -0.6783503043
O  O30  1  0.11026000  0.87086000  0.38530000  1.0 -0.6783503043
O  O31  1  0.12914000  0.88974000  0.88530000  1.0 -0.6783503043
O  O32  1  0.88974000  0.12914000  0.61470000  1.0 -0.6783503043
O  O33  1  0.79010000  0.85950000  0.66160000  1.0 -0.4772005053
O  O34  1  0.85950000  0.79010000  0.83840000  1.0 -0.4772005053
O  O35  1  0.20990000  0.14050000  0.33840000  1.0 -0.4772005053
O  O36  1  0.14050000  0.20990000  0.16160000  1.0 -0.4772005053
O  O37  1  0.52900000  0.19360000  0.45380000  1.0 -0.449049008
O  O38  1  0.19360000  0.52900000  0.04620000  1.0 -0.449049008
O  O39  1  0.47100000  0.80640000  0.54620000  1.0 -0.449049008
O  O40  1  0.80640000  0.47100000  0.95380000  1.0 -0.449049008
O  O41  1  0.68430000  0.63990000  0.53910000  1.0 -0.5292751761
O  O42  1  0.63990000  0.68430000  0.96090000  1.0 -0.5292751761
O  O43  1  0.31570000  0.36010000  0.46090000  1.0 -0.5292751761
O  O44  1  0.36010000  0.31570000  0.03910000  1.0 -0.5292751761
O  O45  1  0.54660000  0.63940000  0.64720000  1.0 -0.5824036446
O  O46  1  0.63940000  0.54660000  0.85280000  1.0 -0.5824036446
O  O47  1  0.45340000  0.36060000  0.35280000  1.0 -0.5824036446
O  O48  1  0.36060000  0.45340000  0.14720000  1.0 -0.5824036446
O  O49  1  0.77840000  0.60540000  0.47010000  1.0 -0.4331805902
O  O50  1  0.60540000  0.77840000  0.02990000  1.0 -0.4331805902
O  O51  1  0.22160000  0.39460000  0.52990000  1.0 -0.4331805902
O  O52  1  0.39460000  0.22160000  0.97010000  1.0 -0.4331805902
O  O53  1  0.86170000  0.00630000  0.17640000  1.0 -0.3919894827
O  O54  1  0.00630000  0.86170000  0.32360000  1.0 -0.3919894827
O  O55  1  0.13830000  0.99370000  0.82360000  1.0 -0.3919894827
O  O56  1  0.99370000  0.13830000  0.67640000  1.0 -0.3919894827
O  O57  1  0.31770000  0.29550000  0.27310000  1.0 0.1670492636
O  O58  1  0.29550000  0.31770000  0.22690000  1.0 0.1670492636
O  O59  1  0.68230000  0.70450000  0.72690000  1.0 0.1670492636
O  O60  1  0.70450000  0.68230000  0.77310000  1.0 0.1670492636
O  O61  1  0.24650000  0.43670000  0.35540000  1.0 -0.4209121959
O  O62  1  0.43670000  0.24650000  0.14460000  1.0 -0.4071740734
O  O63  1  0.75350000  0.56330000  0.64460000  1.0 -0.4209121959
O  O64  1  0.56330000  0.75350000  0.85540000  1.0 -0.3990424322
O  O65  1  0.69530000  0.72550000  0.69230000  1.0 -0.1168167414
O  O66  1  0.72550000  0.69530000  0.80770000  1.0 -0.1140497845
O  O67  1  0.30470000  0.27450000  0.30770000  1.0 -0.1140497845
O  O68  1  0.27450000  0.30470000  0.19230000  1.0 -0.1140497845
O  O69  1  0.77930000  0.69130000  0.62840000  1.0 -0.1697528319
O  O70  1  0.69130000  0.77930000  0.87160000  1.0 -0.1697528319
O  O71  1  0.22070000  0.30870000  0.37160000  1.0 -0.1697528319
O  O72  1  0.30870000  0.22070000  0.12840000  1.0 -0.1626478629
