# DDEC6 charges by PACMAN v1.1 (https://github.com/mtap-research/PACMAN-charge/)
data_BUWCAA_ASR_pacman
_symmetry_space_group_name_H-M   'P 1'
_cell_length_a   12.73480000
_cell_length_b   12.73480000
_cell_length_c   16.53800000
_cell_angle_alpha   58.54150000
_cell_angle_beta   121.45900000
_cell_angle_gamma   115.67500000
_symmetry_Int_Tables_number   1
_chemical_formula_structural   CoH20C32(N3O2)2
_chemical_formula_sum   'Co2 H40 C64 N12 O8'
_cell_volume   1903.24694113
_cell_formula_units_Z   2
loop_
 _symmetry_equiv_pos_site_id
 _symmetry_equiv_pos_as_xyz
  1  'x, y, z'
loop_
 _atom_site_type_symbol
 _atom_site_label
 _atom_site_symmetry_multiplicity
 _atom_site_fract_x
 _atom_site_fract_y
 _atom_site_fract_z
 _atom_site_occupancy
 _atom_site_charge
Co  Co1  1  0.50000000  0.50000000  0.50000000  1.0 0.7901697281
Co  Co2  1  0.50000000  0.50000000  0.00000000  1.0 0.7901697281
H  H1  1  0.86960000  0.43220000  0.63260000  1.0 0.1298550155
H  H2  1  0.23510000  0.39310000  0.68620000  1.0 0.1298550155
H  H3  1  0.02800000  0.43380000  0.78190000  1.0 0.136369628
H  H4  1  0.21150000  0.47870000  0.91150000  1.0 0.109804573
H  H5  1  0.41150000  0.44370000  0.81560000  1.0 0.109804573
H  H6  1  0.73080000  0.28820000  0.42080000  1.0 0.1298550155
H  H7  1  0.13750000  0.29410000  0.52940000  1.0 0.1298550155
H  H8  1  0.18170000  0.21250000  0.45860000  1.0 0.109804573
H  H9  1  0.77080000  0.17020000  0.38340000  1.0 0.136369628
H  H10  1  0.82750000  0.09470000  0.31640000  1.0 0.0988114617
H  H11  1  0.43220000  0.86960000  0.86740000  1.0 0.1298550155
H  H12  1  0.39310000  0.23510000  0.81380000  1.0 0.1298550155
H  H13  1  0.43380000  0.02800000  0.71810000  1.0 0.136369628
H  H14  1  0.47870000  0.21150000  0.58850000  1.0 0.109804573
H  H15  1  0.44370000  0.41150000  0.68440000  1.0 0.109804573
H  H16  1  0.28820000  0.73080000  0.07920000  1.0 0.1298550155
H  H17  1  0.29410000  0.13750000  0.97060000  1.0 0.1298550155
H  H18  1  0.21250000  0.18170000  0.04140000  1.0 0.109804573
H  H19  1  0.17020000  0.77080000  0.11660000  1.0 0.136369628
H  H20  1  0.09470000  0.82750000  0.18360000  1.0 0.0988114617
H  H21  1  0.13040000  0.56780000  0.36740000  1.0 0.1298550155
H  H22  1  0.76490000  0.60690000  0.31380000  1.0 0.1298550155
H  H23  1  0.97200000  0.56620000  0.21810000  1.0 0.136369628
H  H24  1  0.78850000  0.52130000  0.08850000  1.0 0.109804573
H  H25  1  0.58850000  0.55630000  0.18440000  1.0 0.109804573
H  H26  1  0.26920000  0.71180000  0.57920000  1.0 0.1298550155
H  H27  1  0.86250000  0.70590000  0.47060000  1.0 0.1298550155
H  H28  1  0.81830000  0.78750000  0.54140000  1.0 0.109804573
H  H29  1  0.22920000  0.82980000  0.61660000  1.0 0.136369628
H  H30  1  0.17250000  0.90530000  0.68360000  1.0 0.0988114617
H  H31  1  0.56780000  0.13040000  0.13260000  1.0 0.1298550155
H  H32  1  0.60690000  0.76490000  0.18620000  1.0 0.1298550155
H  H33  1  0.56620000  0.97200000  0.28190000  1.0 0.136369628
H  H34  1  0.52130000  0.78850000  0.41150000  1.0 0.109804573
H  H35  1  0.55630000  0.58850000  0.31560000  1.0 0.109804573
H  H36  1  0.71180000  0.26920000  0.92080000  1.0 0.1298550155
H  H37  1  0.70590000  0.86250000  0.02940000  1.0 0.1298550155
H  H38  1  0.78750000  0.81830000  0.95860000  1.0 0.109804573
H  H39  1  0.82980000  0.22920000  0.88340000  1.0 0.136369628
H  H40  1  0.90530000  0.17250000  0.81640000  1.0 0.0988114617
C  C1  1  0.77895000  0.36355000  0.52086000  1.0 0.0246416825
C  C2  1  0.87968000  0.39682000  0.60072000  1.0 -0.1926633345
C  C3  1  0.99637000  0.37627000  0.63223000  1.0 0.184987602
C  C4  1  0.22764000  0.41094000  0.73053000  1.0 -0.1745480028
C  C5  1  0.91827000  0.29669000  0.50941000  1.0 0.1997937683
C  C6  1  0.10484000  0.43438000  0.78748000  1.0 -0.209943625
C  C7  1  0.65170000  0.38802000  0.48223000  1.0 0.5491145376
C  C8  1  0.21607000  0.46205000  0.86517000  1.0 0.0988114617
C  C9  1  0.10940000  0.40752000  0.71782000  1.0 0.0867115791
C  C10  1  0.33323000  0.44083000  0.80905000  1.0 0.0867115791
C  C11  1  0.79737000  0.31197000  0.47418000  1.0 -0.1926633345
C  C12  1  0.94749000  0.24467000  0.46278000  1.0 0.0842839229
C  C13  1  0.07188000  0.25432000  0.48560000  1.0 -0.1926633345
C  C14  1  0.09763000  0.20437000  0.44250000  1.0 0.0867115791
C  C15  1  0.85570000  0.18170000  0.39950000  1.0 -0.2005069282
C  C16  1  0.89120000  0.13560000  0.36000000  1.0 0.0694411687
C  C17  1  0.36355000  0.77895000  0.97914000  1.0 0.0250458616
C  C18  1  0.39682000  0.87968000  0.89928000  1.0 -0.1926633345
C  C19  1  0.37627000  0.99637000  0.86777000  1.0 0.184987602
C  C20  1  0.41094000  0.22764000  0.76947000  1.0 -0.1745480028
C  C21  1  0.29669000  0.91827000  0.99059000  1.0 0.1997937683
C  C22  1  0.43438000  0.10484000  0.71252000  1.0 -0.209943625
C  C23  1  0.38802000  0.65170000  0.01777000  1.0 0.5491145376
C  C24  1  0.46205000  0.21607000  0.63483000  1.0 0.0988114617
C  C25  1  0.40752000  0.10940000  0.78218000  1.0 0.0867115791
C  C26  1  0.44083000  0.33323000  0.69095000  1.0 0.0867115791
C  C27  1  0.31197000  0.79737000  0.02582000  1.0 -0.1926633345
C  C28  1  0.24467000  0.94749000  0.03722000  1.0 0.0842839229
C  C29  1  0.25432000  0.07188000  0.01440000  1.0 -0.1847050366
C  C30  1  0.20437000  0.09763000  0.05750000  1.0 0.0867115791
C  C31  1  0.18170000  0.85570000  0.10050000  1.0 -0.2005069282
C  C32  1  0.13560000  0.89120000  0.14000000  1.0 0.0694411687
C  C33  1  0.22105000  0.63645000  0.47914000  1.0 0.0246416825
C  C34  1  0.12032000  0.60318000  0.39928000  1.0 -0.1926633345
C  C35  1  0.00363000  0.62373000  0.36777000  1.0 0.184987602
C  C36  1  0.77236000  0.58906000  0.26947000  1.0 -0.1745480028
C  C37  1  0.08173000  0.70331000  0.49059000  1.0 0.1997937683
C  C38  1  0.89516000  0.56562000  0.21252000  1.0 -0.209943625
C  C39  1  0.34830000  0.61198000  0.51777000  1.0 0.5491145376
C  C40  1  0.78393000  0.53795000  0.13483000  1.0 0.0988114617
C  C41  1  0.89060000  0.59248000  0.28218000  1.0 0.0867115791
C  C42  1  0.66677000  0.55917000  0.19095000  1.0 0.0867115791
C  C43  1  0.20263000  0.68803000  0.52582000  1.0 -0.1926633345
C  C44  1  0.05251000  0.75533000  0.53722000  1.0 0.0842839229
C  C45  1  0.92812000  0.74568000  0.51440000  1.0 -0.1847050366
C  C46  1  0.90237000  0.79563000  0.55750000  1.0 0.0867115791
C  C47  1  0.14430000  0.81830000  0.60050000  1.0 -0.2005069282
C  C48  1  0.10880000  0.86440000  0.64000000  1.0 0.0694411687
C  C49  1  0.63645000  0.22105000  0.02086000  1.0 0.0250458616
C  C50  1  0.60318000  0.12032000  0.10072000  1.0 -0.1926633345
C  C51  1  0.62373000  0.00363000  0.13223000  1.0 0.184987602
C  C52  1  0.58906000  0.77236000  0.23053000  1.0 -0.1745480028
C  C53  1  0.70331000  0.08173000  0.00941000  1.0 0.1997937683
C  C54  1  0.56562000  0.89516000  0.28748000  1.0 -0.209943625
C  C55  1  0.61198000  0.34830000  0.98223000  1.0 0.5491145376
C  C56  1  0.53795000  0.78393000  0.36517000  1.0 0.0988114617
C  C57  1  0.59248000  0.89060000  0.21782000  1.0 0.0867115791
C  C58  1  0.55917000  0.66677000  0.30905000  1.0 0.0867115791
C  C59  1  0.68803000  0.20263000  0.97418000  1.0 -0.1926633345
C  C60  1  0.75533000  0.05251000  0.96278000  1.0 0.0842839229
C  C61  1  0.74568000  0.92812000  0.98560000  1.0 -0.1847050366
C  C62  1  0.79563000  0.90237000  0.94250000  1.0 0.0867115791
C  C63  1  0.81830000  0.14430000  0.89950000  1.0 -0.2005069282
C  C64  1  0.86440000  0.10880000  0.86000000  1.0 0.0694411687
N  N1  1  0.32942000  0.46604000  0.87684000  1.0 -0.2385408756
N  N2  1  0.01529000  0.32925000  0.58601000  1.0 -0.3010972318
N  N3  1  0.01030000  0.14590000  0.38020000  1.0 -0.2487061311
N  N4  1  0.46604000  0.32942000  0.62316000  1.0 -0.2385408756
N  N5  1  0.32925000  0.01529000  0.91399000  1.0 -0.3010972318
N  N6  1  0.14590000  0.01030000  0.11980000  1.0 -0.2487061311
N  N7  1  0.67058000  0.53396000  0.12316000  1.0 -0.2385408756
N  N8  1  0.98471000  0.67075000  0.41399000  1.0 -0.3010972318
N  N9  1  0.98970000  0.85410000  0.61980000  1.0 -0.2487061311
N  N10  1  0.53396000  0.67058000  0.37684000  1.0 -0.2385408756
N  N11  1  0.67075000  0.98471000  0.08601000  1.0 -0.3010972318
N  N12  1  0.85410000  0.98970000  0.88020000  1.0 -0.2487061311
O  O1  1  0.64702000  0.44268000  0.52532000  1.0 -0.5838455584
O  O2  1  0.56223000  0.35305000  0.41208000  1.0 -0.5576707002
O  O3  1  0.44268000  0.64702000  0.97468000  1.0 -0.5838455584
O  O4  1  0.35305000  0.56223000  0.08792000  1.0 -0.5576707002
O  O5  1  0.35298000  0.55732000  0.47468000  1.0 -0.5838455584
O  O6  1  0.43777000  0.64695000  0.58792000  1.0 -0.5576707002
O  O7  1  0.55732000  0.35298000  0.02532000  1.0 -0.5838455584
O  O8  1  0.64695000  0.43777000  0.91208000  1.0 -0.5576707002
