# DDEC6 charges by PACMAN v1.1 (https://github.com/mtap-research/PACMAN-charge/)
data_BUWLUC_ion_pacman
_symmetry_space_group_name_H-M   'P 1'
_cell_length_a   13.20980000
_cell_length_b   13.20980000
_cell_length_c   13.97600000
_cell_angle_alpha   58.06200000
_cell_angle_beta   121.93800000
_cell_angle_gamma   116.12400000
_symmetry_Int_Tables_number   1
_chemical_formula_structural   Pr2FeH15C19N8O17
_chemical_formula_sum   'Pr4 Fe2 H30 C38 N16 O34'
_cell_volume   1712.15855321
_cell_formula_units_Z   2
loop_
 _symmetry_equiv_pos_site_id
 _symmetry_equiv_pos_as_xyz
  1  'x, y, z'
loop_
 _atom_site_type_symbol
 _atom_site_label
 _atom_site_symmetry_multiplicity
 _atom_site_fract_x
 _atom_site_fract_y
 _atom_site_fract_z
 _atom_site_occupancy
 _atom_site_charge
Pr  Pr1  1  0.85731000  0.35771000  0.53506000  1.0 2.0023938393
Pr  Pr2  1  0.35771000  0.85731000  0.46494000  1.0 2.0023938393
Pr  Pr3  1  0.39265000  0.39265000  0.00000000  1.0 1.9670843656
Pr  Pr4  1  0.32225000  0.32225000  0.50000000  1.0 2.0023938393
Fe  Fe1  1  0.98193000  0.73199000  0.87587000  1.0 0.1616688247
Fe  Fe2  1  0.73199000  0.98193000  0.12413000  1.0 0.1616688247
H  H1  1  0.03970000  0.36250000  0.98990000  1.0 0.1660309236
H  H2  1  0.36250000  0.03970000  0.01010000  1.0 0.1660309236
H  H3  1  0.85770000  0.35810000  0.98500000  1.0 0.1491283464
H  H4  1  0.35810000  0.85770000  0.01500000  1.0 0.1491283464
H  H5  1  0.67710000  0.34890000  0.81570000  1.0 0.1616688247
H  H6  1  0.34890000  0.67710000  0.18430000  1.0 0.1616688247
H  H7  1  0.67090000  0.84710000  0.81850000  1.0 0.1393459949
H  H8  1  0.84710000  0.67090000  0.18150000  1.0 0.1393459949
H  H9  1  0.84530000  0.84530000  0.00000000  1.0 0.1393459949
H  H10  1  0.87330000  0.87330000  0.50000000  1.0 0.1393459949
H  H11  1  0.86810000  0.04250000  0.50610000  1.0 0.1491283464
H  H12  1  0.04250000  0.86810000  0.49390000  1.0 0.1491283464
H  H13  1  0.82800000  0.09000000  0.67800000  1.0 0.37759049
H  H14  1  0.09000000  0.82800000  0.32200000  1.0 0.37759049
H  H15  1  0.64000000  0.18600000  0.37200000  1.0 0.46928032
H  H16  1  0.18600000  0.64000000  0.62800000  1.0 0.46928032
H  H17  1  0.80200000  0.52800000  0.48900000  1.0 0.3702631171
H  H18  1  0.52800000  0.80200000  0.51100000  1.0 0.3702631171
H  H19  1  0.07150000  0.46250000  0.48450000  1.0 0.37759049
H  H20  1  0.46250000  0.07150000  0.51550000  1.0 0.37759049
H  H21  1  0.17700000  0.43100000  0.25800000  1.0 0.3862542684
H  H22  1  0.43100000  0.17700000  0.74200000  1.0 0.3862542684
H  H23  1  0.34400000  0.23600000  0.21100000  1.0 0.3069271023
H  H24  1  0.23600000  0.34400000  0.78900000  1.0 0.3069271023
H  H25  1  0.89700000  0.62900000  0.44900000  1.0 0.3862542684
H  H26  1  0.62900000  0.89700000  0.55100000  1.0 0.3862542684
H  H27  1  0.01100000  0.54900000  0.37800000  1.0 0.37759049
H  H28  1  0.54900000  0.01100000  0.62200000  1.0 0.37759049
H  H29  1  0.25190000  0.23390000  0.18500000  1.0 0.3279541756
H  H30  1  0.23390000  0.25190000  0.81500000  1.0 0.3279541756
C  C1  1  0.07510000  0.37410000  0.80950000  1.0 0.6082204158
C  C2  1  0.37410000  0.07510000  0.19050000  1.0 0.6082204158
C  C3  1  0.96120000  0.36340000  0.81910000  1.0 0.1393459949
C  C4  1  0.36340000  0.96120000  0.18090000  1.0 0.1393459949
C  C5  1  0.96670000  0.36130000  0.92200000  1.0 -0.0758627479
C  C6  1  0.36130000  0.96670000  0.07800000  1.0 -0.0758627479
C  C7  1  0.85770000  0.35710000  0.91890000  1.0 -0.0043291503
C  C8  1  0.35710000  0.85770000  0.08110000  1.0 -0.0043291503
C  C9  1  0.75020000  0.35160000  0.81870000  1.0 -0.0989707832
C  C10  1  0.35160000  0.75020000  0.18130000  1.0 -0.0989707832
C  C11  1  0.75430000  0.35010000  0.72290000  1.0 0.1270254056
C  C12  1  0.35010000  0.75430000  0.27710000  1.0 0.1270254056
C  C13  1  0.64010000  0.33890000  0.61030000  1.0 0.5941717799
C  C14  1  0.33890000  0.64010000  0.38970000  1.0 0.5941717799
C  C15  1  0.46710000  0.66610000  0.78210000  1.0 0.6082204158
C  C16  1  0.66610000  0.46710000  0.21790000  1.0 0.6082204158
C  C17  1  0.57950000  0.67610000  0.89620000  1.0 0.1270254056
C  C18  1  0.67610000  0.57950000  0.10380000  1.0 0.1270254056
C  C19  1  0.67530000  0.77930000  0.89170000  1.0 -0.1076598067
C  C20  1  0.77930000  0.67530000  0.10830000  1.0 -0.1076598067
C  C21  1  0.77880000  0.77880000  0.00000000  1.0 -0.0203542833
C  C22  1  0.93980000  0.93980000  0.50000000  1.0 -0.0203542833
C  C23  1  0.93630000  0.03970000  0.50450000  1.0 -0.0989707832
C  C24  1  0.03970000  0.93630000  0.49550000  1.0 -0.0989707832
C  C25  1  0.03810000  0.13590000  0.50640000  1.0 0.1393459949
C  C26  1  0.13590000  0.03810000  0.49360000  1.0 0.1393459949
C  C27  1  0.04890000  0.24930000  0.51720000  1.0 0.6040755089
C  C28  1  0.24930000  0.04890000  0.48280000  1.0 0.6040755089
C  C29  1  0.93660000  0.68080000  0.75430000  1.0 0.0404703307
C  C30  1  0.85340000  0.61160000  0.92020000  1.0 0.0334539607
C  C31  1  0.03500000  0.77860000  0.00170000  1.0 0.045206147
C  C32  1  0.10270000  0.86010000  0.82230000  1.0 0.0404703307
C  C33  1  0.09290000  0.62070000  0.98580000  1.0 0.0742204289
C  C34  1  0.68080000  0.93660000  0.24570000  1.0 0.0404703307
C  C35  1  0.61160000  0.85340000  0.07980000  1.0 0.0334539607
C  C36  1  0.77860000  0.03500000  0.99830000  1.0 0.0404703307
C  C37  1  0.86010000  0.10270000  0.17770000  1.0 0.0404703307
C  C38  1  0.62070000  0.09290000  0.01420000  1.0 0.0751598428
N  N1  1  0.85670000  0.35670000  0.72120000  1.0 -0.3399711375
N  N2  1  0.35670000  0.85670000  0.27880000  1.0 -0.3399711375
N  N3  1  0.57780000  0.57780000  0.00000000  1.0 -0.3457559471
N  N4  1  0.13740000  0.13740000  0.50000000  1.0 -0.3399711375
N  N5  1  0.87090000  0.84190000  0.76380000  1.0 0.2581745561
N  N6  1  0.77520000  0.54100000  0.94580000  1.0 -0.2900221919
N  N7  1  0.06950000  0.80390000  0.08240000  1.0 -0.2689580495
N  N8  1  0.15870000  0.55630000  0.05140000  1.0 -0.2689580495
N  N9  1  0.17420000  0.94080000  0.78750000  1.0 -0.2689580495
N  N10  1  0.91320000  0.64680000  0.68190000  1.0 -0.3156596844
N  N11  1  0.84190000  0.87090000  0.23620000  1.0 0.2581745561
N  N12  1  0.54100000  0.77520000  0.05420000  1.0 -0.2900221919
N  N13  1  0.80390000  0.06950000  0.91760000  1.0 -0.2689580495
N  N14  1  0.55630000  0.15870000  0.94860000  1.0 -0.2689580495
N  N15  1  0.94080000  0.17420000  0.21250000  1.0 -0.2689580495
N  N16  1  0.64680000  0.91320000  0.31810000  1.0 -0.3156596844
O  O1  1  0.05990000  0.37630000  0.71040000  1.0 -0.6092001026
O  O2  1  0.37630000  0.05990000  0.28960000  1.0 -0.6092001026
O  O3  1  0.17380000  0.38180000  0.89840000  1.0 -0.6021625821
O  O4  1  0.38180000  0.17380000  0.10160000  1.0 -0.6021625821
O  O5  1  0.65410000  0.33770000  0.52820000  1.0 -0.5720321064
O  O6  1  0.33770000  0.65410000  0.47180000  1.0 -0.5720321064
O  O7  1  0.53990000  0.33030000  0.60890000  1.0 -0.6092001026
O  O8  1  0.33030000  0.53990000  0.39110000  1.0 -0.6092001026
O  O9  1  0.84390000  0.14310000  0.70200000  1.0 -0.8244339649
O  O10  1  0.14310000  0.84390000  0.29800000  1.0 -0.8244339649
O  O11  1  0.68510000  0.20330000  0.43290000  1.0 -0.7978728239
O  O12  1  0.20330000  0.68510000  0.56710000  1.0 -0.7978728239
O  O13  1  0.46630000  0.75630000  0.68310000  1.0 -0.6482236509
O  O14  1  0.75630000  0.46630000  0.31690000  1.0 -0.6482236509
O  O15  1  0.87170000  0.57130000  0.50280000  1.0 -0.718839926
O  O16  1  0.57130000  0.87170000  0.49720000  1.0 -0.718839926
O  O17  1  0.95860000  0.25040000  0.52480000  1.0 -0.6161300664
O  O18  1  0.25040000  0.95860000  0.47520000  1.0 -0.6161300664
O  O19  1  0.02840000  0.51160000  0.45240000  1.0 -0.6830842917
O  O20  1  0.51160000  0.02840000  0.54760000  1.0 -0.6830842917
O  O21  1  0.40490000  0.42390000  0.65340000  1.0 0.0404703307
O  O22  1  0.42390000  0.40490000  0.34660000  1.0 0.0404703307
O  O23  1  0.14600000  0.33100000  0.51860000  1.0 -0.584755284
O  O24  1  0.33100000  0.14600000  0.48140000  1.0 -0.584755284
O  O25  1  0.15600000  0.35540000  0.28610000  1.0 -0.7880927448
O  O26  1  0.35540000  0.15600000  0.71390000  1.0 -0.7880927448
O  O27  1  0.38550000  0.56950000  0.79680000  1.0 -0.5482443099
O  O28  1  0.56950000  0.38550000  0.20320000  1.0 -0.5482443099
O  O29  1  0.35690000  0.55930000  0.01150000  1.0 -0.189054576
O  O30  1  0.55930000  0.35690000  0.98850000  1.0 -0.189054576
O  O31  1  0.30840000  0.29320000  0.17090000  1.0 -0.6301133161
O  O32  1  0.29320000  0.30840000  0.82910000  1.0 -0.6301133161
O  O33  1  0.80570000  0.91030000  0.69710000  1.0 0.0118243822
O  O34  1  0.91030000  0.80570000  0.30290000  1.0 0.0118243822
