# DDEC6 charges by PACMAN v1.1 (https://github.com/mtap-research/PACMAN-charge/)
data_BUWMEN_ion_pacman
_symmetry_space_group_name_H-M   'P 1'
_cell_length_a   13.31150000
_cell_length_b   13.31150000
_cell_length_c   13.31100000
_cell_angle_alpha   63.58900000
_cell_angle_beta   116.41100000
_cell_angle_gamma   83.65710000
_symmetry_Int_Tables_number   1
_chemical_formula_structural   La2FeH22C19N8O17
_chemical_formula_sum   'La4 Fe2 H44 C38 N16 O34'
_cell_volume   1746.63343913
_cell_formula_units_Z   2
loop_
 _symmetry_equiv_pos_site_id
 _symmetry_equiv_pos_as_xyz
  1  'x, y, z'
loop_
 _atom_site_type_symbol
 _atom_site_label
 _atom_site_symmetry_multiplicity
 _atom_site_fract_x
 _atom_site_fract_y
 _atom_site_fract_z
 _atom_site_occupancy
 _atom_site_charge
La  La1  1  0.84109000  0.62499000  0.71606000  1.0 1.8473223652
La  La2  1  0.37501000  0.15891000  0.21606000  1.0 1.8473223652
La  La3  1  0.87500000  0.09110000  0.78385000  1.0 1.8473223652
La  La4  1  0.90890000  0.12500000  0.28385000  1.0 1.8473223652
Fe  Fe1  1  0.49999000  0.74999000  0.99988000  1.0 0.191751005
Fe  Fe2  1  0.25001000  0.50001000  0.49988000  1.0 0.191751005
H  H1  1  0.67410000  0.13990000  0.53370000  1.0 0.3237132336
H  H2  1  0.86010000  0.32590000  0.03370000  1.0 0.3237132336
H  H3  1  0.70380000  0.21380000  0.44740000  1.0 0.3711093123
H  H4  1  0.78620000  0.29620000  0.94740000  1.0 0.3711093123
H  H5  1  0.05610000  0.17170000  0.81970000  1.0 0.3612244184
H  H6  1  0.82830000  0.94390000  0.31970000  1.0 0.3612244184
H  H7  1  0.03970000  0.26030000  0.85310000  1.0 0.4237650837
H  H8  1  0.73970000  0.96030000  0.35310000  1.0 0.4237650837
H  H9  1  0.63740000  0.08460000  0.78380000  1.0 0.3487188689
H  H10  1  0.91540000  0.36260000  0.28380000  1.0 0.3487188689
H  H11  1  0.59950000  0.17450000  0.65530000  1.0 0.3324953969
H  H12  1  0.82550000  0.40050000  0.15530000  1.0 0.3324953969
H  H13  1  0.11530000  0.86070000  0.03940000  1.0 0.3487188689
H  H14  1  0.13930000  0.88470000  0.53940000  1.0 0.3487188689
H  H15  1  0.15070000  0.94110000  0.96800000  1.0 0.3396749998
H  H16  1  0.05890000  0.84930000  0.46800000  1.0 0.3396749998
H  H17  1  0.63310000  0.57230000  0.73920000  1.0 0.3396749998
H  H18  1  0.42770000  0.36690000  0.23920000  1.0 0.3396749998
H  H19  1  0.69640000  0.58340000  0.84500000  1.0 0.3324953969
H  H20  1  0.41660000  0.30360000  0.34500000  1.0 0.3324953969
H  H21  1  0.90170000  0.43410000  0.00240000  1.0 0.3115827645
H  H22  1  0.56590000  0.09830000  0.50240000  1.0 0.3115827645
H  H23  1  0.01340000  0.44000000  0.03270000  1.0 0.3711093123
H  H24  1  0.56000000  0.98660000  0.53270000  1.0 0.3711093123
H  H25  1  0.98690000  0.77570000  0.71900000  1.0 0.3487188689
H  H26  1  0.22430000  0.01310000  0.21900000  1.0 0.3487188689
H  H27  1  0.92590000  0.85110000  0.58170000  1.0 0.3612244184
H  H28  1  0.14890000  0.07410000  0.08170000  1.0 0.3612244184
H  H29  1  0.81860000  0.67020000  0.45250000  1.0 0.3487188689
H  H30  1  0.32980000  0.18140000  0.95250000  1.0 0.3396749998
H  H31  1  0.93210000  0.66170000  0.53450000  1.0 0.3487188689
H  H32  1  0.33830000  0.06790000  0.03450000  1.0 0.3487188689
H  H33  1  0.86860000  0.63640000  0.05960000  1.0 0.1286381612
H  H34  1  0.36360000  0.13140000  0.55960000  1.0 0.1286381612
H  H35  1  0.87660000  0.63840000  0.23750000  1.0 0.1286381612
H  H36  1  0.36160000  0.12340000  0.73750000  1.0 0.1286381612
H  H37  1  0.88180000  0.80940000  0.24490000  1.0 0.1394036517
H  H38  1  0.19060000  0.11820000  0.74490000  1.0 0.1394036517
H  H39  1  0.55920000  0.44560000  0.44140000  1.0 0.1394036517
H  H40  1  0.55440000  0.44080000  0.94140000  1.0 0.1394036517
H  H41  1  0.38820000  0.62380000  0.26490000  1.0 0.1286381612
H  H42  1  0.37620000  0.61180000  0.76490000  1.0 0.1286381612
H  H43  1  0.38690000  0.80450000  0.25470000  1.0 0.1394036517
H  H44  1  0.19550000  0.61310000  0.75470000  1.0 0.1394036517
C  C1  1  0.85680000  0.81560000  0.84350000  1.0 0.5827275122
C  C2  1  0.18440000  0.14320000  0.34350000  1.0 0.5827275122
C  C3  1  0.86750000  0.80650000  0.96530000  1.0 0.1286381612
C  C4  1  0.19350000  0.13250000  0.46530000  1.0 0.1286381612
C  C5  1  0.87030000  0.70370000  0.06460000  1.0 -0.1104587063
C  C6  1  0.29630000  0.12970000  0.56460000  1.0 -0.1104587063
C  C7  1  0.87590000  0.70490000  0.17060000  1.0 -0.0184392986
C  C8  1  0.29510000  0.12410000  0.67060000  1.0 -0.0184392986
C  C9  1  0.88030000  0.80590000  0.17610000  1.0 -0.1104587063
C  C10  1  0.19410000  0.11970000  0.67610000  1.0 -0.1104587063
C  C11  1  0.88260000  0.90180000  0.07650000  1.0 0.1189042633
C  C12  1  0.09820000  0.11740000  0.57650000  1.0 0.1189042633
C  C13  1  0.89360000  0.01280000  0.07840000  1.0 0.5866392459
C  C14  1  0.98720000  0.10640000  0.57840000  1.0 0.5866392459
C  C15  1  0.76280000  0.40920000  0.65630000  1.0 0.5827275122
C  C16  1  0.59080000  0.23720000  0.15630000  1.0 0.5827275122
C  C17  1  0.65230000  0.52190000  0.53440000  1.0 0.1189042633
C  C18  1  0.47810000  0.34770000  0.03440000  1.0 0.1189042633
C  C19  1  0.55570000  0.51810000  0.43610000  1.0 -0.1104587063
C  C20  1  0.48190000  0.44430000  0.93610000  1.0 -0.1104587063
C  C21  1  0.45470000  0.62410000  0.33060000  1.0 -0.0184392986
C  C22  1  0.37590000  0.54530000  0.83060000  1.0 -0.0184392986
C  C23  1  0.45400000  0.73200000  0.32420000  1.0 -0.1019057725
C  C24  1  0.26800000  0.54600000  0.82420000  1.0 -0.1019057725
C  C25  1  0.55580000  0.72840000  0.42400000  1.0 0.1189042633
C  C26  1  0.27160000  0.44420000  0.92400000  1.0 0.1189042633
C  C27  1  0.56540000  0.84100000  0.42200000  1.0 0.5827275122
C  C28  1  0.15900000  0.43460000  0.92200000  1.0 0.5827275122
C  C29  1  0.45360000  0.62380000  0.07370000  1.0 0.0310912821
C  C30  1  0.37310000  0.80210000  0.82700000  1.0 0.0425970265
C  C31  1  0.39160000  0.85920000  0.00090000  1.0 0.0619589518
C  C32  1  0.55210000  0.87010000  0.92520000  1.0 0.0310912821
C  C33  1  0.62130000  0.70430000  0.17340000  1.0 0.0425970265
C  C34  1  0.37620000  0.54640000  0.57370000  1.0 0.0310912821
C  C35  1  0.19790000  0.62690000  0.32700000  1.0 0.0425970265
C  C36  1  0.14080000  0.60840000  0.50090000  1.0 0.0619589518
C  C37  1  0.12990000  0.44790000  0.42520000  1.0 0.0310912821
C  C38  1  0.29570000  0.37870000  0.67340000  1.0 0.0425970265
N  N1  1  0.87460000  0.90300000  0.97220000  1.0 -0.3336410914
N  N2  1  0.09700000  0.12540000  0.47220000  1.0 -0.3336410914
N  N3  1  0.65330000  0.62450000  0.52870000  1.0 -0.3510871661
N  N4  1  0.37550000  0.34670000  0.02870000  1.0 -0.3510871661
N  N5  1  0.42840000  0.54380000  0.12050000  1.0 -0.3510871661
N  N6  1  0.29240000  0.83540000  0.72200000  1.0 -0.3510871661
N  N7  1  0.32520000  0.92500000  0.99920000  1.0 -0.3787451182
N  N8  1  0.58490000  0.94350000  0.87720000  1.0 -0.3606922422
N  N9  1  0.69230000  0.68010000  0.27750000  1.0 -0.3510871661
N  N10  1  0.60930000  0.63990000  0.00170000  1.0 0.191751005
N  N11  1  0.45620000  0.57160000  0.62050000  1.0 -0.3510871661
N  N12  1  0.16460000  0.70760000  0.22200000  1.0 -0.3510871661
N  N13  1  0.07500000  0.67480000  0.49920000  1.0 -0.3787451182
N  N14  1  0.05650000  0.41510000  0.37720000  1.0 -0.3606922422
N  N15  1  0.31990000  0.30770000  0.77750000  1.0 -0.3510871661
N  N16  1  0.36010000  0.39070000  0.50170000  1.0 0.191751005
O  O1  1  0.72410000  0.17250000  0.52790000  1.0 -0.7147530113
O  O2  1  0.82750000  0.27590000  0.02790000  1.0 -0.7147530113
O  O3  1  0.02720000  0.19520000  0.85570000  1.0 -0.729154924
O  O4  1  0.80480000  0.97280000  0.35570000  1.0 -0.729154924
O  O5  1  0.65820000  0.12260000  0.73310000  1.0 -0.7170113121
O  O6  1  0.87740000  0.34180000  0.23310000  1.0 -0.7170113121
O  O7  1  0.09110000  0.92530000  0.96800000  1.0 -0.729154924
O  O8  1  0.07470000  0.90890000  0.46800000  1.0 -0.729154924
O  O9  1  0.67630000  0.60650000  0.76680000  1.0 -0.7147530113
O  O10  1  0.39350000  0.32370000  0.26680000  1.0 -0.7147530113
O  O11  1  0.94640000  0.44940000  0.97300000  1.0 -0.7011421417
O  O12  1  0.55060000  0.05360000  0.47300000  1.0 -0.7011421417
O  O13  1  0.92230000  0.80010000  0.64570000  1.0 -0.6942005252
O  O14  1  0.19990000  0.07770000  0.14570000  1.0 -0.6942005252
O  O15  1  0.87360000  0.64340000  0.53190000  1.0 -0.7170113121
O  O16  1  0.35660000  0.12640000  0.03190000  1.0 -0.7170113121
O  O17  1  0.84870000  0.72630000  0.83470000  1.0 -0.6162910853
O  O18  1  0.27370000  0.15130000  0.33470000  1.0 -0.6162910853
O  O19  1  0.85620000  0.91140000  0.76000000  1.0 -0.5817452018
O  O20  1  0.08860000  0.14380000  0.26000000  1.0 -0.5817452018
O  O21  1  0.90130000  0.01370000  0.17500000  1.0 -0.6103518401
O  O22  1  0.98630000  0.09870000  0.67500000  1.0 -0.6103518401
O  O23  1  0.89425000  0.09505000  0.98260000  1.0 -0.5817452018
O  O24  1  0.90495000  0.10575000  0.48260000  1.0 -0.5817452018
O  O25  1  0.84490000  0.42190000  0.73970000  1.0 -0.5906689857
O  O26  1  0.57810000  0.15510000  0.23970000  1.0 -0.5906689857
O  O27  1  0.76480000  0.31040000  0.66550000  1.0 -0.6103518401
O  O28  1  0.68960000  0.23520000  0.16550000  1.0 -0.6103518401
O  O29  1  0.66120000  0.82860000  0.51720000  1.0 -0.5906689857
O  O30  1  0.17140000  0.33880000  0.01720000  1.0 -0.5906689857
O  O31  1  0.47630000  0.93950000  0.32490000  1.0 -0.6162910853
O  O32  1  0.06050000  0.52370000  0.82490000  1.0 -0.6162910853
O  O33  1  0.67520000  0.57400000  0.00040000  1.0 -0.0560392366
O  O34  1  0.42600000  0.32480000  0.50040000  1.0 -0.0560392366
