# DDEC6 charges by PACMAN v1.1 (https://github.com/mtap-research/PACMAN-charge/)
data_BUWMIR_ion_pacman
_symmetry_space_group_name_H-M   'P 1'
_cell_length_a   13.25430000
_cell_length_b   13.25430000
_cell_length_c   13.25660000
_cell_angle_alpha   63.74300000
_cell_angle_beta   116.25700000
_cell_angle_gamma   83.36940000
_symmetry_Int_Tables_number   1
_chemical_formula_structural   Ce2FeH22C19N8O17
_chemical_formula_sum   'Ce4 Fe2 H44 C38 N16 O34'
_cell_volume   1727.19627058
_cell_formula_units_Z   2
loop_
 _symmetry_equiv_pos_site_id
 _symmetry_equiv_pos_as_xyz
  1  'x, y, z'
loop_
 _atom_site_type_symbol
 _atom_site_label
 _atom_site_symmetry_multiplicity
 _atom_site_fract_x
 _atom_site_fract_y
 _atom_site_fract_z
 _atom_site_occupancy
 _atom_site_charge
Ce  Ce1  1  0.59025000  0.37499000  0.71532000  1.0 1.9570034733
Ce  Ce2  1  0.62501000  0.40975000  0.21532000  1.0 1.9570034733
Ce  Ce3  1  0.12510000  0.34014000  0.78480000  1.0 1.9673817744
Ce  Ce4  1  0.65986000  0.87490000  0.28480000  1.0 1.9673817744
Fe  Fe1  1  0.99998000  0.74970000  0.00021000  1.0 0.1807195311
Fe  Fe2  1  0.25030000  0.00002000  0.50021000  1.0 0.1807195311
H  H1  1  0.13650000  0.36930000  0.44100000  1.0 0.1301162494
H  H2  1  0.63070000  0.86350000  0.94100000  1.0 0.1301162494
H  H3  1  0.13890000  0.37470000  0.26400000  1.0 0.1215726389
H  H4  1  0.62530000  0.86110000  0.76400000  1.0 0.1215726389
H  H5  1  0.31060000  0.38160000  0.25510000  1.0 0.151632159
H  H6  1  0.61840000  0.68940000  0.75510000  1.0 0.151632159
H  H7  1  0.94490000  0.05970000  0.05880000  1.0 0.1301162494
H  H8  1  0.94030000  0.05510000  0.55880000  1.0 0.1301162494
H  H9  1  0.12500000  0.88960000  0.23620000  1.0 0.1215726389
H  H10  1  0.11040000  0.87500000  0.73620000  1.0 0.1215726389
H  H11  1  0.30480000  0.88660000  0.24470000  1.0 0.1437030872
H  H12  1  0.11340000  0.69520000  0.74470000  1.0 0.1437030872
H  H13  1  0.60820000  0.15280000  0.70140000  1.0 0.355995833
H  H14  1  0.84720000  0.39180000  0.20140000  1.0 0.355995833
H  H15  1  0.67650000  0.09650000  0.83920000  1.0 0.3494958496
H  H16  1  0.90350000  0.32350000  0.33920000  1.0 0.3494958496
H  H17  1  0.73590000  0.18670000  0.98290000  1.0 0.31336975
H  H18  1  0.81330000  0.26410000  0.48290000  1.0 0.31336975
H  H19  1  0.68380000  0.24620000  0.02070000  1.0 0.3741365364
H  H20  1  0.75380000  0.31620000  0.52070000  1.0 0.3741365364
H  H21  1  0.75470000  0.52710000  0.64340000  1.0 0.3762143841
H  H22  1  0.47290000  0.24530000  0.14340000  1.0 0.3762143841
H  H23  1  0.63090000  0.58550000  0.57360000  1.0 0.3216364374
H  H24  1  0.41450000  0.36910000  0.07360000  1.0 0.3216364374
H  H25  1  0.35330000  0.61930000  0.46850000  1.0 0.355995833
H  H26  1  0.38070000  0.64670000  0.96850000  1.0 0.355995833
H  H27  1  0.44720000  0.64520000  0.53690000  1.0 0.3426448693
H  H28  1  0.35480000  0.55280000  0.03690000  1.0 0.3426448693
H  H29  1  0.90110000  0.50550000  0.50270000  1.0 0.3741365364
H  H30  1  0.49450000  0.09890000  0.00270000  1.0 0.3741365364
H  H31  1  0.93990000  0.43350000  0.46760000  1.0 0.355995833
H  H32  1  0.56650000  0.06010000  0.96760000  1.0 0.355995833
H  H33  1  0.15360000  0.10620000  0.80470000  1.0 0.3494958496
H  H34  1  0.89380000  0.84640000  0.30470000  1.0 0.3494958496
H  H35  1  0.10240000  0.17980000  0.66820000  1.0 0.355995833
H  H36  1  0.82020000  0.89760000  0.16820000  1.0 0.355995833
H  H37  1  0.31940000  0.47880000  0.85750000  1.0 0.3494958496
H  H38  1  0.52120000  0.68060000  0.35750000  1.0 0.3494958496
H  H39  1  0.31940000  0.40280000  0.81370000  1.0 0.3494958496
H  H40  1  0.59720000  0.68060000  0.31370000  1.0 0.3494958496
H  H41  1  0.15170000  0.31630000  0.04240000  1.0 0.3982977113
H  H42  1  0.68370000  0.84830000  0.54240000  1.0 0.3982977113
H  H43  1  0.14330000  0.44150000  0.94730000  1.0 0.3982977113
H  H44  1  0.55850000  0.85670000  0.44730000  1.0 0.3982977113
C  C1  1  0.30661000  0.36781000  0.53510000  1.0 0.1301162494
C  C2  1  0.63219000  0.69339000  0.03510000  1.0 0.1301162494
C  C3  1  0.20424000  0.37044000  0.43620000  1.0 -0.1187237901
C  C4  1  0.62956000  0.79576000  0.93620000  1.0 -0.1187237901
C  C5  1  0.20530000  0.37490000  0.33030000  1.0 -0.0278816316
C  C6  1  0.62510000  0.79470000  0.83030000  1.0 -0.0278816316
C  C7  1  0.30719000  0.37959000  0.32450000  1.0 -0.0961922007
C  C8  1  0.62041000  0.69281000  0.82450000  1.0 -0.0961922007
C  C9  1  0.40308000  0.38128000  0.42430000  1.0 0.1131142294
C  C10  1  0.61872000  0.59692000  0.92430000  1.0 0.1131142294
C  C11  1  0.31619000  0.35599000  0.65820000  1.0 0.5990174106
C  C12  1  0.64401000  0.68381000  0.15820000  1.0 0.5990174106
C  C13  1  0.51424000  0.39284000  0.42270000  1.0 0.5990174106
C  C14  1  0.60716000  0.48576000  0.92270000  1.0 0.5990174106
C  C15  1  0.02153000  0.15373000  0.96480000  1.0 0.1301162494
C  C16  1  0.84627000  0.97847000  0.46480000  1.0 0.1301162494
C  C17  1  0.01770000  0.05650000  0.06390000  1.0 -0.1187237901
C  C18  1  0.94350000  0.98230000  0.56390000  1.0 -0.1187237901
C  C19  1  0.12490000  0.95590000  0.16950000  1.0 -0.0278816316
C  C20  1  0.04410000  0.87510000  0.66950000  1.0 -0.0278816316
C  C21  1  0.23211000  0.95431000  0.17550000  1.0 -0.106756256
C  C22  1  0.04569000  0.76789000  0.67550000  1.0 -0.106756256
C  C23  1  0.22854000  0.05594000  0.07610000  1.0 0.1131142294
C  C24  1  0.94406000  0.77146000  0.57610000  1.0 0.1131142294
C  C25  1  0.90796000  0.26496000  0.84220000  1.0 0.5990174106
C  C26  1  0.73504000  0.09204000  0.34220000  1.0 0.5990174106
C  C27  1  0.34152000  0.06632000  0.07720000  1.0 0.5990174106
C  C28  1  0.93368000  0.65848000  0.57720000  1.0 0.5990174106
C  C29  1  0.87890000  0.79550000  0.82590000  1.0 0.0404964173
C  C30  1  0.04570000  0.87730000  0.92510000  1.0 0.0193558638
C  C31  1  0.11100000  0.63900000  0.00000000  1.0 0.0598595431
C  C32  1  0.12850000  0.69690000  0.17420000  1.0 0.0404964173
C  C33  1  0.94780000  0.62860000  0.07590000  1.0 0.0193558638
C  C34  1  0.20450000  0.12110000  0.32590000  1.0 0.0404964173
C  C35  1  0.12270000  0.95430000  0.42510000  1.0 0.0193558638
C  C36  1  0.36100000  0.88900000  0.50000000  1.0 0.0598595431
C  C37  1  0.30310000  0.87150000  0.67420000  1.0 0.0404964173
C  C38  1  0.37140000  0.05220000  0.57590000  1.0 0.0193558638
N  N1  1  0.40339000  0.37399000  0.52880000  1.0 -0.3600169459
N  N2  1  0.62601000  0.59661000  0.02880000  1.0 -0.3600169459
N  N3  1  0.12541000  0.15321000  0.97180000  1.0 -0.3690479407
N  N4  1  0.84679000  0.87459000  0.47180000  1.0 -0.3690479407
N  N5  1  0.80760000  0.82080000  0.72200000  1.0 -0.3600169459
N  N6  1  0.07000000  0.95780000  0.87710000  1.0 -0.3600169459
N  N7  1  0.17450000  0.57490000  0.99990000  1.0 -0.3780073533
N  N8  1  0.20750000  0.66450000  0.27770000  1.0 -0.3600169459
N  N9  1  0.91436000  0.55716000  0.12210000  1.0 -0.3600169459
N  N10  1  0.89050000  0.86030000  0.00080000  1.0 0.1610486498
N  N11  1  0.17920000  0.19240000  0.22200000  1.0 -0.3600169459
N  N12  1  0.04220000  0.93000000  0.37710000  1.0 -0.3600169459
N  N13  1  0.42510000  0.82550000  0.49990000  1.0 -0.3780073533
N  N14  1  0.33550000  0.79250000  0.77770000  1.0 -0.3600169459
N  N15  1  0.44284000  0.08564000  0.62210000  1.0 -0.3600169459
N  N16  1  0.13970000  0.10950000  0.50080000  1.0 0.1610486498
O  O1  1  0.41239000  0.35607000  0.74070000  1.0 -0.6027074763
O  O2  1  0.64393000  0.58761000  0.24070000  1.0 -0.6027074763
O  O3  1  0.22676000  0.34816000  0.66760000  1.0 -0.6424569794
O  O4  1  0.65184000  0.77324000  0.16760000  1.0 -0.6424569794
O  O5  1  0.59746000  0.39326000  0.51920000  1.0 -0.6275962004
O  O6  1  0.60674000  0.40254000  0.01920000  1.0 -0.6275962004
O  O7  1  0.51590000  0.40130000  0.32550000  1.0 -0.6098251948
O  O8  1  0.59870000  0.48410000  0.82550000  1.0 -0.6098251948
O  O9  1  0.92166000  0.34748000  0.75900000  1.0 -0.6027074763
O  O10  1  0.65252000  0.07834000  0.25900000  1.0 -0.6027074763
O  O11  1  0.80920000  0.26620000  0.83260000  1.0 -0.6424569794
O  O12  1  0.73380000  0.19080000  0.33260000  1.0 -0.6424569794
O  O13  1  0.32800000  0.16224000  0.98130000  1.0 -0.6207627812
O  O14  1  0.83776000  0.67200000  0.48130000  1.0 -0.6207627812
O  O15  1  0.44065000  0.97643000  0.17490000  1.0 -0.6207627812
O  O16  1  0.02357000  0.55935000  0.67490000  1.0 -0.6207627812
O  O17  1  0.62324000  0.15984000  0.76490000  1.0 -0.7309831837
O  O18  1  0.84016000  0.37676000  0.26490000  1.0 -0.7309831837
O  O19  1  0.67175000  0.22215000  0.97010000  1.0 -0.7031030068
O  O20  1  0.77785000  0.32825000  0.47010000  1.0 -0.7031030068
O  O21  1  0.69319000  0.52779000  0.64560000  1.0 -0.7088196287
O  O22  1  0.47221000  0.30681000  0.14560000  1.0 -0.7088196287
O  O23  1  0.42477000  0.58977000  0.53400000  1.0 -0.7309831837
O  O24  1  0.41023000  0.57523000  0.03400000  1.0 -0.7309831837
O  O25  1  0.95267000  0.44187000  0.53000000  1.0 -0.7088196287
O  O26  1  0.55813000  0.04733000  0.03000000  1.0 -0.7088196287
O  O27  1  0.10755000  0.17495000  0.73460000  1.0 -0.7181599895
O  O28  1  0.82505000  0.89245000  0.23460000  1.0 -0.7181599895
O  O29  1  0.29814000  0.42294000  0.85490000  1.0 -0.7181599895
O  O30  1  0.57706000  0.70186000  0.35490000  1.0 -0.7181599895
O  O31  1  0.14212000  0.37292000  0.96730000  1.0 -0.771709145
O  O32  1  0.62708000  0.85788000  0.46730000  1.0 -0.771709145
O  O33  1  0.82460000  0.92600000  0.00050000  1.0 -0.0443488741
O  O34  1  0.07400000  0.17540000  0.50050000  1.0 -0.0443488741
