# DDEC6 charges by PACMAN v1.1 (https://github.com/mtap-research/PACMAN-charge/)
data_CACMEC_ASR_pacman
_symmetry_space_group_name_H-M   'P 1'
_cell_length_a   12.11750000
_cell_length_b   12.42980000
_cell_length_c   13.33400000
_cell_angle_alpha   117.66500000
_cell_angle_beta   90.09300000
_cell_angle_gamma   92.33300000
_symmetry_Int_Tables_number   1
_chemical_formula_structural   MnH24C12(NO)4
_chemical_formula_sum   'Mn2 H48 C24 N8 O8'
_cell_volume   1776.79054055
_cell_formula_units_Z   2
loop_
 _symmetry_equiv_pos_site_id
 _symmetry_equiv_pos_as_xyz
  1  'x, y, z'
loop_
 _atom_site_type_symbol
 _atom_site_label
 _atom_site_symmetry_multiplicity
 _atom_site_fract_x
 _atom_site_fract_y
 _atom_site_fract_z
 _atom_site_occupancy
 _atom_site_charge
Mn  Mn1  1  0.50000000  0.50000000  0.50000000  1.0 0.8323433491
Mn  Mn2  1  0.00000000  0.00000000  0.50000000  1.0 0.8323433491
H  H1  1  0.28350000  0.71658000  0.63814000  1.0 0.1206523056
H  H2  1  0.26286000  0.58174000  0.53561000  1.0 0.1206523056
H  H3  1  0.10404000  0.62705000  0.48290000  1.0 0.1206523056
H  H4  1  0.10682000  0.73916000  0.60845000  1.0 0.1206523056
H  H5  1  0.39584000  0.85696000  0.48428000  1.0 0.1206523056
H  H6  1  0.39793000  0.86841000  0.60923000  1.0 0.1206523056
H  H7  1  0.22249000  0.92160000  0.63867000  1.0 0.1206523056
H  H8  1  0.23842000  0.95389000  0.53601000  1.0 0.1206523056
H  H9  1  0.27120000  0.56275000  0.34176000  1.0 0.1206523056
H  H10  1  0.35256000  0.65389000  0.31915000  1.0 0.1206523056
H  H11  1  0.22052000  0.78025000  0.34216000  1.0 0.1206523056
H  H12  1  0.13802000  0.66666667  0.31978000  1.0 0.1206523056
H  H13  1  0.26104000  0.40364000  0.59682000  1.0 0.1253946877
H  H14  1  0.36365000  0.31820000  0.57398000  1.0 0.1253946877
H  H15  1  0.24202000  0.19396000  0.59788000  1.0 0.1253946877
H  H16  1  0.13846000  0.25543000  0.57315000  1.0 0.1206523056
H  H17  1  0.18063000  0.29557000  0.30930000  1.0 0.1206523056
H  H18  1  0.13336000  0.35056000  0.43504000  1.0 0.1206523056
H  H19  1  0.05717000  0.16339000  0.37450000  1.0 0.1206523056
H  H20  1  0.14392000  0.10355000  0.27469000  1.0 0.1206523056
H  H21  1  0.43878000  0.21304000  0.37612000  1.0 0.1206523056
H  H22  1  0.34872000  0.17291000  0.27508000  1.0 0.1206523056
H  H23  1  0.31114000  0.01506000  0.30960000  1.0 0.1206523056
H  H24  1  0.36426000  0.08484000  0.43522000  1.0 0.1206523056
H  H25  1  0.71650000  0.28342000  0.36186000  1.0 0.1206523056
H  H26  1  0.73714000  0.41826000  0.46439000  1.0 0.1206523056
H  H27  1  0.89596000  0.37295000  0.51710000  1.0 0.1206523056
H  H28  1  0.89318000  0.26084000  0.39155000  1.0 0.1206523056
H  H29  1  0.60416000  0.14304000  0.51572000  1.0 0.1206523056
H  H30  1  0.60207000  0.13159000  0.39077000  1.0 0.1206523056
H  H31  1  0.77751000  0.07840000  0.36133000  1.0 0.1206523056
H  H32  1  0.76158000  0.04611000  0.46399000  1.0 0.1206523056
H  H33  1  0.72880000  0.43725000  0.65824000  1.0 0.1206523056
H  H34  1  0.64744000  0.34611000  0.68085000  1.0 0.1253946877
H  H35  1  0.77948000  0.21975000  0.65784000  1.0 0.1206523056
H  H36  1  0.86198000  0.33333333  0.68022000  1.0 0.1206523056
H  H37  1  0.73896000  0.59636000  0.40318000  1.0 0.1253946877
H  H38  1  0.63635000  0.68180000  0.42602000  1.0 0.1253946877
H  H39  1  0.75798000  0.80604000  0.40212000  1.0 0.1253946877
H  H40  1  0.86154000  0.74457000  0.42685000  1.0 0.1206523056
H  H41  1  0.81937000  0.70443000  0.69070000  1.0 0.1206523056
H  H42  1  0.86664000  0.64944000  0.56496000  1.0 0.1206523056
H  H43  1  0.94283000  0.83661000  0.62550000  1.0 0.1206523056
H  H44  1  0.85608000  0.89645000  0.72531000  1.0 0.1206523056
H  H45  1  0.56122000  0.78696000  0.62388000  1.0 0.1206523056
H  H46  1  0.65128000  0.82709000  0.72492000  1.0 0.1206523056
H  H47  1  0.68886000  0.98494000  0.69040000  1.0 0.1206523056
H  H48  1  0.63574000  0.91516000  0.56478000  1.0 0.1206523056
C  C1  1  0.26230000  0.66940000  0.55690000  1.0 -0.2199365405
C  C2  1  0.14670000  0.70160000  0.53630000  1.0 -0.208240516
C  C3  1  0.35520000  0.83470000  0.53690000  1.0 -0.208240516
C  C4  1  0.24000000  0.88760000  0.55740000  1.0 -0.2199365405
C  C5  1  0.29540000  0.64920000  0.37010000  1.0 -0.2030713913
C  C6  1  0.19780000  0.72190000  0.37040000  1.0 -0.208240516
C  C7  1  0.28920000  0.32290000  0.54600000  1.0 -0.2199365405
C  C8  1  0.21200000  0.22330000  0.54630000  1.0 -0.2199365405
C  C9  1  0.18080000  0.28810000  0.38010000  1.0 -0.208240516
C  C10  1  0.13640000  0.16120000  0.35590000  1.0 -0.208240516
C  C11  1  0.35890000  0.19620000  0.35640000  1.0 -0.2030713913
C  C12  1  0.31430000  0.09300000  0.38050000  1.0 -0.208240516
C  C13  1  0.73770000  0.33060000  0.44310000  1.0 -0.2199365405
C  C14  1  0.85330000  0.29840000  0.46370000  1.0 -0.208240516
C  C15  1  0.64480000  0.16530000  0.46310000  1.0 -0.208240516
C  C16  1  0.76000000  0.11240000  0.44260000  1.0 -0.2199365405
C  C17  1  0.70460000  0.35080000  0.62990000  1.0 -0.208240516
C  C18  1  0.80220000  0.27810000  0.62960000  1.0 -0.2030713913
C  C19  1  0.71080000  0.67710000  0.45400000  1.0 -0.2199365405
C  C20  1  0.78800000  0.77670000  0.45370000  1.0 -0.2199365405
C  C21  1  0.81920000  0.71190000  0.61990000  1.0 -0.208240516
C  C22  1  0.86360000  0.83880000  0.64410000  1.0 -0.208240516
C  C23  1  0.64110000  0.80380000  0.64360000  1.0 -0.2030713913
C  C24  1  0.68570000  0.90700000  0.61950000  1.0 -0.208240516
N  N1  1  0.34210000  0.69870000  0.48690000  1.0 0.2787350955
N  N2  1  0.15720000  0.78880000  0.48790000  1.0 0.2787350955
N  N3  1  0.29580000  0.30700000  0.42730000  1.0 0.2920149955
N  N4  1  0.20200000  0.12080000  0.42780000  1.0 0.2920149955
N  N5  1  0.65790000  0.30130000  0.51310000  1.0 0.2787350955
N  N6  1  0.84280000  0.21120000  0.51210000  1.0 0.2787350955
N  N7  1  0.70420000  0.69300000  0.57270000  1.0 0.2920149955
N  N8  1  0.79800000  0.87920000  0.57220000  1.0 0.2920149955
O  O1  1  0.44450000  0.65340000  0.48480000  1.0 -0.5837994275
O  O2  1  0.05470000  0.83260000  0.48660000  1.0 -0.5837994275
O  O3  1  0.34470000  0.40910000  0.42590000  1.0 -0.5915831534
O  O4  1  0.15230000  0.01750000  0.42610000  1.0 -0.5915831534
O  O5  1  0.55550000  0.34660000  0.51520000  1.0 -0.5837994275
O  O6  1  0.94530000  0.16740000  0.51340000  1.0 -0.5837994275
O  O7  1  0.65530000  0.59090000  0.57410000  1.0 -0.5915831534
O  O8  1  0.84770000  0.98250000  0.57390000  1.0 -0.5915831534
