# DDEC6 charges by PACMAN v1.1 (https://github.com/mtap-research/PACMAN-charge/)
data_CADXEO_ASR_pacman
_symmetry_space_group_name_H-M   'P 1'
_cell_length_a   18.83350000
_cell_length_b   18.83350000
_cell_length_c   18.83350000
_cell_angle_alpha   60.00000000
_cell_angle_beta   60.00000000
_cell_angle_gamma   60.00000000
_symmetry_Int_Tables_number   1
_chemical_formula_structural   Zr3H48(C45O8)2
_chemical_formula_sum   'Zr6 H96 C180 O32'
_cell_volume   4723.65435478
_cell_formula_units_Z   2
loop_
 _symmetry_equiv_pos_site_id
 _symmetry_equiv_pos_as_xyz
  1  'x, y, z'
loop_
 _atom_site_type_symbol
 _atom_site_label
 _atom_site_symmetry_multiplicity
 _atom_site_fract_x
 _atom_site_fract_y
 _atom_site_fract_z
 _atom_site_occupancy
 _atom_site_charge
Zr  Zr1  1  0.59550000  0.40450000  0.59550000  1.0 2.3353198841
Zr  Zr2  1  0.40450000  0.59550000  0.40450000  1.0 2.3317325428
Zr  Zr3  1  0.40450000  0.59550000  0.59550000  1.0 2.3317325428
Zr  Zr4  1  0.59550000  0.40450000  0.40450000  1.0 2.3317325428
Zr  Zr5  1  0.59550000  0.59550000  0.40450000  1.0 2.3317325428
Zr  Zr6  1  0.40450000  0.40450000  0.59550000  1.0 2.3317325428
H  H1  1  0.84380000  0.37860000  0.58760000  1.0 0.0772351829
H  H2  1  0.96420000  0.30460000  0.64100000  1.0 0.0772351829
H  H3  1  0.58760000  0.19000000  0.84380000  1.0 0.0772351829
H  H4  1  0.64100000  0.09020000  0.96420000  1.0 0.0772351829
H  H5  1  0.37860000  0.84380000  0.19000000  1.0 0.0772351829
H  H6  1  0.30460000  0.96420000  0.09020000  1.0 0.0772351829
H  H7  1  0.19000000  0.58760000  0.37860000  1.0 0.0772351829
H  H8  1  0.09020000  0.64100000  0.30460000  1.0 0.0772351829
H  H9  1  0.37860000  0.58760000  0.84380000  1.0 0.0772351829
H  H10  1  0.30460000  0.64100000  0.96420000  1.0 0.0772351829
H  H11  1  0.19000000  0.84380000  0.58760000  1.0 0.0772351829
H  H12  1  0.09020000  0.96420000  0.64100000  1.0 0.0772351829
H  H13  1  0.84380000  0.19000000  0.37860000  1.0 0.0772351829
H  H14  1  0.96420000  0.09020000  0.30460000  1.0 0.0772351829
H  H15  1  0.58760000  0.37860000  0.19000000  1.0 0.0772351829
H  H16  1  0.64100000  0.30460000  0.09020000  1.0 0.0772351829
H  H17  1  0.58760000  0.84380000  0.37860000  1.0 0.0772351829
H  H18  1  0.64100000  0.96420000  0.30460000  1.0 0.0772351829
H  H19  1  0.84380000  0.58760000  0.19000000  1.0 0.0772351829
H  H20  1  0.96420000  0.64100000  0.09020000  1.0 0.0772351829
H  H21  1  0.19000000  0.37860000  0.84380000  1.0 0.0772351829
H  H22  1  0.09020000  0.30460000  0.96420000  1.0 0.0772351829
H  H23  1  0.37860000  0.19000000  0.58760000  1.0 0.0772351829
H  H24  1  0.30460000  0.09020000  0.64100000  1.0 0.0772351829
H  H25  1  0.15620000  0.81000000  0.41240000  1.0 0.0772351829
H  H26  1  0.03580000  0.90980000  0.35900000  1.0 0.0772351829
H  H27  1  0.41240000  0.62140000  0.15620000  1.0 0.0772351829
H  H28  1  0.35900000  0.69540000  0.03580000  1.0 0.0772351829
H  H29  1  0.62140000  0.41240000  0.81000000  1.0 0.0772351829
H  H30  1  0.69540000  0.35900000  0.90980000  1.0 0.0772351829
H  H31  1  0.81000000  0.15620000  0.62140000  1.0 0.0772351829
H  H32  1  0.90980000  0.03580000  0.69540000  1.0 0.0772351829
H  H33  1  0.62140000  0.81000000  0.15620000  1.0 0.0772351829
H  H34  1  0.69540000  0.90980000  0.03580000  1.0 0.0772351829
H  H35  1  0.81000000  0.62140000  0.41240000  1.0 0.0772351829
H  H36  1  0.90980000  0.69540000  0.35900000  1.0 0.0772351829
H  H37  1  0.15620000  0.41240000  0.62140000  1.0 0.0772351829
H  H38  1  0.03580000  0.35900000  0.69540000  1.0 0.0772351829
H  H39  1  0.41240000  0.15620000  0.81000000  1.0 0.0772351829
H  H40  1  0.35900000  0.03580000  0.90980000  1.0 0.0772351829
H  H41  1  0.41240000  0.81000000  0.62140000  1.0 0.0772351829
H  H42  1  0.35900000  0.90980000  0.69540000  1.0 0.0772351829
H  H43  1  0.15620000  0.62140000  0.81000000  1.0 0.0772351829
H  H44  1  0.03580000  0.69540000  0.90980000  1.0 0.0772351829
H  H45  1  0.81000000  0.41240000  0.15620000  1.0 0.0772351829
H  H46  1  0.90980000  0.35900000  0.03580000  1.0 0.0772351829
H  H47  1  0.62140000  0.15620000  0.41240000  1.0 0.0772351829
H  H48  1  0.69540000  0.03580000  0.35900000  1.0 0.0772351829
H  H49  1  0.15620000  0.62140000  0.41240000  1.0 0.0772351829
H  H50  1  0.03580000  0.69540000  0.35900000  1.0 0.0772351829
H  H51  1  0.41240000  0.81000000  0.15620000  1.0 0.0772351829
H  H52  1  0.35900000  0.90980000  0.03580000  1.0 0.0772351829
H  H53  1  0.62140000  0.15620000  0.81000000  1.0 0.0772351829
H  H54  1  0.69540000  0.03580000  0.90980000  1.0 0.0772351829
H  H55  1  0.81000000  0.41240000  0.62140000  1.0 0.0772351829
H  H56  1  0.90980000  0.35900000  0.69540000  1.0 0.0772351829
H  H57  1  0.62140000  0.41240000  0.15620000  1.0 0.0772351829
H  H58  1  0.69540000  0.35900000  0.03580000  1.0 0.0772351829
H  H59  1  0.81000000  0.15620000  0.41240000  1.0 0.0772351829
H  H60  1  0.90980000  0.03580000  0.35900000  1.0 0.0772351829
H  H61  1  0.15620000  0.81000000  0.62140000  1.0 0.0772351829
H  H62  1  0.03580000  0.90980000  0.69540000  1.0 0.0772351829
H  H63  1  0.41240000  0.62140000  0.81000000  1.0 0.0772351829
H  H64  1  0.35900000  0.69540000  0.90980000  1.0 0.0772351829
H  H65  1  0.41240000  0.15620000  0.62140000  1.0 0.0772351829
H  H66  1  0.35900000  0.03580000  0.69540000  1.0 0.0772351829
H  H67  1  0.15620000  0.41240000  0.81000000  1.0 0.0772351829
H  H68  1  0.03580000  0.35900000  0.90980000  1.0 0.0772351829
H  H69  1  0.81000000  0.62140000  0.15620000  1.0 0.0772351829
H  H70  1  0.90980000  0.69540000  0.03580000  1.0 0.0772351829
H  H71  1  0.62140000  0.81000000  0.41240000  1.0 0.0772351829
H  H72  1  0.69540000  0.90980000  0.35900000  1.0 0.0772351829
H  H73  1  0.84380000  0.19000000  0.58760000  1.0 0.0772351829
H  H74  1  0.96420000  0.09020000  0.64100000  1.0 0.0772351829
H  H75  1  0.58760000  0.37860000  0.84380000  1.0 0.0772351829
H  H76  1  0.64100000  0.30460000  0.96420000  1.0 0.0772351829
H  H77  1  0.37860000  0.58760000  0.19000000  1.0 0.0772351829
H  H78  1  0.30460000  0.64100000  0.09020000  1.0 0.0772351829
H  H79  1  0.19000000  0.84380000  0.37860000  1.0 0.0772351829
H  H80  1  0.09020000  0.96420000  0.30460000  1.0 0.0772351829
H  H81  1  0.37860000  0.19000000  0.84380000  1.0 0.0772351829
H  H82  1  0.30460000  0.09020000  0.96420000  1.0 0.0772351829
H  H83  1  0.19000000  0.37860000  0.58760000  1.0 0.0772351829
H  H84  1  0.09020000  0.30460000  0.64100000  1.0 0.0772351829
H  H85  1  0.84380000  0.58760000  0.37860000  1.0 0.0772351829
H  H86  1  0.96420000  0.64100000  0.30460000  1.0 0.0772351829
H  H87  1  0.58760000  0.84380000  0.19000000  1.0 0.0772351829
H  H88  1  0.64100000  0.96420000  0.09020000  1.0 0.0772351829
H  H89  1  0.58760000  0.19000000  0.37860000  1.0 0.0772351829
H  H90  1  0.64100000  0.09020000  0.30460000  1.0 0.0772351829
H  H91  1  0.84380000  0.37860000  0.19000000  1.0 0.0772351829
H  H92  1  0.96420000  0.30460000  0.09020000  1.0 0.0772351829
H  H93  1  0.19000000  0.58760000  0.84380000  1.0 0.0772351829
H  H94  1  0.09020000  0.64100000  0.96420000  1.0 0.0772351829
H  H95  1  0.37860000  0.84380000  0.58760000  1.0 0.0772351829
H  H96  1  0.30460000  0.96420000  0.64100000  1.0 0.0772351829
C  C1  1  0.86280000  0.42760000  0.55220000  1.0 -0.0853177728
C  C2  1  0.93520000  0.42800000  0.55200000  1.0 0.0531017883
C  C3  1  0.98310000  0.35370000  0.60550000  1.0 -0.0795765578
C  C4  1  0.55220000  0.15740000  0.86280000  1.0 -0.0795765578
C  C5  1  0.55200000  0.08480000  0.93520000  1.0 0.0531017883
C  C6  1  0.60550000  0.05770000  0.98310000  1.0 -0.0795765578
C  C7  1  0.42760000  0.86280000  0.15740000  1.0 -0.0853177728
C  C8  1  0.42800000  0.93520000  0.08480000  1.0 0.0531017883
C  C9  1  0.35370000  0.98310000  0.05770000  1.0 -0.0795765578
C  C10  1  0.15740000  0.55220000  0.42760000  1.0 -0.0853177728
C  C11  1  0.08480000  0.55200000  0.42800000  1.0 0.0531017883
C  C12  1  0.05770000  0.60550000  0.35370000  1.0 -0.0795765578
C  C13  1  0.42760000  0.55220000  0.86280000  1.0 -0.0795765578
C  C14  1  0.42800000  0.55200000  0.93520000  1.0 0.0531017883
C  C15  1  0.35370000  0.60550000  0.98310000  1.0 -0.0795765578
C  C16  1  0.15740000  0.86280000  0.55220000  1.0 -0.0853177728
C  C17  1  0.08480000  0.93520000  0.55200000  1.0 0.0531017883
C  C18  1  0.05770000  0.98310000  0.60550000  1.0 -0.0795765578
C  C19  1  0.86280000  0.15740000  0.42760000  1.0 -0.0795765578
C  C20  1  0.93520000  0.08480000  0.42800000  1.0 0.0531017883
C  C21  1  0.98310000  0.05770000  0.35370000  1.0 -0.0795765578
C  C22  1  0.55220000  0.42760000  0.15740000  1.0 -0.0853177728
C  C23  1  0.55200000  0.42800000  0.08480000  1.0 0.0531017883
C  C24  1  0.60550000  0.35370000  0.05770000  1.0 -0.0795765578
C  C25  1  0.55220000  0.86280000  0.42760000  1.0 -0.0795765578
C  C26  1  0.55200000  0.93520000  0.42800000  1.0 0.0531017883
C  C27  1  0.60550000  0.98310000  0.35370000  1.0 -0.0795765578
C  C28  1  0.86280000  0.55220000  0.15740000  1.0 -0.0795765578
C  C29  1  0.93520000  0.55200000  0.08480000  1.0 0.0531017883
C  C30  1  0.98310000  0.60550000  0.05770000  1.0 -0.0795765578
C  C31  1  0.15740000  0.42760000  0.86280000  1.0 -0.0853177728
C  C32  1  0.08480000  0.42800000  0.93520000  1.0 0.0531017883
C  C33  1  0.05770000  0.35370000  0.98310000  1.0 -0.0795765578
C  C34  1  0.42760000  0.15740000  0.55220000  1.0 -0.0853177728
C  C35  1  0.42800000  0.08480000  0.55200000  1.0 0.0531017883
C  C36  1  0.35370000  0.05770000  0.60550000  1.0 -0.0795765578
C  C37  1  0.13720000  0.84260000  0.44780000  1.0 -0.0853177728
C  C38  1  0.06480000  0.91520000  0.44800000  1.0 0.0531017883
C  C39  1  0.01690000  0.94230000  0.39450000  1.0 -0.0795765578
C  C40  1  0.44780000  0.57240000  0.13720000  1.0 -0.0853177728
C  C41  1  0.44800000  0.57200000  0.06480000  1.0 0.0531017883
C  C42  1  0.39450000  0.64630000  0.01690000  1.0 -0.0795765578
C  C43  1  0.57240000  0.44780000  0.84260000  1.0 -0.0795765578
C  C44  1  0.57200000  0.44800000  0.91520000  1.0 0.0531017883
C  C45  1  0.64630000  0.39450000  0.94230000  1.0 -0.0795765578
C  C46  1  0.84260000  0.13720000  0.57240000  1.0 -0.0795765578
C  C47  1  0.91520000  0.06480000  0.57200000  1.0 0.0531017883
C  C48  1  0.94230000  0.01690000  0.64630000  1.0 -0.0795765578
C  C49  1  0.57240000  0.84260000  0.13720000  1.0 -0.0795765578
C  C50  1  0.57200000  0.91520000  0.06480000  1.0 0.0531017883
C  C51  1  0.64630000  0.94230000  0.01690000  1.0 -0.0795765578
C  C52  1  0.84260000  0.57240000  0.44780000  1.0 -0.0795765578
C  C53  1  0.91520000  0.57200000  0.44800000  1.0 0.0531017883
C  C54  1  0.94230000  0.64630000  0.39450000  1.0 -0.0795765578
C  C55  1  0.13720000  0.44780000  0.57240000  1.0 -0.0853177728
C  C56  1  0.06480000  0.44800000  0.57200000  1.0 0.0531017883
C  C57  1  0.01690000  0.39450000  0.64630000  1.0 -0.0795765578
C  C58  1  0.44780000  0.13720000  0.84260000  1.0 -0.0853177728
C  C59  1  0.44800000  0.06480000  0.91520000  1.0 0.0531017883
C  C60  1  0.39450000  0.01690000  0.94230000  1.0 -0.0795765578
C  C61  1  0.44780000  0.84260000  0.57240000  1.0 -0.0795765578
C  C62  1  0.44800000  0.91520000  0.57200000  1.0 0.0531017883
C  C63  1  0.39450000  0.94230000  0.64630000  1.0 -0.0795765578
C  C64  1  0.13720000  0.57240000  0.84260000  1.0 -0.0853177728
C  C65  1  0.06480000  0.57200000  0.91520000  1.0 0.0531017883
C  C66  1  0.01690000  0.64630000  0.94230000  1.0 -0.0795765578
C  C67  1  0.84260000  0.44780000  0.13720000  1.0 -0.0795765578
C  C68  1  0.91520000  0.44800000  0.06480000  1.0 0.0531017883
C  C69  1  0.94230000  0.39450000  0.01690000  1.0 -0.0795765578
C  C70  1  0.57240000  0.13720000  0.44780000  1.0 -0.0795765578
C  C71  1  0.57200000  0.06480000  0.44800000  1.0 0.0531017883
C  C72  1  0.64630000  0.01690000  0.39450000  1.0 -0.0795765578
C  C73  1  0.13720000  0.57240000  0.44780000  1.0 -0.0853177728
C  C74  1  0.06480000  0.57200000  0.44800000  1.0 0.0531017883
C  C75  1  0.01690000  0.64630000  0.39450000  1.0 -0.0795765578
C  C76  1  0.44780000  0.84260000  0.13720000  1.0 -0.0853177728
C  C77  1  0.44800000  0.91520000  0.06480000  1.0 0.0531017883
C  C78  1  0.39450000  0.94230000  0.01690000  1.0 -0.0795765578
C  C79  1  0.57240000  0.13720000  0.84260000  1.0 -0.0795765578
C  C80  1  0.57200000  0.06480000  0.91520000  1.0 0.0531017883
C  C81  1  0.64630000  0.01690000  0.94230000  1.0 -0.0795765578
C  C82  1  0.84260000  0.44780000  0.57240000  1.0 -0.0795765578
C  C83  1  0.91520000  0.44800000  0.57200000  1.0 0.0531017883
C  C84  1  0.94230000  0.39450000  0.64630000  1.0 -0.0795765578
C  C85  1  0.57240000  0.44780000  0.13720000  1.0 -0.0795765578
C  C86  1  0.57200000  0.44800000  0.06480000  1.0 0.0531017883
C  C87  1  0.64630000  0.39450000  0.01690000  1.0 -0.0795765578
C  C88  1  0.84260000  0.13720000  0.44780000  1.0 -0.0853177728
C  C89  1  0.91520000  0.06480000  0.44800000  1.0 0.0531017883
C  C90  1  0.94230000  0.01690000  0.39450000  1.0 -0.0795765578
C  C91  1  0.13720000  0.84260000  0.57240000  1.0 -0.0853177728
C  C92  1  0.06480000  0.91520000  0.57200000  1.0 0.0531017883
C  C93  1  0.01690000  0.94230000  0.64630000  1.0 -0.0795765578
C  C94  1  0.44780000  0.57240000  0.84260000  1.0 -0.0853177728
C  C95  1  0.44800000  0.57200000  0.91520000  1.0 0.0531017883
C  C96  1  0.39450000  0.64630000  0.94230000  1.0 -0.0795765578
C  C97  1  0.44780000  0.13720000  0.57240000  1.0 -0.0853177728
C  C98  1  0.44800000  0.06480000  0.57200000  1.0 0.0531017883
C  C99  1  0.39450000  0.01690000  0.64630000  1.0 -0.0795765578
C  C100  1  0.13720000  0.44780000  0.84260000  1.0 -0.0853177728
C  C101  1  0.06480000  0.44800000  0.91520000  1.0 0.0531017883
C  C102  1  0.01690000  0.39450000  0.94230000  1.0 -0.0795765578
C  C103  1  0.84260000  0.57240000  0.13720000  1.0 -0.0795765578
C  C104  1  0.91520000  0.57200000  0.06480000  1.0 0.0531017883
C  C105  1  0.94230000  0.64630000  0.01690000  1.0 -0.0795765578
C  C106  1  0.57240000  0.84260000  0.44780000  1.0 -0.0853177728
C  C107  1  0.57200000  0.91520000  0.44800000  1.0 0.0531017883
C  C108  1  0.64630000  0.94230000  0.39450000  1.0 -0.0795765578
C  C109  1  0.86280000  0.15740000  0.55220000  1.0 -0.0853177728
C  C110  1  0.93520000  0.08480000  0.55200000  1.0 0.0531017883
C  C111  1  0.98310000  0.05770000  0.60550000  1.0 -0.0795765578
C  C112  1  0.55220000  0.42760000  0.86280000  1.0 -0.0795765578
C  C113  1  0.55200000  0.42800000  0.93520000  1.0 0.0531017883
C  C114  1  0.60550000  0.35370000  0.98310000  1.0 -0.0795765578
C  C115  1  0.42760000  0.55220000  0.15740000  1.0 -0.0853177728
C  C116  1  0.42800000  0.55200000  0.08480000  1.0 0.0531017883
C  C117  1  0.35370000  0.60550000  0.05770000  1.0 -0.0795765578
C  C118  1  0.15740000  0.86280000  0.42760000  1.0 -0.0853177728
C  C119  1  0.08480000  0.93520000  0.42800000  1.0 0.0531017883
C  C120  1  0.05770000  0.98310000  0.35370000  1.0 -0.0795765578
C  C121  1  0.42760000  0.15740000  0.86280000  1.0 -0.0853177728
C  C122  1  0.42800000  0.08480000  0.93520000  1.0 0.0531017883
C  C123  1  0.35370000  0.05770000  0.98310000  1.0 -0.0795765578
C  C124  1  0.15740000  0.42760000  0.55220000  1.0 -0.0853177728
C  C125  1  0.08480000  0.42800000  0.55200000  1.0 0.0531017883
C  C126  1  0.05770000  0.35370000  0.60550000  1.0 -0.0795765578
C  C127  1  0.86280000  0.55220000  0.42760000  1.0 -0.0795765578
C  C128  1  0.93520000  0.55200000  0.42800000  1.0 0.0531017883
C  C129  1  0.98310000  0.60550000  0.35370000  1.0 -0.0795765578
C  C130  1  0.55220000  0.86280000  0.15740000  1.0 -0.0853177728
C  C131  1  0.55200000  0.93520000  0.08480000  1.0 0.0531017883
C  C132  1  0.60550000  0.98310000  0.05770000  1.0 -0.0795765578
C  C133  1  0.55220000  0.15740000  0.42760000  1.0 -0.0795765578
C  C134  1  0.55200000  0.08480000  0.42800000  1.0 0.0531017883
C  C135  1  0.60550000  0.05770000  0.35370000  1.0 -0.0795765578
C  C136  1  0.86280000  0.42760000  0.15740000  1.0 -0.0853177728
C  C137  1  0.93520000  0.42800000  0.08480000  1.0 0.0531017883
C  C138  1  0.98310000  0.35370000  0.05770000  1.0 -0.0795765578
C  C139  1  0.15740000  0.55220000  0.86280000  1.0 -0.0795765578
C  C140  1  0.08480000  0.55200000  0.93520000  1.0 0.0531017883
C  C141  1  0.05770000  0.60550000  0.98310000  1.0 -0.0795765578
C  C142  1  0.42760000  0.86280000  0.55220000  1.0 -0.0853177728
C  C143  1  0.42800000  0.93520000  0.55200000  1.0 0.0531017883
C  C144  1  0.35370000  0.98310000  0.60550000  1.0 -0.0795765578
C  C145  1  0.73740000  0.50000000  0.50000000  1.0 0.5074011012
C  C146  1  0.81600000  0.50000000  0.50000000  1.0 -0.0097055782
C  C147  1  0.96300000  0.50000000  0.50000000  1.0 -0.0302607861
C  C148  1  0.50000000  0.26260000  0.73740000  1.0 0.5074011012
C  C149  1  0.50000000  0.18400000  0.81600000  1.0 -0.0097055782
C  C150  1  0.50000000  0.03700000  0.96300000  1.0 -0.0360206255
C  C151  1  0.50000000  0.73740000  0.26260000  1.0 0.5074011012
C  C152  1  0.50000000  0.81600000  0.18400000  1.0 -0.0097055782
C  C153  1  0.50000000  0.96300000  0.03700000  1.0 -0.0302607861
C  C154  1  0.26260000  0.50000000  0.50000000  1.0 0.5074011012
C  C155  1  0.18400000  0.50000000  0.50000000  1.0 -0.0097055782
C  C156  1  0.03700000  0.50000000  0.50000000  1.0 -0.0302607861
C  C157  1  0.50000000  0.50000000  0.73740000  1.0 0.5074011012
C  C158  1  0.50000000  0.50000000  0.81600000  1.0 -0.0097055782
C  C159  1  0.50000000  0.50000000  0.96300000  1.0 -0.0360206255
C  C160  1  0.26260000  0.73740000  0.50000000  1.0 0.5074011012
C  C161  1  0.18400000  0.81600000  0.50000000  1.0 -0.0097055782
C  C162  1  0.03700000  0.96300000  0.50000000  1.0 -0.0302607861
C  C163  1  0.73740000  0.26260000  0.50000000  1.0 0.5074011012
C  C164  1  0.81600000  0.18400000  0.50000000  1.0 -0.0097055782
C  C165  1  0.96300000  0.03700000  0.50000000  1.0 -0.0360206255
C  C166  1  0.50000000  0.50000000  0.26260000  1.0 0.5074011012
C  C167  1  0.50000000  0.50000000  0.18400000  1.0 -0.0097055782
C  C168  1  0.50000000  0.50000000  0.03700000  1.0 -0.0243435065
C  C169  1  0.50000000  0.73740000  0.50000000  1.0 0.5074011012
C  C170  1  0.50000000  0.81600000  0.50000000  1.0 -0.0097055782
C  C171  1  0.50000000  0.96300000  0.50000000  1.0 -0.0302607861
C  C172  1  0.73740000  0.50000000  0.26260000  1.0 0.5074011012
C  C173  1  0.81600000  0.50000000  0.18400000  1.0 -0.0097055782
C  C174  1  0.96300000  0.50000000  0.03700000  1.0 -0.0243435065
C  C175  1  0.26260000  0.50000000  0.73740000  1.0 0.5074011012
C  C176  1  0.18400000  0.50000000  0.81600000  1.0 -0.0097055782
C  C177  1  0.03700000  0.50000000  0.96300000  1.0 -0.0360206255
C  C178  1  0.50000000  0.26260000  0.50000000  1.0 0.5074011012
C  C179  1  0.50000000  0.18400000  0.50000000  1.0 -0.0097055782
C  C180  1  0.50000000  0.03700000  0.50000000  1.0 -0.0360206255
O  O1  1  0.70680000  0.44020000  0.55980000  1.0 -0.5738453713
O  O2  1  0.55980000  0.29320000  0.70680000  1.0 -0.5738453713
O  O3  1  0.44020000  0.70680000  0.29320000  1.0 -0.5738453713
O  O4  1  0.29320000  0.55980000  0.44020000  1.0 -0.5738453713
O  O5  1  0.44020000  0.55980000  0.70680000  1.0 -0.5738453713
O  O6  1  0.29320000  0.70680000  0.55980000  1.0 -0.5738453713
O  O7  1  0.70680000  0.29320000  0.44020000  1.0 -0.5738453713
O  O8  1  0.55980000  0.44020000  0.29320000  1.0 -0.5738453713
O  O9  1  0.55980000  0.70680000  0.44020000  1.0 -0.5738453713
O  O10  1  0.70680000  0.55980000  0.29320000  1.0 -0.5738453713
O  O11  1  0.29320000  0.44020000  0.70680000  1.0 -0.5738453713
O  O12  1  0.44020000  0.29320000  0.55980000  1.0 -0.5738453713
O  O13  1  0.29320000  0.70680000  0.44020000  1.0 -0.5738453713
O  O14  1  0.44020000  0.55980000  0.29320000  1.0 -0.5738453713
O  O15  1  0.55980000  0.44020000  0.70680000  1.0 -0.5738453713
O  O16  1  0.70680000  0.29320000  0.55980000  1.0 -0.5738453713
O  O17  1  0.55980000  0.70680000  0.29320000  1.0 -0.5750181005
O  O18  1  0.70680000  0.55980000  0.44020000  1.0 -0.5738453713
O  O19  1  0.29320000  0.44020000  0.55980000  1.0 -0.5738453713
O  O20  1  0.44020000  0.29320000  0.70680000  1.0 -0.5738453713
O  O21  1  0.44020000  0.70680000  0.55980000  1.0 -0.5738453713
O  O22  1  0.29320000  0.55980000  0.70680000  1.0 -0.5738453713
O  O23  1  0.70680000  0.44020000  0.29320000  1.0 -0.5738453713
O  O24  1  0.55980000  0.29320000  0.44020000  1.0 -0.5738453713
O  O25  1  0.54400000  0.54400000  0.54400000  1.0 -0.9973142754
O  O26  1  0.54400000  0.36800000  0.54400000  1.0 -0.9973142754
O  O27  1  0.54400000  0.54400000  0.36800000  1.0 -0.9973142754
O  O28  1  0.36800000  0.54400000  0.54400000  1.0 -0.9973142754
O  O29  1  0.45600000  0.63200000  0.45600000  1.0 -0.9949330614
O  O30  1  0.45600000  0.45600000  0.45600000  1.0 -0.9973142754
O  O31  1  0.45600000  0.45600000  0.63200000  1.0 -0.9973142754
O  O32  1  0.63200000  0.45600000  0.45600000  1.0 -0.9973142754
