# DDEC6 charges by PACMAN v1.1 (https://github.com/mtap-research/PACMAN-charge/)
data_CADYOZ_FSR_pacman
_symmetry_space_group_name_H-M   'P 1'
_cell_length_a   17.32570000
_cell_length_b   17.32570000
_cell_length_c   17.32570000
_cell_angle_alpha   118.14600000
_cell_angle_beta   118.14600000
_cell_angle_gamma   118.14600000
_symmetry_Int_Tables_number   1
_chemical_formula_structural   MnH2(C3O2)2
_chemical_formula_sum   'Mn6 H12 C36 O24'
_cell_volume   1820.34061922
_cell_formula_units_Z   6
loop_
 _symmetry_equiv_pos_site_id
 _symmetry_equiv_pos_as_xyz
  1  'x, y, z'
loop_
 _atom_site_type_symbol
 _atom_site_label
 _atom_site_symmetry_multiplicity
 _atom_site_fract_x
 _atom_site_fract_y
 _atom_site_fract_z
 _atom_site_occupancy
 _atom_site_charge
Mn  Mn1  1  0.13983000  0.72729000  0.41602000  1.0 0.9475081892
Mn  Mn2  1  0.72729000  0.41602000  0.13983000  1.0 0.9475081892
Mn  Mn3  1  0.41602000  0.13983000  0.72729000  1.0 0.9475081892
Mn  Mn4  1  0.86017000  0.27271000  0.58398000  1.0 0.9475081892
Mn  Mn5  1  0.27271000  0.58398000  0.86017000  1.0 0.9475081892
Mn  Mn6  1  0.58398000  0.86017000  0.27271000  1.0 0.9475081892
H  H1  1  0.43754000  0.02172000  0.00264000  1.0 0.0907472751
H  H2  1  0.28038000  0.77736000  0.89596000  1.0 0.0676054427
H  H3  1  0.02172000  0.00264000  0.43754000  1.0 0.0907472751
H  H4  1  0.77736000  0.89596000  0.28038000  1.0 0.0676054427
H  H5  1  0.00264000  0.43754000  0.02172000  1.0 0.0907472751
H  H6  1  0.89596000  0.28038000  0.77736000  1.0 0.0676054427
H  H7  1  0.56246000  0.97828000  0.99736000  1.0 0.0907472751
H  H8  1  0.71962000  0.22264000  0.10404000  1.0 0.0676054427
H  H9  1  0.97828000  0.99736000  0.56246000  1.0 0.0907472751
H  H10  1  0.22264000  0.10404000  0.71962000  1.0 0.0676054427
H  H11  1  0.99736000  0.56246000  0.97828000  1.0 0.0907472751
H  H12  1  0.10404000  0.71962000  0.22264000  1.0 0.0676054427
C  C1  1  0.34039000  0.98571000  0.79248000  1.0 0.5575374992
C  C2  1  0.23982000  0.82924000  0.71829000  1.0 -0.1701012495
C  C3  1  0.06675000  0.62848000  0.50913000  1.0 0.2630650731
C  C4  1  0.31073000  0.87332000  0.84870000  1.0 -0.1170874293
C  C5  1  0.21173000  0.73179000  0.78038000  1.0 -0.1170874293
C  C6  1  0.03493000  0.52333000  0.56489000  1.0 -0.0605589368
C  C7  1  0.98571000  0.79248000  0.34039000  1.0 0.5575374992
C  C8  1  0.82924000  0.71829000  0.23982000  1.0 -0.1701012495
C  C9  1  0.62848000  0.50913000  0.06675000  1.0 0.2630650731
C  C10  1  0.87332000  0.84870000  0.31073000  1.0 -0.1170874293
C  C11  1  0.73179000  0.78038000  0.21173000  1.0 -0.1170874293
C  C12  1  0.52333000  0.56489000  0.03493000  1.0 -0.0605589368
C  C13  1  0.79248000  0.34039000  0.98571000  1.0 0.5575374992
C  C14  1  0.71829000  0.23982000  0.82924000  1.0 -0.1701012495
C  C15  1  0.50913000  0.06675000  0.62848000  1.0 0.2630650731
C  C16  1  0.84870000  0.31073000  0.87332000  1.0 -0.1170874293
C  C17  1  0.78038000  0.21173000  0.73179000  1.0 -0.1170874293
C  C18  1  0.56489000  0.03493000  0.52333000  1.0 -0.0605589368
C  C19  1  0.65961000  0.01429000  0.20752000  1.0 0.5575374992
C  C20  1  0.76018000  0.17076000  0.28171000  1.0 -0.1701012495
C  C21  1  0.93325000  0.37152000  0.49087000  1.0 0.2630650731
C  C22  1  0.68927000  0.12668000  0.15130000  1.0 -0.1170874293
C  C23  1  0.78827000  0.26821000  0.21962000  1.0 -0.1170874293
C  C24  1  0.96507000  0.47667000  0.43511000  1.0 -0.0605589368
C  C25  1  0.01429000  0.20752000  0.65961000  1.0 0.5575374992
C  C26  1  0.17076000  0.28171000  0.76018000  1.0 -0.1701012495
C  C27  1  0.37152000  0.49087000  0.93325000  1.0 0.2630650731
C  C28  1  0.12668000  0.15130000  0.68927000  1.0 -0.1170874293
C  C29  1  0.26821000  0.21962000  0.78827000  1.0 -0.1170874293
C  C30  1  0.47667000  0.43511000  0.96507000  1.0 -0.0605589368
C  C31  1  0.20752000  0.65961000  0.01429000  1.0 0.5575374992
C  C32  1  0.28171000  0.76018000  0.17076000  1.0 -0.1701012495
C  C33  1  0.49087000  0.93325000  0.37152000  1.0 0.2630650731
C  C34  1  0.15130000  0.68927000  0.12668000  1.0 -0.1170874293
C  C35  1  0.21962000  0.78827000  0.26821000  1.0 -0.1170874293
C  C36  1  0.43511000  0.96507000  0.47667000  1.0 -0.0605589368
O  O1  1  0.48237000  0.15178000  0.96305000  1.0 -0.4976319292
O  O2  1  0.28507000  0.94825000  0.68654000  1.0 -0.4717507033
O  O3  1  0.99788000  0.58430000  0.38362000  1.0 -0.5972059635
O  O4  1  0.61418000  0.37618000  0.81624000  1.0 0.1050558271
O  O5  1  0.15178000  0.96305000  0.48237000  1.0 -0.4976319292
O  O6  1  0.94825000  0.68654000  0.28507000  1.0 -0.4717507033
O  O7  1  0.58430000  0.38362000  0.99788000  1.0 -0.5972059635
O  O8  1  0.37618000  0.81624000  0.61418000  1.0 0.1050558271
O  O9  1  0.96305000  0.48237000  0.15178000  1.0 -0.4976319292
O  O10  1  0.68654000  0.28507000  0.94825000  1.0 -0.4717507033
O  O11  1  0.38362000  0.99788000  0.58430000  1.0 -0.5972059635
O  O12  1  0.81624000  0.61418000  0.37618000  1.0 0.1050558271
O  O13  1  0.51763000  0.84822000  0.03695000  1.0 -0.4976319292
O  O14  1  0.71493000  0.05175000  0.31346000  1.0 -0.4717507033
O  O15  1  0.00212000  0.41570000  0.61638000  1.0 -0.5972059635
O  O16  1  0.38582000  0.62382000  0.18376000  1.0 0.1050558271
O  O17  1  0.84822000  0.03695000  0.51763000  1.0 -0.4976319292
O  O18  1  0.05175000  0.31346000  0.71493000  1.0 -0.4717507033
O  O19  1  0.41570000  0.61638000  0.00212000  1.0 -0.5972059635
O  O20  1  0.62382000  0.18376000  0.38582000  1.0 0.1050558271
O  O21  1  0.03695000  0.51763000  0.84822000  1.0 -0.4976319292
O  O22  1  0.31346000  0.71493000  0.05175000  1.0 -0.4717507033
O  O23  1  0.61638000  0.00212000  0.41570000  1.0 -0.5972059635
O  O24  1  0.18376000  0.38582000  0.62382000  1.0 0.1044818343
