# DDEC6 charges by PACMAN v1.1 (https://github.com/mtap-research/PACMAN-charge/)
data_CAHQAG_FSR_pacman
_symmetry_space_group_name_H-M   'P 1'
_cell_length_a   10.29090000
_cell_length_b   10.65500000
_cell_length_c   11.42210000
_cell_angle_alpha   79.59400000
_cell_angle_beta   75.33400000
_cell_angle_gamma   61.90600000
_symmetry_Int_Tables_number   1
_chemical_formula_structural   MnH19C23(NO3)2
_chemical_formula_sum   'Mn2 H38 C46 N4 O12'
_cell_volume   1066.09453577
_cell_formula_units_Z   2
loop_
 _symmetry_equiv_pos_site_id
 _symmetry_equiv_pos_as_xyz
  1  'x, y, z'
loop_
 _atom_site_type_symbol
 _atom_site_label
 _atom_site_symmetry_multiplicity
 _atom_site_fract_x
 _atom_site_fract_y
 _atom_site_fract_z
 _atom_site_occupancy
 _atom_site_charge
Mn  Mn1  1  0.55889000  0.35795000  0.19134000  1.0 0.9009593962
Mn  Mn2  1  0.44111000  0.64205000  0.80866000  1.0 0.9009593962
H  H1  1  0.54530000  0.35110000  0.44220000  1.0 0.3089042766
H  H2  1  0.45470000  0.64890000  0.55780000  1.0 0.3089042766
H  H3  1  0.66470000  0.37740000  0.38140000  1.0 0.3501201508
H  H4  1  0.33530000  0.62260000  0.61860000  1.0 0.3501201508
H  H5  1  0.49450000  0.16870000  0.84130000  1.0 0.1204303125
H  H6  1  0.50550000  0.83130000  0.15870000  1.0 0.1204303125
H  H7  1  0.70450000  0.88300000  0.09260000  1.0 0.1256166635
H  H8  1  0.29550000  0.11700000  0.90740000  1.0 0.1256166635
H  H9  1  0.91170000  0.86030000  0.91960000  1.0 0.1123727469
H  H10  1  0.08830000  0.13970000  0.08040000  1.0 0.1123727469
H  H11  1  0.08820000  0.13250000  0.78430000  1.0 0.1204303125
H  H12  1  0.91180000  0.86750000  0.21570000  1.0 0.1204303125
H  H13  1  0.84920000  0.31960000  0.81110000  1.0 0.1204303125
H  H14  1  0.15080000  0.68040000  0.18890000  1.0 0.1204303125
H  H15  1  0.28460000  0.45410000  0.41270000  1.0 0.074182534
H  H16  1  0.71540000  0.54590000  0.58730000  1.0 0.074182534
H  H17  1  0.09090000  0.40420000  0.51360000  1.0 0.0876186846
H  H18  1  0.90910000  0.59580000  0.48640000  1.0 0.0839298306
H  H19  1  0.18790000  0.15410000  0.24960000  1.0 0.1123727469
H  H20  1  0.81210000  0.84590000  0.75040000  1.0 0.1123727469
H  H21  1  0.38630000  0.20000000  0.16280000  1.0 0.0981075392
H  H22  1  0.61370000  0.80000000  0.83720000  1.0 0.0981075392
H  H23  1  0.76860000  0.19290000  0.55310000  1.0 0.1123727469
H  H24  1  0.23140000  0.80710000  0.44690000  1.0 0.1123727469
H  H25  1  0.86570000  0.07740000  0.64300000  1.0 0.0981075392
H  H26  1  0.13430000  0.92260000  0.35700000  1.0 0.0981075392
H  H27  1  0.14370000  0.97500000  0.58620000  1.0 0.1123727469
H  H28  1  0.85630000  0.02500000  0.41380000  1.0 0.1123727469
H  H29  1  0.21590000  0.02900000  0.46210000  1.0 0.0981075392
H  H30  1  0.78410000  0.97100000  0.53790000  1.0 0.0981075392
H  H31  1  0.34270000  0.35620000  0.44000000  1.0 0.0876186846
H  H32  1  0.65730000  0.64380000  0.56000000  1.0 0.0876186846
H  H33  1  0.15870000  0.28430000  0.52650000  1.0 0.0876186846
H  H34  1  0.84130000  0.71570000  0.47350000  1.0 0.0876186846
H  H35  1  0.07760000  0.31170000  0.20170000  1.0 0.1204303125
H  H36  1  0.92240000  0.68830000  0.79830000  1.0 0.1204303125
H  H37  1  0.29160000  0.33970000  0.11860000  1.0 0.1123727469
H  H38  1  0.70840000  0.66030000  0.88140000  1.0 0.1123727469
C  C1  1  0.49710000  0.10080000  0.90570000  1.0 -0.155106193
C  C2  1  0.50290000  0.89920000  0.09430000  1.0 -0.155106193
C  C3  1  0.62230000  0.03260000  0.96090000  1.0 0.0596743239
C  C4  1  0.37770000  0.96740000  0.03910000  1.0 0.0596743239
C  C5  1  0.62180000  0.93100000  0.05500000  1.0 -0.135880551
C  C6  1  0.37820000  0.06900000  0.94500000  1.0 -0.135880551
C  C7  1  0.58810000  0.33310000  0.91030000  1.0 0.5788831947
C  C8  1  0.41190000  0.66690000  0.08970000  1.0 0.5788831947
C  C9  1  0.17690000  0.85480000  0.83260000  1.0 0.5459196804
C  C10  1  0.82310000  0.14520000  0.16740000  1.0 0.5459196804
C  C11  1  0.73730000  0.20360000  0.88570000  1.0 -0.0496800865
C  C12  1  0.26270000  0.79640000  0.11430000  1.0 -0.0496800865
C  C13  1  0.75370000  0.06510000  0.91590000  1.0 0.0479909642
C  C14  1  0.24630000  0.93490000  0.08410000  1.0 0.0479909642
C  C15  1  0.89870000  0.95330000  0.89840000  1.0 -0.1748657586
C  C16  1  0.10130000  0.04670000  0.10160000  1.0 -0.1748657586
C  C17  1  0.02340000  0.97680000  0.85030000  1.0 -0.0118638454
C  C18  1  0.97660000  0.02320000  0.14970000  1.0 -0.0118638454
C  C19  1  0.00530000  0.11520000  0.81740000  1.0 -0.1238105322
C  C20  1  0.99470000  0.88480000  0.18260000  1.0 -0.1238105322
C  C21  1  0.86210000  0.22680000  0.83450000  1.0 -0.1141482206
C  C22  1  0.13790000  0.77320000  0.16550000  1.0 -0.1141482206
C  C23  1  0.26400000  0.39300000  0.38000000  1.0 -0.0118638454
C  C24  1  0.73600000  0.60700000  0.62000000  1.0 -0.0118638454
C  C25  1  0.14600000  0.36700000  0.43910000  1.0 -0.0787448908
C  C26  1  0.85400000  0.63300000  0.56090000  1.0 -0.0787448908
C  C27  1  0.10660000  0.28100000  0.38290000  1.0 -0.0013649251
C  C28  1  0.89340000  0.71900000  0.61710000  1.0 -0.0013649251
C  C29  1  0.20290000  0.21800000  0.28390000  1.0 -0.0856604452
C  C30  1  0.79710000  0.78200000  0.71610000  1.0 -0.0856604452
C  C31  1  0.32290000  0.24600000  0.23200000  1.0 0.0304262246
C  C32  1  0.67710000  0.75400000  0.76800000  1.0 0.0304262246
C  C33  1  0.97120000  0.26070000  0.44060000  1.0 0.3089042766
C  C34  1  0.02880000  0.73930000  0.55940000  1.0 0.3089042766
C  C35  1  0.86170000  0.10700000  0.55810000  1.0 -0.1238105322
C  C36  1  0.13830000  0.89300000  0.44190000  1.0 -0.1238105322
C  C37  1  0.13330000  0.00710000  0.50260000  1.0 -0.135880551
C  C38  1  0.86670000  0.99290000  0.49740000  1.0 -0.135880551
C  C39  1  0.30100000  0.33200000  0.39000000  1.0 0.0304262246
C  C40  1  0.69900000  0.66800000  0.61000000  1.0 0.0304262246
C  C41  1  0.18200000  0.29700000  0.44200000  1.0 -0.0496800865
C  C42  1  0.81800000  0.70300000  0.55800000  1.0 -0.0496800865
C  C43  1  0.13900000  0.30800000  0.25050000  1.0 -0.0787448908
C  C44  1  0.86100000  0.69200000  0.74950000  1.0 -0.0787448908
C  C45  1  0.26400000  0.32800000  0.20250000  1.0 -0.0118638454
C  C46  1  0.73600000  0.67200000  0.79750000  1.0 -0.0118638454
N  N1  1  0.35330000  0.33290000  0.27490000  1.0 -0.1820945354
N  N2  1  0.64670000  0.66710000  0.72510000  1.0 -0.1820945354
N  N3  1  0.98950000  0.13590000  0.49870000  1.0 -0.1477012249
N  N4  1  0.01050000  0.86410000  0.50130000  1.0 -0.1477012249
O  O1  1  0.51740000  0.34890000  0.01690000  1.0 -0.547255254
O  O2  1  0.48260000  0.65110000  0.98310000  1.0 -0.547255254
O  O3  1  0.54690000  0.41880000  0.82150000  1.0 -0.5357266428
O  O4  1  0.45310000  0.58120000  0.17850000  1.0 -0.5357266428
O  O5  1  0.19260000  0.73030000  0.86520000  1.0 -0.5230041506
O  O6  1  0.80740000  0.26970000  0.13480000  1.0 -0.5230041506
O  O7  1  0.28870000  0.87870000  0.78640000  1.0 -0.547255254
O  O8  1  0.71130000  0.12130000  0.21360000  1.0 -0.547255254
O  O9  1  0.84600000  0.36240000  0.43280000  1.0 -0.4773850801
O  O10  1  0.15400000  0.63760000  0.56720000  1.0 -0.4773850801
O  O11  1  0.58430000  0.37820000  0.37380000  1.0 -0.6575357976
O  O12  1  0.41570000  0.62180000  0.62620000  1.0 -0.6575357976
