# DDEC6 charges by PACMAN v1.1 (https://github.com/mtap-research/PACMAN-charge/)
data_CAHQOS_ASR_pacman
_symmetry_space_group_name_H-M   'P 1'
_cell_length_a   8.70100000
_cell_length_b   9.21000000
_cell_length_c   12.47160000
_cell_angle_alpha   103.58100000
_cell_angle_beta   110.27300000
_cell_angle_gamma   102.08000000
_symmetry_Int_Tables_number   1
_chemical_formula_structural   Al4P4O17
_chemical_formula_sum   'Al8 P8 O34'
_cell_volume   863.76712959
_cell_formula_units_Z   2
loop_
 _symmetry_equiv_pos_site_id
 _symmetry_equiv_pos_as_xyz
  1  'x, y, z'
loop_
 _atom_site_type_symbol
 _atom_site_label
 _atom_site_symmetry_multiplicity
 _atom_site_fract_x
 _atom_site_fract_y
 _atom_site_fract_z
 _atom_site_occupancy
 _atom_site_charge
Al  Al1  1  0.92560000  0.41450000  0.62410000  1.0 1.7395224297
Al  Al2  1  0.07440000  0.58550000  0.37590000  1.0 1.7395224297
Al  Al3  1  0.49490000  0.36200000  0.14430000  1.0 1.7998575294
Al  Al4  1  0.50510000  0.63800000  0.85570000  1.0 1.7998575294
Al  Al5  1  0.96260000  0.27340000  0.94280000  1.0 1.7614603364
Al  Al6  1  0.03740000  0.72660000  0.05720000  1.0 1.7614603364
Al  Al7  1  0.64110000  0.93950000  0.14620000  1.0 1.778637799
Al  Al8  1  0.35890000  0.06050000  0.85380000  1.0 1.778637799
P  P1  1  0.20210000  0.31710000  0.80110000  1.0 1.5790798986
P  P2  1  0.79790000  0.68290000  0.19890000  1.0 1.569360646
P  P3  1  0.78620000  0.28840000  0.34330000  1.0 1.5540271127
P  P4  1  0.21380000  0.71160000  0.65670000  1.0 1.5632452095
P  P5  1  0.28840000  0.01610000  0.06780000  1.0 1.5632452095
P  P6  1  0.71160000  0.98390000  0.93220000  1.0 1.569360646
P  P7  1  0.78300000  0.47610000  0.81930000  1.0 1.5924626911
P  P8  1  0.21700000  0.52390000  0.18070000  1.0 1.5924626911
O  O1  1  0.79910000  0.31240000  0.47230000  1.0 -0.8004389381
O  O2  1  0.20090000  0.68760000  0.52770000  1.0 -0.8004389381
O  O3  1  0.76710000  0.11920000  0.28350000  1.0 -0.7407225048
O  O4  1  0.23290000  0.88080000  0.71650000  1.0 -0.7407225048
O  O5  1  0.78410000  0.43410000  0.69350000  1.0 -0.7917991674
O  O6  1  0.21590000  0.56590000  0.30650000  1.0 -0.7917991674
O  O7  1  0.48680000  0.25030000  0.99840000  1.0 -0.7596396959
O  O8  1  0.51320000  0.74970000  0.00160000  1.0 -0.7596396959
O  O9  1  0.64010000  0.34200000  0.27680000  1.0 -0.8193912184
O  O10  1  0.35990000  0.65800000  0.72320000  1.0 -0.8193912184
O  O11  1  0.26150000  0.17500000  0.77000000  1.0 -0.7529481029
O  O12  1  0.73850000  0.82500000  0.23000000  1.0 -0.7529481029
O  O13  1  0.34570000  0.47160000  0.85780000  1.0 -0.7222239053
O  O14  1  0.65430000  0.52840000  0.14220000  1.0 -0.7222239053
O  O15  1  0.95930000  0.39390000  0.35400000  1.0 -0.8193912184
O  O16  1  0.04070000  0.60610000  0.64600000  1.0 -0.8193912184
O  O17  1  0.06060000  0.31280000  0.68400000  1.0 -0.8301444029
O  O18  1  0.93940000  0.68720000  0.31600000  1.0 -0.8301444029
O  O19  1  0.79630000  0.33940000  0.86780000  1.0 -0.8193912184
O  O20  1  0.20370000  0.66060000  0.13220000  1.0 -0.8193912184
O  O21  1  0.12080000  0.29850000  0.89030000  1.0 -0.8301444029
O  O22  1  0.87920000  0.70150000  0.10970000  1.0 -0.8301444029
O  O23  1  0.61850000  0.50870000  0.81300000  1.0 -0.7654757774
O  O24  1  0.38150000  0.49130000  0.18700000  1.0 -0.7596396959
O  O25  1  0.44190000  0.96950000  0.13470000  1.0 -0.7917991674
O  O26  1  0.55810000  0.03050000  0.86530000  1.0 -0.7917991674
O  O27  1  0.12830000  0.92300000  0.07870000  1.0 -0.7596396959
O  O28  1  0.87170000  0.07700000  0.92130000  1.0 -0.7596396959
O  O29  1  0.31470000  0.18980000  0.12420000  1.0 -0.7830201661
O  O30  1  0.68530000  0.81020000  0.87580000  1.0 -0.7917991674
O  O31  1  0.24930000  0.97470000  0.93290000  1.0 -0.7830201661
O  O32  1  0.75070000  0.02530000  0.06710000  1.0 -0.7830201661
O  O33  1  0.94460000  0.61950000  0.90260000  1.0 -0.8004389381
O  O34  1  0.05540000  0.38050000  0.09740000  1.0 -0.8004389381
