# DDEC6 charges by PACMAN v1.1 (https://github.com/mtap-research/PACMAN-charge/)
data_CAHVAJ_ASR_pacman
_symmetry_space_group_name_H-M   'P 1'
_cell_length_a   9.64480000
_cell_length_b   8.87700000
_cell_length_c   17.40100000
_cell_angle_alpha   90.00000000
_cell_angle_beta   121.70300000
_cell_angle_gamma   90.00000000
_symmetry_Int_Tables_number   1
_chemical_formula_structural   V4(PO4)5
_chemical_formula_sum   'V8 P10 O40'
_cell_volume   1267.51398609
_cell_formula_units_Z   2
loop_
 _symmetry_equiv_pos_site_id
 _symmetry_equiv_pos_as_xyz
  1  'x, y, z'
loop_
 _atom_site_type_symbol
 _atom_site_label
 _atom_site_symmetry_multiplicity
 _atom_site_fract_x
 _atom_site_fract_y
 _atom_site_fract_z
 _atom_site_occupancy
 _atom_site_charge
V  V1  1  0.78420000  0.99790000  0.84870000  1.0 1.8508367908
V  V2  1  0.21580000  0.99790000  0.65130000  1.0 1.8508367908
V  V3  1  0.21580000  0.00210000  0.15130000  1.0 1.8508367908
V  V4  1  0.78420000  0.00210000  0.34870000  1.0 1.8508367908
V  V5  1  0.27530000  0.49980000  0.10680000  1.0 1.8078916145
V  V6  1  0.72470000  0.49980000  0.39320000  1.0 1.7966811729
V  V7  1  0.72470000  0.50020000  0.89320000  1.0 1.8078916145
V  V8  1  0.27530000  0.50020000  0.60680000  1.0 1.8078916145
P  P1  1  0.00330000  0.74730000  0.99530000  1.0 1.5387786997
P  P2  1  0.99670000  0.74730000  0.50470000  1.0 1.5387786997
P  P3  1  0.99670000  0.25270000  0.00470000  1.0 1.5387786997
P  P4  1  0.00330000  0.25270000  0.49530000  1.0 1.5387786997
P  P5  1  0.50000000  0.25310000  0.75000000  1.0 1.5167427135
P  P6  1  0.50000000  0.74690000  0.25000000  1.0 1.5167427135
P  P7  1  0.50000000  0.75230000  0.75000000  1.0 1.4890824032
P  P8  1  0.50000000  0.24770000  0.25000000  1.0 1.4890824032
P  P9  1  0.00000000  0.10460000  0.75000000  1.0 1.390889771
P  P10  1  0.00000000  0.89540000  0.25000000  1.0 1.390889771
O  O1  1  0.95870000  0.83830000  0.91180000  1.0 -0.7812379581
O  O2  1  0.04130000  0.83830000  0.58820000  1.0 -0.7812379581
O  O3  1  0.04130000  0.16170000  0.08820000  1.0 -0.7812379581
O  O4  1  0.95870000  0.16170000  0.41180000  1.0 -0.7812379581
O  O5  1  0.15240000  0.64960000  0.01670000  1.0 -0.74746912
O  O6  1  0.84760000  0.64960000  0.48330000  1.0 -0.74746912
O  O7  1  0.84760000  0.35040000  0.98330000  1.0 -0.74746912
O  O8  1  0.15240000  0.35040000  0.51670000  1.0 -0.74746912
O  O9  1  0.04290000  0.84270000  0.07780000  1.0 -0.7812379581
O  O10  1  0.95710000  0.84270000  0.42220000  1.0 -0.7812379581
O  O11  1  0.95710000  0.15730000  0.92220000  1.0 -0.7812379581
O  O12  1  0.04290000  0.15730000  0.57780000  1.0 -0.7812379581
O  O13  1  0.63810000  0.84550000  0.75630000  1.0 -0.7689995843
O  O14  1  0.36190000  0.84550000  0.74370000  1.0 -0.7689995843
O  O15  1  0.36190000  0.15450000  0.24370000  1.0 -0.7689995843
O  O16  1  0.63810000  0.15450000  0.25630000  1.0 -0.7689995843
O  O17  1  0.64200000  0.16070000  0.76170000  1.0 -0.7812379581
O  O18  1  0.35800000  0.16070000  0.73830000  1.0 -0.7812379581
O  O19  1  0.35800000  0.83930000  0.23830000  1.0 -0.7854649949
O  O20  1  0.64200000  0.83930000  0.26170000  1.0 -0.7812379581
O  O21  1  0.56360000  0.65020000  0.83460000  1.0 -0.7419890093
O  O22  1  0.43640000  0.65020000  0.66540000  1.0 -0.7419890093
O  O23  1  0.43640000  0.34980000  0.16540000  1.0 -0.7419890093
O  O24  1  0.56360000  0.34980000  0.33460000  1.0 -0.7419890093
O  O25  1  0.55410000  0.35520000  0.83380000  1.0 -0.7419890093
O  O26  1  0.44590000  0.35520000  0.66620000  1.0 -0.74746912
O  O27  1  0.44590000  0.64480000  0.16620000  1.0 -0.74746912
O  O28  1  0.55410000  0.64480000  0.33380000  1.0 -0.74746912
O  O29  1  0.86160000  0.64390000  0.98020000  1.0 -0.7419890093
O  O30  1  0.13840000  0.64390000  0.51980000  1.0 -0.74746912
O  O31  1  0.13840000  0.35610000  0.01980000  1.0 -0.74746912
O  O32  1  0.86160000  0.35610000  0.48020000  1.0 -0.7419890093
O  O33  1  0.88130000  0.01100000  0.75990000  1.0 -0.7180638539
O  O34  1  0.11870000  0.01100000  0.74010000  1.0 -0.7180638539
O  O35  1  0.11870000  0.98900000  0.24010000  1.0 -0.7180638539
O  O36  1  0.88130000  0.98900000  0.25990000  1.0 -0.7180638539
O  O37  1  0.09350000  0.21140000  0.83410000  1.0 -0.5809415805
O  O38  1  0.90650000  0.21140000  0.66590000  1.0 -0.5809415805
O  O39  1  0.90650000  0.78860000  0.16590000  1.0 -0.5809415805
O  O40  1  0.09350000  0.78860000  0.33410000  1.0 -0.5809415805
