# DDEC6 charges by PACMAN v1.1 (https://github.com/mtap-research/PACMAN-charge/)
data_CAMZOJ_ASR_pacman
_symmetry_space_group_name_H-M   'P 1'
_cell_length_a   16.77120000
_cell_length_b   16.77120000
_cell_length_c   16.77120000
_cell_angle_alpha   68.16760000
_cell_angle_beta   68.16760000
_cell_angle_gamma   68.16760000
_symmetry_Int_Tables_number   1
_chemical_formula_structural   CuH13C22(NO2)2
_chemical_formula_sum   'Cu6 H78 C132 N12 O24'
_cell_volume   3912.66548554
_cell_formula_units_Z   6
loop_
 _symmetry_equiv_pos_site_id
 _symmetry_equiv_pos_as_xyz
  1  'x, y, z'
loop_
 _atom_site_type_symbol
 _atom_site_label
 _atom_site_symmetry_multiplicity
 _atom_site_fract_x
 _atom_site_fract_y
 _atom_site_fract_z
 _atom_site_occupancy
 _atom_site_charge
Cu  Cu1  1  0.57408000  0.01286000  0.99940000  1.0 0.8530133777
Cu  Cu2  1  0.01286000  0.99940000  0.57408000  1.0 0.8530133777
Cu  Cu3  1  0.99940000  0.57408000  0.01286000  1.0 0.8530133777
Cu  Cu4  1  0.42592000  0.00060000  0.98714000  1.0 0.8530133777
Cu  Cu5  1  0.98714000  0.42592000  0.00060000  1.0 0.8530133777
Cu  Cu6  1  0.00060000  0.98714000  0.42592000  1.0 0.8530133777
H  H1  1  0.73419000  0.02929000  0.72757000  1.0 0.14752409
H  H2  1  0.71773000  0.01373000  0.49809000  1.0 0.1578327877
H  H3  1  0.50563000  0.02410000  0.71010000  1.0 0.13670688
H  H4  1  0.41260000  0.10863000  0.66104000  1.0 0.2708496712
H  H5  1  0.20981000  0.36874000  0.75628000  1.0 0.14752409
H  H6  1  0.17856000  0.29996000  0.84990000  1.0 0.14752409
H  H7  1  0.27641000  0.27275000  0.78541000  1.0 0.1290333681
H  H8  1  0.31374000  0.21512000  0.69790000  1.0 0.1183829091
H  H9  1  0.04510000  0.31168000  0.77913000  1.0 0.0516471193
H  H10  1  0.15389000  0.15091000  0.61378000  1.0 0.13670688
H  H11  1  0.99419000  0.27467000  0.63333000  1.0 0.0872335994
H  H12  1  0.00549000  0.17383000  0.69429000  1.0 0.1062138218
H  H13  1  0.95611000  0.25465000  0.73952000  1.0 0.0516471193
H  H14  1  0.02929000  0.72757000  0.73419000  1.0 0.14752409
H  H15  1  0.01373000  0.49809000  0.71773000  1.0 0.1578327877
H  H16  1  0.02410000  0.71010000  0.50563000  1.0 0.13670688
H  H17  1  0.10863000  0.66104000  0.41260000  1.0 0.2708496712
H  H18  1  0.36874000  0.75628000  0.20981000  1.0 0.14752409
H  H19  1  0.29996000  0.84990000  0.17856000  1.0 0.14752409
H  H20  1  0.27275000  0.78541000  0.27641000  1.0 0.1290333681
H  H21  1  0.21512000  0.69790000  0.31374000  1.0 0.1183829091
H  H22  1  0.31168000  0.77913000  0.04510000  1.0 0.0516471193
H  H23  1  0.15091000  0.61378000  0.15389000  1.0 0.13670688
H  H24  1  0.27467000  0.63333000  0.99419000  1.0 0.0872335994
H  H25  1  0.17383000  0.69429000  0.00549000  1.0 0.1062138218
H  H26  1  0.25465000  0.73952000  0.95611000  1.0 0.0516471193
H  H27  1  0.72757000  0.73419000  0.02929000  1.0 0.14752409
H  H28  1  0.49809000  0.71773000  0.01373000  1.0 0.1578327877
H  H29  1  0.71010000  0.50563000  0.02410000  1.0 0.13670688
H  H30  1  0.66104000  0.41260000  0.10863000  1.0 0.2708496712
H  H31  1  0.75628000  0.20981000  0.36874000  1.0 0.14752409
H  H32  1  0.84990000  0.17856000  0.29996000  1.0 0.14752409
H  H33  1  0.78541000  0.27641000  0.27275000  1.0 0.1290333681
H  H34  1  0.69790000  0.31374000  0.21512000  1.0 0.1183829091
H  H35  1  0.77913000  0.04510000  0.31168000  1.0 0.0516471193
H  H36  1  0.61378000  0.15389000  0.15091000  1.0 0.13670688
H  H37  1  0.63333000  0.99419000  0.27467000  1.0 0.0872335994
H  H38  1  0.69429000  0.00549000  0.17383000  1.0 0.1062138218
H  H39  1  0.73952000  0.95611000  0.25465000  1.0 0.0516471193
H  H40  1  0.26581000  0.27243000  0.97071000  1.0 0.14752409
H  H41  1  0.28227000  0.50191000  0.98627000  1.0 0.1578327877
H  H42  1  0.49437000  0.28990000  0.97590000  1.0 0.13670688
H  H43  1  0.58740000  0.33896000  0.89137000  1.0 0.2708496712
H  H44  1  0.79019000  0.24372000  0.63126000  1.0 0.14752409
H  H45  1  0.82144000  0.15010000  0.70004000  1.0 0.14752409
H  H46  1  0.72359000  0.21459000  0.72725000  1.0 0.1290333681
H  H47  1  0.68626000  0.30210000  0.78488000  1.0 0.1183829091
H  H48  1  0.95490000  0.22087000  0.68832000  1.0 0.0516471193
H  H49  1  0.84611000  0.38622000  0.84909000  1.0 0.13670688
H  H50  1  0.00581000  0.36667000  0.72533000  1.0 0.0872335994
H  H51  1  0.99451000  0.30571000  0.82617000  1.0 0.1062138218
H  H52  1  0.04389000  0.26048000  0.74535000  1.0 0.0516471193
H  H53  1  0.97071000  0.26581000  0.27243000  1.0 0.14752409
H  H54  1  0.98627000  0.28227000  0.50191000  1.0 0.1578327877
H  H55  1  0.97590000  0.49437000  0.28990000  1.0 0.13670688
H  H56  1  0.89137000  0.58740000  0.33896000  1.0 0.2708496712
H  H57  1  0.63126000  0.79019000  0.24372000  1.0 0.14752409
H  H58  1  0.70004000  0.82144000  0.15010000  1.0 0.14752409
H  H59  1  0.72725000  0.72359000  0.21459000  1.0 0.1290333681
H  H60  1  0.78488000  0.68626000  0.30210000  1.0 0.1183829091
H  H61  1  0.68832000  0.95490000  0.22087000  1.0 0.0516471193
H  H62  1  0.84909000  0.84611000  0.38622000  1.0 0.13670688
H  H63  1  0.72533000  0.00581000  0.36667000  1.0 0.0872335994
H  H64  1  0.82617000  0.99451000  0.30571000  1.0 0.1062138218
H  H65  1  0.74535000  0.04389000  0.26048000  1.0 0.0516471193
H  H66  1  0.27243000  0.97071000  0.26581000  1.0 0.14752409
H  H67  1  0.50191000  0.98627000  0.28227000  1.0 0.1578327877
H  H68  1  0.28990000  0.97590000  0.49437000  1.0 0.13670688
H  H69  1  0.33896000  0.89137000  0.58740000  1.0 0.2708496712
H  H70  1  0.24372000  0.63126000  0.79019000  1.0 0.14752409
H  H71  1  0.15010000  0.70004000  0.82144000  1.0 0.14752409
H  H72  1  0.21459000  0.72725000  0.72359000  1.0 0.1290333681
H  H73  1  0.30210000  0.78488000  0.68626000  1.0 0.1183829091
H  H74  1  0.22087000  0.68832000  0.95490000  1.0 0.0516471193
H  H75  1  0.38622000  0.84909000  0.84611000  1.0 0.13670688
H  H76  1  0.36667000  0.72533000  0.00581000  1.0 0.0872335994
H  H77  1  0.30571000  0.82617000  0.99451000  1.0 0.1062138218
H  H78  1  0.26048000  0.74535000  0.04389000  1.0 0.0516471193
C  C1  1  0.74570000  0.01980000  0.60580000  1.0 -0.0240080561
C  C2  1  0.70188000  0.02548000  0.69368000  1.0 -0.1011040807
C  C3  1  0.84030000  0.01300000  0.56510000  1.0 0.5538313303
C  C4  1  0.57189000  0.02709000  0.82689000  1.0 0.5757350935
C  C5  1  0.69250000  0.01510000  0.55870000  1.0 -0.1263638399
C  C6  1  0.55438000  0.00258000  0.54578000  1.0 0.021495455
C  C7  1  0.61089000  0.01259000  0.59719000  1.0 0.080384673
C  C8  1  0.56730000  0.02130000  0.68460000  1.0 -0.1488288951
C  C9  1  0.61600000  0.02580000  0.73160000  1.0 -0.0030341555
C  C10  1  0.41698000  0.03968000  0.50838000  1.0 0.0622958095
C  C11  1  0.46327000  0.04487000  0.56127000  1.0 0.0622958095
C  C12  1  0.31610000  0.12180000  0.60520000  1.0 0.2485439964
C  C13  1  0.59627000  0.95717000  0.47997000  1.0 -0.035517075
C  C14  1  0.21390000  0.30560000  0.78760000  1.0 -0.4587900527
C  C15  1  0.24564000  0.17494000  0.64814000  1.0 -0.0030341555
C  C16  1  0.25572000  0.21952000  0.69752000  1.0 -0.1699872625
C  C17  1  0.18096000  0.27046000  0.74636000  1.0 0.1183829091
C  C18  1  0.09620000  0.27680000  0.74570000  1.0 -0.1065939106
C  C19  1  0.08600000  0.23230000  0.69630000  1.0 0.0045605211
C  C20  1  0.16080000  0.18140000  0.64750000  1.0 -0.1427411002
C  C21  1  0.57250000  0.04810000  0.44950000  1.0 -0.0312443959
C  C22  1  0.00440000  0.23400000  0.69040000  1.0 -0.1699872625
C  C23  1  0.01980000  0.60580000  0.74570000  1.0 -0.0312443959
C  C24  1  0.02548000  0.69368000  0.70188000  1.0 -0.1011040807
C  C25  1  0.01300000  0.56510000  0.84030000  1.0 0.5538313303
C  C26  1  0.02709000  0.82689000  0.57189000  1.0 0.5757350935
C  C27  1  0.01510000  0.55870000  0.69250000  1.0 -0.1263638399
C  C28  1  0.00258000  0.54578000  0.55438000  1.0 0.021495455
C  C29  1  0.01259000  0.59719000  0.61089000  1.0 0.080384673
C  C30  1  0.02130000  0.68460000  0.56730000  1.0 -0.1488288951
C  C31  1  0.02580000  0.73160000  0.61600000  1.0 -0.0030341555
C  C32  1  0.03968000  0.50838000  0.41698000  1.0 0.0622958095
C  C33  1  0.04487000  0.56127000  0.46327000  1.0 0.0622958095
C  C34  1  0.12180000  0.60520000  0.31610000  1.0 0.2485439964
C  C35  1  0.95717000  0.47997000  0.59627000  1.0 -0.0312443959
C  C36  1  0.30560000  0.78760000  0.21390000  1.0 -0.4587900527
C  C37  1  0.17494000  0.64814000  0.24564000  1.0 -0.0030341555
C  C38  1  0.21952000  0.69752000  0.25572000  1.0 -0.1699872625
C  C39  1  0.27046000  0.74636000  0.18096000  1.0 0.1183829091
C  C40  1  0.27680000  0.74570000  0.09620000  1.0 -0.1065939106
C  C41  1  0.23230000  0.69630000  0.08600000  1.0 0.0045605211
C  C42  1  0.18140000  0.64750000  0.16080000  1.0 -0.1427411002
C  C43  1  0.04810000  0.44950000  0.57250000  1.0 -0.035517075
C  C44  1  0.23400000  0.69040000  0.00440000  1.0 -0.1699872625
C  C45  1  0.60580000  0.74570000  0.01980000  1.0 -0.0240080561
C  C46  1  0.69368000  0.70188000  0.02548000  1.0 -0.1011040807
C  C47  1  0.56510000  0.84030000  0.01300000  1.0 0.5538313303
C  C48  1  0.82689000  0.57189000  0.02709000  1.0 0.5757350935
C  C49  1  0.55870000  0.69250000  0.01510000  1.0 -0.1263638399
C  C50  1  0.54578000  0.55438000  0.00258000  1.0 0.021495455
C  C51  1  0.59719000  0.61089000  0.01259000  1.0 0.080384673
C  C52  1  0.68460000  0.56730000  0.02130000  1.0 -0.1488288951
C  C53  1  0.73160000  0.61600000  0.02580000  1.0 -0.0030341555
C  C54  1  0.50838000  0.41698000  0.03968000  1.0 0.0622958095
C  C55  1  0.56127000  0.46327000  0.04487000  1.0 0.0622958095
C  C56  1  0.60520000  0.31610000  0.12180000  1.0 0.2485439964
C  C57  1  0.47997000  0.59627000  0.95717000  1.0 -0.0312443959
C  C58  1  0.78760000  0.21390000  0.30560000  1.0 -0.4587900527
C  C59  1  0.64814000  0.24564000  0.17494000  1.0 -0.0030341555
C  C60  1  0.69752000  0.25572000  0.21952000  1.0 -0.1699872625
C  C61  1  0.74636000  0.18096000  0.27046000  1.0 0.1183829091
C  C62  1  0.74570000  0.09620000  0.27680000  1.0 -0.1065939106
C  C63  1  0.69630000  0.08600000  0.23230000  1.0 0.0045605211
C  C64  1  0.64750000  0.16080000  0.18140000  1.0 -0.1427411002
C  C65  1  0.44950000  0.57250000  0.04810000  1.0 -0.035517075
C  C66  1  0.69040000  0.00440000  0.23400000  1.0 -0.1699872625
C  C67  1  0.25430000  0.39420000  0.98020000  1.0 -0.0240080561
C  C68  1  0.29812000  0.30632000  0.97452000  1.0 -0.1011040807
C  C69  1  0.15970000  0.43490000  0.98700000  1.0 0.5538313303
C  C70  1  0.42811000  0.17311000  0.97291000  1.0 0.5757350935
C  C71  1  0.30750000  0.44130000  0.98490000  1.0 -0.1263638399
C  C72  1  0.44562000  0.45422000  0.99742000  1.0 0.021495455
C  C73  1  0.38911000  0.40281000  0.98741000  1.0 0.080384673
C  C74  1  0.43270000  0.31540000  0.97870000  1.0 -0.1488288951
C  C75  1  0.38400000  0.26840000  0.97420000  1.0 -0.0030341555
C  C76  1  0.58302000  0.49162000  0.96032000  1.0 0.0622958095
C  C77  1  0.53673000  0.43873000  0.95513000  1.0 0.0622958095
C  C78  1  0.68390000  0.39480000  0.87820000  1.0 0.2485439964
C  C79  1  0.40373000  0.52003000  0.04283000  1.0 -0.035517075
C  C80  1  0.78610000  0.21240000  0.69440000  1.0 -0.4587900527
C  C81  1  0.75436000  0.35186000  0.82506000  1.0 -0.0030341555
C  C82  1  0.74428000  0.30248000  0.78048000  1.0 -0.1699872625
C  C83  1  0.81904000  0.25364000  0.72954000  1.0 0.1183829091
C  C84  1  0.90380000  0.25430000  0.72320000  1.0 -0.1065939106
C  C85  1  0.91400000  0.30370000  0.76770000  1.0 0.0045605211
C  C86  1  0.83920000  0.35250000  0.81860000  1.0 -0.1427411002
C  C87  1  0.42750000  0.55050000  0.95190000  1.0 -0.035517075
C  C88  1  0.99560000  0.30960000  0.76600000  1.0 -0.1699872625
C  C89  1  0.98020000  0.25430000  0.39420000  1.0 -0.0240080561
C  C90  1  0.97452000  0.29812000  0.30632000  1.0 -0.1011040807
C  C91  1  0.98700000  0.15970000  0.43490000  1.0 0.5538313303
C  C92  1  0.97291000  0.42811000  0.17311000  1.0 0.5757350935
C  C93  1  0.98490000  0.30750000  0.44130000  1.0 -0.1263638399
C  C94  1  0.99742000  0.44562000  0.45422000  1.0 0.021495455
C  C95  1  0.98741000  0.38911000  0.40281000  1.0 0.080384673
C  C96  1  0.97870000  0.43270000  0.31540000  1.0 -0.1488288951
C  C97  1  0.97420000  0.38400000  0.26840000  1.0 -0.0030341555
C  C98  1  0.96032000  0.58302000  0.49162000  1.0 0.0622958095
C  C99  1  0.95513000  0.53673000  0.43873000  1.0 0.0622958095
C  C100  1  0.87820000  0.68390000  0.39480000  1.0 0.2485439964
C  C101  1  0.04283000  0.40373000  0.52003000  1.0 -0.035517075
C  C102  1  0.69440000  0.78610000  0.21240000  1.0 -0.4587900527
C  C103  1  0.82506000  0.75436000  0.35186000  1.0 -0.0030341555
C  C104  1  0.78048000  0.74428000  0.30248000  1.0 -0.1699872625
C  C105  1  0.72954000  0.81904000  0.25364000  1.0 0.1183829091
C  C106  1  0.72320000  0.90380000  0.25430000  1.0 -0.1065939106
C  C107  1  0.76770000  0.91400000  0.30370000  1.0 0.0045605211
C  C108  1  0.81860000  0.83920000  0.35250000  1.0 -0.1427411002
C  C109  1  0.95190000  0.42750000  0.55050000  1.0 -0.035517075
C  C110  1  0.76600000  0.99560000  0.30960000  1.0 -0.1699872625
C  C111  1  0.39420000  0.98020000  0.25430000  1.0 -0.0312443959
C  C112  1  0.30632000  0.97452000  0.29812000  1.0 -0.1011040807
C  C113  1  0.43490000  0.98700000  0.15970000  1.0 0.5538313303
C  C114  1  0.17311000  0.97291000  0.42811000  1.0 0.5757350935
C  C115  1  0.44130000  0.98490000  0.30750000  1.0 -0.1263638399
C  C116  1  0.45422000  0.99742000  0.44562000  1.0 0.021495455
C  C117  1  0.40281000  0.98741000  0.38911000  1.0 0.080384673
C  C118  1  0.31540000  0.97870000  0.43270000  1.0 -0.1488288951
C  C119  1  0.26840000  0.97420000  0.38400000  1.0 -0.0030341555
C  C120  1  0.49162000  0.96032000  0.58302000  1.0 0.0622958095
C  C121  1  0.43873000  0.95513000  0.53673000  1.0 0.0622958095
C  C122  1  0.39480000  0.87820000  0.68390000  1.0 0.2485439964
C  C123  1  0.52003000  0.04283000  0.40373000  1.0 -0.035517075
C  C124  1  0.21240000  0.69440000  0.78610000  1.0 -0.4587900527
C  C125  1  0.35186000  0.82506000  0.75436000  1.0 -0.0030341555
C  C126  1  0.30248000  0.78048000  0.74428000  1.0 -0.1699872625
C  C127  1  0.25364000  0.72954000  0.81904000  1.0 0.1183829091
C  C128  1  0.25430000  0.72320000  0.90380000  1.0 -0.1065939106
C  C129  1  0.30370000  0.76770000  0.91400000  1.0 0.0045605211
C  C130  1  0.35250000  0.81860000  0.83920000  1.0 -0.1427411002
C  C131  1  0.55050000  0.95190000  0.42750000  1.0 -0.0312443959
C  C132  1  0.30960000  0.76600000  0.99560000  1.0 -0.1699872625
N  N1  1  0.40082000  0.09562000  0.62112000  1.0 -0.3520870395
N  N2  1  0.32610000  0.08710000  0.53540000  1.0 -0.312615884
N  N3  1  0.09562000  0.62112000  0.40082000  1.0 -0.3520870395
N  N4  1  0.08710000  0.53540000  0.32610000  1.0 -0.312615884
N  N5  1  0.62112000  0.40082000  0.09562000  1.0 -0.3520870395
N  N6  1  0.53540000  0.32610000  0.08710000  1.0 -0.312615884
N  N7  1  0.59918000  0.37888000  0.90438000  1.0 -0.3520870395
N  N8  1  0.67390000  0.46460000  0.91290000  1.0 -0.3164755888
N  N9  1  0.90438000  0.59918000  0.37888000  1.0 -0.3520870395
N  N10  1  0.91290000  0.67390000  0.46460000  1.0 -0.312615884
N  N11  1  0.37888000  0.90438000  0.59918000  1.0 -0.3520870395
N  N12  1  0.46460000  0.91290000  0.67390000  1.0 -0.312615884
O  O1  1  0.61921000  0.02691000  0.87131000  1.0 -0.5107737152
O  O2  1  0.49204000  0.02084000  0.86064000  1.0 -0.52914697
O  O3  1  0.88230000  0.01740000  0.61230000  1.0 -0.52914697
O  O4  1  0.87322000  0.00442000  0.48772000  1.0 -0.5107737152
O  O5  1  0.02691000  0.87131000  0.61921000  1.0 -0.5212370343
O  O6  1  0.02084000  0.86064000  0.49204000  1.0 -0.52914697
O  O7  1  0.01740000  0.61230000  0.88230000  1.0 -0.52914697
O  O8  1  0.00442000  0.48772000  0.87322000  1.0 -0.5107737152
O  O9  1  0.87131000  0.61921000  0.02691000  1.0 -0.5107737152
O  O10  1  0.86064000  0.49204000  0.02084000  1.0 -0.52914697
O  O11  1  0.61230000  0.88230000  0.01740000  1.0 -0.5212370343
O  O12  1  0.48772000  0.87322000  0.00442000  1.0 -0.5107737152
O  O13  1  0.38079000  0.12869000  0.97309000  1.0 -0.5107737152
O  O14  1  0.50796000  0.13936000  0.97916000  1.0 -0.52914697
O  O15  1  0.11770000  0.38770000  0.98260000  1.0 -0.52914697
O  O16  1  0.12678000  0.51228000  0.99558000  1.0 -0.5107737152
O  O17  1  0.97309000  0.38079000  0.12869000  1.0 -0.5107737152
O  O18  1  0.97916000  0.50796000  0.13936000  1.0 -0.52914697
O  O19  1  0.98260000  0.11770000  0.38770000  1.0 -0.5212370343
O  O20  1  0.99558000  0.12678000  0.51228000  1.0 -0.5107737152
O  O21  1  0.12869000  0.97309000  0.38079000  1.0 -0.5107737152
O  O22  1  0.13936000  0.97916000  0.50796000  1.0 -0.52914697
O  O23  1  0.38770000  0.98260000  0.11770000  1.0 -0.52914697
O  O24  1  0.51228000  0.99558000  0.12678000  1.0 -0.5107737152
