# DDEC6 charges by PACMAN v1.1 (https://github.com/mtap-research/PACMAN-charge/)
data_CANBOM_ASR_pacman
_symmetry_space_group_name_H-M   'P 1'
_cell_length_a   25.04910000
_cell_length_b   25.04910000
_cell_length_c   25.04910000
_cell_angle_alpha   147.38100000
_cell_angle_beta   107.23700000
_cell_angle_gamma   82.03390000
_symmetry_Int_Tables_number   1
_chemical_formula_structural   CuH19C40(NO4)2
_chemical_formula_sum   'Cu4 H76 C160 N8 O32'
_cell_volume   7901.55727802
_cell_formula_units_Z   4
loop_
 _symmetry_equiv_pos_site_id
 _symmetry_equiv_pos_as_xyz
  1  'x, y, z'
loop_
 _atom_site_type_symbol
 _atom_site_label
 _atom_site_symmetry_multiplicity
 _atom_site_fract_x
 _atom_site_fract_y
 _atom_site_fract_z
 _atom_site_occupancy
 _atom_site_charge
Cu  Cu1  1  0.98001000  0.90337000  0.92336000  1.0 0.8612409047
Cu  Cu2  1  0.51999000  0.44335000  0.92336000  1.0 0.8612409047
Cu  Cu3  1  0.48001000  0.55665000  0.07664000  1.0 0.8612409047
Cu  Cu4  1  0.01999000  0.09663000  0.07664000  1.0 0.8612409047
H  H1  1  0.11484000  0.22028000  0.45340000  1.0 0.1083626262
H  H2  1  0.03061000  0.93477000  0.22486000  1.0 0.1083626262
H  H3  1  0.00096000  0.90841000  0.10501000  1.0 0.1218828204
H  H4  1  0.08519000  0.19392000  0.33355000  1.0 0.1218828204
H  H5  1  0.02217000  0.02197000  0.37850000  1.0 0.1083626262
H  H6  1  0.01699000  0.86400000  0.27959000  1.0 0.2941110339
H  H7  1  0.91051000  0.59937000  0.10746000  1.0 0.1015323057
H  H8  1  0.84937000  0.47242000  0.84167000  1.0 0.0763680061
H  H9  1  0.95864000  0.74728000  0.10742000  1.0 0.1015323057
H  H10  1  0.38516000  0.83856000  0.10544000  1.0 0.1083626262
H  H11  1  0.46939000  0.69425000  0.90416000  1.0 0.1015323057
H  H12  1  0.49904000  0.60405000  0.90745000  1.0 0.1218828204
H  H13  1  0.41481000  0.74836000  0.10873000  1.0 0.1218828204
H  H14  1  0.47783000  0.85633000  0.99980000  1.0 0.1083626262
H  H15  1  0.48301000  0.76260000  0.84701000  1.0 0.2941110339
H  H16  1  0.58949000  0.69695000  0.68886000  1.0 0.1015323057
H  H17  1  0.65063000  0.49230000  0.62305000  1.0 0.0763680061
H  H18  1  0.54136000  0.64878000  0.78864000  1.0 0.1015323057
H  H19  1  0.26688000  0.16144000  0.54660000  1.0 0.1083626262
H  H20  1  0.20991000  0.30575000  0.77514000  1.0 0.1015323057
H  H21  1  0.30340000  0.39595000  0.89499000  1.0 0.1218828204
H  H22  1  0.36037000  0.25164000  0.66645000  1.0 0.1218828204
H  H23  1  0.14347000  0.14367000  0.62150000  1.0 0.1083626262
H  H24  1  0.08441000  0.23740000  0.72041000  1.0 0.2941110339
H  H25  1  0.99191000  0.30305000  0.89254000  1.0 0.1015323057
H  H26  1  0.13075000  0.50770000  0.15833000  1.0 0.0763680061
H  H27  1  0.13986000  0.35122000  0.89258000  1.0 0.1015323057
H  H28  1  0.23312000  0.77972000  0.89456000  1.0 0.1083626262
H  H29  1  0.29009000  0.06523000  0.09584000  1.0 0.1083626262
H  H30  1  0.19660000  0.09159000  0.09255000  1.0 0.1218828204
H  H31  1  0.13963000  0.80608000  0.89127000  1.0 0.1218828204
H  H32  1  0.35653000  0.97803000  0.00020000  1.0 0.1083626262
H  H33  1  0.41559000  0.13600000  0.15299000  1.0 0.2941110339
H  H34  1  0.50809000  0.40063000  0.31114000  1.0 0.1015323057
H  H35  1  0.36925000  0.52758000  0.37695000  1.0 0.0716229455
H  H36  1  0.36014000  0.25272000  0.21136000  1.0 0.1015323057
H  H37  1  0.88516000  0.77972000  0.54660000  1.0 0.1083626262
H  H38  1  0.96939000  0.06523000  0.77514000  1.0 0.1015323057
H  H39  1  0.99904000  0.09159000  0.89499000  1.0 0.1218828204
H  H40  1  0.91481000  0.80608000  0.66645000  1.0 0.1218828204
H  H41  1  0.97783000  0.97803000  0.62150000  1.0 0.1083626262
H  H42  1  0.98301000  0.13600000  0.72041000  1.0 0.2954774461
H  H43  1  0.08949000  0.40063000  0.89254000  1.0 0.1015323057
H  H44  1  0.15063000  0.52758000  0.15833000  1.0 0.0763680061
H  H45  1  0.04136000  0.25272000  0.89258000  1.0 0.1015323057
H  H46  1  0.61484000  0.16144000  0.89456000  1.0 0.1083626262
H  H47  1  0.53061000  0.30575000  0.09584000  1.0 0.1083626262
H  H48  1  0.50096000  0.39595000  0.09255000  1.0 0.1218828204
H  H49  1  0.58519000  0.25164000  0.89127000  1.0 0.1218828204
H  H50  1  0.52217000  0.14367000  0.00020000  1.0 0.1083626262
H  H51  1  0.51699000  0.23740000  0.15299000  1.0 0.2941110339
H  H52  1  0.41051000  0.30305000  0.31114000  1.0 0.1015323057
H  H53  1  0.34937000  0.50770000  0.37695000  1.0 0.0716229455
H  H54  1  0.45864000  0.35122000  0.21136000  1.0 0.1015323057
H  H55  1  0.73312000  0.83856000  0.45340000  1.0 0.1083626262
H  H56  1  0.79009000  0.69425000  0.22486000  1.0 0.1015323057
H  H57  1  0.69660000  0.60405000  0.10501000  1.0 0.1218828204
H  H58  1  0.63963000  0.74836000  0.33355000  1.0 0.1218828204
H  H59  1  0.85653000  0.85633000  0.37850000  1.0 0.1083626262
H  H60  1  0.91559000  0.76260000  0.27959000  1.0 0.2941110339
H  H61  1  0.00809000  0.69695000  0.10746000  1.0 0.1015323057
H  H62  1  0.86925000  0.49230000  0.84167000  1.0 0.0763680061
H  H63  1  0.86014000  0.64878000  0.10742000  1.0 0.1015323057
H  H64  1  0.76688000  0.22028000  0.10544000  1.0 0.1083626262
H  H65  1  0.70991000  0.93477000  0.90416000  1.0 0.1083626262
H  H66  1  0.80340000  0.90841000  0.90745000  1.0 0.1218828204
H  H67  1  0.86037000  0.19392000  0.10873000  1.0 0.1218828204
H  H68  1  0.64347000  0.02197000  0.99980000  1.0 0.1083626262
H  H69  1  0.58441000  0.86400000  0.84701000  1.0 0.2941110339
H  H70  1  0.49191000  0.59937000  0.68886000  1.0 0.1015323057
H  H71  1  0.63075000  0.47242000  0.62305000  1.0 0.0763680061
H  H72  1  0.63986000  0.74728000  0.78864000  1.0 0.1015323057
H  H73  1  0.17529000  0.17529000  0.50000000  1.0 0.1083626262
H  H74  1  0.32471000  0.82471000  0.00000000  1.0 0.1083626262
H  H75  1  0.82471000  0.82471000  0.50000000  1.0 0.1083626262
H  H76  1  0.67529000  0.17529000  0.00000000  1.0 0.1083626262
C  C1  1  0.02314000  0.03323000  0.13311000  1.0 0.5722414738
C  C2  1  0.09600000  0.09581000  0.42619000  1.0 0.0716229455
C  C3  1  0.09173000  0.15701000  0.38272000  1.0 -0.1632870213
C  C4  1  0.07552000  0.07996000  0.35036000  1.0 0.0763680061
C  C5  1  0.04169000  0.98737000  0.24692000  1.0 -0.173243167
C  C6  1  0.02409000  0.97174000  0.17575000  1.0 -0.0905130525
C  C7  1  0.04029000  0.04868000  0.20801000  1.0 -0.0496331965
C  C8  1  0.07411000  0.14127000  0.31144000  1.0 -0.0905130525
C  C9  1  0.05996000  0.05980000  0.42756000  1.0 -0.2153819331
C  C10  1  0.00438000  0.94541000  0.41389000  1.0 0.0585831428
C  C11  1  0.93991000  0.68591000  0.12410000  1.0 -0.0608845563
C  C12  1  0.90874000  0.60220000  0.07148000  1.0 -0.1196289185
C  C13  1  0.87501000  0.52265000  0.96624000  1.0 0.0913399519
C  C14  1  0.87243000  0.52681000  0.91362000  1.0 -0.069497257
C  C15  1  0.90360000  0.61051000  0.96621000  1.0 0.0585831428
C  C16  1  0.93734000  0.69007000  0.07147000  1.0 -0.0608845563
C  C17  1  0.86203000  0.51923000  0.80320000  1.0 0.2819029012
C  C18  1  0.82067000  0.46097000  0.98310000  1.0 0.3200924619
C  C19  1  0.47686000  0.60997000  0.01009000  1.0 0.5722414738
C  C20  1  0.40400000  0.83019000  0.99981000  1.0 0.0716229455
C  C21  1  0.40827000  0.79099000  0.06528000  1.0 -0.1632870213
C  C22  1  0.42448000  0.77484000  0.00444000  1.0 0.0763680061
C  C23  1  0.45831000  0.70523000  0.94568000  1.0 -0.173243167
C  C24  1  0.47591000  0.65166000  0.94765000  1.0 -0.0905130525
C  C25  1  0.45971000  0.66772000  0.00839000  1.0 -0.0496331965
C  C26  1  0.42589000  0.73733000  0.06716000  1.0 -0.0905130525
C  C27  1  0.44004000  0.86760000  0.99984000  1.0 -0.2153819331
C  C28  1  0.49562000  0.90951000  0.94103000  1.0 0.0585831428
C  C29  1  0.56009000  0.68419000  0.74600000  1.0 -0.0608845563
C  C30  1  0.59126000  0.66274000  0.69346000  1.0 -0.1196289185
C  C31  1  0.62499000  0.59123000  0.64764000  1.0 0.0913399519
C  C32  1  0.62757000  0.54119000  0.65438000  1.0 -0.069497257
C  C33  1  0.59640000  0.56261000  0.70691000  1.0 0.0585831428
C  C34  1  0.56266000  0.63413000  0.75273000  1.0 -0.0608845563
C  C35  1  0.63797000  0.44117000  0.65720000  1.0 0.2819029012
C  C36  1  0.67933000  0.66243000  0.64030000  1.0 0.3200924619
C  C37  1  0.40012000  0.39003000  0.86689000  1.0 0.5722414738
C  C38  1  0.16962000  0.16981000  0.57381000  1.0 0.0716229455
C  C39  1  0.27429000  0.20901000  0.61728000  1.0 -0.1632870213
C  C40  1  0.22960000  0.22516000  0.64964000  1.0 0.0763680061
C  C41  1  0.24045000  0.29477000  0.75308000  1.0 -0.173243167
C  C42  1  0.29599000  0.34834000  0.82425000  1.0 -0.0905130525
C  C43  1  0.34067000  0.33228000  0.79199000  1.0 -0.0496331965
C  C44  1  0.32983000  0.26267000  0.68856000  1.0 -0.0905130525
C  C45  1  0.13224000  0.13240000  0.57244000  1.0 -0.2139165936
C  C46  1  0.03152000  0.09049000  0.58611000  1.0 0.0585831428
C  C47  1  0.06181000  0.31581000  0.87590000  1.0 -0.0608845563
C  C48  1  0.03072000  0.33726000  0.92852000  1.0 -0.1196289185
C  C49  1  0.05641000  0.40877000  0.03376000  1.0 0.0913399519
C  C50  1  0.11319000  0.45881000  0.08638000  1.0 -0.069497257
C  C51  1  0.14430000  0.43739000  0.03379000  1.0 0.0716229455
C  C52  1  0.11860000  0.36587000  0.92853000  1.0 -0.0608845563
C  C53  1  0.21603000  0.55883000  0.19680000  1.0 0.2748556993
C  C54  1  0.97787000  0.33757000  0.01690000  1.0 0.3200924619
C  C55  1  0.09988000  0.96677000  0.98991000  1.0 0.5722414738
C  C56  1  0.33038000  0.90419000  0.00019000  1.0 0.0716229455
C  C57  1  0.22571000  0.84299000  0.93472000  1.0 -0.1632870213
C  C58  1  0.27040000  0.92004000  0.99556000  1.0 0.0763680061
C  C59  1  0.25955000  0.01263000  0.05432000  1.0 -0.173243167
C  C60  1  0.20401000  0.02826000  0.05235000  1.0 -0.0905130525
C  C61  1  0.15933000  0.95132000  0.99161000  1.0 -0.0496331965
C  C62  1  0.17017000  0.85873000  0.93284000  1.0 -0.0905130525
C  C63  1  0.36776000  0.94020000  0.00016000  1.0 -0.2139165936
C  C64  1  0.46848000  0.05459000  0.05897000  1.0 0.0585831428
C  C65  1  0.43819000  0.31409000  0.25400000  1.0 -0.0608845563
C  C66  1  0.46928000  0.39780000  0.30654000  1.0 -0.1196289185
C  C67  1  0.44359000  0.47735000  0.35236000  1.0 0.0913399519
C  C68  1  0.38681000  0.47319000  0.34562000  1.0 -0.0608845563
C  C69  1  0.35570000  0.38949000  0.29309000  1.0 0.0585831428
C  C70  1  0.38140000  0.30993000  0.24727000  1.0 -0.0608845563
C  C71  1  0.28397000  0.48077000  0.34280000  1.0 0.2819029012
C  C72  1  0.52213000  0.53903000  0.35970000  1.0 0.3200924619
C  C73  1  0.97686000  0.96677000  0.86689000  1.0 0.5722414738
C  C74  1  0.90400000  0.90419000  0.57381000  1.0 0.0716229455
C  C75  1  0.90827000  0.84299000  0.61728000  1.0 -0.1632870213
C  C76  1  0.92448000  0.92004000  0.64964000  1.0 0.0763680061
C  C77  1  0.95831000  0.01263000  0.75308000  1.0 -0.173243167
C  C78  1  0.97591000  0.02826000  0.82425000  1.0 -0.0905130525
C  C79  1  0.95971000  0.95132000  0.79199000  1.0 -0.0496331965
C  C80  1  0.92589000  0.85873000  0.68856000  1.0 -0.0905130525
C  C81  1  0.94004000  0.94020000  0.57244000  1.0 -0.2153819331
C  C82  1  0.99562000  0.05459000  0.58611000  1.0 0.0585831428
C  C83  1  0.06009000  0.31409000  0.87590000  1.0 -0.0608845563
C  C84  1  0.09126000  0.39780000  0.92852000  1.0 -0.1196289185
C  C85  1  0.12499000  0.47735000  0.03376000  1.0 0.0913399519
C  C86  1  0.12757000  0.47319000  0.08638000  1.0 -0.069497257
C  C87  1  0.09640000  0.38949000  0.03379000  1.0 0.0716229455
C  C88  1  0.06266000  0.30993000  0.92853000  1.0 -0.0496331965
C  C89  1  0.13797000  0.48077000  0.19680000  1.0 0.2819029012
C  C90  1  0.17933000  0.53903000  0.01690000  1.0 0.3200924619
C  C91  1  0.52314000  0.39003000  0.98991000  1.0 0.5722414738
C  C92  1  0.59600000  0.16981000  0.00019000  1.0 0.0716229455
C  C93  1  0.59173000  0.20901000  0.93472000  1.0 -0.1632870213
C  C94  1  0.57552000  0.22516000  0.99556000  1.0 0.0763680061
C  C95  1  0.54169000  0.29477000  0.05432000  1.0 -0.173243167
C  C96  1  0.52409000  0.34834000  0.05235000  1.0 -0.0905130525
C  C97  1  0.54029000  0.33228000  0.99161000  1.0 -0.0496331965
C  C98  1  0.57411000  0.26267000  0.93284000  1.0 -0.0905130525
C  C99  1  0.55996000  0.13240000  0.00016000  1.0 -0.2139165936
C  C100  1  0.50438000  0.09049000  0.05897000  1.0 0.0539601407
C  C101  1  0.43991000  0.31581000  0.25400000  1.0 -0.0608845563
C  C102  1  0.40874000  0.33726000  0.30654000  1.0 -0.1196289185
C  C103  1  0.37501000  0.40877000  0.35236000  1.0 0.0913399519
C  C104  1  0.37243000  0.45881000  0.34562000  1.0 -0.0608845563
C  C105  1  0.40360000  0.43739000  0.29309000  1.0 0.0716229455
C  C106  1  0.43734000  0.36587000  0.24727000  1.0 -0.0496331965
C  C107  1  0.36203000  0.55883000  0.34280000  1.0 0.2819029012
C  C108  1  0.32067000  0.33757000  0.35970000  1.0 0.3200924619
C  C109  1  0.59988000  0.60997000  0.13311000  1.0 0.5722414738
C  C110  1  0.83038000  0.83019000  0.42619000  1.0 0.0716229455
C  C111  1  0.72571000  0.79099000  0.38272000  1.0 -0.1632870213
C  C112  1  0.77040000  0.77484000  0.35036000  1.0 0.0763680061
C  C113  1  0.75955000  0.70523000  0.24692000  1.0 -0.173243167
C  C114  1  0.70401000  0.65166000  0.17575000  1.0 -0.0905130525
C  C115  1  0.65933000  0.66772000  0.20801000  1.0 -0.0496331965
C  C116  1  0.67017000  0.73733000  0.31144000  1.0 -0.0905130525
C  C117  1  0.86776000  0.86760000  0.42756000  1.0 -0.2153819331
C  C118  1  0.96848000  0.90951000  0.41389000  1.0 0.0585831428
C  C119  1  0.93819000  0.68419000  0.12410000  1.0 -0.0608845563
C  C120  1  0.96928000  0.66274000  0.07148000  1.0 -0.1196289185
C  C121  1  0.94359000  0.59123000  0.96624000  1.0 0.0913399519
C  C122  1  0.88681000  0.54119000  0.91362000  1.0 -0.069497257
C  C123  1  0.85570000  0.56261000  0.96621000  1.0 0.0585831428
C  C124  1  0.88140000  0.63413000  0.07147000  1.0 -0.0608845563
C  C125  1  0.78397000  0.44117000  0.80320000  1.0 0.2819029012
C  C126  1  0.02213000  0.66243000  0.98310000  1.0 0.3200924619
C  C127  1  0.90012000  0.03323000  0.01009000  1.0 0.5722414738
C  C128  1  0.66962000  0.09581000  0.99981000  1.0 0.0716229455
C  C129  1  0.77429000  0.15701000  0.06528000  1.0 -0.1632870213
C  C130  1  0.72960000  0.07996000  0.00444000  1.0 0.0763680061
C  C131  1  0.74045000  0.98737000  0.94568000  1.0 -0.173243167
C  C132  1  0.79599000  0.97174000  0.94765000  1.0 -0.0905130525
C  C133  1  0.84067000  0.04868000  0.00839000  1.0 -0.0496331965
C  C134  1  0.82983000  0.14127000  0.06716000  1.0 -0.0905130525
C  C135  1  0.63224000  0.05980000  0.99984000  1.0 -0.2153819331
C  C136  1  0.53152000  0.94541000  0.94103000  1.0 0.0585831428
C  C137  1  0.56181000  0.68591000  0.74600000  1.0 -0.0608845563
C  C138  1  0.53072000  0.60220000  0.69346000  1.0 -0.1196289185
C  C139  1  0.55641000  0.52265000  0.64764000  1.0 0.0913399519
C  C140  1  0.61319000  0.52681000  0.65438000  1.0 -0.069497257
C  C141  1  0.64430000  0.61051000  0.70691000  1.0 0.0585831428
C  C142  1  0.61860000  0.69007000  0.75273000  1.0 -0.0608845563
C  C143  1  0.71603000  0.51923000  0.65720000  1.0 0.2819029012
C  C144  1  0.47787000  0.46097000  0.64030000  1.0 0.3200924619
C  C145  1  0.15016000  0.15016000  0.50000000  1.0 -0.1999212691
C  C146  1  0.03911000  0.03911000  0.50000000  1.0 -0.0608845563
C  C147  1  0.08001000  0.08001000  0.50000000  1.0 0.0913399519
C  C148  1  0.34984000  0.84984000  0.00000000  1.0 -0.1999212691
C  C149  1  0.46089000  0.96089000  0.00000000  1.0 -0.0608845563
C  C150  1  0.41999000  0.91999000  0.00000000  1.0 0.0913399519
C  C151  1  0.84984000  0.84984000  0.50000000  1.0 -0.1999212691
C  C152  1  0.96089000  0.96089000  0.50000000  1.0 -0.0608845563
C  C153  1  0.91999000  0.91999000  0.50000000  1.0 0.0913399519
C  C154  1  0.65016000  0.15016000  0.00000000  1.0 -0.1999212691
C  C155  1  0.53911000  0.03911000  0.00000000  1.0 -0.0608845563
C  C156  1  0.58001000  0.08001000  0.00000000  1.0 0.0913399519
C  C157  1  0.95867000  0.78233000  0.24100000  1.0 0.2941110339
C  C158  1  0.54133000  0.78233000  0.82366000  1.0 0.2941110339
C  C159  1  0.04133000  0.21767000  0.75900000  1.0 0.2941110339
C  C160  1  0.45867000  0.21767000  0.17634000  1.0 0.2941110339
N  N1  1  0.99791000  0.86175000  0.30220000  1.0 -0.3928498328
N  N2  1  0.50209000  0.80429000  0.86384000  1.0 -0.3928498328
N  N3  1  0.05955000  0.19571000  0.69780000  1.0 -0.3928498328
N  N4  1  0.44045000  0.13825000  0.13616000  1.0 -0.3928498328
N  N5  1  0.00209000  0.13825000  0.69780000  1.0 -0.3928498328
N  N6  1  0.49791000  0.19571000  0.13616000  1.0 -0.3928498328
N  N7  1  0.94045000  0.80429000  0.30220000  1.0 -0.3928498328
N  N8  1  0.55955000  0.86175000  0.86384000  1.0 -0.3928498328
O  O1  1  0.99917000  0.94264000  0.03593000  1.0 -0.5431041756
O  O2  1  0.03397000  0.10753000  0.16684000  1.0 -0.5310777315
O  O3  1  0.89935000  0.61106000  0.90469000  1.0 -0.2601164469
O  O4  1  0.84833000  0.44922000  0.93331000  1.0 -0.4020481872
O  O5  1  0.50083000  0.53676000  0.94347000  1.0 -0.5431041756
O  O6  1  0.46603000  0.63287000  0.07356000  1.0 -0.5310777315
O  O7  1  0.60065000  0.50534000  0.71171000  1.0 -0.2601164469
O  O8  1  0.65167000  0.58498000  0.60089000  1.0 -0.4020481872
O  O9  1  0.40671000  0.46324000  0.96407000  1.0 -0.5431041756
O  O10  1  0.44069000  0.36713000  0.83316000  1.0 -0.5310777315
O  O11  1  0.20637000  0.49466000  0.09531000  1.0 -0.2601164469
O  O12  1  0.01591000  0.41502000  0.06669000  1.0 -0.4020481872
O  O13  1  0.09329000  0.05736000  0.05653000  1.0 -0.5431041756
O  O14  1  0.05931000  0.89247000  0.92644000  1.0 -0.5310777315
O  O15  1  0.29363000  0.38894000  0.28829000  1.0 -0.2669165173
O  O16  1  0.48409000  0.55078000  0.39911000  1.0 -0.4053160587
O  O17  1  0.00083000  0.05736000  0.96407000  1.0 -0.5431041756
O  O18  1  0.96603000  0.89247000  0.83316000  1.0 -0.5310777315
O  O19  1  0.10065000  0.38894000  0.09531000  1.0 -0.2601164469
O  O20  1  0.15167000  0.55078000  0.06669000  1.0 -0.4020481872
O  O21  1  0.49917000  0.46324000  0.05653000  1.0 -0.5431041756
O  O22  1  0.53397000  0.36713000  0.92644000  1.0 -0.5310777315
O  O23  1  0.39935000  0.49466000  0.28829000  1.0 -0.2669165173
O  O24  1  0.34833000  0.41502000  0.39911000  1.0 -0.4020481872
O  O25  1  0.59329000  0.53676000  0.03593000  1.0 -0.5431041756
O  O26  1  0.55931000  0.63287000  0.16684000  1.0 -0.5310777315
O  O27  1  0.79363000  0.50534000  0.90469000  1.0 -0.2601164469
O  O28  1  0.98409000  0.58498000  0.93331000  1.0 -0.4020481872
O  O29  1  0.90671000  0.94264000  0.94347000  1.0 -0.5431041756
O  O30  1  0.94069000  0.10753000  0.07356000  1.0 -0.5310777315
O  O31  1  0.70637000  0.61106000  0.71171000  1.0 -0.2601164469
O  O32  1  0.51591000  0.44922000  0.60089000  1.0 -0.4020481872
