# DDEC6 charges by PACMAN v1.1 (https://github.com/mtap-research/PACMAN-charge/)
data_CANROA_ASR_pacman
_symmetry_space_group_name_H-M   'P 1'
_cell_length_a   12.72390000
_cell_length_b   14.49920000
_cell_length_c   23.34530000
_cell_angle_alpha   99.73350000
_cell_angle_beta   92.68900000
_cell_angle_gamma   97.47560000
_symmetry_Int_Tables_number   1
_chemical_formula_structural   Co3Si2H36(C7O2)9
_chemical_formula_sum   'Co6 Si4 H72 C126 O36'
_cell_volume   4198.33362611
_cell_formula_units_Z   2
loop_
 _symmetry_equiv_pos_site_id
 _symmetry_equiv_pos_as_xyz
  1  'x, y, z'
loop_
 _atom_site_type_symbol
 _atom_site_label
 _atom_site_symmetry_multiplicity
 _atom_site_fract_x
 _atom_site_fract_y
 _atom_site_fract_z
 _atom_site_occupancy
 _atom_site_charge
Co  Co1  1  0.50453000  0.30396000  0.39295000  1.0 1.0154545998
Co  Co2  1  0.49547000  0.69604000  0.60705000  1.0 1.0154545998
Co  Co3  1  0.50000000  0.50000000  0.50000000  1.0 1.1061561798
Co  Co4  1  0.00000000  0.50000000  0.00000000  1.0 1.0883067345
Co  Co5  1  0.05762000  0.68457000  0.92550000  1.0 1.0120119547
Co  Co6  1  0.94238000  0.31543000  0.07450000  1.0 1.0120119547
Si  Si1  1  0.02546000  0.22043000  0.63393000  1.0 0.6214555
Si  Si2  1  0.97454000  0.77957000  0.36607000  1.0 0.6214555
Si  Si3  1  0.39837000  0.24425000  0.81270000  1.0 0.6453895067
Si  Si4  1  0.60163000  0.75575000  0.18730000  1.0 0.6453895067
H  H1  1  0.13140000  0.37770000  0.58690000  1.0 0.1098904582
H  H2  1  0.86860000  0.62230000  0.41310000  1.0 0.1098904582
H  H3  1  0.26910000  0.40430000  0.52780000  1.0 0.1275885581
H  H4  1  0.73090000  0.59570000  0.47220000  1.0 0.1275885581
H  H5  1  0.33140000  0.13630000  0.52500000  1.0 0.1190395887
H  H6  1  0.66860000  0.86370000  0.47500000  1.0 0.1190395887
H  H7  1  0.19500000  0.11080000  0.58640000  1.0 0.1098904582
H  H8  1  0.80500000  0.88920000  0.41360000  1.0 0.1098904582
H  H9  1  0.16870000  0.38550000  0.69510000  1.0 0.1098904582
H  H10  1  0.83130000  0.61450000  0.30490000  1.0 0.1098904582
H  H11  1  0.16850000  0.49110000  0.78180000  1.0 0.1190395887
H  H12  1  0.83150000  0.50890000  0.21820000  1.0 0.1190395887
H  H13  1  0.93410000  0.31740000  0.83410000  1.0 0.1275885581
H  H14  1  0.06590000  0.68260000  0.16590000  1.0 0.1275885581
H  H15  1  0.92530000  0.21620000  0.74460000  1.0 0.1098904582
H  H16  1  0.07470000  0.78380000  0.25540000  1.0 0.1098904582
H  H17  1  0.83810000  0.31890000  0.66090000  1.0 0.1098904582
H  H18  1  0.16190000  0.68110000  0.33910000  1.0 0.1098904582
H  H19  1  0.71300000  0.37870000  0.60750000  1.0 0.1190395887
H  H20  1  0.28700000  0.62130000  0.39250000  1.0 0.1190395887
H  H21  1  0.83580000  0.27110000  0.45830000  1.0 0.1190395887
H  H22  1  0.16420000  0.72890000  0.54170000  1.0 0.1190395887
H  H23  1  0.96640000  0.21980000  0.51110000  1.0 0.0983020236
H  H24  1  0.03360000  0.78020000  0.48890000  1.0 0.0983020236
H  H25  1  0.06000000  0.09350000  0.71730000  1.0 0.1275885581
H  H26  1  0.94000000  0.90650000  0.28270000  1.0 0.1275885581
H  H27  1  0.02520000  0.93070000  0.71630000  1.0 0.0871632045
H  H28  1  0.97480000  0.06930000  0.28370000  1.0 0.0871632045
H  H29  1  0.88280000  0.89260000  0.55350000  1.0 0.0871632045
H  H30  1  0.11720000  0.10740000  0.44650000  1.0 0.0871632045
H  H31  1  0.91760000  0.05540000  0.55440000  1.0 0.1275885581
H  H32  1  0.08240000  0.94460000  0.44560000  1.0 0.1275885581
H  H33  1  0.45770000  0.22940000  0.69200000  1.0 0.1190395887
H  H34  1  0.54230000  0.77060000  0.30800000  1.0 0.1190395887
H  H35  1  0.48130000  0.32790000  0.62460000  1.0 0.1275885581
H  H36  1  0.51870000  0.67210000  0.37540000  1.0 0.1275885581
H  H37  1  0.39090000  0.53940000  0.73860000  1.0 0.1275885581
H  H38  1  0.60910000  0.46060000  0.26140000  1.0 0.1275885581
H  H39  1  0.36970000  0.44090000  0.80660000  1.0 0.1098904582
H  H40  1  0.63030000  0.55910000  0.19340000  1.0 0.1098904582
H  H41  1  0.33680000  0.39630000  0.89660000  1.0 0.1098904582
H  H42  1  0.66320000  0.60370000  0.10340000  1.0 0.1098904582
H  H43  1  0.20810000  0.41420000  0.96280000  1.0 0.1354394947
H  H44  1  0.79190000  0.58580000  0.03720000  1.0 0.1354394947
H  H45  1  0.07750000  0.14260000  0.90600000  1.0 0.1275885581
H  H46  1  0.92250000  0.85740000  0.09400000  1.0 0.1275885581
H  H47  1  0.20180000  0.12730000  0.83700000  1.0 0.1098904582
H  H48  1  0.79820000  0.87270000  0.16300000  1.0 0.1098904582
H  H49  1  0.60750000  0.36300000  0.81890000  1.0 0.1190395887
H  H50  1  0.39250000  0.63700000  0.18110000  1.0 0.1190395887
H  H51  1  0.75080000  0.40830000  0.88630000  1.0 0.1354394947
H  H52  1  0.24920000  0.59170000  0.11370000  1.0 0.1354394947
H  H53  1  0.61510000  0.23650000  0.98860000  1.0 0.1275885581
H  H54  1  0.38490000  0.76350000  0.01140000  1.0 0.1275885581
H  H55  1  0.46910000  0.19450000  0.92250000  1.0 0.1190395887
H  H56  1  0.53090000  0.80550000  0.07750000  1.0 0.1190395887
H  H57  1  0.25950000  0.13240000  0.71740000  1.0 0.0983020236
H  H58  1  0.74050000  0.86760000  0.28260000  1.0 0.0983020236
H  H59  1  0.25200000  0.98810000  0.65650000  1.0 0.1098904582
H  H60  1  0.74800000  0.01190000  0.34350000  1.0 0.1098904582
H  H61  1  0.49480000  0.92690000  0.75390000  1.0 0.1190395887
H  H62  1  0.50520000  0.07310000  0.24610000  1.0 0.1190395887
H  H63  1  0.50580000  0.07450000  0.81330000  1.0 0.1098904582
H  H64  1  0.49420000  0.92550000  0.18670000  1.0 0.1098904582
H  H65  1  0.93340000  0.04510000  0.55340000  1.0 0.1354394947
H  H66  1  0.06660000  0.95490000  0.44660000  1.0 0.1354394947
H  H67  1  0.91400000  0.88420000  0.55910000  1.0 0.0983020236
H  H68  1  0.08600000  0.11580000  0.44090000  1.0 0.0983020236
H  H69  1  0.06470000  0.94730000  0.72060000  1.0 0.0871632045
H  H70  1  0.93530000  0.05270000  0.27940000  1.0 0.0871632045
H  H71  1  0.08400000  0.10820000  0.71490000  1.0 0.1098904582
H  H72  1  0.91600000  0.89180000  0.28510000  1.0 0.1098904582
C  C1  1  0.14660000  0.24071000  0.59221000  1.0 -0.2199041575
C  C2  1  0.85340000  0.75929000  0.40779000  1.0 -0.2199041575
C  C3  1  0.17170000  0.32829000  0.57421000  1.0 -0.081944362
C  C4  1  0.82830000  0.67171000  0.42579000  1.0 -0.081944362
C  C5  1  0.25290000  0.34427000  0.53888000  1.0 -0.081944362
C  C6  1  0.74710000  0.65573000  0.46112000  1.0 -0.081944362
C  C7  1  0.31180000  0.27114000  0.51933000  1.0 -0.0077529926
C  C8  1  0.68820000  0.72886000  0.48067000  1.0 -0.0077529926
C  C9  1  0.29030000  0.18520000  0.53746000  1.0 -0.0993343386
C  C10  1  0.70970000  0.81480000  0.46254000  1.0 -0.0993343386
C  C11  1  0.20870000  0.17000000  0.57386000  1.0 -0.1529180313
C  C12  1  0.79130000  0.83000000  0.42614000  1.0 -0.1529180313
C  C13  1  0.39160000  0.28540000  0.47630000  1.0 0.5628304874
C  C14  1  0.60840000  0.71460000  0.52370000  1.0 0.5628304874
C  C15  1  0.04270000  0.29160000  0.70906000  1.0 -0.2199041575
C  C16  1  0.95730000  0.70840000  0.29094000  1.0 -0.2199041575
C  C17  1  0.11790000  0.37260000  0.72222000  1.0 -0.081944362
C  C18  1  0.88210000  0.62740000  0.27778000  1.0 -0.081944362
C  C19  1  0.11910000  0.43470000  0.77448000  1.0 -0.0894606795
C  C20  1  0.88090000  0.56530000  0.22552000  1.0 -0.0894606795
C  C21  1  0.04980000  0.41570000  0.81581000  1.0 -0.0077529926
C  C22  1  0.95020000  0.58430000  0.18419000  1.0 -0.0077529926
C  C23  1  0.97970000  0.33300000  0.80507000  1.0 -0.0894606795
C  C24  1  0.02030000  0.66700000  0.19493000  1.0 -0.0894606795
C  C25  1  0.97540000  0.27220000  0.75179000  1.0 -0.0993343386
C  C26  1  0.02460000  0.72780000  0.24821000  1.0 -0.0993343386
C  C27  1  0.04870000  0.48560000  0.87150000  1.0 0.5921866392
C  C28  1  0.95130000  0.51440000  0.12850000  1.0 0.5921866392
C  C29  1  0.91660000  0.26297000  0.59218000  1.0 -0.2199041575
C  C30  1  0.08340000  0.73703000  0.40782000  1.0 -0.2199041575
C  C31  1  0.83910000  0.31020000  0.61963000  1.0 -0.0697230342
C  C32  1  0.16090000  0.68980000  0.38037000  1.0 -0.0697230342
C  C33  1  0.76360000  0.34480000  0.58774000  1.0 -0.0993343386
C  C34  1  0.23640000  0.65520000  0.41226000  1.0 -0.0993343386
C  C35  1  0.76050000  0.33084000  0.52748000  1.0 -0.0029200578
C  C36  1  0.23950000  0.66916000  0.47252000  1.0 -0.0029200578
C  C37  1  0.83710000  0.28230000  0.49965000  1.0 -0.0894606795
C  C38  1  0.16290000  0.71770000  0.50035000  1.0 -0.0894606795
C  C39  1  0.91380000  0.25070000  0.53099000  1.0 -0.112928088
C  C40  1  0.08620000  0.74930000  0.46901000  1.0 -0.112928088
C  C41  1  0.67710000  0.36579000  0.49323000  1.0 0.5989129836
C  C42  1  0.32290000  0.63421000  0.50677000  1.0 0.5989129836
C  C43  1  0.99210000  0.08974000  0.63593000  1.0 -0.1226160767
C  C44  1  0.00790000  0.91026000  0.36407000  1.0 -0.1226160767
C  C45  1  0.02400000  0.05271000  0.68402000  1.0 -0.0894606795
C  C46  1  0.97600000  0.94729000  0.31598000  1.0 -0.0894606795
C  C47  1  0.00340000  0.95602000  0.68346000  1.0 -0.0489701124
C  C48  1  0.99660000  0.04398000  0.31654000  1.0 -0.0489701124
C  C49  1  0.95080000  0.89637000  0.63481000  1.0 0.0294362215
C  C50  1  0.04920000  0.10363000  0.36519000  1.0 0.0294362215
C  C51  1  0.91880000  0.93340000  0.58672000  1.0 -0.0697230342
C  C52  1  0.08120000  0.06660000  0.41328000  1.0 -0.0697230342
C  C53  1  0.93950000  0.03010000  0.58728000  1.0 -0.112928088
C  C54  1  0.06050000  0.96990000  0.41272000  1.0 -0.112928088
C  C55  1  0.92880000  0.79390000  0.63520000  1.0 0.2422447858
C  C56  1  0.07120000  0.20610000  0.36480000  1.0 0.2422447858
C  C57  1  0.40915000  0.32329000  0.75685000  1.0 -0.2027490045
C  C58  1  0.59085000  0.67671000  0.24315000  1.0 -0.2099939838
C  C59  1  0.44340000  0.29260000  0.70183000  1.0 -0.081944362
C  C60  1  0.55660000  0.70740000  0.29817000  1.0 -0.081944362
C  C61  1  0.45720000  0.35100000  0.66151000  1.0 -0.0894606795
C  C62  1  0.54280000  0.64900000  0.33849000  1.0 -0.0894606795
C  C63  1  0.43620000  0.44310000  0.67415000  1.0 -0.0159800526
C  C64  1  0.56380000  0.55690000  0.32585000  1.0 -0.0159800526
C  C65  1  0.40410000  0.47580000  0.72889000  1.0 -0.0993343386
C  C66  1  0.59590000  0.52420000  0.27111000  1.0 -0.0993343386
C  C67  1  0.39130000  0.41690000  0.76920000  1.0 -0.0894606795
C  C68  1  0.60870000  0.58310000  0.23080000  1.0 -0.0894606795
C  C69  1  0.45120000  0.50678000  0.63057000  1.0 0.5989129836
C  C70  1  0.54880000  0.49322000  0.36943000  1.0 0.5989129836
C  C71  1  0.28400000  0.25896000  0.85938000  1.0 -0.2027490045
C  C72  1  0.71600000  0.74104000  0.14062000  1.0 -0.2027490045
C  C73  1  0.28350000  0.34449000  0.89807000  1.0 -0.0894606795
C  C74  1  0.71650000  0.65551000  0.10193000  1.0 -0.081944362
C  C75  1  0.20800000  0.35507000  0.93798000  1.0 -0.081944362
C  C76  1  0.79200000  0.64493000  0.06202000  1.0 -0.0894606795
C  C77  1  0.13210000  0.27984000  0.94195000  1.0 0.0059793574
C  C78  1  0.86790000  0.72016000  0.05805000  1.0 0.0059793574
C  C79  1  0.13020000  0.19450000  0.90386000  1.0 -0.0894606795
C  C80  1  0.86980000  0.80550000  0.09614000  1.0 -0.0894606795
C  C81  1  0.20480000  0.18550000  0.86319000  1.0 -0.0993343386
C  C82  1  0.79520000  0.81450000  0.13681000  1.0 -0.0993343386
C  C83  1  0.05680000  0.28880000  0.98900000  1.0 0.5921866392
C  C84  1  0.94320000  0.71120000  0.01100000  1.0 0.5921866392
C  C85  1  0.52090000  0.27358000  0.86317000  1.0 -0.2099939838
C  C86  1  0.47910000  0.72642000  0.13683000  1.0 -0.2099939838
C  C87  1  0.60780000  0.33740000  0.85377000  1.0 -0.0894606795
C  C88  1  0.39220000  0.66260000  0.14623000  1.0 -0.0894606795
C  C89  1  0.69350000  0.36410000  0.89377000  1.0 -0.0993343386
C  C90  1  0.30650000  0.63590000  0.10623000  1.0 -0.0993343386
C  C91  1  0.69770000  0.32779000  0.94431000  1.0 -0.0077529926
C  C92  1  0.30230000  0.67221000  0.05569000  1.0 -0.0077529926
C  C93  1  0.61320000  0.26330000  0.95423000  1.0 -0.0993343386
C  C94  1  0.38680000  0.73670000  0.04577000  1.0 -0.0993343386
C  C95  1  0.52680000  0.23790000  0.91453000  1.0 -0.0894606795
C  C96  1  0.47320000  0.76210000  0.08547000  1.0 -0.0894606795
C  C97  1  0.79180000  0.35810000  0.98771000  1.0 0.6074246859
C  C98  1  0.20820000  0.64190000  0.01229000  1.0 0.6074246859
C  C99  1  0.38530000  0.12015000  0.77170000  1.0 -0.2027490045
C  C100  1  0.61470000  0.87985000  0.22830000  1.0 -0.2027490045
C  C101  1  0.30910000  0.09130000  0.72450000  1.0 -0.1226160767
C  C102  1  0.69090000  0.90870000  0.27550000  1.0 -0.1226160767
C  C103  1  0.30410000  0.00590000  0.68834000  1.0 -0.1226160767
C  C104  1  0.69590000  0.99410000  0.31166000  1.0 -0.1226160767
C  C105  1  0.37550000  0.94606000  0.69857000  1.0 -0.0077529926
C  C106  1  0.62450000  0.05394000  0.30143000  1.0 -0.0077529926
C  C107  1  0.44830000  0.97000000  0.74573000  1.0 -0.0894606795
C  C108  1  0.55170000  0.03000000  0.25427000  1.0 -0.0894606795
C  C109  1  0.45370000  0.05750000  0.78142000  1.0 -0.081944362
C  C110  1  0.54630000  0.94250000  0.21858000  1.0 -0.081944362
C  C111  1  0.37960000  0.85630000  0.65729000  1.0 0.5989129836
C  C112  1  0.62040000  0.14370000  0.34271000  1.0 0.5989129836
C  C113  1  0.01050000  0.09170000  0.63360000  1.0 -0.1226160767
C  C114  1  0.98950000  0.90830000  0.36640000  1.0 -0.1226160767
C  C115  1  0.96000000  0.02520000  0.58730000  1.0 -0.112928088
C  C116  1  0.04000000  0.97480000  0.41270000  1.0 -0.112928088
C  C117  1  0.94850000  0.92970000  0.59070000  1.0 -0.0697230342
C  C118  1  0.05150000  0.07030000  0.40930000  1.0 -0.0697230342
C  C119  1  0.98750000  0.90060000  0.64030000  1.0 0.0294362215
C  C120  1  0.01250000  0.09940000  0.35970000  1.0 0.0294362215
C  C121  1  0.03800000  0.96710000  0.68660000  1.0 -0.0697230342
C  C122  1  0.96200000  0.03290000  0.31340000  1.0 -0.0697230342
C  C123  1  0.04950000  0.06270000  0.68330000  1.0 -0.081944362
C  C124  1  0.95050000  0.93730000  0.31670000  1.0 -0.081944362
C  C125  1  0.98900000  0.80000000  0.64200000  1.0 0.2422447858
C  C126  1  0.01100000  0.20000000  0.35800000  1.0 0.2422447858
O  O1  1  0.41688000  0.36672000  0.46276000  1.0 -0.5919258381
O  O2  1  0.58312000  0.63328000  0.53724000  1.0 -0.5919258381
O  O3  1  0.43078000  0.21665000  0.44969000  1.0 -0.5127966906
O  O4  1  0.56922000  0.78335000  0.55031000  1.0 -0.5127966906
O  O5  1  0.08995000  0.56899000  0.87148000  1.0 -0.5781709755
O  O6  1  0.91005000  0.43101000  0.12852000  1.0 -0.5781709755
O  O7  1  0.00424000  0.45536000  0.91226000  1.0 -0.5489714449
O  O8  1  0.99576000  0.54464000  0.08774000  1.0 -0.5615104939
O  O9  1  0.64295000  0.44053000  0.51388000  1.0 -0.5615104939
O  O10  1  0.35705000  0.55947000  0.48612000  1.0 -0.5615104939
O  O11  1  0.64425000  0.31486000  0.44388000  1.0 -0.5321839953
O  O12  1  0.35575000  0.68514000  0.55612000  1.0 -0.5321839953
O  O13  1  0.95380000  0.76270000  0.68015000  1.0 -0.0406971945
O  O14  1  0.04620000  0.23730000  0.31985000  1.0 -0.0406971945
O  O15  1  0.88400000  0.74070000  0.58888000  1.0 -0.1406188885
O  O16  1  0.11600000  0.25930000  0.41112000  1.0 -0.1406188885
O  O17  1  0.47374000  0.47180000  0.58052000  1.0 -0.5685356761
O  O18  1  0.52626000  0.52820000  0.41948000  1.0 -0.5685356761
O  O19  1  0.44140000  0.59209000  0.64733000  1.0 -0.5489714449
O  O20  1  0.55860000  0.40791000  0.35267000  1.0 -0.5489714449
O  O21  1  0.04578000  0.37037000  0.01632000  1.0 -0.5919258381
O  O22  1  0.95422000  0.62963000  0.98368000  1.0 -0.5951173211
O  O23  1  0.00930000  0.21771000  0.00507000  1.0 -0.5233191157
O  O24  1  0.99070000  0.78229000  0.99493000  1.0 -0.5233191157
O  O25  1  0.84298000  0.43752000  0.98722000  1.0 -0.5685356761
O  O26  1  0.15702000  0.56248000  0.01278000  1.0 -0.5685356761
O  O27  1  0.81062000  0.30153000  0.02054000  1.0 -0.5448481346
O  O28  1  0.18938000  0.69847000  0.97946000  1.0 -0.5448481346
O  O29  1  0.31180000  0.84086000  0.61192000  1.0 -0.5919258381
O  O30  1  0.68820000  0.15914000  0.38808000  1.0 -0.5919258381
O  O31  1  0.44304000  0.80323000  0.66533000  1.0 -0.5006533767
O  O32  1  0.55696000  0.19677000  0.33467000  1.0 -0.5006533767
O  O33  1  0.95910000  0.74250000  0.59630000  1.0 -0.0894606795
O  O34  1  0.04090000  0.25750000  0.40370000  1.0 -0.0894606795
O  O35  1  0.02900000  0.78010000  0.68750000  1.0 -0.0993343386
O  O36  1  0.97100000  0.21990000  0.31250000  1.0 -0.0993343386
