# DDEC6 charges by PACMAN v1.1 (https://github.com/mtap-research/PACMAN-charge/)
data_CAPTEV_ASR_pacman
_symmetry_space_group_name_H-M   'P 1'
_cell_length_a   11.61120000
_cell_length_b   13.05640000
_cell_length_c   17.74130000
_cell_angle_alpha   90.00000000
_cell_angle_beta   127.64500000
_cell_angle_gamma   90.00000000
_symmetry_Int_Tables_number   1
_chemical_formula_structural   ZnH9C13(NO)3
_chemical_formula_sum   'Zn4 H36 C52 N12 O12'
_cell_volume   2129.64433780
_cell_formula_units_Z   4
loop_
 _symmetry_equiv_pos_site_id
 _symmetry_equiv_pos_as_xyz
  1  'x, y, z'
loop_
 _atom_site_type_symbol
 _atom_site_label
 _atom_site_symmetry_multiplicity
 _atom_site_fract_x
 _atom_site_fract_y
 _atom_site_fract_z
 _atom_site_occupancy
 _atom_site_charge
Zn  Zn1  1  0.97253000  0.57369000  0.42010000  1.0 0.7583526991
Zn  Zn2  1  0.02747000  0.07369000  0.07990000  1.0 0.7583526991
Zn  Zn3  1  0.02747000  0.42631000  0.57990000  1.0 0.7583526991
Zn  Zn4  1  0.97253000  0.92631000  0.92010000  1.0 0.7583526991
H  H1  1  0.40270000  0.25010000  0.35630000  1.0 0.3096124254
H  H2  1  0.74200000  0.34230000  0.48540000  1.0 0.1518364943
H  H3  1  0.32790000  0.36100000  0.23990000  1.0 0.1283447615
H  H4  1  0.40200000  0.48930000  0.18750000  1.0 0.1108941874
H  H5  1  0.56480000  0.60080000  0.19990000  1.0 0.1108941874
H  H6  1  0.14730000  0.81610000  0.33750000  1.0 0.1518364943
H  H7  1  0.18440000  0.94440000  0.26490000  1.0 0.1017105899
H  H8  1  0.78070000  0.93340000  0.04340000  1.0 0.1108941874
H  H9  1  0.73090000  0.81110000  0.11190000  1.0 0.1369985587
H  H10  1  0.59730000  0.75010000  0.14370000  1.0 0.3096124254
H  H11  1  0.25800000  0.84230000  0.01460000  1.0 0.1518364943
H  H12  1  0.67210000  0.86100000  0.26010000  1.0 0.1283447615
H  H13  1  0.59800000  0.98930000  0.31250000  1.0 0.1108941874
H  H14  1  0.43520000  0.10080000  0.30010000  1.0 0.1108941874
H  H15  1  0.85270000  0.31610000  0.16250000  1.0 0.1518364943
H  H16  1  0.81560000  0.44440000  0.23510000  1.0 0.1017105899
H  H17  1  0.21930000  0.43340000  0.45660000  1.0 0.1108941874
H  H18  1  0.26910000  0.31110000  0.38810000  1.0 0.1369985587
H  H19  1  0.59730000  0.74990000  0.64370000  1.0 0.3096124254
H  H20  1  0.25800000  0.65770000  0.51460000  1.0 0.1518364943
H  H21  1  0.67210000  0.63900000  0.76010000  1.0 0.1283447615
H  H22  1  0.59800000  0.51070000  0.81250000  1.0 0.1108941874
H  H23  1  0.43520000  0.39920000  0.80010000  1.0 0.1108941874
H  H24  1  0.85270000  0.18390000  0.66250000  1.0 0.1518364943
H  H25  1  0.81560000  0.05560000  0.73510000  1.0 0.1017105899
H  H26  1  0.21930000  0.06660000  0.95660000  1.0 0.1108941874
H  H27  1  0.26910000  0.18890000  0.88810000  1.0 0.1369985587
H  H28  1  0.40270000  0.24990000  0.85630000  1.0 0.3096124254
H  H29  1  0.74200000  0.15770000  0.98540000  1.0 0.1518364943
H  H30  1  0.32790000  0.13900000  0.73990000  1.0 0.1283447615
H  H31  1  0.40200000  0.01070000  0.68750000  1.0 0.1108941874
H  H32  1  0.56480000  0.89920000  0.69990000  1.0 0.1108941874
H  H33  1  0.14730000  0.68390000  0.83750000  1.0 0.1518364943
H  H34  1  0.18440000  0.55560000  0.76490000  1.0 0.1017105899
H  H35  1  0.78070000  0.56660000  0.54340000  1.0 0.1108941874
H  H36  1  0.73090000  0.68890000  0.61190000  1.0 0.1369985587
C  C1  1  0.72070000  0.44950000  0.39340000  1.0 0.3294429726
C  C2  1  0.67390000  0.37230000  0.42450000  1.0 -0.3931623974
C  C3  1  0.52850000  0.33870000  0.36740000  1.0 0.3409804128
C  C4  1  0.42650000  0.38290000  0.27870000  1.0 -0.2879128285
C  C5  1  0.47160000  0.45940000  0.24820000  1.0 -0.1017481356
C  C6  1  0.61630000  0.49480000  0.30320000  1.0 -0.1017481356
C  C7  1  0.64510000  0.57460000  0.25950000  1.0 0.0479961634
C  C8  1  0.91200000  0.71690000  0.28290000  1.0 0.4190326951
C  C9  1  0.93250000  0.79970000  0.23350000  1.0 0.0479961634
C  C10  1  0.06760000  0.84040000  0.27670000  1.0 -0.1693992071
C  C11  1  0.08910000  0.91710000  0.23220000  1.0 0.0907028898
C  C12  1  0.85750000  0.91110000  0.10590000  1.0 0.0755223207
C  C13  1  0.82730000  0.83680000  0.14610000  1.0 -0.1693992071
C  C14  1  0.27930000  0.94950000  0.10660000  1.0 0.3294429726
C  C15  1  0.32610000  0.87230000  0.07550000  1.0 -0.3931623974
C  C16  1  0.47150000  0.83870000  0.13260000  1.0 0.3409804128
C  C17  1  0.57350000  0.88290000  0.22130000  1.0 -0.2879128285
C  C18  1  0.52840000  0.95940000  0.25180000  1.0 -0.1017481356
C  C19  1  0.38370000  0.99480000  0.19680000  1.0 -0.1017481356
C  C20  1  0.35490000  0.07460000  0.24050000  1.0 0.0479961634
C  C21  1  0.08800000  0.21690000  0.21710000  1.0 0.4190326951
C  C22  1  0.06750000  0.29970000  0.26650000  1.0 0.0479961634
C  C23  1  0.93240000  0.34040000  0.22330000  1.0 -0.1693992071
C  C24  1  0.91090000  0.41710000  0.26780000  1.0 0.0907028898
C  C25  1  0.14250000  0.41110000  0.39410000  1.0 0.0755223207
C  C26  1  0.17270000  0.33680000  0.35390000  1.0 -0.1693992071
C  C27  1  0.27930000  0.55050000  0.60660000  1.0 0.3294429726
C  C28  1  0.32610000  0.62770000  0.57550000  1.0 -0.3931623974
C  C29  1  0.47150000  0.66130000  0.63260000  1.0 0.3409804128
C  C30  1  0.57350000  0.61710000  0.72130000  1.0 -0.2879128285
C  C31  1  0.52840000  0.54060000  0.75180000  1.0 -0.1017481356
C  C32  1  0.38370000  0.50520000  0.69680000  1.0 -0.1017481356
C  C33  1  0.35490000  0.42540000  0.74050000  1.0 0.0479961634
C  C34  1  0.08800000  0.28310000  0.71710000  1.0 0.4190326951
C  C35  1  0.06750000  0.20030000  0.76650000  1.0 0.0479961634
C  C36  1  0.93240000  0.15960000  0.72330000  1.0 -0.1693992071
C  C37  1  0.91090000  0.08290000  0.76780000  1.0 0.0907028898
C  C38  1  0.14250000  0.08890000  0.89410000  1.0 0.0755223207
C  C39  1  0.17270000  0.16320000  0.85390000  1.0 -0.1693992071
C  C40  1  0.72070000  0.05050000  0.89340000  1.0 0.3294429726
C  C41  1  0.67390000  0.12770000  0.92450000  1.0 -0.3931623974
C  C42  1  0.52850000  0.16130000  0.86740000  1.0 0.3409804128
C  C43  1  0.42650000  0.11710000  0.77870000  1.0 -0.2879128285
C  C44  1  0.47160000  0.04060000  0.74820000  1.0 -0.1017481356
C  C45  1  0.61630000  0.00520000  0.80320000  1.0 -0.1017481356
C  C46  1  0.64510000  0.92540000  0.75950000  1.0 0.0432693384
C  C47  1  0.91200000  0.78310000  0.78290000  1.0 0.4190326951
C  C48  1  0.93250000  0.70030000  0.73350000  1.0 0.0479961634
C  C49  1  0.06760000  0.65960000  0.77670000  1.0 -0.1693992071
C  C50  1  0.08910000  0.58290000  0.73220000  1.0 0.0907028898
C  C51  1  0.85750000  0.58890000  0.60590000  1.0 0.0755223207
C  C52  1  0.82730000  0.66320000  0.64610000  1.0 -0.1693992071
N  N1  1  0.77170000  0.61240000  0.29570000  1.0 -0.1595222556
N  N2  1  0.77570000  0.68810000  0.24060000  1.0 -0.3571304359
N  N3  1  0.98690000  0.95390000  0.14850000  1.0 -0.1986933664
N  N4  1  0.22830000  0.11240000  0.20430000  1.0 -0.1595222556
N  N5  1  0.22430000  0.18810000  0.25940000  1.0 -0.3571304359
N  N6  1  0.01310000  0.45390000  0.35150000  1.0 -0.1986933664
N  N7  1  0.22830000  0.38760000  0.70430000  1.0 -0.1595222556
N  N8  1  0.22430000  0.31190000  0.75940000  1.0 -0.3571304359
N  N9  1  0.01310000  0.04610000  0.85150000  1.0 -0.1986933664
N  N10  1  0.77170000  0.88760000  0.79570000  1.0 -0.1595222556
N  N11  1  0.77570000  0.81190000  0.74060000  1.0 -0.3571304359
N  N12  1  0.98690000  0.54610000  0.64850000  1.0 -0.1986933664
O  O1  1  0.49310000  0.26230000  0.40160000  1.0 -0.4387540125
O  O2  1  0.85900000  0.47740000  0.44870000  1.0 -0.5399170496
O  O3  1  0.02500000  0.68250000  0.35960000  1.0 -0.5044794657
O  O4  1  0.50690000  0.76230000  0.09840000  1.0 -0.4387540125
O  O5  1  0.14100000  0.97740000  0.05130000  1.0 -0.5399170496
O  O6  1  0.97500000  0.18250000  0.14040000  1.0 -0.5044794657
O  O7  1  0.50690000  0.73770000  0.59840000  1.0 -0.4387540125
O  O8  1  0.14100000  0.52260000  0.55130000  1.0 -0.5399170496
O  O9  1  0.97500000  0.31750000  0.64040000  1.0 -0.5044794657
O  O10  1  0.49310000  0.23770000  0.90160000  1.0 -0.4387540125
O  O11  1  0.85900000  0.02260000  0.94870000  1.0 -0.5399170496
O  O12  1  0.02500000  0.81750000  0.85960000  1.0 -0.5044794657
