# DDEC6 charges by PACMAN v1.1 (https://github.com/mtap-research/PACMAN-charge/)
data_CARFEJ_FSR_pacman
_symmetry_space_group_name_H-M   'P 1'
_cell_length_a   10.09870000
_cell_length_b   16.70060000
_cell_length_c   11.36920000
_cell_angle_alpha   90.00000000
_cell_angle_beta   116.36500000
_cell_angle_gamma   90.00000000
_symmetry_Int_Tables_number   1
_chemical_formula_structural   Sm2CuH34C17(N3O10)2
_chemical_formula_sum   'Sm4 Cu2 H68 C34 N12 O40'
_cell_volume   1718.01646103
_cell_formula_units_Z   2
loop_
 _symmetry_equiv_pos_site_id
 _symmetry_equiv_pos_as_xyz
  1  'x, y, z'
loop_
 _atom_site_type_symbol
 _atom_site_label
 _atom_site_symmetry_multiplicity
 _atom_site_fract_x
 _atom_site_fract_y
 _atom_site_fract_z
 _atom_site_occupancy
 _atom_site_charge
Sm  Sm1  1  0.84113000  0.26138000  0.21144000  1.0 1.9823472543
Sm  Sm2  1  0.14983000  0.23011000  0.83150000  1.0 1.9860853
Sm  Sm3  1  0.15887000  0.76138000  0.78856000  1.0 1.9823472543
Sm  Sm4  1  0.85017000  0.73011000  0.16850000  1.0 1.9860853
Cu  Cu1  1  0.50164000  0.75884000  0.47170000  1.0 0.2810951216
Cu  Cu2  1  0.49836000  0.25884000  0.52830000  1.0 0.2693529073
H  H1  1  0.82840000  0.08870000  0.25880000  1.0 0.3127264423
H  H2  1  0.68790000  0.09900000  0.19300000  1.0 0.3038913949
H  H3  1  0.18640000  0.39910000  0.77960000  1.0 0.2896533055
H  H4  1  0.31810000  0.38760000  0.85770000  1.0 0.2896533055
H  H5  1  0.17160000  0.58870000  0.74120000  1.0 0.3127264423
H  H6  1  0.31210000  0.59900000  0.80700000  1.0 0.3038913949
H  H7  1  0.81360000  0.89910000  0.22040000  1.0 0.2896533055
H  H8  1  0.68190000  0.88760000  0.14230000  1.0 0.2896533055
H  H9  1  0.64790000  0.79590000  0.35390000  1.0 0.2175114823
H  H10  1  0.69170000  0.85080000  0.46810000  1.0 0.2271443798
H  H11  1  0.34310000  0.88170000  0.44290000  1.0 0.1110972466
H  H12  1  0.24610000  0.81900000  0.34970000  1.0 0.2693529073
H  H13  1  0.30530000  0.66820000  0.47060000  1.0 0.198683738
H  H14  1  0.36420000  0.71460000  0.59570000  1.0 0.2097730009
H  H15  1  0.74730000  0.74250000  0.64850000  1.0 0.1367089046
H  H16  1  0.71640000  0.67280000  0.55800000  1.0 0.1791140529
H  H17  1  0.53920000  0.89490000  0.23580000  1.0 0.0890259599
H  H18  1  0.54350000  0.94200000  0.36020000  1.0 0.1027524887
H  H19  1  0.32310000  0.92430000  0.23690000  1.0 0.0612159563
H  H20  1  0.34900000  0.83460000  0.20270000  1.0 0.1110972466
H  H21  1  0.44450000  0.59410000  0.66270000  1.0 0.0721454868
H  H22  1  0.48570000  0.58170000  0.54260000  1.0 0.1110972466
H  H23  1  0.70810000  0.61160000  0.72920000  1.0 0.0774631227
H  H24  1  0.63510000  0.68910000  0.76090000  1.0 0.0890259599
H  H25  1  0.63800000  0.82390000  0.69170000  1.0 0.2810951216
H  H26  1  0.53060000  0.85710000  0.71810000  1.0 0.3320265455
H  H27  1  0.23970000  0.82110000  0.36150000  1.0 0.2896533055
H  H28  1  0.28150000  0.80100000  0.25320000  1.0 0.1110972466
H  H29  1  0.74760000  0.68930000  0.56980000  1.0 0.2175114823
H  H30  1  0.63490000  0.62950000  0.48650000  1.0 0.15560614
H  H31  1  0.46120000  0.60390000  0.68120000  1.0 0.1110972466
H  H32  1  0.45940000  0.57310000  0.54720000  1.0 0.0890259599
H  H33  1  0.43810000  0.92800000  0.44760000  1.0 0.0721454868
H  H34  1  0.32650000  0.95020000  0.29760000  1.0 0.0612159563
H  H35  1  0.46140000  0.60560000  0.68040000  1.0 0.1110972466
H  H36  1  0.45970000  0.57470000  0.54630000  1.0 0.0890259599
H  H37  1  0.70530000  0.59180000  0.69600000  1.0 0.0612159563
H  H38  1  0.67360000  0.68140000  0.73030000  1.0 0.0774631227
H  H39  1  0.35210000  0.29590000  0.64610000  1.0 0.2175114823
H  H40  1  0.30830000  0.35080000  0.53190000  1.0 0.2271443798
H  H41  1  0.65690000  0.38170000  0.55710000  1.0 0.1110972466
H  H42  1  0.75390000  0.31900000  0.65030000  1.0 0.2693529073
H  H43  1  0.69470000  0.16820000  0.52940000  1.0 0.198683738
H  H44  1  0.63580000  0.21460000  0.40430000  1.0 0.2175114823
H  H45  1  0.25270000  0.24250000  0.35150000  1.0 0.1367089046
H  H46  1  0.28360000  0.17280000  0.44200000  1.0 0.1791140529
H  H47  1  0.46080000  0.39490000  0.76420000  1.0 0.0890259599
H  H48  1  0.45650000  0.44200000  0.63980000  1.0 0.1027524887
H  H49  1  0.67690000  0.42430000  0.76310000  1.0 0.0612159563
H  H50  1  0.65100000  0.33460000  0.79730000  1.0 0.1027524887
H  H51  1  0.55550000  0.09410000  0.33730000  1.0 0.0721454868
H  H52  1  0.51430000  0.08170000  0.45740000  1.0 0.1110972466
H  H53  1  0.29190000  0.11160000  0.27080000  1.0 0.0774631227
H  H54  1  0.36490000  0.18910000  0.23910000  1.0 0.0890259599
H  H55  1  0.36200000  0.32390000  0.30830000  1.0 0.2810951216
H  H56  1  0.46940000  0.35710000  0.28190000  1.0 0.3320265455
H  H57  1  0.76030000  0.32110000  0.63850000  1.0 0.2896533055
H  H58  1  0.71850000  0.30100000  0.74680000  1.0 0.1110972466
H  H59  1  0.25240000  0.18930000  0.43020000  1.0 0.2175114823
H  H60  1  0.36510000  0.12950000  0.51350000  1.0 0.1548387749
H  H61  1  0.53880000  0.10390000  0.31880000  1.0 0.1110972466
H  H62  1  0.54060000  0.07310000  0.45280000  1.0 0.0890259599
H  H63  1  0.56190000  0.42800000  0.55240000  1.0 0.0721454868
H  H64  1  0.67350000  0.45020000  0.70240000  1.0 0.0612159563
H  H65  1  0.53860000  0.10560000  0.31960000  1.0 0.1110972466
H  H66  1  0.54030000  0.07470000  0.45370000  1.0 0.0890259599
H  H67  1  0.29470000  0.09180000  0.30400000  1.0 0.0612159563
H  H68  1  0.32640000  0.18140000  0.26970000  1.0 0.0774631227
C  C1  1  0.01850000  0.20180000  0.04810000  1.0 0.4907610906
C  C2  1  0.97580000  0.28870000  0.99810000  1.0 0.4907610906
C  C3  1  0.51410000  0.23420000  0.96290000  1.0 0.4821374794
C  C4  1  0.47650000  0.25480000  0.07780000  1.0 0.4821374794
C  C5  1  0.93970000  0.27710000  0.52590000  1.0 0.4821374794
C  C6  1  0.05180000  0.21680000  0.51710000  1.0 0.4821374794
C  C7  1  0.02970000  0.42570000  0.30350000  1.0 0.188107927
C  C8  1  0.87850000  0.45360000  0.22540000  1.0 0.1791140529
C  C9  1  0.88230000  0.53850000  0.21070000  1.0 0.1791140529
C  C10  1  0.03570000  0.56500000  0.28200000  1.0 0.1743902905
C  C11  1  0.13070000  0.49600000  0.34000000  1.0 0.2097730009
C  C12  1  0.98150000  0.70180000  0.95190000  1.0 0.4907610906
C  C13  1  0.02420000  0.78870000  0.00190000  1.0 0.4907610906
C  C14  1  0.48590000  0.73420000  0.03710000  1.0 0.4821374794
C  C15  1  0.52350000  0.75480000  0.92220000  1.0 0.4821374794
C  C16  1  0.06030000  0.77710000  0.47410000  1.0 0.4821374794
C  C17  1  0.94820000  0.71680000  0.48290000  1.0 0.4821374794
C  C18  1  0.97030000  0.92570000  0.69650000  1.0 0.188107927
C  C19  1  0.12150000  0.95360000  0.77460000  1.0 0.1791140529
C  C20  1  0.11770000  0.03850000  0.78930000  1.0 0.1791140529
C  C21  1  0.96430000  0.06500000  0.71800000  1.0 0.1743902905
C  C22  1  0.86930000  0.99600000  0.66000000  1.0 0.198683738
C  C23  1  0.51900000  0.89010000  0.31310000  1.0 -0.0794826964
C  C24  1  0.38000000  0.87470000  0.27400000  1.0 -0.0334537694
C  C25  1  0.48240000  0.62120000  0.60630000  1.0 -0.2714050369
C  C26  1  0.63600000  0.65550000  0.68900000  1.0 -0.0434196138
C  C27  1  0.39600000  0.90900000  0.35500000  1.0 -0.0434196138
C  C28  1  0.64400000  0.64000000  0.66100000  1.0 0.0118494412
C  C29  1  0.48100000  0.39010000  0.68690000  1.0 -0.0794826964
C  C30  1  0.62000000  0.37470000  0.72600000  1.0 -0.0334537694
C  C31  1  0.51760000  0.12120000  0.39370000  1.0 -0.2714050369
C  C32  1  0.36400000  0.15550000  0.31100000  1.0 -0.0434196138
C  C33  1  0.60400000  0.40900000  0.64500000  1.0 -0.0434196138
C  C34  1  0.35600000  0.14000000  0.33900000  1.0 0.0118494412
N  N1  1  0.61220000  0.82760000  0.39960000  1.0 -0.6442792373
N  N2  1  0.33800000  0.84200000  0.38510000  1.0 -0.0794826964
N  N3  1  0.39030000  0.68660000  0.53950000  1.0 -0.5810898142
N  N4  1  0.67720000  0.70520000  0.60010000  1.0 -0.0888848597
N  N5  1  0.31500000  0.82100000  0.33700000  1.0 -0.0888848597
N  N6  1  0.65400000  0.66980000  0.54700000  1.0 -0.101652495
N  N7  1  0.38780000  0.32760000  0.60040000  1.0 -0.6442792373
N  N8  1  0.66200000  0.34200000  0.61490000  1.0 -0.0794826964
N  N9  1  0.60970000  0.18660000  0.46050000  1.0 -0.5810898142
N  N10  1  0.32280000  0.20520000  0.39990000  1.0 -0.0888848597
N  N11  1  0.68500000  0.32100000  0.66300000  1.0 -0.0888848597
N  N12  1  0.34600000  0.16980000  0.45300000  1.0 -0.101652495
O  O1  1  0.08040000  0.16110000  0.99180000  1.0 -0.6014475258
O  O2  1  0.00640000  0.31150000  0.90800000  1.0 -0.6118350582
O  O3  1  0.98820000  0.17860000  0.13690000  1.0 -0.6014475258
O  O4  1  0.91190000  0.32900000  0.04950000  1.0 -0.5810898142
O  O5  1  0.64810000  0.23210000  0.98790000  1.0 -0.6014475258
O  O6  1  0.58610000  0.26910000  0.18740000  1.0 -0.5892400997
O  O7  1  0.34310000  0.25640000  0.05320000  1.0 -0.6014475258
O  O8  1  0.40740000  0.22180000  0.85470000  1.0 -0.5624561267
O  O9  1  0.03290000  0.19620000  0.40540000  1.0 -0.5892400997
O  O10  1  0.83820000  0.30070000  0.41880000  1.0 -0.5892400997
O  O11  1  0.15390000  0.19390000  0.62360000  1.0 -0.5810898142
O  O12  1  0.95760000  0.29680000  0.63840000  1.0 -0.618464108
O  O13  1  0.06450000  0.35390000  0.33070000  1.0 -0.5066605764
O  O14  1  0.77030000  0.40670000  0.18200000  1.0 -0.4646257715
O  O15  1  0.77720000  0.58680000  0.14910000  1.0 -0.4852411704
O  O16  1  0.07480000  0.63750000  0.28930000  1.0 -0.519938852
O  O17  1  0.26420000  0.49440000  0.40320000  1.0 -0.3826270955
O  O18  1  0.76550000  0.12530000  0.23680000  1.0 -0.752939816
O  O19  1  0.23000000  0.36570000  0.81230000  1.0 -0.6673394399
O  O20  1  0.91960000  0.66110000  0.00820000  1.0 -0.6014475258
O  O21  1  0.99360000  0.81150000  0.09200000  1.0 -0.6118350582
O  O22  1  0.01180000  0.67860000  0.86310000  1.0 -0.6014475258
O  O23  1  0.08810000  0.82900000  0.95050000  1.0 -0.574456449
O  O24  1  0.35190000  0.73210000  0.01210000  1.0 -0.6014475258
O  O25  1  0.41390000  0.76910000  0.81260000  1.0 -0.5892400997
O  O26  1  0.65690000  0.75640000  0.94680000  1.0 -0.6014475258
O  O27  1  0.59260000  0.72180000  0.14530000  1.0 -0.5624561267
O  O28  1  0.96710000  0.69620000  0.59460000  1.0 -0.5892400997
O  O29  1  0.16180000  0.80070000  0.58120000  1.0 -0.5892400997
O  O30  1  0.84610000  0.69390000  0.37640000  1.0 -0.5810898142
O  O31  1  0.04240000  0.79680000  0.36160000  1.0 -0.618464108
O  O32  1  0.93550000  0.85390000  0.66930000  1.0 -0.5066605764
O  O33  1  0.22970000  0.90670000  0.81800000  1.0 -0.4651460903
O  O34  1  0.22280000  0.08680000  0.85090000  1.0 -0.4852411704
O  O35  1  0.92520000  0.13750000  0.71070000  1.0 -0.519938852
O  O36  1  0.73580000  0.99440000  0.59680000  1.0 -0.3826270955
O  O37  1  0.23450000  0.62530000  0.76320000  1.0 -0.752939816
O  O38  1  0.77000000  0.86570000  0.18770000  1.0 -0.6673394399
O  O39  1  0.55320000  0.85400000  0.65480000  1.0 -0.6480401711
O  O40  1  0.44680000  0.35400000  0.34520000  1.0 -0.6480401711
