# DDEC6 charges by PACMAN v1.1 (https://github.com/mtap-research/PACMAN-charge/)
data_CARGAG_ASR_pacman
_symmetry_space_group_name_H-M   'P 1'
_cell_length_a   12.10060000
_cell_length_b   26.22690000
_cell_length_c   20.02960000
_cell_angle_alpha   90.00000000
_cell_angle_beta   110.30400000
_cell_angle_gamma   90.00000000
_symmetry_Int_Tables_number   1
_chemical_formula_structural   CdH24C33S(NO)4
_chemical_formula_sum   'Cd4 H96 C132 S4 N16 O16'
_cell_volume   5961.64809693
_cell_formula_units_Z   4
loop_
 _symmetry_equiv_pos_site_id
 _symmetry_equiv_pos_as_xyz
  1  'x, y, z'
loop_
 _atom_site_type_symbol
 _atom_site_label
 _atom_site_symmetry_multiplicity
 _atom_site_fract_x
 _atom_site_fract_y
 _atom_site_fract_z
 _atom_site_occupancy
 _atom_site_charge
Cd  Cd1  1  0.00000000  0.00000000  0.00000000  1.0 0.8355158235
Cd  Cd2  1  0.00000000  0.50000000  0.50000000  1.0 0.8355158235
Cd  Cd3  1  0.50000000  0.00000000  0.00000000  1.0 0.9299114313
Cd  Cd4  1  0.50000000  0.50000000  0.50000000  1.0 0.9299114313
H  H1  1  0.92400000  0.02260000  0.82930000  1.0 0.1108663174
H  H2  1  0.80270000  0.99430000  0.72030000  1.0 0.1304709084
H  H3  1  0.64450000  0.90460000  0.82100000  1.0 0.1358746351
H  H4  1  0.77160000  0.93370000  0.92510000  1.0 0.1108663174
H  H5  1  0.60900000  0.98910000  0.63170000  1.0 0.1108663174
H  H6  1  0.48340000  0.95690000  0.52480000  1.0 0.1189766562
H  H7  1  0.51530000  0.81840000  0.61040000  1.0 0.1189766562
H  H8  1  0.63790000  0.85110000  0.71980000  1.0 0.1189766562
H  H9  1  0.32890000  0.93670000  0.06210000  1.0 0.1026688929
H  H10  1  0.31480000  0.90280000  0.16160000  1.0 0.1189766562
H  H11  1  0.60790000  0.97460000  0.27250000  1.0 0.1358746351
H  H12  1  0.62390000  0.00300000  0.16880000  1.0 0.1189766562
H  H13  1  0.27620000  0.90160000  0.26040000  1.0 0.1189766562
H  H14  1  0.25750000  0.87590000  0.36590000  1.0 0.1304709084
H  H15  1  0.60540000  0.89250000  0.46220000  1.0 0.1304709084
H  H16  1  0.62090000  0.92210000  0.35870000  1.0 0.1189766562
H  H17  1  0.05310000  0.60960000  0.57950000  1.0 0.1108663174
H  H18  1  0.13480000  0.68880000  0.57850000  1.0 0.1304709084
H  H19  1  0.17780000  0.64780000  0.39600000  1.0 0.1358746351
H  H20  1  0.10020000  0.56980000  0.40730000  1.0 0.1108663174
H  H21  1  0.17160000  0.76570000  0.55260000  1.0 0.1189766562
H  H22  1  0.26990000  0.84140000  0.55220000  1.0 0.1304709084
H  H23  1  0.40510000  0.78110000  0.41690000  1.0 0.1304709084
H  H24  1  0.30390000  0.70650000  0.41550000  1.0 0.1189766562
H  H25  1  0.07600000  0.52260000  0.67070000  1.0 0.1108663174
H  H26  1  0.19730000  0.49430000  0.77970000  1.0 0.1304709084
H  H27  1  0.35550000  0.40460000  0.67900000  1.0 0.1358746351
H  H28  1  0.22840000  0.43370000  0.57490000  1.0 0.1108663174
H  H29  1  0.39100000  0.48910000  0.86830000  1.0 0.1108663174
H  H30  1  0.51660000  0.45690000  0.97520000  1.0 0.1189766562
H  H31  1  0.48470000  0.31840000  0.88960000  1.0 0.1189766562
H  H32  1  0.36210000  0.35110000  0.78020000  1.0 0.1189766562
H  H33  1  0.67110000  0.43670000  0.43790000  1.0 0.1026688929
H  H34  1  0.68520000  0.40280000  0.33840000  1.0 0.1189766562
H  H35  1  0.39210000  0.47460000  0.22750000  1.0 0.1304709084
H  H36  1  0.37610000  0.50300000  0.33120000  1.0 0.1189766562
H  H37  1  0.72380000  0.40160000  0.23960000  1.0 0.1189766562
H  H38  1  0.74250000  0.37590000  0.13410000  1.0 0.1304709084
H  H39  1  0.39460000  0.39250000  0.03780000  1.0 0.1304709084
H  H40  1  0.37910000  0.42210000  0.14130000  1.0 0.1189766562
H  H41  1  0.94690000  0.10960000  0.92050000  1.0 0.1108663174
H  H42  1  0.86520000  0.18880000  0.92150000  1.0 0.1304709084
H  H43  1  0.82220000  0.14780000  0.10400000  1.0 0.1358746351
H  H44  1  0.89980000  0.06980000  0.09270000  1.0 0.1108663174
H  H45  1  0.82840000  0.26570000  0.94740000  1.0 0.1189766562
H  H46  1  0.73010000  0.34140000  0.94780000  1.0 0.1304709084
H  H47  1  0.59490000  0.28110000  0.08310000  1.0 0.1304709084
H  H48  1  0.69610000  0.20650000  0.08450000  1.0 0.1189766562
H  H49  1  0.07600000  0.97740000  0.17070000  1.0 0.1108663174
H  H50  1  0.19730000  0.00570000  0.27970000  1.0 0.1304709084
H  H51  1  0.35550000  0.09540000  0.17900000  1.0 0.1358746351
H  H52  1  0.22840000  0.06630000  0.07490000  1.0 0.1108663174
H  H53  1  0.39100000  0.01090000  0.36830000  1.0 0.1108663174
H  H54  1  0.51660000  0.04310000  0.47520000  1.0 0.1189766562
H  H55  1  0.48470000  0.18160000  0.38960000  1.0 0.1189766562
H  H56  1  0.36210000  0.14890000  0.28020000  1.0 0.1189766562
H  H57  1  0.67110000  0.06330000  0.93790000  1.0 0.1026688929
H  H58  1  0.68520000  0.09720000  0.83840000  1.0 0.1189766562
H  H59  1  0.39210000  0.02540000  0.72750000  1.0 0.1358746351
H  H60  1  0.37610000  0.99700000  0.83120000  1.0 0.1189766562
H  H61  1  0.72380000  0.09840000  0.73960000  1.0 0.1189766562
H  H62  1  0.74250000  0.12410000  0.63410000  1.0 0.1304709084
H  H63  1  0.39460000  0.10750000  0.53780000  1.0 0.1304709084
H  H64  1  0.37910000  0.07790000  0.64130000  1.0 0.1189766562
H  H65  1  0.94690000  0.39040000  0.42050000  1.0 0.1108663174
H  H66  1  0.86520000  0.31120000  0.42150000  1.0 0.1304709084
H  H67  1  0.82220000  0.35220000  0.60400000  1.0 0.1358746351
H  H68  1  0.89980000  0.43020000  0.59270000  1.0 0.1108663174
H  H69  1  0.82840000  0.23430000  0.44740000  1.0 0.1189766562
H  H70  1  0.73010000  0.15860000  0.44780000  1.0 0.1304709084
H  H71  1  0.59490000  0.21890000  0.58310000  1.0 0.1304709084
H  H72  1  0.69610000  0.29350000  0.58450000  1.0 0.1189766562
H  H73  1  0.92400000  0.47740000  0.32930000  1.0 0.1108663174
H  H74  1  0.80270000  0.50570000  0.22030000  1.0 0.1304709084
H  H75  1  0.64450000  0.59540000  0.32100000  1.0 0.1358746351
H  H76  1  0.77160000  0.56630000  0.42510000  1.0 0.1108663174
H  H77  1  0.60900000  0.51090000  0.13170000  1.0 0.1108663174
H  H78  1  0.48340000  0.54310000  0.02480000  1.0 0.1189766562
H  H79  1  0.51530000  0.68160000  0.11040000  1.0 0.1189766562
H  H80  1  0.63790000  0.64890000  0.21980000  1.0 0.1189766562
H  H81  1  0.32890000  0.56330000  0.56210000  1.0 0.1026688929
H  H82  1  0.31480000  0.59720000  0.66160000  1.0 0.1189766562
H  H83  1  0.60790000  0.52540000  0.77250000  1.0 0.1358746351
H  H84  1  0.62390000  0.49700000  0.66880000  1.0 0.1189766562
H  H85  1  0.27620000  0.59840000  0.76040000  1.0 0.1189766562
H  H86  1  0.25750000  0.62410000  0.86590000  1.0 0.1304709084
H  H87  1  0.60540000  0.60750000  0.96220000  1.0 0.1304709084
H  H88  1  0.62090000  0.57790000  0.85870000  1.0 0.1189766562
H  H89  1  0.05310000  0.89040000  0.07950000  1.0 0.1108663174
H  H90  1  0.13480000  0.81120000  0.07850000  1.0 0.1304709084
H  H91  1  0.17780000  0.85220000  0.89600000  1.0 0.1358746351
H  H92  1  0.10020000  0.93020000  0.90730000  1.0 0.1108663174
H  H93  1  0.17160000  0.73430000  0.05260000  1.0 0.1189766562
H  H94  1  0.26990000  0.65860000  0.05220000  1.0 0.1304709084
H  H95  1  0.40510000  0.71890000  0.91690000  1.0 0.1304709084
H  H96  1  0.30390000  0.79350000  0.91550000  1.0 0.1189766562
C  C1  1  0.86720000  0.99810000  0.82730000  1.0 0.0813937255
C  C2  1  0.79450000  0.98110000  0.76140000  1.0 -0.2073452507
C  C3  1  0.70960000  0.94450000  0.75620000  1.0 0.1108663174
C  C4  1  0.70190000  0.92810000  0.82080000  1.0 -0.2009829317
C  C5  1  0.77730000  0.94630000  0.88300000  1.0 0.0702175762
C  C6  1  0.63270000  0.92450000  0.68770000  1.0 0.0426534417
C  C7  1  0.58900000  0.95470000  0.62850000  1.0 -0.1380903403
C  C8  1  0.51510000  0.93510000  0.56340000  1.0 -0.179954086
C  C9  1  0.48890000  0.88360000  0.55570000  1.0 0.1708646308
C  C10  1  0.53360000  0.85300000  0.61430000  1.0 -0.1878961508
C  C11  1  0.60710000  0.87270000  0.68100000  1.0 -0.133937099
C  C12  1  0.38890000  0.94340000  0.10510000  1.0 0.0621094073
C  C13  1  0.37810000  0.92400000  0.16490000  1.0 -0.1878961508
C  C14  1  0.45790000  0.93500000  0.22940000  1.0 0.1108663174
C  C15  1  0.55070000  0.96550000  0.22950000  1.0 -0.2009829317
C  C16  1  0.55970000  0.98280000  0.16680000  1.0 0.0893725718
C  C17  1  0.44870000  0.91530000  0.29710000  1.0 0.0497185498
C  C18  1  0.34280000  0.90070000  0.30140000  1.0 -0.1462821324
C  C19  1  0.33120000  0.88460000  0.36460000  1.0 -0.179954086
C  C20  1  0.42980000  0.88160000  0.42550000  1.0 0.1612168665
C  C21  1  0.53820000  0.89510000  0.42180000  1.0 -0.1743532342
C  C22  1  0.54760000  0.91230000  0.35960000  1.0 -0.133937099
C  C23  1  0.08080000  0.61720000  0.54270000  1.0 0.0813937255
C  C24  1  0.13000000  0.66540000  0.54270000  1.0 -0.2073452507
C  C25  1  0.17170000  0.67780000  0.48800000  1.0 0.1108663174
C  C26  1  0.15600000  0.64110000  0.43530000  1.0 -0.2009829317
C  C27  1  0.10730000  0.59420000  0.44230000  1.0 0.0893725718
C  C28  1  0.23070000  0.72690000  0.48600000  1.0 0.0234214955
C  C29  1  0.22000000  0.76820000  0.52540000  1.0 -0.1380903403
C  C30  1  0.27990000  0.81380000  0.52570000  1.0 -0.179954086
C  C31  1  0.35170000  0.81790000  0.48790000  1.0 0.1481087173
C  C32  1  0.35910000  0.77800000  0.44550000  1.0 -0.179954086
C  C33  1  0.29820000  0.73310000  0.44490000  1.0 -0.133937099
C  C34  1  0.13280000  0.49810000  0.67270000  1.0 0.0813937255
C  C35  1  0.20550000  0.48110000  0.73860000  1.0 -0.2073452507
C  C36  1  0.29040000  0.44450000  0.74380000  1.0 0.1108663174
C  C37  1  0.29810000  0.42810000  0.67920000  1.0 -0.2009829317
C  C38  1  0.22270000  0.44630000  0.61700000  1.0 0.0702175762
C  C39  1  0.36730000  0.42450000  0.81230000  1.0 0.0426534417
C  C40  1  0.41100000  0.45470000  0.87150000  1.0 -0.1380903403
C  C41  1  0.48490000  0.43510000  0.93660000  1.0 -0.179954086
C  C42  1  0.51110000  0.38360000  0.94430000  1.0 0.1708646308
C  C43  1  0.46640000  0.35300000  0.88570000  1.0 -0.1878961508
C  C44  1  0.39290000  0.37270000  0.81900000  1.0 -0.133937099
C  C45  1  0.61110000  0.44340000  0.39490000  1.0 0.0621094073
C  C46  1  0.62190000  0.42400000  0.33510000  1.0 -0.1878961508
C  C47  1  0.54210000  0.43500000  0.27060000  1.0 0.1108663174
C  C48  1  0.44930000  0.46550000  0.27050000  1.0 -0.2009829317
C  C49  1  0.44030000  0.48280000  0.33320000  1.0 0.0893725718
C  C50  1  0.55130000  0.41530000  0.20290000  1.0 0.0497185498
C  C51  1  0.65720000  0.40070000  0.19860000  1.0 -0.1462821324
C  C52  1  0.66880000  0.38460000  0.13540000  1.0 -0.179954086
C  C53  1  0.57020000  0.38160000  0.07450000  1.0 0.1612168665
C  C54  1  0.46180000  0.39510000  0.07820000  1.0 -0.1743532342
C  C55  1  0.45240000  0.41230000  0.14040000  1.0 -0.133937099
C  C56  1  0.91920000  0.11720000  0.95730000  1.0 0.0813937255
C  C57  1  0.87000000  0.16540000  0.95730000  1.0 -0.2073452507
C  C58  1  0.82830000  0.17780000  0.01200000  1.0 0.1108663174
C  C59  1  0.84400000  0.14110000  0.06470000  1.0 -0.2009829317
C  C60  1  0.89270000  0.09420000  0.05770000  1.0 0.0893725718
C  C61  1  0.76930000  0.22690000  0.01400000  1.0 0.0234214955
C  C62  1  0.78000000  0.26820000  0.97460000  1.0 -0.1380903403
C  C63  1  0.72010000  0.31380000  0.97430000  1.0 -0.179954086
C  C64  1  0.64830000  0.31790000  0.01210000  1.0 0.1481087173
C  C65  1  0.64090000  0.27800000  0.05450000  1.0 -0.179954086
C  C66  1  0.70180000  0.23310000  0.05510000  1.0 -0.1380903403
C  C67  1  0.13280000  0.00190000  0.17270000  1.0 0.0813937255
C  C68  1  0.20550000  0.01890000  0.23860000  1.0 -0.2073452507
C  C69  1  0.29040000  0.05550000  0.24380000  1.0 0.1108663174
C  C70  1  0.29810000  0.07190000  0.17920000  1.0 -0.2009829317
C  C71  1  0.22270000  0.05370000  0.11700000  1.0 0.0702175762
C  C72  1  0.36730000  0.07550000  0.31230000  1.0 0.0426534417
C  C73  1  0.41100000  0.04530000  0.37150000  1.0 -0.1380903403
C  C74  1  0.48490000  0.06490000  0.43660000  1.0 -0.1878961508
C  C75  1  0.51110000  0.11640000  0.44430000  1.0 0.1708646308
C  C76  1  0.46640000  0.14700000  0.38570000  1.0 -0.1878961508
C  C77  1  0.39290000  0.12730000  0.31900000  1.0 -0.133937099
C  C78  1  0.61110000  0.05660000  0.89490000  1.0 0.0621094073
C  C79  1  0.62190000  0.07600000  0.83510000  1.0 -0.1878961508
C  C80  1  0.54210000  0.06500000  0.77060000  1.0 0.1108663174
C  C81  1  0.44930000  0.03450000  0.77050000  1.0 -0.2009829317
C  C82  1  0.44030000  0.01720000  0.83320000  1.0 0.0893725718
C  C83  1  0.55130000  0.08470000  0.70290000  1.0 0.0497185498
C  C84  1  0.65720000  0.09930000  0.69860000  1.0 -0.1462821324
C  C85  1  0.66880000  0.11540000  0.63540000  1.0 -0.179954086
C  C86  1  0.57020000  0.11840000  0.57450000  1.0 0.1612168665
C  C87  1  0.46180000  0.10490000  0.57820000  1.0 -0.1743532342
C  C88  1  0.45240000  0.08770000  0.64040000  1.0 -0.133937099
C  C89  1  0.91920000  0.38280000  0.45730000  1.0 0.0813937255
C  C90  1  0.87000000  0.33460000  0.45730000  1.0 -0.2073452507
C  C91  1  0.82830000  0.32220000  0.51200000  1.0 0.1108663174
C  C92  1  0.84400000  0.35890000  0.56470000  1.0 -0.2009829317
C  C93  1  0.89270000  0.40580000  0.55770000  1.0 0.0893725718
C  C94  1  0.76930000  0.27310000  0.51400000  1.0 0.0234214955
C  C95  1  0.78000000  0.23180000  0.47460000  1.0 -0.1380903403
C  C96  1  0.72010000  0.18620000  0.47430000  1.0 -0.179954086
C  C97  1  0.64830000  0.18210000  0.51210000  1.0 0.1481087173
C  C98  1  0.64090000  0.22200000  0.55450000  1.0 -0.179954086
C  C99  1  0.70180000  0.26690000  0.55510000  1.0 -0.1380903403
C  C100  1  0.86720000  0.50190000  0.32730000  1.0 0.0813937255
C  C101  1  0.79450000  0.51890000  0.26140000  1.0 -0.2073452507
C  C102  1  0.70960000  0.55550000  0.25620000  1.0 0.1108663174
C  C103  1  0.70190000  0.57190000  0.32080000  1.0 -0.2009829317
C  C104  1  0.77730000  0.55370000  0.38300000  1.0 0.0702175762
C  C105  1  0.63270000  0.57550000  0.18770000  1.0 0.0426534417
C  C106  1  0.58900000  0.54530000  0.12850000  1.0 -0.1380903403
C  C107  1  0.51510000  0.56490000  0.06340000  1.0 -0.1878961508
C  C108  1  0.48890000  0.61640000  0.05570000  1.0 0.1708646308
C  C109  1  0.53360000  0.64700000  0.11430000  1.0 -0.1878961508
C  C110  1  0.60710000  0.62730000  0.18100000  1.0 -0.133937099
C  C111  1  0.38890000  0.55660000  0.60510000  1.0 0.0621094073
C  C112  1  0.37810000  0.57600000  0.66490000  1.0 -0.1878961508
C  C113  1  0.45790000  0.56500000  0.72940000  1.0 0.1108663174
C  C114  1  0.55070000  0.53450000  0.72950000  1.0 -0.2009829317
C  C115  1  0.55970000  0.51720000  0.66680000  1.0 0.0893725718
C  C116  1  0.44870000  0.58470000  0.79710000  1.0 0.0497185498
C  C117  1  0.34280000  0.59930000  0.80140000  1.0 -0.1462821324
C  C118  1  0.33120000  0.61540000  0.86460000  1.0 -0.179954086
C  C119  1  0.42980000  0.61840000  0.92550000  1.0 0.1612168665
C  C120  1  0.53820000  0.60490000  0.92180000  1.0 -0.1743532342
C  C121  1  0.54760000  0.58770000  0.85960000  1.0 -0.133937099
C  C122  1  0.08080000  0.88280000  0.04270000  1.0 0.0813937255
C  C123  1  0.13000000  0.83460000  0.04270000  1.0 -0.2073452507
C  C124  1  0.17170000  0.82220000  0.98800000  1.0 0.1108663174
C  C125  1  0.15600000  0.85890000  0.93530000  1.0 -0.2009829317
C  C126  1  0.10730000  0.90580000  0.94230000  1.0 0.0893725718
C  C127  1  0.23070000  0.77310000  0.98600000  1.0 0.0234214955
C  C128  1  0.22000000  0.73180000  0.02540000  1.0 -0.1380903403
C  C129  1  0.27990000  0.68620000  0.02570000  1.0 -0.179954086
C  C130  1  0.35170000  0.68210000  0.98790000  1.0 0.1481087173
C  C131  1  0.35910000  0.72200000  0.94550000  1.0 -0.179954086
C  C132  1  0.29820000  0.76690000  0.94490000  1.0 -0.1380903403
S  S1  1  0.78858000  0.96014000  0.08240000  1.0 1.3866376545
S  S2  1  0.21142000  0.46014000  0.41760000  1.0 1.3866376545
S  S3  1  0.21142000  0.03986000  0.91760000  1.0 1.3866376545
S  S4  1  0.78858000  0.53986000  0.58240000  1.0 1.3866376545
N  N1  1  0.85940000  0.98126000  0.88740000  1.0 -0.2461217527
N  N2  1  0.48050000  0.97170000  0.10350000  1.0 -0.2364308626
N  N3  1  0.07090000  0.58201000  0.49440000  1.0 -0.2364308626
N  N4  1  0.41740000  0.86376000  0.48940000  1.0 -0.179954086
N  N5  1  0.14060000  0.48126000  0.61260000  1.0 -0.2461217527
N  N6  1  0.51950000  0.47170000  0.39650000  1.0 -0.2364308626
N  N7  1  0.92910000  0.08201000  0.00560000  1.0 -0.2364308626
N  N8  1  0.58260000  0.36376000  0.01060000  1.0 -0.179954086
N  N9  1  0.14060000  0.01874000  0.11260000  1.0 -0.2461217527
N  N10  1  0.51950000  0.02830000  0.89650000  1.0 -0.2364308626
N  N11  1  0.92910000  0.41799000  0.50560000  1.0 -0.2364308626
N  N12  1  0.58260000  0.13624000  0.51060000  1.0 -0.179954086
N  N13  1  0.85940000  0.51874000  0.38740000  1.0 -0.2461217527
N  N14  1  0.48050000  0.52830000  0.60350000  1.0 -0.2364308626
N  N15  1  0.07090000  0.91799000  0.99440000  1.0 -0.2364308626
N  N16  1  0.41740000  0.63624000  0.98940000  1.0 -0.179954086
O  O1  1  0.88630000  0.96474000  0.05730000  1.0 -0.6722410653
O  O2  1  0.70010000  0.99809000  0.05230000  1.0 -0.6722410653
O  O3  1  0.73400000  0.91140000  0.06260000  1.0 -0.6078589891
O  O4  1  0.82930000  0.96140000  0.15660000  1.0 -0.6184423898
O  O5  1  0.11370000  0.46474000  0.44270000  1.0 -0.6722410653
O  O6  1  0.29990000  0.49809000  0.44770000  1.0 -0.6722410653
O  O7  1  0.26600000  0.41140000  0.43740000  1.0 -0.6078589891
O  O8  1  0.17070000  0.46140000  0.34340000  1.0 -0.6184423898
O  O9  1  0.11370000  0.03526000  0.94270000  1.0 -0.6722410653
O  O10  1  0.29990000  0.00191000  0.94770000  1.0 -0.6722410653
O  O11  1  0.26600000  0.08860000  0.93740000  1.0 -0.6078589891
O  O12  1  0.17070000  0.03860000  0.84340000  1.0 -0.6184423898
O  O13  1  0.88630000  0.53526000  0.55730000  1.0 -0.6722410653
O  O14  1  0.70010000  0.50191000  0.55230000  1.0 -0.6722410653
O  O15  1  0.73400000  0.58860000  0.56260000  1.0 -0.6078589891
O  O16  1  0.82930000  0.53860000  0.65660000  1.0 -0.6184423898
