# DDEC6 charges by PACMAN v1.1 (https://github.com/mtap-research/PACMAN-charge/)
data_CARJIR_ASR_pacman
_symmetry_space_group_name_H-M   'P 1'
_cell_length_a   19.16260000
_cell_length_b   19.16260000
_cell_length_c   31.17310000
_cell_angle_alpha   78.66150000
_cell_angle_beta   101.33900000
_cell_angle_gamma   134.14000000
_symmetry_Int_Tables_number   1
_chemical_formula_structural   Zn5H24C36(I5N4)3
_chemical_formula_sum   'Zn20 H96 C144 I60 N48'
_cell_volume   8025.40689483
_cell_formula_units_Z   4
loop_
 _symmetry_equiv_pos_site_id
 _symmetry_equiv_pos_as_xyz
  1  'x, y, z'
loop_
 _atom_site_type_symbol
 _atom_site_label
 _atom_site_symmetry_multiplicity
 _atom_site_fract_x
 _atom_site_fract_y
 _atom_site_fract_z
 _atom_site_occupancy
 _atom_site_charge
Zn  Zn1  1  0.71896000  0.47496000  0.06343000  1.0 0.3698640135
Zn  Zn2  1  0.18965000  0.53767000  0.22598000  1.0 0.2623918963
Zn  Zn3  1  0.79648000  0.95712000  0.90632000  1.0 0.4007691746
Zn  Zn4  1  0.17670000  0.54530000  0.21250000  1.0 0.2623918963
Zn  Zn5  1  0.79350000  0.96230000  0.90870000  1.0 0.4007691746
Zn  Zn6  1  0.52504000  0.28104000  0.56343000  1.0 0.3698640135
Zn  Zn7  1  0.46233000  0.81035000  0.72598000  1.0 0.2623918963
Zn  Zn8  1  0.04288000  0.20352000  0.40632000  1.0 0.4007691746
Zn  Zn9  1  0.45470000  0.82330000  0.71250000  1.0 0.2665651831
Zn  Zn10  1  0.03770000  0.20650000  0.40870000  1.0 0.4007691746
Zn  Zn11  1  0.47496000  0.71896000  0.43657000  1.0 0.3698640135
Zn  Zn12  1  0.53767000  0.18965000  0.27402000  1.0 0.2623918963
Zn  Zn13  1  0.95712000  0.79648000  0.59368000  1.0 0.4007691746
Zn  Zn14  1  0.54530000  0.17670000  0.28750000  1.0 0.2665651831
Zn  Zn15  1  0.96230000  0.79350000  0.59130000  1.0 0.4007691746
Zn  Zn16  1  0.28104000  0.52504000  0.93657000  1.0 0.3698640135
Zn  Zn17  1  0.81035000  0.46233000  0.77402000  1.0 0.2623918963
Zn  Zn18  1  0.20352000  0.04288000  0.09368000  1.0 0.4007691746
Zn  Zn19  1  0.82330000  0.45470000  0.78750000  1.0 0.2665651831
Zn  Zn20  1  0.20650000  0.03770000  0.09130000  1.0 0.4007691746
H  H1  1  0.83630000  0.03650000  0.37670000  1.0 0.0705307658
H  H2  1  0.71680000  0.99560000  0.32160000  1.0 0.0963114384
H  H3  1  0.89270000  0.27870000  0.27730000  1.0 0.1205734087
H  H4  1  0.00620000  0.31300000  0.33580000  1.0 0.0613278193
H  H5  1  0.53790000  0.83250000  0.26130000  1.0 0.1205734087
H  H6  1  0.39550000  0.67010000  0.26090000  1.0 0.0705307658
H  H7  1  0.25990000  0.73190000  0.17720000  1.0 0.0705307658
H  H8  1  0.40020000  0.89640000  0.17420000  1.0 0.1205734087
H  H9  1  0.55340000  0.13560000  0.12340000  1.0 0.1081494843
H  H10  1  0.58150000  0.25870000  0.07560000  1.0 0.0769220658
H  H11  1  0.81870000  0.45850000  0.14850000  1.0 0.0705307658
H  H12  1  0.80220000  0.33920000  0.19590000  1.0 0.1081494843
H  H13  1  0.59340000  0.43620000  0.12500000  1.0 0.0878822883
H  H14  1  0.45020000  0.39900000  0.12560000  1.0 0.1295242749
H  H15  1  0.39620000  0.36140000  0.99690000  1.0 0.1295242749
H  H16  1  0.54400000  0.40500000  0.99880000  1.0 0.0878822883
H  H17  1  0.13790000  0.15930000  0.97970000  1.0 0.1295242749
H  H18  1  0.00270000  0.04430000  0.93460000  1.0 0.0878822883
H  H19  1  0.84340000  0.06560000  0.98120000  1.0 0.0769220658
H  H20  1  0.97580000  0.18360000  0.02670000  1.0 0.138532695
H  H21  1  0.09680000  0.37540000  0.08890000  1.0 0.1205734087
H  H22  1  0.08910000  0.44550000  0.13810000  1.0 0.0705307658
H  H23  1  0.31800000  0.51600000  0.20920000  1.0 0.0705307658
H  H24  1  0.33150000  0.44510000  0.16350000  1.0 0.1205734087
H  H25  1  0.96350000  0.16370000  0.87670000  1.0 0.0705307658
H  H26  1  0.00440000  0.28320000  0.82160000  1.0 0.0963114384
H  H27  1  0.72130000  0.10730000  0.77730000  1.0 0.1205734087
H  H28  1  0.68700000  0.99380000  0.83580000  1.0 0.0613278193
H  H29  1  0.16750000  0.46210000  0.76130000  1.0 0.1205734087
H  H30  1  0.32990000  0.60450000  0.76090000  1.0 0.0705307658
H  H31  1  0.26810000  0.74010000  0.67720000  1.0 0.0705307658
H  H32  1  0.10360000  0.59980000  0.67420000  1.0 0.1205734087
H  H33  1  0.86440000  0.44660000  0.62340000  1.0 0.1081494843
H  H34  1  0.74130000  0.41850000  0.57560000  1.0 0.0769220658
H  H35  1  0.54150000  0.18130000  0.64850000  1.0 0.0705307658
H  H36  1  0.66080000  0.19780000  0.69590000  1.0 0.1081494843
H  H37  1  0.56380000  0.40660000  0.62500000  1.0 0.0878822883
H  H38  1  0.60100000  0.54980000  0.62560000  1.0 0.1295242749
H  H39  1  0.63860000  0.60380000  0.49690000  1.0 0.1295242749
H  H40  1  0.59500000  0.45600000  0.49880000  1.0 0.0878822883
H  H41  1  0.84070000  0.86210000  0.47970000  1.0 0.1295242749
H  H42  1  0.95570000  0.99730000  0.43460000  1.0 0.0878822883
H  H43  1  0.93440000  0.15660000  0.48120000  1.0 0.0769220658
H  H44  1  0.81640000  0.02420000  0.52670000  1.0 0.138532695
H  H45  1  0.62460000  0.90320000  0.58890000  1.0 0.1205734087
H  H46  1  0.55450000  0.91090000  0.63810000  1.0 0.0705307658
H  H47  1  0.48400000  0.68200000  0.70920000  1.0 0.0705307658
H  H48  1  0.55490000  0.66850000  0.66350000  1.0 0.1205734087
H  H49  1  0.03650000  0.83630000  0.12330000  1.0 0.0705307658
H  H50  1  0.99560000  0.71680000  0.17840000  1.0 0.0963114384
H  H51  1  0.27870000  0.89270000  0.22270000  1.0 0.1205734087
H  H52  1  0.31300000  0.00620000  0.16420000  1.0 0.0613278193
H  H53  1  0.83250000  0.53790000  0.23870000  1.0 0.1205734087
H  H54  1  0.67010000  0.39550000  0.23910000  1.0 0.0705307658
H  H55  1  0.73190000  0.25990000  0.32280000  1.0 0.0705307658
H  H56  1  0.89640000  0.40020000  0.32580000  1.0 0.1205734087
H  H57  1  0.13560000  0.55340000  0.37660000  1.0 0.1081494843
H  H58  1  0.25870000  0.58150000  0.42440000  1.0 0.0769220658
H  H59  1  0.45850000  0.81870000  0.35150000  1.0 0.0705307658
H  H60  1  0.33920000  0.80220000  0.30410000  1.0 0.1081494843
H  H61  1  0.43620000  0.59340000  0.37500000  1.0 0.0878822883
H  H62  1  0.39900000  0.45020000  0.37440000  1.0 0.1295242749
H  H63  1  0.36140000  0.39620000  0.50310000  1.0 0.1295242749
H  H64  1  0.40500000  0.54400000  0.50120000  1.0 0.0878822883
H  H65  1  0.15930000  0.13790000  0.52030000  1.0 0.1295242749
H  H66  1  0.04430000  0.00270000  0.56540000  1.0 0.0878822883
H  H67  1  0.06560000  0.84340000  0.51880000  1.0 0.0769220658
H  H68  1  0.18360000  0.97580000  0.47330000  1.0 0.138532695
H  H69  1  0.37540000  0.09680000  0.41110000  1.0 0.1205734087
H  H70  1  0.44550000  0.08910000  0.36190000  1.0 0.0705307658
H  H71  1  0.51600000  0.31800000  0.29080000  1.0 0.0705307658
H  H72  1  0.44510000  0.33150000  0.33650000  1.0 0.1205734087
H  H73  1  0.16370000  0.96350000  0.62330000  1.0 0.0705307658
H  H74  1  0.28320000  0.00440000  0.67840000  1.0 0.0963114384
H  H75  1  0.10730000  0.72130000  0.72270000  1.0 0.1205734087
H  H76  1  0.99380000  0.68700000  0.66420000  1.0 0.0613278193
H  H77  1  0.46210000  0.16750000  0.73870000  1.0 0.1205734087
H  H78  1  0.60450000  0.32990000  0.73910000  1.0 0.0705307658
H  H79  1  0.74010000  0.26810000  0.82280000  1.0 0.0705307658
H  H80  1  0.59980000  0.10360000  0.82580000  1.0 0.1205734087
H  H81  1  0.44660000  0.86440000  0.87660000  1.0 0.1081494843
H  H82  1  0.41850000  0.74130000  0.92440000  1.0 0.0769220658
H  H83  1  0.18130000  0.54150000  0.85150000  1.0 0.0705307658
H  H84  1  0.19780000  0.66080000  0.80410000  1.0 0.1081494843
H  H85  1  0.40660000  0.56380000  0.87500000  1.0 0.0878822883
H  H86  1  0.54980000  0.60100000  0.87440000  1.0 0.1295242749
H  H87  1  0.60380000  0.63860000  0.00310000  1.0 0.1295242749
H  H88  1  0.45600000  0.59500000  0.00120000  1.0 0.0878822883
H  H89  1  0.86210000  0.84070000  0.02030000  1.0 0.1295242749
H  H90  1  0.99730000  0.95570000  0.06540000  1.0 0.0878822883
H  H91  1  0.15660000  0.93440000  0.01880000  1.0 0.0769220658
H  H92  1  0.02420000  0.81640000  0.97330000  1.0 0.138532695
H  H93  1  0.90320000  0.62460000  0.91110000  1.0 0.1205734087
H  H94  1  0.91090000  0.55450000  0.86190000  1.0 0.0705307658
H  H95  1  0.68200000  0.48400000  0.79080000  1.0 0.0705307658
H  H96  1  0.66850000  0.55490000  0.83650000  1.0 0.1205734087
C  C1  1  0.84810000  0.08690000  0.35610000  1.0 0.0405034545
C  C2  1  0.77730000  0.06150000  0.32300000  1.0 -0.1501298849
C  C3  1  0.79418000  0.13162000  0.29228000  1.0 0.0705307658
C  C4  1  0.87991000  0.22729000  0.29738000  1.0 -0.143117975
C  C5  1  0.94722000  0.24718000  0.33234000  1.0 0.0133425962
C  C6  1  0.71963000  0.10557000  0.25453000  1.0 0.3509446375
C  C7  1  0.57547000  0.98793000  0.21860000  1.0 0.3408173067
C  C8  1  0.48499000  0.88301000  0.21723000  1.0 0.0405034545
C  C9  1  0.48167000  0.81353000  0.24343000  1.0 -0.1501298849
C  C10  1  0.39630000  0.71710000  0.24330000  1.0 0.0189157599
C  C11  1  0.31739000  0.75281000  0.19448000  1.0 0.0267009703
C  C12  1  0.40091000  0.85109000  0.19255000  1.0 -0.1501298849
C  C13  1  0.66206000  0.14614000  0.19584000  1.0 0.3408173067
C  C14  1  0.67567000  0.22313000  0.16461000  1.0 0.0405034545
C  C15  1  0.60980000  0.20160000  0.12862000  1.0 -0.1674773651
C  C16  1  0.62588000  0.27492000  0.10083000  1.0 0.0613278193
C  C17  1  0.76531000  0.39189000  0.14302000  1.0 0.0189157599
C  C18  1  0.75535000  0.32125000  0.17166000  1.0 -0.1501298849
C  C19  1  0.55420000  0.42380000  0.09820000  1.0 0.0480274195
C  C20  1  0.46825000  0.40015000  0.09898000  1.0 -0.1593467005
C  C21  1  0.40874000  0.37806000  0.06085000  1.0 0.0405034545
C  C22  1  0.43699000  0.37881000  0.02349000  1.0 -0.1593467005
C  C23  1  0.52525000  0.40495000  0.02478000  1.0 0.0705307658
C  C24  1  0.31478000  0.34982000  0.06123000  1.0 0.3509446375
C  C25  1  0.15762000  0.26078000  0.03624000  1.0 0.3509446375
C  C26  1  0.07087000  0.18473000  0.00757000  1.0 0.0705307658
C  C27  1  0.07796000  0.14184000  0.98016000  1.0 -0.1593467005
C  C28  1  0.99711000  0.07329000  0.95346000  1.0 0.0480274195
C  C29  1  0.90480000  0.08600000  0.98040000  1.0 0.0480274195
C  C30  1  0.98338000  0.15622000  0.00800000  1.0 -0.1299609462
C  C31  1  0.22276000  0.35804000  0.09042000  1.0 0.3698640135
C  C32  1  0.21444000  0.40176000  0.12110000  1.0 0.0405034545
C  C33  1  0.14302000  0.40298000  0.11370000  1.0 -0.1299609462
C  C34  1  0.13939000  0.44521000  0.14330000  1.0 0.0480274195
C  C35  1  0.27140000  0.48580000  0.18470000  1.0 0.0613278193
C  C36  1  0.28056000  0.44444000  0.15740000  1.0 -0.143117975
C  C37  1  0.91310000  0.15190000  0.85610000  1.0 0.0405034545
C  C38  1  0.93850000  0.22270000  0.82300000  1.0 -0.1501298849
C  C39  1  0.86838000  0.20582000  0.79228000  1.0 0.0705307658
C  C40  1  0.77271000  0.12009000  0.79738000  1.0 -0.143117975
C  C41  1  0.75282000  0.05278000  0.83234000  1.0 0.0133425962
C  C42  1  0.89443000  0.28037000  0.75453000  1.0 0.3509446375
C  C43  1  0.01207000  0.42453000  0.71860000  1.0 0.3408173067
C  C44  1  0.11699000  0.51501000  0.71723000  1.0 0.0405034545
C  C45  1  0.18647000  0.51833000  0.74343000  1.0 -0.1501298849
C  C46  1  0.28290000  0.60370000  0.74330000  1.0 0.0189157599
C  C47  1  0.24719000  0.68261000  0.69448000  1.0 0.0267009703
C  C48  1  0.14891000  0.59909000  0.69255000  1.0 -0.1501298849
C  C49  1  0.85386000  0.33794000  0.69584000  1.0 0.3408173067
C  C50  1  0.77687000  0.32433000  0.66461000  1.0 0.0405034545
C  C51  1  0.79840000  0.39020000  0.62862000  1.0 -0.1674773651
C  C52  1  0.72508000  0.37412000  0.60083000  1.0 0.0613278193
C  C53  1  0.60811000  0.23469000  0.64302000  1.0 0.0189157599
C  C54  1  0.67875000  0.24465000  0.67166000  1.0 -0.1501298849
C  C55  1  0.57620000  0.44580000  0.59820000  1.0 0.0480274195
C  C56  1  0.59985000  0.53175000  0.59898000  1.0 -0.1593467005
C  C57  1  0.62194000  0.59126000  0.56085000  1.0 0.0405034545
C  C58  1  0.62119000  0.56301000  0.52349000  1.0 -0.1593467005
C  C59  1  0.59505000  0.47475000  0.52478000  1.0 0.0705307658
C  C60  1  0.65018000  0.68522000  0.56123000  1.0 0.3509446375
C  C61  1  0.73922000  0.84238000  0.53624000  1.0 0.3509446375
C  C62  1  0.81527000  0.92913000  0.50757000  1.0 0.0705307658
C  C63  1  0.85816000  0.92204000  0.48016000  1.0 -0.1593467005
C  C64  1  0.92671000  0.00289000  0.45346000  1.0 0.0480274195
C  C65  1  0.91400000  0.09520000  0.48040000  1.0 0.0480274195
C  C66  1  0.84378000  0.01662000  0.50800000  1.0 -0.1299609462
C  C67  1  0.64196000  0.77724000  0.59042000  1.0 0.3698640135
C  C68  1  0.59824000  0.78556000  0.62110000  1.0 0.0405034545
C  C69  1  0.59702000  0.85698000  0.61370000  1.0 -0.1299609462
C  C70  1  0.55479000  0.86061000  0.64330000  1.0 0.0480274195
C  C71  1  0.51420000  0.72860000  0.68470000  1.0 0.0613278193
C  C72  1  0.55556000  0.71944000  0.65740000  1.0 -0.143117975
C  C73  1  0.08690000  0.84810000  0.14390000  1.0 0.0405034545
C  C74  1  0.06150000  0.77730000  0.17700000  1.0 -0.1501298849
C  C75  1  0.13162000  0.79418000  0.20772000  1.0 0.0705307658
C  C76  1  0.22729000  0.87991000  0.20262000  1.0 -0.143117975
C  C77  1  0.24718000  0.94722000  0.16766000  1.0 0.0133425962
C  C78  1  0.10557000  0.71963000  0.24547000  1.0 0.3509446375
C  C79  1  0.98793000  0.57547000  0.28140000  1.0 0.3408173067
C  C80  1  0.88301000  0.48499000  0.28277000  1.0 0.0405034545
C  C81  1  0.81353000  0.48167000  0.25657000  1.0 -0.1501298849
C  C82  1  0.71710000  0.39630000  0.25670000  1.0 0.0189157599
C  C83  1  0.75281000  0.31739000  0.30552000  1.0 0.0267009703
C  C84  1  0.85109000  0.40091000  0.30745000  1.0 -0.1501298849
C  C85  1  0.14614000  0.66206000  0.30416000  1.0 0.3408173067
C  C86  1  0.22313000  0.67567000  0.33539000  1.0 0.0405034545
C  C87  1  0.20160000  0.60980000  0.37138000  1.0 -0.1674773651
C  C88  1  0.27492000  0.62588000  0.39917000  1.0 0.0613278193
C  C89  1  0.39189000  0.76531000  0.35698000  1.0 0.0189157599
C  C90  1  0.32125000  0.75535000  0.32834000  1.0 -0.1501298849
C  C91  1  0.42380000  0.55420000  0.40180000  1.0 0.0480274195
C  C92  1  0.40015000  0.46825000  0.40102000  1.0 -0.1593467005
C  C93  1  0.37806000  0.40874000  0.43915000  1.0 0.0405034545
C  C94  1  0.37881000  0.43699000  0.47651000  1.0 -0.1593467005
C  C95  1  0.40495000  0.52525000  0.47522000  1.0 0.0705307658
C  C96  1  0.34982000  0.31478000  0.43877000  1.0 0.3509446375
C  C97  1  0.26078000  0.15762000  0.46376000  1.0 0.3509446375
C  C98  1  0.18473000  0.07087000  0.49243000  1.0 0.0705307658
C  C99  1  0.14184000  0.07796000  0.51984000  1.0 -0.1593467005
C  C100  1  0.07329000  0.99711000  0.54654000  1.0 0.0480274195
C  C101  1  0.08600000  0.90480000  0.51960000  1.0 0.0480274195
C  C102  1  0.15622000  0.98338000  0.49200000  1.0 -0.1299609462
C  C103  1  0.35804000  0.22276000  0.40958000  1.0 0.3698640135
C  C104  1  0.40176000  0.21444000  0.37890000  1.0 0.0405034545
C  C105  1  0.40298000  0.14302000  0.38630000  1.0 -0.1299609462
C  C106  1  0.44521000  0.13939000  0.35670000  1.0 0.0480274195
C  C107  1  0.48580000  0.27140000  0.31530000  1.0 0.0613278193
C  C108  1  0.44444000  0.28056000  0.34260000  1.0 -0.143117975
C  C109  1  0.15190000  0.91310000  0.64390000  1.0 0.0405034545
C  C110  1  0.22270000  0.93850000  0.67700000  1.0 -0.1501298849
C  C111  1  0.20582000  0.86838000  0.70772000  1.0 0.0705307658
C  C112  1  0.12009000  0.77271000  0.70262000  1.0 -0.143117975
C  C113  1  0.05278000  0.75282000  0.66766000  1.0 0.0133425962
C  C114  1  0.28037000  0.89443000  0.74547000  1.0 0.3509446375
C  C115  1  0.42453000  0.01207000  0.78140000  1.0 0.3408173067
C  C116  1  0.51501000  0.11699000  0.78277000  1.0 0.0405034545
C  C117  1  0.51833000  0.18647000  0.75657000  1.0 -0.1501298849
C  C118  1  0.60370000  0.28290000  0.75670000  1.0 0.0189157599
C  C119  1  0.68261000  0.24719000  0.80552000  1.0 0.0267009703
C  C120  1  0.59909000  0.14891000  0.80745000  1.0 -0.1501298849
C  C121  1  0.33794000  0.85386000  0.80416000  1.0 0.3408173067
C  C122  1  0.32433000  0.77687000  0.83539000  1.0 0.0405034545
C  C123  1  0.39020000  0.79840000  0.87138000  1.0 -0.1674773651
C  C124  1  0.37412000  0.72508000  0.89917000  1.0 0.0613278193
C  C125  1  0.23469000  0.60811000  0.85698000  1.0 0.0189157599
C  C126  1  0.24465000  0.67875000  0.82834000  1.0 -0.1501298849
C  C127  1  0.44580000  0.57620000  0.90180000  1.0 0.0480274195
C  C128  1  0.53175000  0.59985000  0.90102000  1.0 -0.1593467005
C  C129  1  0.59126000  0.62194000  0.93915000  1.0 0.0405034545
C  C130  1  0.56301000  0.62119000  0.97651000  1.0 -0.1593467005
C  C131  1  0.47475000  0.59505000  0.97522000  1.0 0.0705307658
C  C132  1  0.68522000  0.65018000  0.93877000  1.0 0.3509446375
C  C133  1  0.84238000  0.73922000  0.96376000  1.0 0.3509446375
C  C134  1  0.92913000  0.81527000  0.99243000  1.0 0.0705307658
C  C135  1  0.92204000  0.85816000  0.01984000  1.0 -0.1593467005
C  C136  1  0.00289000  0.92671000  0.04654000  1.0 0.0405034545
C  C137  1  0.09520000  0.91400000  0.01960000  1.0 0.0480274195
C  C138  1  0.01662000  0.84378000  0.99200000  1.0 -0.1299609462
C  C139  1  0.77724000  0.64196000  0.90958000  1.0 0.3698640135
C  C140  1  0.78556000  0.59824000  0.87890000  1.0 0.0405034545
C  C141  1  0.85698000  0.59702000  0.88630000  1.0 -0.1299609462
C  C142  1  0.86061000  0.55479000  0.85670000  1.0 0.0480274195
C  C143  1  0.72860000  0.51420000  0.81530000  1.0 0.0613278193
C  C144  1  0.71944000  0.55556000  0.84260000  1.0 -0.143117975
I  I1  1  0.84470000  0.63430000  0.09780000  1.0 0.0769220658
I  I2  1  0.73529000  0.45131000  0.99155000  1.0 -0.3581565725
I  I3  1  0.20540000  0.47440000  0.29846000  1.0 0.0613278193
I  I4  1  0.04230000  0.52350000  0.19430000  1.0 -0.0576072968
I  I5  1  0.63934000  0.86692000  0.94032000  1.0 -0.0439004423
I  I6  1  0.83278000  0.88312000  0.86651000  1.0 -0.3464541467
I  I7  1  0.82313000  0.63667000  0.11210000  1.0 -0.0662045548
I  I8  1  0.72730000  0.45210000  0.98540000  1.0 -0.420577203
I  I9  1  0.64320000  0.88480000  0.94234000  1.0 -0.0576072968
I  I10  1  0.82932000  0.88188000  0.87370000  1.0 -0.2764823692
I  I11  1  0.17550000  0.46570000  0.28500000  1.0 -0.0958606913
I  I12  1  0.03620000  0.53700000  0.17520000  1.0 -0.0486352206
I  I13  1  0.21624000  0.46876000  0.30307000  1.0 0.0963114384
I  I14  1  0.03607000  0.50053000  0.20386000  1.0 -0.0824922132
I  I15  1  0.84010000  0.62790000  0.09090000  1.0 0.0878822883
I  I16  1  0.36570000  0.15530000  0.59780000  1.0 0.0769220658
I  I17  1  0.54869000  0.26471000  0.49155000  1.0 -0.3581565725
I  I18  1  0.52560000  0.79460000  0.79846000  1.0 0.0705307658
I  I19  1  0.47650000  0.95770000  0.69430000  1.0 -0.0576072968
I  I20  1  0.13308000  0.36066000  0.44032000  1.0 -0.0439004423
I  I21  1  0.11688000  0.16722000  0.36651000  1.0 -0.3464541467
I  I22  1  0.36333000  0.17687000  0.61210000  1.0 -0.0662045548
I  I23  1  0.54790000  0.27270000  0.48540000  1.0 -0.420577203
I  I24  1  0.11520000  0.35680000  0.44234000  1.0 -0.0576072968
I  I25  1  0.11812000  0.17068000  0.37370000  1.0 -0.2764823692
I  I26  1  0.53430000  0.82450000  0.78500000  1.0 -0.0958606913
I  I27  1  0.46300000  0.96380000  0.67520000  1.0 -0.0486352206
I  I28  1  0.53124000  0.78376000  0.80307000  1.0 0.0963114384
I  I29  1  0.49947000  0.96393000  0.70386000  1.0 -0.0824922132
I  I30  1  0.37210000  0.15990000  0.59090000  1.0 0.0878822883
I  I31  1  0.63430000  0.84470000  0.40220000  1.0 0.0769220658
I  I32  1  0.45131000  0.73529000  0.50845000  1.0 -0.3581565725
I  I33  1  0.47440000  0.20540000  0.20154000  1.0 0.0613278193
I  I34  1  0.52350000  0.04230000  0.30570000  1.0 -0.0576072968
I  I35  1  0.86692000  0.63934000  0.55968000  1.0 -0.0439004423
I  I36  1  0.88312000  0.83278000  0.63349000  1.0 -0.3464541467
I  I37  1  0.63667000  0.82313000  0.38790000  1.0 -0.0662045548
I  I38  1  0.45210000  0.72730000  0.51460000  1.0 -0.420577203
I  I39  1  0.88480000  0.64320000  0.55766000  1.0 -0.0576072968
I  I40  1  0.88188000  0.82932000  0.62630000  1.0 -0.2764823692
I  I41  1  0.46570000  0.17550000  0.21500000  1.0 -0.0958606913
I  I42  1  0.53700000  0.03620000  0.32480000  1.0 -0.0486352206
I  I43  1  0.46876000  0.21624000  0.19693000  1.0 0.0963114384
I  I44  1  0.50053000  0.03607000  0.29614000  1.0 -0.0824922132
I  I45  1  0.62790000  0.84010000  0.40910000  1.0 0.0878822883
I  I46  1  0.15530000  0.36570000  0.90220000  1.0 0.0769220658
I  I47  1  0.26471000  0.54869000  0.00845000  1.0 -0.3581565725
I  I48  1  0.79460000  0.52560000  0.70154000  1.0 0.0705307658
I  I49  1  0.95770000  0.47650000  0.80570000  1.0 -0.0576072968
I  I50  1  0.36066000  0.13308000  0.05968000  1.0 -0.0439004423
I  I51  1  0.16722000  0.11688000  0.13349000  1.0 -0.3464541467
I  I52  1  0.17687000  0.36333000  0.88790000  1.0 -0.0662045548
I  I53  1  0.27270000  0.54790000  0.01460000  1.0 -0.420577203
I  I54  1  0.35680000  0.11520000  0.05766000  1.0 -0.0576072968
I  I55  1  0.17068000  0.11812000  0.12630000  1.0 -0.2764823692
I  I56  1  0.82450000  0.53430000  0.71500000  1.0 -0.0958606913
I  I57  1  0.96380000  0.46300000  0.82480000  1.0 -0.0486352206
I  I58  1  0.78376000  0.53124000  0.69693000  1.0 0.0963114384
I  I59  1  0.96393000  0.49947000  0.79614000  1.0 -0.0824922132
I  I60  1  0.15990000  0.37210000  0.90910000  1.0 0.0878822883
N  N1  1  0.93234000  0.17786000  0.36102000  1.0 -0.1674773651
N  N2  1  0.73220000  0.17640000  0.22869000  1.0 -0.420577203
N  N3  1  0.64325000  0.00935000  0.25083000  1.0 -0.420577203
N  N4  1  0.58162000  0.05318000  0.18953000  1.0 -0.420577203
N  N5  1  0.31445000  0.68615000  0.21968000  1.0 -0.217212643
N  N6  1  0.70228000  0.36992000  0.10771000  1.0 -0.1904050516
N  N7  1  0.58510000  0.43030000  0.06165000  1.0 -0.2065784721
N  N8  1  0.30867000  0.38553000  0.09139000  1.0 -0.3785310941
N  N9  1  0.24228000  0.28952000  0.03140000  1.0 -0.420577203
N  N10  1  0.14351000  0.29369000  0.06444000  1.0 -0.3895650985
N  N11  1  0.91168000  0.04652000  0.95320000  1.0 -0.1953192423
N  N12  1  0.20169000  0.48511000  0.17836000  1.0 -0.2065784721
N  N13  1  0.82214000  0.06766000  0.86102000  1.0 -0.1674773651
N  N14  1  0.82360000  0.26780000  0.72869000  1.0 -0.420577203
N  N15  1  0.99065000  0.35675000  0.75083000  1.0 -0.420577203
N  N16  1  0.94682000  0.41838000  0.68953000  1.0 -0.420577203
N  N17  1  0.31385000  0.68555000  0.71968000  1.0 -0.217212643
N  N18  1  0.63008000  0.29772000  0.60771000  1.0 -0.1904050516
N  N19  1  0.56970000  0.41490000  0.56165000  1.0 -0.2065784721
N  N20  1  0.61447000  0.69133000  0.59139000  1.0 -0.3785310941
N  N21  1  0.71048000  0.75772000  0.53140000  1.0 -0.420577203
N  N22  1  0.70631000  0.85649000  0.56444000  1.0 -0.3895650985
N  N23  1  0.95348000  0.08832000  0.45320000  1.0 -0.1953192423
N  N24  1  0.51489000  0.79831000  0.67836000  1.0 -0.2065784721
N  N25  1  0.17786000  0.93234000  0.13898000  1.0 -0.1674773651
N  N26  1  0.17640000  0.73220000  0.27131000  1.0 -0.420577203
N  N27  1  0.00935000  0.64325000  0.24917000  1.0 -0.420577203
N  N28  1  0.05318000  0.58162000  0.31047000  1.0 -0.420577203
N  N29  1  0.68615000  0.31445000  0.28032000  1.0 -0.217212643
N  N30  1  0.36992000  0.70228000  0.39229000  1.0 -0.1904050516
N  N31  1  0.43030000  0.58510000  0.43835000  1.0 -0.2065784721
N  N32  1  0.38553000  0.30867000  0.40861000  1.0 -0.3785310941
N  N33  1  0.28952000  0.24228000  0.46860000  1.0 -0.420577203
N  N34  1  0.29369000  0.14351000  0.43556000  1.0 -0.3895650985
N  N35  1  0.04652000  0.91168000  0.54680000  1.0 -0.1953192423
N  N36  1  0.48511000  0.20169000  0.32164000  1.0 -0.2065784721
N  N37  1  0.06766000  0.82214000  0.63898000  1.0 -0.1674773651
N  N38  1  0.26780000  0.82360000  0.77131000  1.0 -0.420577203
N  N39  1  0.35675000  0.99065000  0.74917000  1.0 -0.420577203
N  N40  1  0.41838000  0.94682000  0.81047000  1.0 -0.420577203
N  N41  1  0.68555000  0.31385000  0.78032000  1.0 -0.217212643
N  N42  1  0.29772000  0.63008000  0.89229000  1.0 -0.1904050516
N  N43  1  0.41490000  0.56970000  0.93835000  1.0 -0.2065784721
N  N44  1  0.69133000  0.61447000  0.90861000  1.0 -0.3785310941
N  N45  1  0.75772000  0.71048000  0.96860000  1.0 -0.420577203
N  N46  1  0.85649000  0.70631000  0.93556000  1.0 -0.3895650985
N  N47  1  0.08832000  0.95348000  0.04680000  1.0 -0.1953192423
N  N48  1  0.79831000  0.51489000  0.82164000  1.0 -0.2065784721
