# DDEC6 charges by PACMAN v1.1 (https://github.com/mtap-research/PACMAN-charge/)
data_CARJUD_ASR_pacman
_symmetry_space_group_name_H-M   'P 1'
_cell_length_a   19.11060000
_cell_length_b   19.11060000
_cell_length_c   34.03720000
_cell_angle_alpha   73.66200000
_cell_angle_beta   106.33800000
_cell_angle_gamma   134.60900000
_symmetry_Int_Tables_number   1
_chemical_formula_structural   Zn9H60C78(I11N12)2
_chemical_formula_sum   'Zn18 H120 C156 I44 N48'
_cell_volume   8428.32767903
_cell_formula_units_Z   2
loop_
 _symmetry_equiv_pos_site_id
 _symmetry_equiv_pos_as_xyz
  1  'x, y, z'
loop_
 _atom_site_type_symbol
 _atom_site_label
 _atom_site_symmetry_multiplicity
 _atom_site_fract_x
 _atom_site_fract_y
 _atom_site_fract_z
 _atom_site_occupancy
 _atom_site_charge
Zn  Zn1  1  0.94762000  0.72636000  0.80945000  1.0 0.3223552281
Zn  Zn2  1  0.43670000  0.77618000  0.97936000  1.0 0.449861216
Zn  Zn3  1  0.23517000  0.50489000  0.17372000  1.0 0.0804173735
Zn  Zn4  1  0.73181000  0.07159000  0.48048000  1.0 0.3796958352
Zn  Zn5  1  0.78099000  0.56055000  0.31091000  1.0 0.46850914
Zn  Zn6  1  0.00247000  0.27213000  0.67448000  1.0 0.1181516299
Zn  Zn7  1  0.27300000  0.46440000  0.16980000  1.0 -0.112183263
Zn  Zn8  1  0.25020000  0.48980000  0.17610000  1.0 0.0601843009
Zn  Zn9  1  0.03270000  0.24630000  0.67240000  1.0 0.0705960231
Zn  Zn10  1  0.72636000  0.94762000  0.19055000  1.0 0.3223552281
Zn  Zn11  1  0.77618000  0.43670000  0.02064000  1.0 0.449861216
Zn  Zn12  1  0.50489000  0.23517000  0.82628000  1.0 0.0804173735
Zn  Zn13  1  0.07159000  0.73181000  0.51952000  1.0 0.3796958352
Zn  Zn14  1  0.56055000  0.78099000  0.68909000  1.0 0.46850914
Zn  Zn15  1  0.27213000  0.00247000  0.32552000  1.0 0.1181516299
Zn  Zn16  1  0.46440000  0.27300000  0.83020000  1.0 -0.112183263
Zn  Zn17  1  0.48980000  0.25020000  0.82390000  1.0 0.0601843009
Zn  Zn18  1  0.24630000  0.03270000  0.32760000  1.0 0.0601843009
H  H1  1  0.05890000  0.70590000  0.88540000  1.0 0.0903905177
H  H2  1  0.04280000  0.59320000  0.93860000  1.0 0.1307492042
H  H3  1  0.76860000  0.38140000  0.88110000  1.0 0.1097888579
H  H4  1  0.79570000  0.50690000  0.83140000  1.0 0.0903905177
H  H5  1  0.51020000  0.96960000  0.92220000  1.0 0.1097888579
H  H6  1  0.64650000  0.13710000  0.91850000  1.0 0.1307492042
H  H7  1  0.77510000  0.08370000  0.02420000  1.0 0.1395923817
H  H8  1  0.63160000  0.91780000  0.02670000  1.0 0.0991734737
H  H9  1  0.04010000  0.31790000  0.14330000  1.0 0.0903905177
H  H10  1  0.93720000  0.25840000  0.08230000  1.0 0.1181516299
H  H11  1  0.14270000  0.52790000  0.02110000  1.0 0.1307492042
H  H12  1  0.24700000  0.57200000  0.08490000  1.0 0.0903905177
H  H13  1  0.11210000  0.42010000  0.23810000  1.0 0.0903905177
H  H14  1  0.02320000  0.28200000  0.28650000  1.0 0.1307492042
H  H15  1  0.09380000  0.16660000  0.24810000  1.0 0.1307492042
H  H16  1  0.19930000  0.31490000  0.20540000  1.0 0.0705960231
H  H17  1  0.71510000  0.92590000  0.45480000  1.0 0.1097888579
H  H18  1  0.79110000  0.91450000  0.41780000  1.0 0.1395923817
H  H19  1  0.91090000  0.18430000  0.36530000  1.0 0.1395923817
H  H20  1  0.82320000  0.17920000  0.40130000  1.0 0.0903905177
H  H21  1  0.85540000  0.75300000  0.25650000  1.0 0.1097888579
H  H22  1  0.89970000  0.90110000  0.25910000  1.0 0.1395923817
H  H23  1  0.82080000  0.79260000  0.37500000  1.0 0.1395923817
H  H24  1  0.77130000  0.64450000  0.36550000  1.0 0.1097888579
H  H25  1  0.79660000  0.44560000  0.39000000  1.0 0.1097888579
H  H26  1  0.92230000  0.46370000  0.43770000  1.0 0.1181516299
H  H27  1  0.12680000  0.73100000  0.37960000  1.0 0.1097888579
H  H28  1  0.99960000  0.70940000  0.33180000  1.0 0.0903905177
H  H29  1  0.54230000  0.00010000  0.42570000  1.0 0.0903905177
H  H30  1  0.37260000  0.86040000  0.41910000  1.0 0.1307492042
H  H31  1  0.42350000  0.73810000  0.52590000  1.0 0.1395923817
H  H32  1  0.59070000  0.87630000  0.52580000  1.0 0.0903905177
H  H33  1  0.19340000  0.47040000  0.64240000  1.0 0.0991734737
H  H34  1  0.24320000  0.57840000  0.58270000  1.0 0.1307492042
H  H35  1  0.97780000  0.36100000  0.52330000  1.0 0.1307492042
H  H36  1  0.93020000  0.26400000  0.58430000  1.0 0.0903905177
H  H37  1  0.09070000  0.41130000  0.73460000  1.0 0.0903905177
H  H38  1  0.23310000  0.50810000  0.78010000  1.0 0.1307492042
H  H39  1  0.33880000  0.40500000  0.75070000  1.0 0.1395923817
H  H40  1  0.18850000  0.30970000  0.70640000  1.0 0.0804173735
H  H41  1  0.58700000  0.77840000  0.96090000  1.0 0.1097888579
H  H42  1  0.60680000  0.74500000  0.90640000  1.0 0.1395923817
H  H43  1  0.33230000  0.61850000  0.85500000  1.0 0.1395923817
H  H44  1  0.31730000  0.65550000  0.91090000  1.0 0.0991734737
H  H45  1  0.75180000  0.64660000  0.75440000  1.0 0.0903905177
H  H46  1  0.60890000  0.60550000  0.75860000  1.0 0.1395923817
H  H47  1  0.72240000  0.70080000  0.87040000  1.0 0.1307492042
H  H48  1  0.85770000  0.73050000  0.86710000  1.0 0.0991734737
H  H49  1  0.44910000  0.45150000  0.07280000  1.0 0.0991734737
H  H50  1  0.38790000  0.36090000  0.04700000  1.0 0.0903905177
H  H51  1  0.30170000  0.40390000  0.01470000  1.0 0.0903905177
H  H52  1  0.33920000  0.46760000  0.05010000  1.0 0.0991734737
H  H53  1  0.17530000  0.25690000  0.05230000  1.0 0.0903905177
H  H54  1  0.16550000  0.33570000  0.04650000  1.0 0.1097888579
H  H55  1  0.20690000  0.35290000  0.11390000  1.0 0.0991734737
H  H56  1  0.15060000  0.23900000  0.11630000  1.0 0.0991734737
H  H57  1  0.28820000  0.28640000  0.15690000  1.0 0.1097888579
H  H58  1  0.35410000  0.39950000  0.13650000  1.0 0.1181516299
H  H59  1  0.40200000  0.32260000  0.12320000  1.0 0.0804173735
H  H60  1  0.29470000  0.24590000  0.09860000  1.0 0.0991734737
H  H61  1  0.70590000  0.05890000  0.11460000  1.0 0.0903905177
H  H62  1  0.59320000  0.04280000  0.06140000  1.0 0.1307492042
H  H63  1  0.38140000  0.76860000  0.11890000  1.0 0.1097888579
H  H64  1  0.50690000  0.79570000  0.16860000  1.0 0.0903905177
H  H65  1  0.96960000  0.51020000  0.07780000  1.0 0.1097888579
H  H66  1  0.13710000  0.64650000  0.08150000  1.0 0.1307492042
H  H67  1  0.08370000  0.77510000  0.97580000  1.0 0.1395923817
H  H68  1  0.91780000  0.63160000  0.97330000  1.0 0.0991734737
H  H69  1  0.31790000  0.04010000  0.85670000  1.0 0.0903905177
H  H70  1  0.25840000  0.93720000  0.91770000  1.0 0.1181516299
H  H71  1  0.52790000  0.14270000  0.97890000  1.0 0.1307492042
H  H72  1  0.57200000  0.24700000  0.91510000  1.0 0.0903905177
H  H73  1  0.42010000  0.11210000  0.76190000  1.0 0.0903905177
H  H74  1  0.28200000  0.02320000  0.71350000  1.0 0.1307492042
H  H75  1  0.16660000  0.09380000  0.75190000  1.0 0.1307492042
H  H76  1  0.31490000  0.19930000  0.79460000  1.0 0.0705960231
H  H77  1  0.92590000  0.71510000  0.54520000  1.0 0.1097888579
H  H78  1  0.91450000  0.79110000  0.58220000  1.0 0.1395923817
H  H79  1  0.18430000  0.91090000  0.63470000  1.0 0.1395923817
H  H80  1  0.17920000  0.82320000  0.59870000  1.0 0.0903905177
H  H81  1  0.75300000  0.85540000  0.74350000  1.0 0.1097888579
H  H82  1  0.90110000  0.89970000  0.74090000  1.0 0.1395923817
H  H83  1  0.79260000  0.82080000  0.62500000  1.0 0.1395923817
H  H84  1  0.64450000  0.77130000  0.63450000  1.0 0.1097888579
H  H85  1  0.44560000  0.79660000  0.61000000  1.0 0.1097888579
H  H86  1  0.46370000  0.92230000  0.56230000  1.0 0.1181516299
H  H87  1  0.73100000  0.12680000  0.62040000  1.0 0.1097888579
H  H88  1  0.70940000  0.99960000  0.66820000  1.0 0.0903905177
H  H89  1  0.00010000  0.54230000  0.57430000  1.0 0.0903905177
H  H90  1  0.86040000  0.37260000  0.58090000  1.0 0.1307492042
H  H91  1  0.73810000  0.42350000  0.47410000  1.0 0.1395923817
H  H92  1  0.87630000  0.59070000  0.47420000  1.0 0.0903905177
H  H93  1  0.47040000  0.19340000  0.35760000  1.0 0.0991734737
H  H94  1  0.57840000  0.24320000  0.41730000  1.0 0.1307492042
H  H95  1  0.36100000  0.97780000  0.47670000  1.0 0.1307492042
H  H96  1  0.26400000  0.93020000  0.41570000  1.0 0.0903905177
H  H97  1  0.41130000  0.09070000  0.26540000  1.0 0.0804173735
H  H98  1  0.50810000  0.23310000  0.21990000  1.0 0.1307492042
H  H99  1  0.40500000  0.33880000  0.24930000  1.0 0.1395923817
H  H100  1  0.30970000  0.18850000  0.29360000  1.0 0.0804173735
H  H101  1  0.77840000  0.58700000  0.03910000  1.0 0.1097888579
H  H102  1  0.74500000  0.60680000  0.09360000  1.0 0.1395923817
H  H103  1  0.61850000  0.33230000  0.14500000  1.0 0.1395923817
H  H104  1  0.65550000  0.31730000  0.08910000  1.0 0.0991734737
H  H105  1  0.64660000  0.75180000  0.24560000  1.0 0.0903905177
H  H106  1  0.60550000  0.60890000  0.24140000  1.0 0.1395923817
H  H107  1  0.70080000  0.72240000  0.12960000  1.0 0.1307492042
H  H108  1  0.73050000  0.85770000  0.13290000  1.0 0.0991734737
H  H109  1  0.45150000  0.44910000  0.92720000  1.0 0.0991734737
H  H110  1  0.36090000  0.38790000  0.95300000  1.0 0.0903905177
H  H111  1  0.40390000  0.30170000  0.98530000  1.0 0.0903905177
H  H112  1  0.46760000  0.33920000  0.94990000  1.0 0.0991734737
H  H113  1  0.25690000  0.17530000  0.94770000  1.0 0.0903905177
H  H114  1  0.33570000  0.16550000  0.95350000  1.0 0.1097888579
H  H115  1  0.35290000  0.20690000  0.88610000  1.0 0.0991734737
H  H116  1  0.23900000  0.15060000  0.88370000  1.0 0.0991734737
H  H117  1  0.28640000  0.28820000  0.84310000  1.0 0.1097888579
H  H118  1  0.39950000  0.35410000  0.86350000  1.0 0.1181516299
H  H119  1  0.32260000  0.40200000  0.87680000  1.0 0.0804173735
H  H120  1  0.24590000  0.29470000  0.90140000  1.0 0.0991734737
C  C1  1  0.99840000  0.63880000  0.88520000  1.0 0.0705960231
C  C2  1  0.99100000  0.57180000  0.91630000  1.0 -0.1496761099
C  C3  1  0.90670000  0.47130000  0.91530000  1.0 0.0601843009
C  C4  1  0.82990000  0.44790000  0.88270000  1.0 -0.1400324649
C  C5  1  0.84640000  0.52340000  0.85360000  1.0 0.0409120196
C  C6  1  0.56440000  0.99360000  0.94350000  1.0 0.0601843009
C  C7  1  0.64440000  0.09320000  0.94100000  1.0 -0.1496761099
C  C8  1  0.72240000  0.12780000  0.97220000  1.0 0.0601843009
C  C9  1  0.72000000  0.06140000  0.00370000  1.0 -0.1496761099
C  C10  1  0.63540000  0.96280000  0.00430000  1.0 0.0601843009
C  C11  1  0.06040000  0.36000000  0.11790000  1.0 0.019313945
C  C12  1  0.99840000  0.32520000  0.08240000  1.0 -0.1400324649
C  C13  1  0.02780000  0.39140000  0.04620000  1.0 0.0409120196
C  C14  1  0.12010000  0.48350000  0.04590000  1.0 -0.1400324649
C  C15  1  0.18080000  0.50960000  0.08420000  1.0 0.0409120196
C  C16  1  0.89540000  0.39820000  0.94850000  1.0 0.350237655
C  C17  1  0.81080000  0.23660000  0.97210000  1.0 0.3688270623
C  C18  1  0.95460000  0.35960000  0.00790000  1.0 0.3688270623
C  C19  1  0.11050000  0.36850000  0.23980000  1.0 0.0903905177
C  C20  1  0.05390000  0.28370000  0.26810000  1.0 -0.1218390366
C  C21  1  0.04270000  0.20810000  0.26970000  1.0 0.0290384019
C  C22  1  0.09690000  0.21910000  0.24660000  1.0 -0.1218390366
C  C23  1  0.15850000  0.30690000  0.22030000  1.0 -0.0092491698
C  C24  1  0.75940000  0.98200000  0.43640000  1.0 0.0903905177
C  C25  1  0.79750000  0.97030000  0.41240000  1.0 -0.1804799283
C  C26  1  0.84430000  0.04230000  0.38070000  1.0 0.0601843009
C  C27  1  0.86460000  0.12520000  0.38210000  1.0 -0.169712176
C  C28  1  0.82140000  0.12660000  0.40630000  1.0 0.0705960231
C  C29  1  0.84850000  0.76210000  0.28080000  1.0 0.0804173735
C  C30  1  0.87490000  0.85030000  0.28180000  1.0 -0.1496761099
C  C31  1  0.86310000  0.86050000  0.31730000  1.0 0.0504141282
C  C32  1  0.82720000  0.78580000  0.34990000  1.0 -0.1400324649
C  C33  1  0.80070000  0.69890000  0.34430000  1.0 0.0991734737
C  C34  1  0.97710000  0.11530000  0.29900000  1.0 0.3632598841
C  C35  1  0.88600000  0.04140000  0.35050000  1.0 0.350237655
C  C36  1  0.89280000  0.95440000  0.32090000  1.0 0.350237655
C  C37  1  0.86400000  0.50420000  0.38750000  1.0 0.0601843009
C  C38  1  0.93850000  0.51590000  0.41640000  1.0 -0.1287600498
C  C39  1  0.03460000  0.60220000  0.41410000  1.0 0.0804173735
C  C40  1  0.05940000  0.67280000  0.38250000  1.0 -0.1400324649
C  C41  1  0.98250000  0.65810000  0.35380000  1.0 0.0903905177
C  C42  1  0.51720000  0.94440000  0.44610000  1.0 0.0804173735
C  C43  1  0.41510000  0.86150000  0.44210000  1.0 -0.1592797382
C  C44  1  0.37750000  0.78050000  0.47270000  1.0 0.0705960231
C  C45  1  0.44520000  0.79020000  0.50370000  1.0 -0.1592797382
C  C46  1  0.54530000  0.87390000  0.50410000  1.0 0.0903905177
C  C47  1  0.14850000  0.44810000  0.61780000  1.0 0.0601843009
C  C48  1  0.18000000  0.51300000  0.58200000  1.0 -0.1496761099
C  C49  1  0.11940000  0.48260000  0.54510000  1.0 0.0504141282
C  C50  1  0.02310000  0.38510000  0.54770000  1.0 -0.1400324649
C  C51  1  0.99570000  0.32730000  0.58380000  1.0 0.008974492
C  C52  1  0.11490000  0.61290000  0.44620000  1.0 0.3688270623
C  C53  1  0.27040000  0.69200000  0.47420000  1.0 0.3312175695
C  C54  1  0.15070000  0.55270000  0.50750000  1.0 0.3312175695
C  C55  1  0.14100000  0.41000000  0.73830000  1.0 0.0601843009
C  C56  1  0.22540000  0.46760000  0.76500000  1.0 -0.1496761099
C  C57  1  0.30210000  0.46670000  0.77020000  1.0 0.0601843009
C  C58  1  0.29000000  0.40780000  0.74840000  1.0 -0.1592797382
C  C59  1  0.19930000  0.35130000  0.72200000  1.0 0.0601843009
C  C60  1  0.53580000  0.74900000  0.93850000  1.0 0.0504141282
C  C61  1  0.54430000  0.72130000  0.90820000  1.0 -0.1592797382
C  C62  1  0.46520000  0.66080000  0.88050000  1.0 0.0804173735
C  C63  1  0.38350000  0.64710000  0.87740000  1.0 -0.1496761099
C  C64  1  0.37910000  0.67750000  0.90910000  1.0 0.0804173735
C  C65  1  0.74490000  0.65550000  0.77870000  1.0 0.0409120196
C  C66  1  0.66000000  0.63120000  0.78120000  1.0 -0.1592797382
C  C67  1  0.64590000  0.64290000  0.81610000  1.0 0.0601843009
C  C68  1  0.72570000  0.68570000  0.84710000  1.0 -0.1400324649
C  C69  1  0.80680000  0.70580000  0.84440000  1.0 0.0601843009
C  C70  1  0.39300000  0.53300000  0.79730000  1.0 0.3405907874
C  C71  1  0.47280000  0.62260000  0.85040000  1.0 0.350237655
C  C72  1  0.55160000  0.61180000  0.81990000  1.0 0.3223552281
C  C73  1  0.38300000  0.38700000  0.06600000  1.0 -0.1592797382
C  C74  1  0.30970000  0.40230000  0.04480000  1.0 -0.1592797382
C  C75  1  0.20730000  0.32070000  0.06040000  1.0 -0.1592797382
C  C76  1  0.20990000  0.30810000  0.10720000  1.0 -0.0975828594
C  C77  1  0.30400000  0.33000000  0.13040000  1.0 -0.0791420522
C  C78  1  0.34580000  0.31420000  0.10600000  1.0 -0.1592797382
C  C79  1  0.63880000  0.99840000  0.11480000  1.0 0.0705960231
C  C80  1  0.57180000  0.99100000  0.08370000  1.0 -0.1496761099
C  C81  1  0.47130000  0.90670000  0.08470000  1.0 0.0601843009
C  C82  1  0.44790000  0.82990000  0.11730000  1.0 -0.1400324649
C  C83  1  0.52340000  0.84640000  0.14640000  1.0 0.0409120196
C  C84  1  0.99360000  0.56440000  0.05650000  1.0 0.0601843009
C  C85  1  0.09320000  0.64440000  0.05900000  1.0 -0.1496761099
C  C86  1  0.12780000  0.72240000  0.02780000  1.0 0.0601843009
C  C87  1  0.06140000  0.72000000  0.99630000  1.0 -0.1496761099
C  C88  1  0.96280000  0.63540000  0.99570000  1.0 0.0601843009
C  C89  1  0.36000000  0.06040000  0.88210000  1.0 0.019313945
C  C90  1  0.32520000  0.99840000  0.91760000  1.0 -0.1400324649
C  C91  1  0.39140000  0.02780000  0.95380000  1.0 0.0409120196
C  C92  1  0.48350000  0.12010000  0.95410000  1.0 -0.1400324649
C  C93  1  0.50960000  0.18080000  0.91580000  1.0 0.0409120196
C  C94  1  0.39820000  0.89540000  0.05150000  1.0 0.350237655
C  C95  1  0.23660000  0.81080000  0.02790000  1.0 0.3688270623
C  C96  1  0.35960000  0.95460000  0.99210000  1.0 0.3688270623
C  C97  1  0.36850000  0.11050000  0.76020000  1.0 0.0903905177
C  C98  1  0.28370000  0.05390000  0.73190000  1.0 -0.1218390366
C  C99  1  0.20810000  0.04270000  0.73030000  1.0 0.0290384019
C  C100  1  0.21910000  0.09690000  0.75340000  1.0 -0.1287600498
C  C101  1  0.30690000  0.15850000  0.77970000  1.0 -0.0092491698
C  C102  1  0.98200000  0.75940000  0.56360000  1.0 0.0903905177
C  C103  1  0.97030000  0.79750000  0.58760000  1.0 -0.1804799283
C  C104  1  0.04230000  0.84430000  0.61930000  1.0 0.0504141282
C  C105  1  0.12520000  0.86460000  0.61790000  1.0 -0.169712176
C  C106  1  0.12660000  0.82140000  0.59370000  1.0 0.0705960231
C  C107  1  0.76210000  0.84850000  0.71920000  1.0 0.0804173735
C  C108  1  0.85030000  0.87490000  0.71820000  1.0 -0.1496761099
C  C109  1  0.86050000  0.86310000  0.68270000  1.0 0.0504141282
C  C110  1  0.78580000  0.82720000  0.65010000  1.0 -0.1400324649
C  C111  1  0.69890000  0.80070000  0.65570000  1.0 0.0991734737
C  C112  1  0.11530000  0.97710000  0.70100000  1.0 0.3632598841
C  C113  1  0.04140000  0.88600000  0.64950000  1.0 0.350237655
C  C114  1  0.95440000  0.89280000  0.67910000  1.0 0.350237655
C  C115  1  0.50420000  0.86400000  0.61250000  1.0 0.0601843009
C  C116  1  0.51590000  0.93850000  0.58360000  1.0 -0.1287600498
C  C117  1  0.60220000  0.03460000  0.58590000  1.0 0.0804173735
C  C118  1  0.67280000  0.05940000  0.61750000  1.0 -0.1400324649
C  C119  1  0.65810000  0.98250000  0.64620000  1.0 0.0903905177
C  C120  1  0.94440000  0.51720000  0.55390000  1.0 0.0804173735
C  C121  1  0.86150000  0.41510000  0.55790000  1.0 -0.1592797382
C  C122  1  0.78050000  0.37750000  0.52730000  1.0 0.0705960231
C  C123  1  0.79020000  0.44520000  0.49630000  1.0 -0.1592797382
C  C124  1  0.87390000  0.54530000  0.49590000  1.0 0.0903905177
C  C125  1  0.44810000  0.14850000  0.38220000  1.0 0.0601843009
C  C126  1  0.51300000  0.18000000  0.41800000  1.0 -0.1496761099
C  C127  1  0.48260000  0.11940000  0.45490000  1.0 0.0504141282
C  C128  1  0.38510000  0.02310000  0.45230000  1.0 -0.1400324649
C  C129  1  0.32730000  0.99570000  0.41620000  1.0 0.008974492
C  C130  1  0.61290000  0.11490000  0.55380000  1.0 0.3688270623
C  C131  1  0.69200000  0.27040000  0.52580000  1.0 0.3312175695
C  C132  1  0.55270000  0.15070000  0.49250000  1.0 0.3405907874
C  C133  1  0.41000000  0.14100000  0.26170000  1.0 0.0601843009
C  C134  1  0.46760000  0.22540000  0.23500000  1.0 -0.1496761099
C  C135  1  0.46670000  0.30210000  0.22980000  1.0 0.0601843009
C  C136  1  0.40780000  0.29000000  0.25160000  1.0 -0.1592797382
C  C137  1  0.35130000  0.19930000  0.27800000  1.0 0.0705960231
C  C138  1  0.74900000  0.53580000  0.06150000  1.0 0.0504141282
C  C139  1  0.72130000  0.54430000  0.09180000  1.0 -0.1592797382
C  C140  1  0.66080000  0.46520000  0.11950000  1.0 0.0804173735
C  C141  1  0.64710000  0.38350000  0.12260000  1.0 -0.1496761099
C  C142  1  0.67750000  0.37910000  0.09090000  1.0 0.0804173735
C  C143  1  0.65550000  0.74490000  0.22130000  1.0 0.0409120196
C  C144  1  0.63120000  0.66000000  0.21880000  1.0 -0.1592797382
C  C145  1  0.64290000  0.64590000  0.18390000  1.0 0.0601843009
C  C146  1  0.68570000  0.72570000  0.15290000  1.0 -0.1400324649
C  C147  1  0.70580000  0.80680000  0.15560000  1.0 0.0601843009
C  C148  1  0.53300000  0.39300000  0.20270000  1.0 0.3405907874
C  C149  1  0.62260000  0.47280000  0.14960000  1.0 0.350237655
C  C150  1  0.61180000  0.55160000  0.18010000  1.0 0.3223552281
C  C151  1  0.38700000  0.38300000  0.93400000  1.0 -0.1592797382
C  C152  1  0.40230000  0.30970000  0.95520000  1.0 -0.1592797382
C  C153  1  0.32070000  0.20730000  0.93960000  1.0 -0.1592797382
C  C154  1  0.30810000  0.20990000  0.89280000  1.0 -0.0975828594
C  C155  1  0.33000000  0.30400000  0.86960000  1.0 -0.0791420522
C  C156  1  0.31420000  0.34580000  0.89400000  1.0 -0.1592797382
I  I1  1  0.09240000  0.89280000  0.83694000  1.0 -0.1496761099
I  I2  1  0.93610000  0.68770000  0.73960000  1.0 0.008974492
I  I3  1  0.27756000  0.74262000  0.95288000  1.0 -0.4299508756
I  I4  1  0.45631000  0.69971000  0.05023000  1.0 -0.4601147895
I  I5  1  0.22114000  0.62228000  0.18231000  1.0 -0.0522548756
I  I6  1  0.39654000  0.55744000  0.17105000  1.0 -0.0658788452
I  I7  1  0.76926000  0.23374000  0.45563000  1.0 -0.2002681649
I  I8  1  0.80610000  0.04530000  0.55238000  1.0 -0.4683947837
I  I9  1  0.81504000  0.56508000  0.24321000  1.0 -0.4196705496
I  I10  1  0.61592000  0.42164000  0.34025000  1.0 -0.4299508756
I  I11  1  0.88397000  0.28509000  0.68362000  1.0 -0.0349466218
I  I12  1  0.94992000  0.11008000  0.67351000  1.0 -0.0375057938
I  I13  1  0.07930000  0.88850000  0.84160000  1.0 -0.1592797382
I  I14  1  0.95710000  0.70090000  0.74650000  1.0 -0.0092491698
I  I15  1  0.35050000  0.61850000  0.19880000  1.0 0.008974492
I  I16  1  0.35070000  0.42810000  0.14380000  1.0 0.0804173735
I  I17  1  0.27170000  0.62790000  0.19390000  1.0 -0.0791420522
I  I18  1  0.38360000  0.50780000  0.16650000  1.0 -0.0658788452
I  I19  1  0.75290000  0.22130000  0.44990000  1.0 -0.2178816622
I  I20  1  0.80620000  0.05740000  0.54910000  1.0 -0.4196705496
I  I21  1  0.88110000  0.18010000  0.70080000  1.0 -0.0092491698
I  I22  1  0.04870000  0.14230000  0.65260000  1.0 0.008974492
I  I23  1  0.89280000  0.09240000  0.16306000  1.0 -0.1400324649
I  I24  1  0.68770000  0.93610000  0.26040000  1.0 0.008974492
I  I25  1  0.74262000  0.27756000  0.04712000  1.0 -0.4299508756
I  I26  1  0.69971000  0.45631000  0.94977000  1.0 -0.4601147895
I  I27  1  0.62228000  0.22114000  0.81769000  1.0 -0.0522548756
I  I28  1  0.55744000  0.39654000  0.82895000  1.0 -0.0658788452
I  I29  1  0.23374000  0.76926000  0.54437000  1.0 -0.2002681649
I  I30  1  0.04530000  0.80610000  0.44762000  1.0 -0.4683947837
I  I31  1  0.56508000  0.81504000  0.75679000  1.0 -0.4196705496
I  I32  1  0.42164000  0.61592000  0.65975000  1.0 -0.4299508756
I  I33  1  0.28509000  0.88397000  0.31638000  1.0 -0.0375057938
I  I34  1  0.11008000  0.94992000  0.32649000  1.0 -0.0375057938
I  I35  1  0.88850000  0.07930000  0.15840000  1.0 -0.1592797382
I  I36  1  0.70090000  0.95710000  0.25350000  1.0 -0.0092491698
I  I37  1  0.61850000  0.35050000  0.80120000  1.0 0.008974492
I  I38  1  0.42810000  0.35070000  0.85620000  1.0 0.0804173735
I  I39  1  0.62790000  0.27170000  0.80610000  1.0 -0.0791420522
I  I40  1  0.50780000  0.38360000  0.83350000  1.0 -0.0658788452
I  I41  1  0.22130000  0.75290000  0.55010000  1.0 -0.2178816622
I  I42  1  0.05740000  0.80620000  0.45090000  1.0 -0.4196705496
I  I43  1  0.18010000  0.88110000  0.29920000  1.0 -0.0092491698
I  I44  1  0.14230000  0.04870000  0.34740000  1.0 0.008974492
N  N1  1  0.92900000  0.61780000  0.85500000  1.0 -0.169712176
N  N2  1  0.55720000  0.92660000  0.97460000  1.0 -0.2002681649
N  N3  1  0.14960000  0.45220000  0.11790000  1.0 -0.2178816622
N  N4  1  0.81360000  0.30060000  0.94260000  1.0 -0.3781600272
N  N5  1  0.88090000  0.26170000  0.00630000  1.0 -0.3981484846
N  N6  1  0.96570000  0.42950000  0.97880000  1.0 -0.3781600272
N  N7  1  0.15950000  0.37930000  0.21640000  1.0 -0.169712176
N  N8  1  0.77700000  0.05700000  0.43650000  1.0 -0.169712176
N  N9  1  0.81440000  0.69040000  0.31170000  1.0 -0.1910783923
N  N10  1  0.94600000  0.12220000  0.32640000  1.0 -0.3737635589
N  N11  1  0.86070000  0.95530000  0.34990000  1.0 -0.3981484846
N  N12  1  0.95350000  0.03350000  0.29440000  1.0 -0.3933002627
N  N13  1  0.88820000  0.57760000  0.35530000  1.0 -0.1804799283
N  N14  1  0.57870000  0.94890000  0.47590000  1.0 -0.1804799283
N  N15  1  0.05870000  0.35550000  0.62060000  1.0 -0.1910783923
N  N16  1  0.20670000  0.69010000  0.44300000  1.0 -0.364618068
N  N17  1  0.24670000  0.62530000  0.50470000  1.0 -0.364618068
N  N18  1  0.07910000  0.53870000  0.47950000  1.0 -0.3737635589
N  N19  1  0.12920000  0.35200000  0.71730000  1.0 -0.1804799283
N  N20  1  0.45400000  0.73420000  0.93650000  1.0 -0.1910783923
N  N21  1  0.82020000  0.69240000  0.81040000  1.0 -0.1910783923
N  N22  1  0.38670000  0.56650000  0.82470000  1.0 -0.4097370481
N  N23  1  0.55710000  0.64950000  0.84990000  1.0 -0.3933002627
N  N24  1  0.47380000  0.55480000  0.79310000  1.0 -0.3981484846
N  N25  1  0.61780000  0.92900000  0.14500000  1.0 -0.169712176
N  N26  1  0.92660000  0.55720000  0.02540000  1.0 -0.2002681649
N  N27  1  0.45220000  0.14960000  0.88210000  1.0 -0.2178816622
N  N28  1  0.30060000  0.81360000  0.05740000  1.0 -0.3781600272
N  N29  1  0.26170000  0.88090000  0.99370000  1.0 -0.3981484846
N  N30  1  0.42950000  0.96570000  0.02120000  1.0 -0.3781600272
N  N31  1  0.37930000  0.15950000  0.78360000  1.0 -0.169712176
N  N32  1  0.05700000  0.77700000  0.56350000  1.0 -0.169712176
N  N33  1  0.69040000  0.81440000  0.68830000  1.0 -0.2002681649
N  N34  1  0.12220000  0.94600000  0.67360000  1.0 -0.3737635589
N  N35  1  0.95530000  0.86070000  0.65010000  1.0 -0.3981484846
N  N36  1  0.03350000  0.95350000  0.70560000  1.0 -0.3933002627
N  N37  1  0.57760000  0.88820000  0.64470000  1.0 -0.1804799283
N  N38  1  0.94890000  0.57870000  0.52410000  1.0 -0.1804799283
N  N39  1  0.35550000  0.05870000  0.37940000  1.0 -0.1910783923
N  N40  1  0.69010000  0.20670000  0.55700000  1.0 -0.364618068
N  N41  1  0.62530000  0.24670000  0.49530000  1.0 -0.364618068
N  N42  1  0.53870000  0.07910000  0.52050000  1.0 -0.3737635589
N  N43  1  0.35200000  0.12920000  0.28270000  1.0 -0.1804799283
N  N44  1  0.73420000  0.45400000  0.06350000  1.0 -0.1910783923
N  N45  1  0.69240000  0.82020000  0.18960000  1.0 -0.1910783923
N  N46  1  0.56650000  0.38670000  0.17530000  1.0 -0.4097370481
N  N47  1  0.64950000  0.55710000  0.15010000  1.0 -0.3933002627
N  N48  1  0.55480000  0.47380000  0.20690000  1.0 -0.3981484846
