# DDEC6 charges by PACMAN v1.1 (https://github.com/mtap-research/PACMAN-charge/)
data_CARJOX_FSR_pacman
_symmetry_space_group_name_H-M   'P 1'
_cell_length_a   18.98980000
_cell_length_b   18.98980000
_cell_length_c   30.92990000
_cell_angle_alpha   79.45750000
_cell_angle_beta   100.54300000
_cell_angle_gamma   133.58000000
_symmetry_Int_Tables_number   1
_chemical_formula_structural   ZnH4C6(IN)2
_chemical_formula_sum   'Zn24 H96 C144 I48 N48'
_cell_volume   7918.15091823
_cell_formula_units_Z   24
loop_
 _symmetry_equiv_pos_site_id
 _symmetry_equiv_pos_as_xyz
  1  'x, y, z'
loop_
 _atom_site_type_symbol
 _atom_site_label
 _atom_site_symmetry_multiplicity
 _atom_site_fract_x
 _atom_site_fract_y
 _atom_site_fract_z
 _atom_site_occupancy
 _atom_site_charge
Zn  Zn1  1  0.45160000  0.29840000  0.84400000  1.0 0.3703671663
Zn  Zn2  1  0.97040000  0.21560000  0.69080000  1.0 0.4179790586
Zn  Zn3  1  0.03530000  0.69170000  0.52470000  1.0 0.274087277
Zn  Zn4  1  0.77489000  0.03271000  0.19077000  1.0 0.3952512711
Zn  Zn5  1  0.70460000  0.55220000  0.34540000  1.0 0.2947678834
Zn  Zn6  1  0.30565000  0.96455000  0.02578000  1.0 0.3099750151
Zn  Zn7  1  0.45440000  0.29020000  0.84130000  1.0 0.3703671663
Zn  Zn8  1  0.96737000  0.22683000  0.69090000  1.0 0.3915073841
Zn  Zn9  1  0.03450000  0.68630000  0.53340000  1.0 0.3225850049
Zn  Zn10  1  0.78380000  0.04300000  0.19340000  1.0 0.4138483673
Zn  Zn11  1  0.70960000  0.54040000  0.34100000  1.0 0.3461325734
Zn  Zn12  1  0.31760000  0.96380000  0.03160000  1.0 0.3099750151
Zn  Zn13  1  0.29840000  0.45160000  0.15600000  1.0 0.3703671663
Zn  Zn14  1  0.21560000  0.97040000  0.30920000  1.0 0.4179790586
Zn  Zn15  1  0.69170000  0.03530000  0.47530000  1.0 0.2807752857
Zn  Zn16  1  0.03271000  0.77489000  0.80923000  1.0 0.3952512711
Zn  Zn17  1  0.55220000  0.70460000  0.65460000  1.0 0.2947678834
Zn  Zn18  1  0.96455000  0.30565000  0.97422000  1.0 0.3099750151
Zn  Zn19  1  0.29020000  0.45440000  0.15870000  1.0 0.3703671663
Zn  Zn20  1  0.22683000  0.96737000  0.30910000  1.0 0.3915073841
Zn  Zn21  1  0.68630000  0.03450000  0.46660000  1.0 0.3225850049
Zn  Zn22  1  0.04300000  0.78380000  0.80660000  1.0 0.4179790586
Zn  Zn23  1  0.54040000  0.70960000  0.65900000  1.0 0.3461325734
Zn  Zn24  1  0.96380000  0.31760000  0.96840000  1.0 0.3099750151
H  H1  1  0.93020000  0.24880000  0.16820000  1.0 0.0676460387
H  H2  1  0.95050000  0.37230000  0.12270000  1.0 0.1222127154
H  H3  1  0.70010000  0.16210000  0.05290000  1.0 0.0989725336
H  H4  1  0.67360000  0.04980000  0.10810000  1.0 0.0676460387
H  H5  1  0.10890000  0.83190000  0.98480000  1.0 0.0594549577
H  H6  1  0.96160000  0.67400000  0.98810000  1.0 0.1286392136
H  H7  1  0.10210000  0.60410000  0.06870000  1.0 0.1286392136
H  H8  1  0.24060000  0.77060000  0.06900000  1.0 0.0676460387
H  H9  1  0.48960000  0.19160000  0.91500000  1.0 0.0594549577
H  H10  1  0.60370000  0.22130000  0.97150000  1.0 0.1089347769
H  H11  1  0.78660000  0.50760000  0.92430000  1.0 0.0989725336
H  H12  1  0.66666667  0.46040000  0.86390000  1.0 0.0676460387
H  H13  1  0.54590000  0.34290000  0.76280000  1.0 0.0594549577
H  H14  1  0.66440000  0.48260000  0.71590000  1.0 0.1286392136
H  H15  1  0.65510000  0.64130000  0.77910000  1.0 0.1286392136
H  H16  1  0.53860000  0.50500000  0.82100000  1.0 0.07943005
H  H17  1  0.03700000  0.83340000  0.55280000  1.0 0.0676460387
H  H18  1  0.00750000  0.86490000  0.61640000  1.0 0.1286392136
H  H19  1  0.85940000  0.59120000  0.66070000  1.0 0.1286392136
H  H20  1  0.93100000  0.58340000  0.61020000  1.0 0.0594549577
H  H21  1  0.87720000  0.03900000  0.75590000  1.0 0.07943005
H  H22  1  0.85770000  0.90730000  0.76100000  1.0 0.136849594
H  H23  1  0.93370000  0.97390000  0.63790000  1.0 0.1286392136
H  H24  1  0.99420000  0.12700000  0.64350000  1.0 0.0676460387
H  H25  1  0.95680000  0.31820000  0.60140000  1.0 0.0500272613
H  H26  1  0.83360000  0.30800000  0.55720000  1.0 0.0989725336
H  H27  1  0.63260000  0.04140000  0.61750000  1.0 0.1089347769
H  H28  1  0.75480000  0.07620000  0.67050000  1.0 0.0676460387
H  H29  1  0.22960000  0.75720000  0.56900000  1.0 0.0676460387
H  H30  1  0.39450000  0.89830000  0.57390000  1.0 0.1222127154
H  H31  1  0.32930000  0.03630000  0.48750000  1.0 0.1222127154
H  H32  1  0.16370000  0.89890000  0.49440000  1.0 0.0594549577
H  H33  1  0.53120000  0.34720000  0.37990000  1.0 0.0676460387
H  H34  1  0.49110000  0.22790000  0.43200000  1.0 0.0989725336
H  H35  1  0.77230000  0.39310000  0.47360000  1.0 0.1089347769
H  H36  1  0.81090000  0.51170000  0.41720000  1.0 0.0500272613
H  H37  1  0.65420000  0.43780000  0.26840000  1.0 0.0676460387
H  H38  1  0.52620000  0.32580000  0.22300000  1.0 0.1286392136
H  H39  1  0.35800000  0.34240000  0.27790000  1.0 0.1222127154
H  H40  1  0.50040000  0.46480000  0.31970000  1.0 0.0676460387
H  H41  1  0.94580000  0.09880000  0.25820000  1.0 0.07943005
H  H42  1  0.10550000  0.15490000  0.25960000  1.0 0.1286392136
H  H43  1  0.04510000  0.10050000  0.13270000  1.0 0.1286392136
H  H44  1  0.90410000  0.06710000  0.13270000  1.0 0.07943005
H  H45  1  0.15190000  0.92190000  0.07220000  1.0 0.07943005
H  H46  1  0.14380000  0.01660000  0.10420000  1.0 0.1286392136
H  H47  1  0.41920000  0.15740000  0.15500000  1.0 0.1222127154
H  H48  1  0.42500000  0.08520000  0.10720000  1.0 0.0676460387
H  H49  1  0.24880000  0.93020000  0.83180000  1.0 0.0676460387
H  H50  1  0.37230000  0.95050000  0.87730000  1.0 0.1222127154
H  H51  1  0.16210000  0.70010000  0.94710000  1.0 0.0989725336
H  H52  1  0.04980000  0.67360000  0.89190000  1.0 0.0676460387
H  H53  1  0.83190000  0.10890000  0.01520000  1.0 0.0594549577
H  H54  1  0.67400000  0.96160000  0.01190000  1.0 0.1286392136
H  H55  1  0.60410000  0.10210000  0.93130000  1.0 0.1286392136
H  H56  1  0.77060000  0.24060000  0.93100000  1.0 0.0676460387
H  H57  1  0.19160000  0.48960000  0.08500000  1.0 0.0594549577
H  H58  1  0.22130000  0.60370000  0.02850000  1.0 0.1089347769
H  H59  1  0.50760000  0.78660000  0.07570000  1.0 0.0989725336
H  H60  1  0.46040000  0.66666667  0.13610000  1.0 0.0676460387
H  H61  1  0.34290000  0.54590000  0.23720000  1.0 0.0594549577
H  H62  1  0.48260000  0.66440000  0.28410000  1.0 0.1286392136
H  H63  1  0.64130000  0.65510000  0.22090000  1.0 0.1286392136
H  H64  1  0.50500000  0.53860000  0.17900000  1.0 0.07943005
H  H65  1  0.83340000  0.03700000  0.44720000  1.0 0.0676460387
H  H66  1  0.86490000  0.00750000  0.38360000  1.0 0.1286392136
H  H67  1  0.59120000  0.85940000  0.33930000  1.0 0.1286392136
H  H68  1  0.58340000  0.93100000  0.38980000  1.0 0.0594549577
H  H69  1  0.03900000  0.87720000  0.24410000  1.0 0.07943005
H  H70  1  0.90730000  0.85770000  0.23900000  1.0 0.1286392136
H  H71  1  0.97390000  0.93370000  0.36210000  1.0 0.1286392136
H  H72  1  0.12700000  0.99420000  0.35650000  1.0 0.0676460387
H  H73  1  0.31820000  0.95680000  0.39860000  1.0 0.0500272613
H  H74  1  0.30800000  0.83360000  0.44280000  1.0 0.0989725336
H  H75  1  0.04140000  0.63260000  0.38250000  1.0 0.1089347769
H  H76  1  0.07620000  0.75480000  0.32950000  1.0 0.0676460387
H  H77  1  0.75720000  0.22960000  0.43100000  1.0 0.0676460387
H  H78  1  0.89830000  0.39450000  0.42610000  1.0 0.1222127154
H  H79  1  0.03630000  0.32930000  0.51250000  1.0 0.1222127154
H  H80  1  0.89890000  0.16370000  0.50560000  1.0 0.0594549577
H  H81  1  0.34720000  0.53120000  0.62010000  1.0 0.0676460387
H  H82  1  0.22790000  0.49110000  0.56800000  1.0 0.0989725336
H  H83  1  0.39310000  0.77230000  0.52640000  1.0 0.1089347769
H  H84  1  0.51170000  0.81090000  0.58280000  1.0 0.0500272613
H  H85  1  0.43780000  0.65420000  0.73160000  1.0 0.0676460387
H  H86  1  0.32580000  0.52620000  0.77700000  1.0 0.1286392136
H  H87  1  0.34240000  0.35800000  0.72210000  1.0 0.1222127154
H  H88  1  0.46480000  0.50040000  0.68030000  1.0 0.0676460387
H  H89  1  0.09880000  0.94580000  0.74180000  1.0 0.07943005
H  H90  1  0.15490000  0.10550000  0.74040000  1.0 0.1286392136
H  H91  1  0.10050000  0.04510000  0.86730000  1.0 0.1286392136
H  H92  1  0.06710000  0.90410000  0.86730000  1.0 0.07943005
H  H93  1  0.92190000  0.15190000  0.92780000  1.0 0.07943005
H  H94  1  0.01660000  0.14380000  0.89580000  1.0 0.1286392136
H  H95  1  0.15740000  0.41920000  0.84500000  1.0 0.1222127154
H  H96  1  0.08520000  0.42500000  0.89280000  1.0 0.0676460387
C  C1  1  0.88010000  0.23190000  0.14600000  1.0 0.0115899776
C  C2  1  0.89480000  0.30580000  0.11810000  1.0 -0.1510171261
C  C3  1  0.82580000  0.28020000  0.08330000  1.0 0.0676460387
C  C4  1  0.74540000  0.18220000  0.07800000  1.0 -0.1510171261
C  C5  1  0.73320000  0.11580000  0.10990000  1.0 0.0291833033
C  C6  1  0.10520000  0.78480000  0.00450000  1.0 0.0500272613
C  C7  1  0.01820000  0.69100000  0.00460000  1.0 -0.1799096843
C  C8  1  0.01580000  0.61920000  0.03050000  1.0 0.0500272613
C  C9  1  0.09950000  0.65010000  0.05260000  1.0 -0.1622274737
C  C10  1  0.18270000  0.74950000  0.05210000  1.0 0.0396165157
C  C11  1  0.54980000  0.25700000  0.91760000  1.0 0.0291833033
C  C12  1  0.61690000  0.27350000  0.95200000  1.0 -0.1685780304
C  C13  1  0.70410000  0.36950000  0.95680000  1.0 0.0594549577
C  C14  1  0.72550000  0.44230000  0.92340000  1.0 -0.1622274737
C  C15  1  0.65180000  0.41420000  0.88800000  1.0 0.0500272613
C  C16  1  0.84000000  0.35980000  0.05170000  1.0 0.3391589889
C  C17  1  0.92740000  0.51640000  0.02760000  1.0 0.3099750151
C  C18  1  0.78010000  0.39670000  0.99140000  1.0 0.3275633192
C  C19  1  0.56990000  0.40490000  0.76680000  1.0 0.0594549577
C  C20  1  0.64290000  0.48890000  0.73910000  1.0 -0.1510171261
C  C21  1  0.67890000  0.57530000  0.74730000  1.0 0.0594549577
C  C22  1  0.63600000  0.58100000  0.77640000  1.0 -0.1510171261
C  C23  1  0.56690000  0.50030000  0.80070000  1.0 0.0024412882
C  C24  1  0.00630000  0.78610000  0.57710000  1.0 0.0594549577
C  C25  1  0.97860000  0.80100000  0.61210000  1.0 -0.1622274737
C  C26  1  0.91050000  0.72330000  0.63920000  1.0 0.0594549577
C  C27  1  0.89760000  0.64440000  0.63950000  1.0 -0.1622274737
C  C28  1  0.93990000  0.63950000  0.60860000  1.0 0.07943005
C  C29  1  0.89270000  0.02750000  0.73210000  1.0 -0.0155358419
C  C30  1  0.87630000  0.94730000  0.73400000  1.0 -0.1685780304
C  C31  1  0.88470000  0.91970000  0.70060000  1.0 0.0594549577
C  C32  1  0.92630000  0.98870000  0.66350000  1.0 -0.1685780304
C  C33  1  0.95510000  0.07610000  0.66550000  1.0 0.0291833033
C  C34  1  0.76160000  0.66500000  0.72030000  1.0 0.3275633192
C  C35  1  0.86660000  0.73380000  0.66990000  1.0 0.3275633192
C  C36  1  0.85680000  0.82600000  0.69910000  1.0 0.3225850049
C  C37  1  0.89000000  0.26540000  0.60670000  1.0 0.0396165157
C  C38  1  0.81610000  0.25590000  0.57820000  1.0 -0.1510171261
C  C39  1  0.71960000  0.17120000  0.58100000  1.0 0.0396165157
C  C40  1  0.69800000  0.10200000  0.61500000  1.0 -0.1685780304
C  C41  1  0.77150000  0.12110000  0.64550000  1.0 0.0396165157
C  C42  1  0.24960000  0.81560000  0.55310000  1.0 0.0500272613
C  C43  1  0.34880000  0.89860000  0.55550000  1.0 -0.1799096843
C  C44  1  0.37870000  0.98290000  0.52940000  1.0 0.0594549577
C  C45  1  0.31030000  0.98050000  0.50590000  1.0 -0.1510171261
C  C46  1  0.21090000  0.89630000  0.50840000  1.0 0.0221624104
C  C47  1  0.58220000  0.35520000  0.39790000  1.0 0.0500272613
C  C48  1  0.55800000  0.28500000  0.42930000  1.0 -0.1622274737
C  C49  1  0.62678000  0.29342000  0.45720000  1.0 0.0676460387
C  C50  1  0.72180000  0.38120000  0.45300000  1.0 -0.1685780304
C  C51  1  0.74500000  0.45200000  0.41960000  1.0 0.0024412882
C  C52  1  0.64570000  0.16030000  0.55080000  1.0 0.3225850049
C  C53  1  0.48570000  0.07430000  0.52880000  1.0 0.3225850049
C  C54  1  0.60000000  0.21800000  0.49480000  1.0 0.3391589889
C  C55  1  0.59320000  0.41860000  0.26940000  1.0 0.0221624104
C  C56  1  0.51800000  0.35160000  0.24320000  1.0 -0.1622274737
C  C57  1  0.42310000  0.31830000  0.24580000  1.0 0.0500272613
C  C58  1  0.41810000  0.36130000  0.27480000  1.0 -0.1905058777
C  C59  1  0.50410000  0.43430000  0.30020000  1.0 0.0676460387
C  C60  1  0.96640000  0.09900000  0.23240000  1.0 0.0594549577
C  C61  1  0.06100000  0.12900000  0.23410000  1.0 -0.1685780304
C  C62  1  0.08310000  0.11850000  0.19770000  1.0 0.0594549577
C  C63  1  0.02620000  0.09920000  0.15950000  1.0 -0.1622274737
C  C64  1  0.94190000  0.07810000  0.15990000  1.0 0.0115899776
C  C65  1  0.21030000  0.98030000  0.08420000  1.0 0.0500272613
C  C66  1  0.20100000  0.02680000  0.10810000  1.0 -0.1622274737
C  C67  1  0.27650000  0.08870000  0.13790000  1.0 0.0396165157
C  C68  1  0.36330000  0.11270000  0.13600000  1.0 -0.1510171261
C  C69  1  0.36600000  0.07060000  0.10680000  1.0 -0.0021003869
C  C70  1  0.33700000  0.24100000  0.21990000  1.0 0.2807752857
C  C71  1  0.17840000  0.14580000  0.19840000  1.0 0.3275633192
C  C72  1  0.26900000  0.13340000  0.16880000  1.0 0.3391589889
C  C73  1  0.23190000  0.88010000  0.85400000  1.0 0.0115899776
C  C74  1  0.30580000  0.89480000  0.88190000  1.0 -0.1510171261
C  C75  1  0.28020000  0.82580000  0.91670000  1.0 0.0676460387
C  C76  1  0.18220000  0.74540000  0.92200000  1.0 -0.1510171261
C  C77  1  0.11580000  0.73320000  0.89010000  1.0 0.0291833033
C  C78  1  0.78480000  0.10520000  0.99550000  1.0 0.0500272613
C  C79  1  0.69100000  0.01820000  0.99540000  1.0 -0.1799096843
C  C80  1  0.61920000  0.01580000  0.96950000  1.0 0.0500272613
C  C81  1  0.65010000  0.09950000  0.94740000  1.0 -0.1622274737
C  C82  1  0.74950000  0.18270000  0.94790000  1.0 0.0396165157
C  C83  1  0.25700000  0.54980000  0.08240000  1.0 0.0291833033
C  C84  1  0.27350000  0.61690000  0.04800000  1.0 -0.1685780304
C  C85  1  0.36950000  0.70410000  0.04320000  1.0 0.0594549577
C  C86  1  0.44230000  0.72550000  0.07660000  1.0 -0.1622274737
C  C87  1  0.41420000  0.65180000  0.11200000  1.0 0.0396165157
C  C88  1  0.35980000  0.84000000  0.94830000  1.0 0.3391589889
C  C89  1  0.51640000  0.92740000  0.97240000  1.0 0.3099750151
C  C90  1  0.39670000  0.78010000  0.00860000  1.0 0.3275633192
C  C91  1  0.40490000  0.56990000  0.23320000  1.0 0.0594549577
C  C92  1  0.48890000  0.64290000  0.26090000  1.0 -0.1510171261
C  C93  1  0.57530000  0.67890000  0.25270000  1.0 0.0594549577
C  C94  1  0.58100000  0.63600000  0.22360000  1.0 -0.1510171261
C  C95  1  0.50030000  0.56690000  0.19930000  1.0 0.0024412882
C  C96  1  0.78610000  0.00630000  0.42290000  1.0 0.0594549577
C  C97  1  0.80100000  0.97860000  0.38790000  1.0 -0.1622274737
C  C98  1  0.72330000  0.91050000  0.36080000  1.0 0.0594549577
C  C99  1  0.64440000  0.89760000  0.36050000  1.0 -0.1622274737
C  C100  1  0.63950000  0.93990000  0.39140000  1.0 0.07943005
C  C101  1  0.02750000  0.89270000  0.26790000  1.0 -0.0155358419
C  C102  1  0.94730000  0.87630000  0.26600000  1.0 -0.1685780304
C  C103  1  0.91970000  0.88470000  0.29940000  1.0 0.0594549577
C  C104  1  0.98870000  0.92630000  0.33650000  1.0 -0.1685780304
C  C105  1  0.07610000  0.95510000  0.33450000  1.0 0.0291833033
C  C106  1  0.66500000  0.76160000  0.27970000  1.0 0.3275633192
C  C107  1  0.73380000  0.86660000  0.33010000  1.0 0.3275633192
C  C108  1  0.82600000  0.85680000  0.30090000  1.0 0.3225850049
C  C109  1  0.26540000  0.89000000  0.39330000  1.0 0.0396165157
C  C110  1  0.25590000  0.81610000  0.42180000  1.0 -0.1510171261
C  C111  1  0.17120000  0.71960000  0.41900000  1.0 0.0396165157
C  C112  1  0.10200000  0.69800000  0.38500000  1.0 -0.1622274737
C  C113  1  0.12110000  0.77150000  0.35450000  1.0 0.0396165157
C  C114  1  0.81560000  0.24960000  0.44690000  1.0 0.0500272613
C  C115  1  0.89860000  0.34880000  0.44450000  1.0 -0.1799096843
C  C116  1  0.98290000  0.37870000  0.47060000  1.0 0.0594549577
C  C117  1  0.98050000  0.31030000  0.49410000  1.0 -0.1510171261
C  C118  1  0.89630000  0.21090000  0.49160000  1.0 0.0221624104
C  C119  1  0.35520000  0.58220000  0.60210000  1.0 0.0500272613
C  C120  1  0.28500000  0.55800000  0.57070000  1.0 -0.1622274737
C  C121  1  0.29342000  0.62678000  0.54280000  1.0 0.0676460387
C  C122  1  0.38120000  0.72180000  0.54700000  1.0 -0.1685780304
C  C123  1  0.45200000  0.74500000  0.58040000  1.0 0.0024412882
C  C124  1  0.16030000  0.64570000  0.44920000  1.0 0.3225850049
C  C125  1  0.07430000  0.48570000  0.47120000  1.0 0.3275633192
C  C126  1  0.21800000  0.60000000  0.50520000  1.0 0.3391589889
C  C127  1  0.41860000  0.59320000  0.73060000  1.0 0.0221624104
C  C128  1  0.35160000  0.51800000  0.75680000  1.0 -0.1622274737
C  C129  1  0.31830000  0.42310000  0.75420000  1.0 0.0500272613
C  C130  1  0.36130000  0.41810000  0.72520000  1.0 -0.1905058777
C  C131  1  0.43430000  0.50410000  0.69980000  1.0 0.0676460387
C  C132  1  0.09900000  0.96640000  0.76760000  1.0 0.0594549577
C  C133  1  0.12900000  0.06100000  0.76590000  1.0 -0.1685780304
C  C134  1  0.11850000  0.08310000  0.80230000  1.0 0.0594549577
C  C135  1  0.09920000  0.02620000  0.84050000  1.0 -0.1622274737
C  C136  1  0.07810000  0.94190000  0.84010000  1.0 0.0115899776
C  C137  1  0.98030000  0.21030000  0.91580000  1.0 0.0500272613
C  C138  1  0.02680000  0.20100000  0.89190000  1.0 -0.1622274737
C  C139  1  0.08870000  0.27650000  0.86210000  1.0 0.0396165157
C  C140  1  0.11270000  0.36330000  0.86400000  1.0 -0.1510171261
C  C141  1  0.07060000  0.36600000  0.89320000  1.0 -0.0021003869
C  C142  1  0.24100000  0.33700000  0.78010000  1.0 0.2807752857
C  C143  1  0.14580000  0.17840000  0.80160000  1.0 0.3275633192
C  C144  1  0.13340000  0.26900000  0.83120000  1.0 0.3391589889
I  I1  1  0.36458000  0.31762000  0.88503000  1.0 -0.2567706958
I  I2  1  0.36952000  0.13928000  0.80896000  1.0 -0.1905058777
I  I3  1  0.94460000  0.26540000  0.75710000  1.0 -0.059806322
I  I4  1  0.12750000  0.35630000  0.64530000  1.0 0.0115899776
I  I5  1  0.99610000  0.53750000  0.54853000  1.0 -0.0155358419
I  I6  1  0.96828000  0.71512000  0.44950000  1.0 -0.0021003869
I  I7  1  0.76997000  0.07709000  0.26188000  1.0 -0.3772084445
I  I8  1  0.66114000  0.87706000  0.15957000  1.0 -0.1308461495
I  I9  1  0.67039000  0.63301000  0.38328000  1.0 0.0221624104
I  I10  1  0.85597000  0.62723000  0.31224000  1.0 -0.0473138315
I  I11  1  0.46025000  0.99439000  0.04915000  1.0 -0.039370555
I  I12  1  0.28089000  0.03391000  0.95239000  1.0 0.0115899776
I  I13  1  0.37230000  0.32890000  0.87700000  1.0 -0.232410203
I  I14  1  0.39010000  0.14910000  0.80830000  1.0 -0.1799096843
I  I15  1  0.92742000  0.23658000  0.76122000  1.0 -0.0473138315
I  I16  1  0.13172000  0.35208000  0.66050000  1.0 -0.0287750972
I  I17  1  0.02000000  0.53880000  0.55830000  1.0 0.0291833033
I  I18  1  0.95560000  0.69980000  0.46120000  1.0 -0.039370555
I  I19  1  0.76283000  0.07597000  0.26254000  1.0 -0.4041671485
I  I20  1  0.63799000  0.86261000  0.16021000  1.0 -0.1622274737
I  I21  1  0.69560000  0.63680000  0.37860000  1.0 -0.039370555
I  I22  1  0.86040000  0.61140000  0.30450000  1.0 -0.0021003869
I  I23  1  0.46360000  0.98200000  0.06080000  1.0 -0.01317166
I  I24  1  0.31120000  0.04580000  0.95920000  1.0 -0.0287750972
I  I25  1  0.31762000  0.36458000  0.11497000  1.0 -0.2567706958
I  I26  1  0.13928000  0.36952000  0.19104000  1.0 -0.1799096843
I  I27  1  0.26540000  0.94460000  0.24290000  1.0 -0.059806322
I  I28  1  0.35630000  0.12750000  0.35470000  1.0 0.0115899776
I  I29  1  0.53750000  0.99610000  0.45147000  1.0 -0.0155358419
I  I30  1  0.71512000  0.96828000  0.55050000  1.0 -0.0021003869
I  I31  1  0.07709000  0.76997000  0.73812000  1.0 -0.3772084445
I  I32  1  0.87706000  0.66114000  0.84043000  1.0 -0.1308461495
I  I33  1  0.63301000  0.67039000  0.61672000  1.0 0.0221624104
I  I34  1  0.62723000  0.85597000  0.68776000  1.0 -0.0473138315
I  I35  1  0.99439000  0.46025000  0.95085000  1.0 -0.039370555
I  I36  1  0.03391000  0.28089000  0.04761000  1.0 0.0115899776
I  I37  1  0.32890000  0.37230000  0.12300000  1.0 -0.232410203
I  I38  1  0.14910000  0.39010000  0.19170000  1.0 -0.1905058777
I  I39  1  0.23658000  0.92742000  0.23878000  1.0 -0.0473138315
I  I40  1  0.35208000  0.13172000  0.33950000  1.0 -0.0287750972
I  I41  1  0.53880000  0.02000000  0.44170000  1.0 0.0221624104
I  I42  1  0.69980000  0.95560000  0.53880000  1.0 -0.039370555
I  I43  1  0.07597000  0.76283000  0.73746000  1.0 -0.4041671485
I  I44  1  0.86261000  0.63799000  0.83979000  1.0 -0.1622274737
I  I45  1  0.63680000  0.69560000  0.62140000  1.0 -0.039370555
I  I46  1  0.61140000  0.86040000  0.69550000  1.0 -0.0021003869
I  I47  1  0.98200000  0.46360000  0.93920000  1.0 -0.0155358419
I  I48  1  0.04580000  0.31120000  0.04080000  1.0 -0.0287750972
N  N1  1  0.79790000  0.13610000  0.14340000  1.0 -0.2124381443
N  N2  1  0.18260000  0.81500000  0.02860000  1.0 -0.201127932
N  N3  1  0.56220000  0.32380000  0.88820000  1.0 -0.201127932
N  N4  1  0.91960000  0.45060000  0.05790000  1.0 -0.4420373768
N  N5  1  0.85860000  0.49360000  0.99620000  1.0 -0.4500828602
N  N6  1  0.76650000  0.32530000  0.01850000  1.0 -0.4727263481
N  N7  1  0.53610000  0.41190000  0.79720000  1.0 -0.2220202516
N  N8  1  0.98830000  0.70590000  0.57960000  1.0 -0.1905058777
N  N9  1  0.93120000  0.09360000  0.69660000  1.0 -0.2376759827
N  N10  1  0.79420000  0.65020000  0.69280000  1.0 -0.4321324409
N  N11  1  0.89910000  0.82310000  0.67130000  1.0 -0.4321324409
N  N12  1  0.78660000  0.74840000  0.72650000  1.0 -0.5077870817
N  N13  1  0.86480000  0.20020000  0.64070000  1.0 -0.2220202516
N  N14  1  0.18040000  0.81160000  0.53010000  1.0 -0.232410203
N  N15  1  0.67360000  0.43580000  0.39030000  1.0 -0.201127932
N  N16  1  0.55070000  0.07810000  0.55590000  1.0 -0.4500828602
N  N17  1  0.50510000  0.14250000  0.49660000  1.0 -0.4500828602
N  N18  1  0.67140000  0.22860000  0.52010000  1.0 -0.4321324409
N  N19  1  0.58710000  0.46130000  0.29790000  1.0 -0.2220202516
N  N20  1  0.90930000  0.07210000  0.19590000  1.0 -0.2124381443
N  N21  1  0.29280000  0.00920000  0.07640000  1.0 -0.2124381443
N  N22  1  0.24980000  0.20920000  0.22450000  1.0 -0.4321324409
N  N23  1  0.18220000  0.10360000  0.16940000  1.0 -0.4500828602
N  N24  1  0.34710000  0.19930000  0.19320000  1.0 -0.4420373768
N  N25  1  0.13610000  0.79790000  0.85660000  1.0 -0.2124381443
N  N26  1  0.81500000  0.18260000  0.97140000  1.0 -0.201127932
N  N27  1  0.32380000  0.56220000  0.11180000  1.0 -0.201127932
N  N28  1  0.45060000  0.91960000  0.94210000  1.0 -0.4420373768
N  N29  1  0.49360000  0.85860000  0.00380000  1.0 -0.4500828602
N  N30  1  0.32530000  0.76650000  0.98150000  1.0 -0.4727263481
N  N31  1  0.41190000  0.53610000  0.20280000  1.0 -0.2220202516
N  N32  1  0.70590000  0.98830000  0.42040000  1.0 -0.1905058777
N  N33  1  0.09360000  0.93120000  0.30340000  1.0 -0.2376759827
N  N34  1  0.65020000  0.79420000  0.30720000  1.0 -0.4321324409
N  N35  1  0.82310000  0.89910000  0.32870000  1.0 -0.4321324409
N  N36  1  0.74840000  0.78660000  0.27350000  1.0 -0.5077870817
N  N37  1  0.20020000  0.86480000  0.35930000  1.0 -0.2220202516
N  N38  1  0.81160000  0.18040000  0.46990000  1.0 -0.232410203
N  N39  1  0.43580000  0.67360000  0.60970000  1.0 -0.201127932
N  N40  1  0.07810000  0.55070000  0.44410000  1.0 -0.4500828602
N  N41  1  0.14250000  0.50510000  0.50340000  1.0 -0.4500828602
N  N42  1  0.22860000  0.67140000  0.47990000  1.0 -0.4321324409
N  N43  1  0.46130000  0.58710000  0.70210000  1.0 -0.2220202516
N  N44  1  0.07210000  0.90930000  0.80410000  1.0 -0.2124381443
N  N45  1  0.00920000  0.29280000  0.92360000  1.0 -0.2124381443
N  N46  1  0.20920000  0.24980000  0.77550000  1.0 -0.4321324409
N  N47  1  0.10360000  0.18220000  0.83060000  1.0 -0.4500828602
N  N48  1  0.19930000  0.34710000  0.80680000  1.0 -0.4420373768
