# DDEC6 charges by PACMAN v1.1 (https://github.com/mtap-research/PACMAN-charge/)
data_CARKIS_FSR_pacman
_symmetry_space_group_name_H-M   'P 1'
_cell_length_a   18.96270000
_cell_length_b   18.96270000
_cell_length_c   34.45010000
_cell_angle_alpha   73.48230000
_cell_angle_beta   106.51800000
_cell_angle_gamma   133.96900000
_symmetry_Int_Tables_number   1
_chemical_formula_structural   Zn7H48C72(I5N8)3
_chemical_formula_sum   'Zn14 H96 C144 I30 N48'
_cell_volume   8479.59192694
_cell_formula_units_Z   2
loop_
 _symmetry_equiv_pos_site_id
 _symmetry_equiv_pos_as_xyz
  1  'x, y, z'
loop_
 _atom_site_type_symbol
 _atom_site_label
 _atom_site_symmetry_multiplicity
 _atom_site_fract_x
 _atom_site_fract_y
 _atom_site_fract_z
 _atom_site_occupancy
 _atom_site_charge
Zn  Zn1  1  0.71044000  0.36536000  0.02313000  1.0 0.3304729539
Zn  Zn2  1  0.19786000  0.41794000  0.19053000  1.0 0.4509731906
Zn  Zn3  1  0.13207000  0.86453000  0.32900000  1.0 0.4509731906
Zn  Zn4  1  0.35623000  0.57657000  0.69145000  1.0 0.4692440184
Zn  Zn5  1  0.90490000  0.63650000  0.82900000  1.0 0.40625608
Zn  Zn6  1  0.40642000  0.06378000  0.52340000  1.0 0.4437210414
Zn  Zn7  1  0.89770000  0.64950000  0.82880000  1.0 0.4268791976
Zn  Zn8  1  0.36536000  0.71044000  0.97687000  1.0 0.3304729539
Zn  Zn9  1  0.41794000  0.19786000  0.80947000  1.0 0.4509731906
Zn  Zn10  1  0.86453000  0.13207000  0.67100000  1.0 0.4509731906
Zn  Zn11  1  0.57657000  0.35623000  0.30855000  1.0 0.4692440184
Zn  Zn12  1  0.63650000  0.90490000  0.17100000  1.0 0.40625608
Zn  Zn13  1  0.06378000  0.40642000  0.47660000  1.0 0.4437210414
Zn  Zn14  1  0.64950000  0.89770000  0.17120000  1.0 0.4268791976
H  H1  1  0.10590000  0.82990000  0.85800000  1.0 0.091627585
H  H2  1  0.20080000  0.88680000  0.91920000  1.0 0.131477154
H  H3  1  0.00130000  0.61970000  0.98100000  1.0 0.131477154
H  H4  1  0.89970000  0.57070000  0.91910000  1.0 0.0706624458
H  H5  1  0.07940000  0.43420000  0.11300000  1.0 0.1005652907
H  H6  1  0.09750000  0.55730000  0.06800000  1.0 0.131477154
H  H7  1  0.36760000  0.76820000  0.12230000  1.0 0.1005652907
H  H8  1  0.35350000  0.63250000  0.16660000  1.0 0.091627585
H  H9  1  0.63340000  0.17420000  0.07710000  1.0 0.1078854864
H  H10  1  0.50100000  0.00860000  0.08330000  1.0 0.131477154
H  H11  1  0.37080000  0.06140000  0.97680000  1.0 0.1390024213
H  H12  1  0.51830000  0.23190000  0.97630000  1.0 0.0706624458
H  H13  1  0.55810000  0.35450000  0.04680000  1.0 0.1005652907
H  H14  1  0.55420000  0.42360000  0.08660000  1.0 0.1390024213
H  H15  1  0.83120000  0.56120000  0.13190000  1.0 0.1390024213
H  H16  1  0.83250000  0.48930000  0.09080000  1.0 0.1078854864
H  H17  1  0.38810000  0.49150000  0.24690000  1.0 0.1005652907
H  H18  1  0.54640000  0.54760000  0.24020000  1.0 0.131477154
H  H19  1  0.42530000  0.43650000  0.13050000  1.0 0.131477154
H  H20  1  0.28350000  0.40750000  0.13650000  1.0 0.1005652907
H  H21  1  0.06030000  0.74230000  0.26480000  1.0 0.1005652907
H  H22  1  0.90800000  0.62760000  0.22300000  1.0 0.131477154
H  H23  1  0.79410000  0.72750000  0.25360000  1.0 0.131477154
H  H24  1  0.95410000  0.83150000  0.29520000  1.0 0.1005652907
H  H25  1  0.94290000  0.67010000  0.36110000  1.0 0.1005652907
H  H26  1  0.89160000  0.55420000  0.41850000  1.0 0.131477154
H  H27  1  0.15690000  0.76270000  0.47760000  1.0 0.1390024213
H  H28  1  0.20020000  0.87120000  0.41600000  1.0 0.1005652907
H  H29  1  0.59520000  0.13860000  0.58060000  1.0 0.1005652907
H  H30  1  0.76870000  0.28150000  0.58240000  1.0 0.131477154
H  H31  1  0.71360000  0.38160000  0.47090000  1.0 0.1390024213
H  H32  1  0.54860000  0.25380000  0.47190000  1.0 0.1078854864
H  H33  1  0.33230000  0.68290000  0.61510000  1.0 0.1078854864
H  H34  1  0.21710000  0.66990000  0.56160000  1.0 0.1174048337
H  H35  1  0.02320000  0.39320000  0.61380000  1.0 0.131477154
H  H36  1  0.13620000  0.42080000  0.66520000  1.0 0.1174048337
H  H37  1  0.26720000  0.37580000  0.74230000  1.0 0.1078854864
H  H38  1  0.24300000  0.24420000  0.74320000  1.0 0.131477154
H  H39  1  0.33270000  0.35470000  0.63320000  1.0 0.1390024213
H  H40  1  0.39630000  0.50090000  0.64360000  1.0 0.1078854864
H  H41  1  0.04020000  0.72260000  0.76940000  1.0 0.0805948913
H  H42  1  0.11420000  0.84520000  0.71870000  1.0 0.131477154
H  H43  1  0.03610000  0.96590000  0.74730000  1.0 0.1390024213
H  H44  1  0.95030000  0.83850000  0.79570000  1.0 0.091627585
H  H45  1  0.43570000  0.21470000  0.55020000  1.0 0.1005652907
H  H46  1  0.38420000  0.24080000  0.60090000  1.0 0.131477154
H  H47  1  0.25150000  0.96230000  0.64520000  1.0 0.131477154
H  H48  1  0.30980000  0.95580000  0.59990000  1.0 0.1005652907
H  H49  1  0.82990000  0.10590000  0.14200000  1.0 0.091627585
H  H50  1  0.88680000  0.20080000  0.08080000  1.0 0.131477154
H  H51  1  0.61970000  0.00130000  0.01900000  1.0 0.131477154
H  H52  1  0.57070000  0.89970000  0.08090000  1.0 0.0706624458
H  H53  1  0.43420000  0.07940000  0.88700000  1.0 0.1005652907
H  H54  1  0.55730000  0.09750000  0.93200000  1.0 0.131477154
H  H55  1  0.76820000  0.36760000  0.87770000  1.0 0.1005652907
H  H56  1  0.63250000  0.35350000  0.83340000  1.0 0.091627585
H  H57  1  0.17420000  0.63340000  0.92290000  1.0 0.1078854864
H  H58  1  0.00860000  0.50100000  0.91670000  1.0 0.131477154
H  H59  1  0.06140000  0.37080000  0.02320000  1.0 0.1390024213
H  H60  1  0.23190000  0.51830000  0.02370000  1.0 0.0706624458
H  H61  1  0.35450000  0.55810000  0.95320000  1.0 0.1005652907
H  H62  1  0.42360000  0.55420000  0.91340000  1.0 0.1390024213
H  H63  1  0.56120000  0.83120000  0.86810000  1.0 0.1390024213
H  H64  1  0.48930000  0.83250000  0.90920000  1.0 0.1078854864
H  H65  1  0.49150000  0.38810000  0.75310000  1.0 0.1005652907
H  H66  1  0.54760000  0.54640000  0.75980000  1.0 0.131477154
H  H67  1  0.43650000  0.42530000  0.86950000  1.0 0.131477154
H  H68  1  0.40750000  0.28350000  0.86350000  1.0 0.1005652907
H  H69  1  0.74230000  0.06030000  0.73520000  1.0 0.1005652907
H  H70  1  0.62760000  0.90800000  0.77700000  1.0 0.131477154
H  H71  1  0.72750000  0.79410000  0.74640000  1.0 0.131477154
H  H72  1  0.83150000  0.95410000  0.70480000  1.0 0.1005652907
H  H73  1  0.67010000  0.94290000  0.63890000  1.0 0.1005652907
H  H74  1  0.55420000  0.89160000  0.58150000  1.0 0.131477154
H  H75  1  0.76270000  0.15690000  0.52240000  1.0 0.1390024213
H  H76  1  0.87120000  0.20020000  0.58400000  1.0 0.1005652907
H  H77  1  0.13860000  0.59520000  0.41940000  1.0 0.1005652907
H  H78  1  0.28150000  0.76870000  0.41760000  1.0 0.131477154
H  H79  1  0.38160000  0.71360000  0.52910000  1.0 0.1390024213
H  H80  1  0.25380000  0.54860000  0.52810000  1.0 0.1078854864
H  H81  1  0.68290000  0.33230000  0.38490000  1.0 0.1078854864
H  H82  1  0.66990000  0.21710000  0.43840000  1.0 0.1174048337
H  H83  1  0.39320000  0.02320000  0.38620000  1.0 0.131477154
H  H84  1  0.42080000  0.13620000  0.33480000  1.0 0.1174048337
H  H85  1  0.37580000  0.26720000  0.25770000  1.0 0.1078854864
H  H86  1  0.24420000  0.24300000  0.25680000  1.0 0.131477154
H  H87  1  0.35470000  0.33270000  0.36680000  1.0 0.1390024213
H  H88  1  0.50090000  0.39630000  0.35640000  1.0 0.1078854864
H  H89  1  0.72260000  0.04020000  0.23060000  1.0 0.0805948913
H  H90  1  0.84520000  0.11420000  0.28130000  1.0 0.131477154
H  H91  1  0.96590000  0.03610000  0.25270000  1.0 0.1390024213
H  H92  1  0.83850000  0.95030000  0.20430000  1.0 0.091627585
H  H93  1  0.21470000  0.43570000  0.44980000  1.0 0.1005652907
H  H94  1  0.24080000  0.38420000  0.39910000  1.0 0.131477154
H  H95  1  0.96230000  0.25150000  0.35480000  1.0 0.131477154
H  H96  1  0.95580000  0.30980000  0.40010000  1.0 0.1005652907
C  C1  1  0.08360000  0.78800000  0.88300000  1.0 0.0389403272
C  C2  1  0.14210000  0.81910000  0.91910000  1.0 -0.1319488178
C  C3  1  0.12020000  0.75600000  0.95620000  1.0 0.0389403272
C  C4  1  0.02420000  0.66260000  0.95630000  1.0 -0.1502579362
C  C5  1  0.96360000  0.63480000  0.91920000  1.0 0.0389403272
C  C6  1  0.13970000  0.50070000  0.11440000  1.0 0.0805948913
C  C7  1  0.15310000  0.57450000  0.08720000  1.0 -0.1502579362
C  C8  1  0.23600000  0.66960000  0.08410000  1.0 0.0525627064
C  C9  1  0.31350000  0.70090000  0.11840000  1.0 -0.180998504
C  C10  1  0.30060000  0.61880000  0.14640000  1.0 0.0583500743
C  C11  1  0.57950000  0.14870000  0.05590000  1.0 0.0583500743
C  C12  1  0.50260000  0.05120000  0.06020000  1.0 -0.1600573403
C  C13  1  0.42340000  0.01560000  0.02770000  1.0 0.0706624458
C  C14  1  0.42580000  0.08240000  0.99710000  1.0 -0.1600573403
C  C15  1  0.51380000  0.18420000  0.99720000  1.0 0.0805948913
C  C16  1  0.18950000  0.78810000  0.99260000  1.0 0.3374413701
C  C17  1  0.24690000  0.74770000  0.05250000  1.0 0.368583035
C  C18  1  0.33250000  0.90850000  0.02700000  1.0 0.368583035
C  C19  1  0.61370000  0.39430000  0.06580000  1.0 0.0525627064
C  C20  1  0.61000000  0.43000000  0.09020000  1.0 -0.2109402465
C  C21  1  0.68330000  0.47690000  0.12210000  1.0 0.0805948913
C  C22  1  0.77150000  0.51050000  0.11700000  1.0 -0.1710301635
C  C23  1  0.77290000  0.47310000  0.09170000  1.0 0.0389403272
C  C24  1  0.39790000  0.48510000  0.22300000  1.0 0.1005652907
C  C25  1  0.49140000  0.51420000  0.21980000  1.0 -0.1502579362
C  C26  1  0.49770000  0.49210000  0.18640000  1.0 0.0291431586
C  C27  1  0.42110000  0.45090000  0.15360000  1.0 -0.1502579362
C  C28  1  0.33690000  0.43310000  0.15800000  1.0 0.0706624458
C  C29  1  0.00550000  0.73650000  0.26320000  1.0 0.0706624458
C  C30  1  0.91660000  0.67100000  0.23640000  1.0 -0.1502579362
C  C31  1  0.84800000  0.67520000  0.23190000  1.0 0.0706624458
C  C32  1  0.84660000  0.73000000  0.25500000  1.0 -0.180998504
C  C33  1  0.94300000  0.78840000  0.28050000  1.0 0.1005652907
C  C34  1  0.67830000  0.51830000  0.15280000  1.0 0.3304729539
C  C35  1  0.58800000  0.52020000  0.18250000  1.0 0.3506812269
C  C36  1  0.75000000  0.60560000  0.20310000  1.0 0.3751404139
C  C37  1  0.98840000  0.68740000  0.38530000  1.0 0.0805948913
C  C38  1  0.95430000  0.61970000  0.41930000  1.0 -0.1600573403
C  C39  1  0.01890000  0.65410000  0.45560000  1.0 0.0583500743
C  C40  1  0.11010000  0.74230000  0.45370000  1.0 -0.1413496234
C  C41  1  0.13800000  0.80560000  0.41670000  1.0 0.0805948913
C  C42  1  0.61880000  0.19080000  0.55880000  1.0 0.1005652907
C  C43  1  0.72340000  0.27640000  0.55980000  1.0 -0.1710301635
C  C44  1  0.75620000  0.35040000  0.52720000  1.0 0.0706624458
C  C45  1  0.69060000  0.33560000  0.49490000  1.0 -0.1242069153
C  C46  1  0.59310000  0.25830000  0.49490000  1.0 0.0389403272
C  C47  1  0.26490000  0.62410000  0.61600000  1.0 0.0583500743
C  C48  1  0.19890000  0.61890000  0.58370000  1.0 -0.1600573403
C  C49  1  0.09890000  0.52650000  0.58760000  1.0 0.0389403272
C  C50  1  0.08570000  0.45850000  0.61500000  1.0 -0.1319488178
C  C51  1  0.15410000  0.47430000  0.64440000  1.0 0.0525627064
C  C52  1  0.98820000  0.58160000  0.49360000  1.0 0.368583035
C  C53  1  0.86320000  0.43600000  0.52680000  1.0 0.3506812269
C  C54  1  0.02140000  0.51500000  0.55320000  1.0 0.368583035
C  C55  1  0.28420000  0.37260000  0.71990000  1.0 0.0291431586
C  C56  1  0.26530000  0.29270000  0.71990000  1.0 -0.1502579362
C  C57  1  0.27710000  0.27710000  0.68620000  1.0 0.0706624458
C  C58  1  0.32270000  0.35930000  0.65750000  1.0 -0.1710301635
C  C59  1  0.35370000  0.44430000  0.66180000  1.0 0.0525627064
C  C60  1  0.03860000  0.77340000  0.76510000  1.0 0.0706624458
C  C61  1  0.08720000  0.84880000  0.73670000  1.0 -0.1710301635
C  C62  1  0.10310000  0.93670000  0.73120000  1.0 0.0291431586
C  C63  1  0.04180000  0.91800000  0.75270000  1.0 -0.1413496234
C  C64  1  0.98730000  0.84110000  0.78080000  1.0 0.0291431586
C  C65  1  0.39270000  0.15930000  0.56900000  1.0 0.0706624458
C  C66  1  0.36050000  0.17750000  0.59980000  1.0 -0.1319488178
C  C67  1  0.29760000  0.09700000  0.62410000  1.0 0.0185162186
C  C68  1  0.28520000  0.01680000  0.62470000  1.0 -0.1600573403
C  C69  1  0.32140000  0.01460000  0.59650000  1.0 0.091627585
C  C70  1  0.24180000  0.17920000  0.68190000  1.0 0.3506812269
C  C71  1  0.16310000  0.01830000  0.70590000  1.0 0.2837161871
C  C72  1  0.25780000  0.10080000  0.65280000  1.0 0.3506812269
C  C73  1  0.78800000  0.08360000  0.11700000  1.0 0.0389403272
C  C74  1  0.81910000  0.14210000  0.08090000  1.0 -0.1319488178
C  C75  1  0.75600000  0.12020000  0.04380000  1.0 0.0389403272
C  C76  1  0.66260000  0.02420000  0.04370000  1.0 -0.1502579362
C  C77  1  0.63480000  0.96360000  0.08080000  1.0 0.0389403272
C  C78  1  0.50070000  0.13970000  0.88560000  1.0 0.0805948913
C  C79  1  0.57450000  0.15310000  0.91280000  1.0 -0.1502579362
C  C80  1  0.66960000  0.23600000  0.91590000  1.0 0.0525627064
C  C81  1  0.70090000  0.31350000  0.88160000  1.0 -0.180998504
C  C82  1  0.61880000  0.30060000  0.85360000  1.0 0.0583500743
C  C83  1  0.14870000  0.57950000  0.94410000  1.0 0.0583500743
C  C84  1  0.05120000  0.50260000  0.93980000  1.0 -0.1600573403
C  C85  1  0.01560000  0.42340000  0.97230000  1.0 0.0706624458
C  C86  1  0.08240000  0.42580000  0.00290000  1.0 -0.1600573403
C  C87  1  0.18420000  0.51380000  0.00280000  1.0 0.0805948913
C  C88  1  0.78810000  0.18950000  0.00740000  1.0 0.3374413701
C  C89  1  0.74770000  0.24690000  0.94750000  1.0 0.368583035
C  C90  1  0.90850000  0.33250000  0.97300000  1.0 0.368583035
C  C91  1  0.39430000  0.61370000  0.93420000  1.0 0.0525627064
C  C92  1  0.43000000  0.61000000  0.90980000  1.0 -0.2109402465
C  C93  1  0.47690000  0.68330000  0.87790000  1.0 0.0805948913
C  C94  1  0.51050000  0.77150000  0.88300000  1.0 -0.1710301635
C  C95  1  0.47310000  0.77290000  0.90830000  1.0 0.0389403272
C  C96  1  0.48510000  0.39790000  0.77700000  1.0 0.1005652907
C  C97  1  0.51420000  0.49140000  0.78020000  1.0 -0.1502579362
C  C98  1  0.49210000  0.49770000  0.81360000  1.0 0.0291431586
C  C99  1  0.45090000  0.42110000  0.84640000  1.0 -0.1502579362
C  C100  1  0.43310000  0.33690000  0.84200000  1.0 0.0706624458
C  C101  1  0.73650000  0.00550000  0.73680000  1.0 0.0706624458
C  C102  1  0.67100000  0.91660000  0.76360000  1.0 -0.1502579362
C  C103  1  0.67520000  0.84800000  0.76810000  1.0 0.0706624458
C  C104  1  0.73000000  0.84660000  0.74500000  1.0 -0.180998504
C  C105  1  0.78840000  0.94300000  0.71950000  1.0 0.1005652907
C  C106  1  0.51830000  0.67830000  0.84720000  1.0 0.3304729539
C  C107  1  0.52020000  0.58800000  0.81750000  1.0 0.3506812269
C  C108  1  0.60560000  0.75000000  0.79690000  1.0 0.3751404139
C  C109  1  0.68740000  0.98840000  0.61470000  1.0 0.0805948913
C  C110  1  0.61970000  0.95430000  0.58070000  1.0 -0.1600573403
C  C111  1  0.65410000  0.01890000  0.54440000  1.0 0.0583500743
C  C112  1  0.74230000  0.11010000  0.54630000  1.0 -0.1413496234
C  C113  1  0.80560000  0.13800000  0.58330000  1.0 0.0805948913
C  C114  1  0.19080000  0.61880000  0.44120000  1.0 0.1005652907
C  C115  1  0.27640000  0.72340000  0.44020000  1.0 -0.1710301635
C  C116  1  0.35040000  0.75620000  0.47280000  1.0 0.0706624458
C  C117  1  0.33560000  0.69060000  0.50510000  1.0 -0.1242069153
C  C118  1  0.25830000  0.59310000  0.50510000  1.0 0.0389403272
C  C119  1  0.62410000  0.26490000  0.38400000  1.0 0.0583500743
C  C120  1  0.61890000  0.19890000  0.41630000  1.0 -0.1600573403
C  C121  1  0.52650000  0.09890000  0.41240000  1.0 0.0389403272
C  C122  1  0.45850000  0.08570000  0.38500000  1.0 -0.1319488178
C  C123  1  0.47430000  0.15410000  0.35560000  1.0 0.0525627064
C  C124  1  0.58160000  0.98820000  0.50640000  1.0 0.368583035
C  C125  1  0.43600000  0.86320000  0.47320000  1.0 0.3506812269
C  C126  1  0.51500000  0.02140000  0.44680000  1.0 0.368583035
C  C127  1  0.37260000  0.28420000  0.28010000  1.0 0.0291431586
C  C128  1  0.29270000  0.26530000  0.28010000  1.0 -0.1502579362
C  C129  1  0.27710000  0.27710000  0.31380000  1.0 0.0706624458
C  C130  1  0.35930000  0.32270000  0.34250000  1.0 -0.1710301635
C  C131  1  0.44430000  0.35370000  0.33820000  1.0 0.0525627064
C  C132  1  0.77340000  0.03860000  0.23490000  1.0 0.0706624458
C  C133  1  0.84880000  0.08720000  0.26330000  1.0 -0.1710301635
C  C134  1  0.93670000  0.10310000  0.26880000  1.0 0.0291431586
C  C135  1  0.91800000  0.04180000  0.24730000  1.0 -0.1319488178
C  C136  1  0.84110000  0.98730000  0.21920000  1.0 0.0291431586
C  C137  1  0.15930000  0.39270000  0.43100000  1.0 0.0706624458
C  C138  1  0.17750000  0.36050000  0.40020000  1.0 -0.1319488178
C  C139  1  0.09700000  0.29760000  0.37590000  1.0 0.0185162186
C  C140  1  0.01680000  0.28520000  0.37530000  1.0 -0.1600573403
C  C141  1  0.01460000  0.32140000  0.40350000  1.0 0.091627585
C  C142  1  0.17920000  0.24180000  0.31810000  1.0 0.3506812269
C  C143  1  0.01830000  0.16310000  0.29410000  1.0 0.2837161871
C  C144  1  0.10080000  0.25780000  0.34720000  1.0 0.3506812269
I  I1  1  0.86929000  0.39823000  0.04953000  1.0 -0.4204245267
I  I2  1  0.05455000  0.25117000  0.16308000  1.0 -0.4430897718
I  I3  1  0.20007000  0.45473000  0.25601000  1.0 -0.4204245267
I  I4  1  0.18153000  0.02469000  0.33239000  1.0 -0.4204245267
I  I5  1  0.25435000  0.85313000  0.32140000  1.0 -0.4462342856
I  I6  1  0.51942000  0.71662000  0.66376000  1.0 -0.4430897718
I  I7  1  0.31697000  0.56967000  0.75776000  1.0 -0.4430897718
I  I8  1  0.74429000  0.58831000  0.83131000  1.0 -0.0472260078
I  I9  1  0.91808000  0.51792000  0.82131000  1.0 -0.0565086824
I  I10  1  0.37310000  0.90356000  0.54971000  1.0 -0.4430897718
I  I11  1  0.32738000  0.08172000  0.45338000  1.0 -0.4204245267
I  I12  1  0.69250000  0.44050000  0.95840000  1.0 -0.0209463618
I  I13  1  0.76040000  0.63360000  0.83300000  1.0 -0.0099416615
I  I14  1  0.88150000  0.51070000  0.81330000  1.0 -0.083966933
I  I15  1  0.69350000  0.45030000  0.94720000  1.0 0.0389403272
I  I16  1  0.39823000  0.86929000  0.95047000  1.0 -0.4267332551
I  I17  1  0.25117000  0.05455000  0.83692000  1.0 -0.4430897718
I  I18  1  0.45473000  0.20007000  0.74399000  1.0 -0.4204245267
I  I19  1  0.02469000  0.18153000  0.66761000  1.0 -0.4204245267
I  I20  1  0.85313000  0.25435000  0.67860000  1.0 -0.4462342856
I  I21  1  0.71662000  0.51942000  0.33624000  1.0 -0.4430897718
I  I22  1  0.56967000  0.31697000  0.24224000  1.0 -0.4430897718
I  I23  1  0.58831000  0.74429000  0.16869000  1.0 -0.0472260078
I  I24  1  0.51792000  0.91808000  0.17869000  1.0 -0.0565086824
I  I25  1  0.90356000  0.37310000  0.45029000  1.0 -0.4430897718
I  I26  1  0.08172000  0.32738000  0.54662000  1.0 -0.4204245267
I  I27  1  0.44050000  0.69250000  0.04160000  1.0 -0.0209463618
I  I28  1  0.63360000  0.76040000  0.16700000  1.0 -0.0099416615
I  I29  1  0.51070000  0.88150000  0.18670000  1.0 -0.083966933
I  I30  1  0.45030000  0.69350000  0.05280000  1.0 0.0389403272
N  N1  1  0.99080000  0.69380000  0.88340000  1.0 -0.2260186372
N  N2  1  0.21470000  0.52410000  0.14400000  1.0 -0.199243148
N  N3  1  0.58700000  0.21260000  0.02500000  1.0 -0.1892474694
N  N4  1  0.17520000  0.71480000  0.02250000  1.0 -0.3898523398
N  N5  1  0.32830000  0.84450000  0.05720000  1.0 -0.4204245267
N  N6  1  0.26530000  0.88250000  0.99630000  1.0 -0.3812730459
N  N7  1  0.69120000  0.41180000  0.06620000  1.0 -0.1892474694
N  N8  1  0.32910000  0.44990000  0.19170000  1.0 -0.199243148
N  N9  1  0.01450000  0.79070000  0.28610000  1.0 -0.2109402465
N  N10  1  0.58720000  0.49320000  0.15290000  1.0 -0.3898523398
N  N11  1  0.67080000  0.58520000  0.20870000  1.0 -0.4204245267
N  N12  1  0.75850000  0.57050000  0.17940000  1.0 -0.3898523398
N  N13  1  0.07560000  0.77160000  0.38280000  1.0 -0.180998504
N  N14  1  0.55680000  0.18520000  0.52810000  1.0 -0.1892474694
N  N15  1  0.24550000  0.55750000  0.64780000  1.0 -0.1892474694
N  N16  1  0.88710000  0.50970000  0.49450000  1.0 -0.4099648742
N  N17  1  0.93330000  0.43930000  0.55720000  1.0 -0.3590515328
N  N18  1  0.05320000  0.58640000  0.52000000  1.0 -0.3812730459
N  N19  1  0.32640000  0.45300000  0.69060000  1.0 -0.1892474694
N  N20  1  0.98780000  0.76620000  0.78710000  1.0 -0.2109402465
N  N21  1  0.36660000  0.07620000  0.56690000  1.0 -0.199243148
N  N22  1  0.18910000  0.10670000  0.70840000  1.0 -0.3590515328
N  N23  1  0.19410000  0.01450000  0.67510000  1.0 -0.3986657111
N  N24  1  0.28720000  0.18120000  0.65420000  1.0 -0.3714657274
N  N25  1  0.69380000  0.99080000  0.11660000  1.0 -0.2260186372
N  N26  1  0.52410000  0.21470000  0.85600000  1.0 -0.199243148
N  N27  1  0.21260000  0.58700000  0.97500000  1.0 -0.1892474694
N  N28  1  0.71480000  0.17520000  0.97750000  1.0 -0.3898523398
N  N29  1  0.84450000  0.32830000  0.94280000  1.0 -0.4267332551
N  N30  1  0.88250000  0.26530000  0.00370000  1.0 -0.3812730459
N  N31  1  0.41180000  0.69120000  0.93380000  1.0 -0.1892474694
N  N32  1  0.44990000  0.32910000  0.80830000  1.0 -0.199243148
N  N33  1  0.79070000  0.01450000  0.71390000  1.0 -0.2109402465
N  N34  1  0.49320000  0.58720000  0.84710000  1.0 -0.3898523398
N  N35  1  0.58520000  0.67080000  0.79130000  1.0 -0.4204245267
N  N36  1  0.57050000  0.75850000  0.82060000  1.0 -0.3898523398
N  N37  1  0.77160000  0.07560000  0.61720000  1.0 -0.180998504
N  N38  1  0.18520000  0.55680000  0.47190000  1.0 -0.1892474694
N  N39  1  0.55750000  0.24550000  0.35220000  1.0 -0.1892474694
N  N40  1  0.50970000  0.88710000  0.50550000  1.0 -0.4099648742
N  N41  1  0.43930000  0.93330000  0.44280000  1.0 -0.3590515328
N  N42  1  0.58640000  0.05320000  0.48000000  1.0 -0.3812730459
N  N43  1  0.45300000  0.32640000  0.30940000  1.0 -0.1892474694
N  N44  1  0.76620000  0.98780000  0.21290000  1.0 -0.2109402465
N  N45  1  0.07620000  0.36660000  0.43310000  1.0 -0.199243148
N  N46  1  0.10670000  0.18910000  0.29160000  1.0 -0.3590515328
N  N47  1  0.01450000  0.19410000  0.32490000  1.0 -0.3986657111
N  N48  1  0.18120000  0.28720000  0.34580000  1.0 -0.3714657274
