# DDEC6 charges by PACMAN v1.1 (https://github.com/mtap-research/PACMAN-charge/)
data_CARKUE_FSR_pacman
_symmetry_space_group_name_H-M   'P 1'
_cell_length_a   19.07030000
_cell_length_b   19.07030000
_cell_length_c   30.64090000
_cell_angle_alpha   79.82460000
_cell_angle_beta   100.17500000
_cell_angle_gamma   134.18900000
_symmetry_Int_Tables_number   1
_chemical_formula_structural   Zn9H48C72(I5N6)4
_chemical_formula_sum   'Zn18 H96 C144 I40 N48'
_cell_volume   7841.97393499
_cell_formula_units_Z   2
loop_
 _symmetry_equiv_pos_site_id
 _symmetry_equiv_pos_as_xyz
  1  'x, y, z'
loop_
 _atom_site_type_symbol
 _atom_site_label
 _atom_site_symmetry_multiplicity
 _atom_site_fract_x
 _atom_site_fract_y
 _atom_site_fract_z
 _atom_site_occupancy
 _atom_site_charge
Zn  Zn1  1  0.87040000  0.11880000  0.68410000  1.0 0.3401934107
Zn  Zn2  1  0.92850000  0.57650000  0.53190000  1.0 0.3124903817
Zn  Zn3  1  0.66379000  0.91251000  0.18773000  1.0 0.456510209
Zn  Zn4  1  0.59601000  0.43621000  0.34685000  1.0 0.4544936199
Zn  Zn5  1  0.19908000  0.85532000  0.02214000  1.0 0.3218047896
Zn  Zn6  1  0.33934000  0.17974000  0.84763000  1.0 0.2875652243
Zn  Zn7  1  0.85350000  0.10710000  0.69290000  1.0 0.3697095542
Zn  Zn8  1  0.91590000  0.57470000  0.52030000  1.0 0.2610606481
Zn  Zn9  1  0.21060000  0.85140000  0.03110000  1.0 0.3218047896
Zn  Zn10  1  0.11880000  0.87040000  0.31590000  1.0 0.3401934107
Zn  Zn11  1  0.57650000  0.92850000  0.46810000  1.0 0.3124903817
Zn  Zn12  1  0.91251000  0.66379000  0.81227000  1.0 0.456510209
Zn  Zn13  1  0.43621000  0.59601000  0.65315000  1.0 0.4544936199
Zn  Zn14  1  0.85532000  0.19908000  0.97786000  1.0 0.3275119145
Zn  Zn15  1  0.17974000  0.33934000  0.15237000  1.0 0.2875652243
Zn  Zn16  1  0.10710000  0.85350000  0.30710000  1.0 0.3697095542
Zn  Zn17  1  0.57470000  0.91590000  0.47970000  1.0 0.2610606481
Zn  Zn18  1  0.85140000  0.21060000  0.96890000  1.0 0.3218047896
H  H1  1  0.82010000  0.98490000  0.62830000  1.0 0.05958943
H  H2  1  0.77550000  0.83390000  0.62660000  1.0 0.1223297459
H  H3  1  0.74580000  0.78840000  0.75890000  1.0 0.128312676
H  H4  1  0.79780000  0.94300000  0.75790000  1.0 0.0694894111
H  H5  1  0.42290000  0.38870000  0.82070000  1.0 0.0782093547
H  H6  1  0.53870000  0.52390000  0.77630000  1.0 0.128312676
H  H7  1  0.56960000  0.36380000  0.72710000  1.0 0.128312676
H  H8  1  0.45090000  0.23290000  0.77440000  1.0 0.0782093547
H  H9  1  0.81580000  0.46740000  0.61020000  1.0 0.0694894111
H  H10  1  0.74340000  0.47520000  0.65860000  1.0 0.1223297459
H  H11  1  0.83330000  0.72290000  0.59060000  1.0 0.128312676
H  H12  1  0.90060000  0.70440000  0.54320000  1.0 0.0782093547
H  H13  1  0.05300000  0.78320000  0.49040000  1.0 0.0694894111
H  H14  1  0.21940000  0.92580000  0.48870000  1.0 0.128312676
H  H15  1  0.27690000  0.78490000  0.57740000  1.0 0.128312676
H  H16  1  0.10920000  0.64400000  0.57200000  1.0 0.0782093547
H  H17  1  0.64520000  0.96800000  0.67490000  1.0 0.0782093547
H  H18  1  0.51950000  0.94370000  0.62890000  1.0 0.1223297459
H  H19  1  0.72550000  0.18650000  0.55390000  1.0 0.0993534983
H  H20  1  0.84320000  0.20720000  0.60300000  1.0 0.0694894111
H  H21  1  0.70430000  0.39650000  0.41470000  1.0 0.0694894111
H  H22  1  0.66740000  0.27780000  0.47260000  1.0 0.0993534983
H  H23  1  0.37880000  0.11020000  0.43380000  1.0 0.109525445
H  H24  1  0.42190000  0.23230000  0.37760000  1.0 0.0782093547
H  H25  1  0.38570000  0.34710000  0.32340000  1.0 0.0993534983
H  H26  1  0.24660000  0.23000000  0.27790000  1.0 0.128312676
H  H27  1  0.41450000  0.22310000  0.22030000  1.0 0.128312676
H  H28  1  0.54720000  0.33700000  0.26530000  1.0 0.0993534983
H  H29  1  0.30650000  0.95470000  0.10790000  1.0 0.05958943
H  H30  1  0.29850000  0.02570000  0.16030000  1.0 0.128312676
H  H31  1  0.05270000  0.94250000  0.09000000  1.0 0.128312676
H  H32  1  0.06840000  0.87800000  0.04000000  1.0 0.0694894111
H  H33  1  0.79090000  0.94590000  0.12830000  1.0 0.0880278962
H  H34  1  0.93380000  0.98440000  0.12820000  1.0 0.128312676
H  H35  1  0.98450000  0.02450000  0.25920000  1.0 0.128312676
H  H36  1  0.83770000  0.98550000  0.25520000  1.0 0.0993534983
H  H37  1  0.79990000  0.13070000  0.17850000  1.0 0.0782093547
H  H38  1  0.83350000  0.25730000  0.12900000  1.0 0.109525445
H  H39  1  0.58880000  0.05060000  0.05250000  1.0 0.0993534983
H  H40  1  0.57050000  0.92890000  0.10020000  1.0 0.0782093547
H  H41  1  0.99100000  0.72060000  0.99100000  1.0 0.05958943
H  H42  1  0.84630000  0.55790000  0.99460000  1.0 0.128312676
H  H43  1  0.99160000  0.49480000  0.07540000  1.0 0.128312676
H  H44  1  0.13120000  0.65960000  0.07110000  1.0 0.0782093547
H  H45  1  0.38400000  0.07320000  0.91470000  1.0 0.05958943
H  H46  1  0.49630000  0.10810000  0.97270000  1.0 0.109525445
H  H47  1  0.66010000  0.39470000  0.93660000  1.0 0.1223297459
H  H48  1  0.53730000  0.35110000  0.88330000  1.0 0.0880278962
H  H49  1  0.98490000  0.82010000  0.37170000  1.0 0.05958943
H  H50  1  0.83390000  0.77550000  0.37340000  1.0 0.1223297459
H  H51  1  0.78840000  0.74580000  0.24110000  1.0 0.128312676
H  H52  1  0.94300000  0.79780000  0.24210000  1.0 0.0694894111
H  H53  1  0.38870000  0.42290000  0.17930000  1.0 0.0782093547
H  H54  1  0.52390000  0.53870000  0.22370000  1.0 0.128312676
H  H55  1  0.36380000  0.56960000  0.27290000  1.0 0.128312676
H  H56  1  0.23290000  0.45090000  0.22560000  1.0 0.0782093547
H  H57  1  0.46740000  0.81580000  0.38980000  1.0 0.0694894111
H  H58  1  0.47520000  0.74340000  0.34140000  1.0 0.1223297459
H  H59  1  0.72290000  0.83330000  0.40940000  1.0 0.128312676
H  H60  1  0.70440000  0.90060000  0.45680000  1.0 0.0694894111
H  H61  1  0.78320000  0.05300000  0.50960000  1.0 0.0694894111
H  H62  1  0.92580000  0.21940000  0.51130000  1.0 0.128312676
H  H63  1  0.78490000  0.27690000  0.42260000  1.0 0.128312676
H  H64  1  0.64400000  0.10920000  0.42800000  1.0 0.0782093547
H  H65  1  0.96800000  0.64520000  0.32510000  1.0 0.0782093547
H  H66  1  0.94370000  0.51950000  0.37110000  1.0 0.1223297459
H  H67  1  0.18650000  0.72550000  0.44610000  1.0 0.0993534983
H  H68  1  0.20720000  0.84320000  0.39700000  1.0 0.0694894111
H  H69  1  0.39650000  0.70430000  0.58530000  1.0 0.0694894111
H  H70  1  0.27780000  0.66740000  0.52740000  1.0 0.0993534983
H  H71  1  0.11020000  0.37880000  0.56620000  1.0 0.109525445
H  H72  1  0.23230000  0.42190000  0.62240000  1.0 0.0782093547
H  H73  1  0.34710000  0.38570000  0.67660000  1.0 0.0993534983
H  H74  1  0.23000000  0.24660000  0.72210000  1.0 0.128312676
H  H75  1  0.22310000  0.41450000  0.77970000  1.0 0.128312676
H  H76  1  0.33700000  0.54720000  0.73470000  1.0 0.0993534983
H  H77  1  0.95470000  0.30650000  0.89210000  1.0 0.05958943
H  H78  1  0.02570000  0.29850000  0.83970000  1.0 0.128312676
H  H79  1  0.94250000  0.05270000  0.91000000  1.0 0.128312676
H  H80  1  0.87800000  0.06840000  0.96000000  1.0 0.0782093547
H  H81  1  0.94590000  0.79090000  0.87170000  1.0 0.0880278962
H  H82  1  0.98440000  0.93380000  0.87180000  1.0 0.128312676
H  H83  1  0.02450000  0.98450000  0.74080000  1.0 0.128312676
H  H84  1  0.98550000  0.83770000  0.74480000  1.0 0.0993534983
H  H85  1  0.13070000  0.79990000  0.82150000  1.0 0.0782093547
H  H86  1  0.25730000  0.83350000  0.87100000  1.0 0.109525445
H  H87  1  0.05060000  0.58880000  0.94750000  1.0 0.0993534983
H  H88  1  0.92890000  0.57050000  0.89980000  1.0 0.0782093547
H  H89  1  0.72060000  0.99100000  0.00900000  1.0 0.05958943
H  H90  1  0.55790000  0.84630000  0.00540000  1.0 0.128312676
H  H91  1  0.49480000  0.99160000  0.92460000  1.0 0.128312676
H  H92  1  0.65960000  0.13120000  0.92890000  1.0 0.0782093547
H  H93  1  0.07320000  0.38400000  0.08530000  1.0 0.05958943
H  H94  1  0.10810000  0.49630000  0.02730000  1.0 0.109525445
H  H95  1  0.39470000  0.66010000  0.06340000  1.0 0.1223297459
H  H96  1  0.35110000  0.53730000  0.11670000  1.0 0.0880278962
C  C1  1  0.80690000  0.94490000  0.65510000  1.0 0.05958943
C  C2  1  0.78090000  0.85530000  0.65370000  1.0 -0.1440072321
C  C3  1  0.76350000  0.79990000  0.69400000  1.0 0.0387736302
C  C4  1  0.76440000  0.82940000  0.73210000  1.0 -0.1440072321
C  C5  1  0.79300000  0.92020000  0.73130000  1.0 0.05958943
C  C6  1  0.45390000  0.38410000  0.80190000  1.0 0.0494081687
C  C7  1  0.52220000  0.46420000  0.77530000  1.0 -0.1595900899
C  C8  1  0.56700000  0.46020000  0.74720000  1.0 0.0494081687
C  C9  1  0.54100000  0.37120000  0.74610000  1.0 -0.1495971113
C  C10  1  0.47080000  0.29440000  0.77470000  1.0 0.05958943
C  C11  1  0.81930000  0.52030000  0.60620000  1.0 0.0220256494
C  C12  1  0.77720000  0.52520000  0.63520000  1.0 -0.1293569017
C  C13  1  0.78280000  0.60080000  0.63100000  1.0 0.0694894111
C  C14  1  0.82890000  0.66930000  0.59560000  1.0 -0.1595900899
C  C15  1  0.86880000  0.65700000  0.56760000  1.0 0.0782093547
C  C16  1  0.73380000  0.70580000  0.69330000  1.0 0.3601711471
C  C17  1  0.64200000  0.54580000  0.71860000  1.0 0.3697095542
C  C18  1  0.74230000  0.61170000  0.66400000  1.0 0.3697095542
C  C19  1  0.10030000  0.78370000  0.50720000  1.0 0.0387736302
C  C20  1  0.19890000  0.86930000  0.50690000  1.0 -0.1495971113
C  C21  1  0.26810000  0.87170000  0.53360000  1.0 0.0694894111
C  C22  1  0.23320000  0.78680000  0.55820000  1.0 -0.1804234183
C  C23  1  0.13220000  0.70260000  0.55510000  1.0 0.0880278962
C  C24  1  0.66140000  0.01400000  0.65030000  1.0 0.05958943
C  C25  1  0.58600000  0.99820000  0.62260000  1.0 -0.1495971113
C  C26  1  0.60920000  0.06280000  0.58610000  1.0 0.05958943
C  C27  1  0.70680000  0.14100000  0.57900000  1.0 -0.1595900899
C  C28  1  0.77610000  0.15230000  0.60810000  1.0 0.0220256494
C  C29  1  0.63790000  0.33830000  0.41900000  1.0 0.0782093547
C  C30  1  0.61620000  0.26780000  0.45380000  1.0 -0.1804234183
C  C31  1  0.51850000  0.18330000  0.46000000  1.0 0.0694894111
C  C32  1  0.44570000  0.16890000  0.43090000  1.0 -0.1689621299
C  C33  1  0.47190000  0.24150000  0.39730000  1.0 0.0694894111
C  C34  1  0.37340000  0.96160000  0.53170000  1.0 0.3275119145
C  C35  1  0.53070000  0.04850000  0.55390000  1.0 0.350559168
C  C36  1  0.49210000  0.10790000  0.49630000  1.0 0.3401934107
C  C37  1  0.39100000  0.31980000  0.30250000  1.0 0.0387736302
C  C38  1  0.30760000  0.24980000  0.27580000  1.0 -0.1689621299
C  C39  1  0.31680000  0.21020000  0.24600000  1.0 0.0494081687
C  C40  1  0.40650000  0.24610000  0.24220000  1.0 -0.1689621299
C  C41  1  0.48550000  0.31430000  0.26890000  1.0 0.0694894111
C  C42  1  0.25500000  0.95320000  0.10420000  1.0 0.0782093547
C  C43  1  0.25000000  0.99520000  0.13610000  1.0 -0.1595900899
C  C44  1  0.17410000  0.99130000  0.13140000  1.0 0.0494081687
C  C45  1  0.10590000  0.94630000  0.09440000  1.0 -0.1495971113
C  C46  1  0.11510000  0.90810000  0.06480000  1.0 0.0330662384
C  C47  1  0.83040000  0.96120000  0.15540000  1.0 0.0694894111
C  C48  1  0.91570000  0.98550000  0.15490000  1.0 -0.1804234183
C  C49  1  0.97690000  0.01230000  0.19380000  1.0 0.05958943
C  C50  1  0.94600000  0.00940000  0.23170000  1.0 -0.1689621299
C  C51  1  0.85770000  0.98410000  0.22930000  1.0 0.05958943
C  C52  1  0.22880000  0.13160000  0.21750000  1.0 0.3401934107
C  C53  1  0.16530000  0.03410000  0.16230000  1.0 0.3275119145
C  C54  1  0.07220000  0.03980000  0.19360000  1.0 0.3401934107
C  C55  1  0.75900000  0.11520000  0.15180000  1.0 0.05958943
C  C56  1  0.77760000  0.19080000  0.12340000  1.0 -0.1689621299
C  C57  1  0.71240000  0.16700000  0.08670000  1.0 0.0330662384
C  C58  1  0.63360000  0.06800000  0.07770000  1.0 -0.1804234183
C  C59  1  0.62240000  0.99560000  0.10650000  1.0 0.0694894111
C  C60  1  0.99110000  0.67410000  0.00850000  1.0 0.05958943
C  C61  1  0.90460000  0.57740000  0.01020000  1.0 -0.1495971113
C  C62  1  0.90340000  0.50900000  0.03480000  1.0 0.05958943
C  C63  1  0.99010000  0.54030000  0.05800000  1.0 -0.1595900899
C  C64  1  0.07250000  0.63790000  0.05500000  1.0 0.0330662384
C  C65  1  0.44030000  0.13990000  0.92000000  1.0 0.0220256494
C  C66  1  0.50700000  0.16000000  0.95410000  1.0 -0.1689621299
C  C67  1  0.59030000  0.25630000  0.96120000  1.0 0.0494081687
C  C68  1  0.60230000  0.32750000  0.93360000  1.0 -0.1495971113
C  C69  1  0.52970000  0.30050000  0.90130000  1.0 0.0694894111
C  C70  1  0.72590000  0.24330000  0.05660000  1.0 0.350559168
C  C71  1  0.81210000  0.40250000  0.03440000  1.0 0.3401934107
C  C72  1  0.66710000  0.28530000  0.99790000  1.0 0.3762980778
C  C73  1  0.94490000  0.80690000  0.34490000  1.0 0.05958943
C  C74  1  0.85530000  0.78090000  0.34630000  1.0 -0.1440072321
C  C75  1  0.79990000  0.76350000  0.30600000  1.0 0.0387736302
C  C76  1  0.82940000  0.76440000  0.26790000  1.0 -0.1440072321
C  C77  1  0.92020000  0.79300000  0.26870000  1.0 0.05958943
C  C78  1  0.38410000  0.45390000  0.19810000  1.0 0.0494081687
C  C79  1  0.46420000  0.52220000  0.22470000  1.0 -0.1595900899
C  C80  1  0.46020000  0.56700000  0.25280000  1.0 0.0494081687
C  C81  1  0.37120000  0.54100000  0.25390000  1.0 -0.1495971113
C  C82  1  0.29440000  0.47080000  0.22530000  1.0 0.05958943
C  C83  1  0.52030000  0.81930000  0.39380000  1.0 0.0220256494
C  C84  1  0.52520000  0.77720000  0.36480000  1.0 -0.1293569017
C  C85  1  0.60080000  0.78280000  0.36900000  1.0 0.0694894111
C  C86  1  0.66930000  0.82890000  0.40440000  1.0 -0.1595900899
C  C87  1  0.65700000  0.86880000  0.43240000  1.0 0.0782093547
C  C88  1  0.70580000  0.73380000  0.30670000  1.0 0.3601711471
C  C89  1  0.54580000  0.64200000  0.28140000  1.0 0.3697095542
C  C90  1  0.61170000  0.74230000  0.33600000  1.0 0.3697095542
C  C91  1  0.78370000  0.10030000  0.49280000  1.0 0.0387736302
C  C92  1  0.86930000  0.19890000  0.49310000  1.0 -0.1440072321
C  C93  1  0.87170000  0.26810000  0.46640000  1.0 0.0694894111
C  C94  1  0.78680000  0.23320000  0.44180000  1.0 -0.1804234183
C  C95  1  0.70260000  0.13220000  0.44490000  1.0 0.0880278962
C  C96  1  0.01400000  0.66140000  0.34970000  1.0 0.05958943
C  C97  1  0.99820000  0.58600000  0.37740000  1.0 -0.1495971113
C  C98  1  0.06280000  0.60920000  0.41390000  1.0 0.05958943
C  C99  1  0.14100000  0.70680000  0.42100000  1.0 -0.1595900899
C  C100  1  0.15230000  0.77610000  0.39190000  1.0 0.0220256494
C  C101  1  0.33830000  0.63790000  0.58100000  1.0 0.0782093547
C  C102  1  0.26780000  0.61620000  0.54620000  1.0 -0.1804234183
C  C103  1  0.18330000  0.51850000  0.54000000  1.0 0.0694894111
C  C104  1  0.16890000  0.44570000  0.56910000  1.0 -0.1689621299
C  C105  1  0.24150000  0.47190000  0.60270000  1.0 0.0694894111
C  C106  1  0.96160000  0.37340000  0.46830000  1.0 0.3275119145
C  C107  1  0.04850000  0.53070000  0.44610000  1.0 0.350559168
C  C108  1  0.10790000  0.49210000  0.50370000  1.0 0.3401934107
C  C109  1  0.31980000  0.39100000  0.69750000  1.0 0.0387736302
C  C110  1  0.24980000  0.30760000  0.72420000  1.0 -0.1689621299
C  C111  1  0.21020000  0.31680000  0.75400000  1.0 0.0494081687
C  C112  1  0.24610000  0.40650000  0.75780000  1.0 -0.1689621299
C  C113  1  0.31430000  0.48550000  0.73110000  1.0 0.0694894111
C  C114  1  0.95320000  0.25500000  0.89580000  1.0 0.0782093547
C  C115  1  0.99520000  0.25000000  0.86390000  1.0 -0.1595900899
C  C116  1  0.99130000  0.17410000  0.86860000  1.0 0.0494081687
C  C117  1  0.94630000  0.10590000  0.90560000  1.0 -0.1495971113
C  C118  1  0.90810000  0.11510000  0.93520000  1.0 0.0330662384
C  C119  1  0.96120000  0.83040000  0.84460000  1.0 0.0694894111
C  C120  1  0.98550000  0.91570000  0.84510000  1.0 -0.1804234183
C  C121  1  0.01230000  0.97690000  0.80620000  1.0 0.05958943
C  C122  1  0.00940000  0.94600000  0.76830000  1.0 -0.1689621299
C  C123  1  0.98410000  0.85770000  0.77070000  1.0 0.05958943
C  C124  1  0.13160000  0.22880000  0.78250000  1.0 0.3401934107
C  C125  1  0.03410000  0.16530000  0.83770000  1.0 0.3275119145
C  C126  1  0.03980000  0.07220000  0.80640000  1.0 0.3401934107
C  C127  1  0.11520000  0.75900000  0.84820000  1.0 0.05958943
C  C128  1  0.19080000  0.77760000  0.87660000  1.0 -0.1689621299
C  C129  1  0.16700000  0.71240000  0.91330000  1.0 0.0330662384
C  C130  1  0.06800000  0.63360000  0.92230000  1.0 -0.1804234183
C  C131  1  0.99560000  0.62240000  0.89350000  1.0 0.0694894111
C  C132  1  0.67410000  0.99110000  0.99150000  1.0 0.0494081687
C  C133  1  0.57740000  0.90460000  0.98980000  1.0 -0.1495971113
C  C134  1  0.50900000  0.90340000  0.96520000  1.0 0.05958943
C  C135  1  0.54030000  0.99010000  0.94200000  1.0 -0.1595900899
C  C136  1  0.63790000  0.07250000  0.94500000  1.0 0.0330662384
C  C137  1  0.13990000  0.44030000  0.08000000  1.0 0.0220256494
C  C138  1  0.16000000  0.50700000  0.04590000  1.0 -0.1689621299
C  C139  1  0.25630000  0.59030000  0.03880000  1.0 0.0494081687
C  C140  1  0.32750000  0.60230000  0.06640000  1.0 -0.1495971113
C  C141  1  0.30050000  0.52970000  0.09870000  1.0 0.0694894111
C  C142  1  0.24330000  0.72590000  0.94340000  1.0 0.350559168
C  C143  1  0.40250000  0.81210000  0.96560000  1.0 0.3401934107
C  C144  1  0.28530000  0.66710000  0.00210000  1.0 0.3762980778
I  I1  1  0.85997000  0.15143000  0.75790000  1.0 -0.0984093915
I  I2  1  0.01985000  0.21295000  0.64250000  1.0 -0.00714239
I  I3  1  0.88118000  0.41942000  0.53960000  1.0 -0.0479323897
I  I4  1  0.86353000  0.61147000  0.44320000  1.0 -0.1440072321
I  I5  1  0.56575000  0.51687000  0.38696000  1.0 -0.448369145
I  I6  1  0.74838000  0.51632000  0.31038000  1.0 -0.448369145
I  I7  1  0.64224000  0.93400000  0.26147000  1.0 -0.4410205007
I  I8  1  0.54762000  0.75342000  0.14981000  1.0 -0.4692746322
I  I9  1  0.35391000  0.88783000  0.04396000  1.0 -0.0418951146
I  I10  1  0.16821000  0.91483000  0.94668000  1.0 -0.002425564
I  I11  1  0.25540000  0.21400000  0.88777000  1.0 -0.00714239
I  I12  1  0.25381000  0.02579000  0.81038000  1.0 -0.1176355551
I  I13  1  0.82240000  0.11840000  0.76640000  1.0 -0.0479323897
I  I14  1  0.01804000  0.23564000  0.65770000  1.0 -0.0418951146
I  I15  1  0.89570000  0.42430000  0.55230000  1.0 -0.0188345497
I  I16  1  0.85480000  0.59720000  0.45160000  1.0 -0.1689621299
I  I17  1  0.34800000  0.86180000  0.06120000  1.0 0.0220256494
I  I18  1  0.18400000  0.90900000  0.95290000  1.0 -0.0313212593
I  I19  1  0.26040000  0.20160000  0.88500000  1.0 -0.00714239
I  I20  1  0.27280000  0.03100000  0.81090000  1.0 -0.1595900899
I  I21  1  0.15143000  0.85997000  0.24210000  1.0 -0.0984093915
I  I22  1  0.21295000  0.01985000  0.35750000  1.0 -0.00714239
I  I23  1  0.41942000  0.88118000  0.46040000  1.0 -0.0418951146
I  I24  1  0.61147000  0.86353000  0.55680000  1.0 -0.1440072321
I  I25  1  0.51687000  0.56575000  0.61304000  1.0 -0.448369145
I  I26  1  0.51632000  0.74838000  0.68962000  1.0 -0.448369145
I  I27  1  0.93400000  0.64224000  0.73853000  1.0 -0.4410205007
I  I28  1  0.75342000  0.54762000  0.85019000  1.0 -0.4692746322
I  I29  1  0.88783000  0.35391000  0.95604000  1.0 -0.0418951146
I  I30  1  0.91483000  0.16821000  0.05332000  1.0 -0.00714239
I  I31  1  0.21400000  0.25540000  0.11223000  1.0 -0.00714239
I  I32  1  0.02579000  0.25381000  0.18962000  1.0 -0.1176355551
I  I33  1  0.11840000  0.82240000  0.23360000  1.0 -0.0479323897
I  I34  1  0.23564000  0.01804000  0.34230000  1.0 -0.0418951146
I  I35  1  0.42430000  0.89570000  0.44770000  1.0 -0.0188345497
I  I36  1  0.59720000  0.85480000  0.54840000  1.0 -0.1689621299
I  I37  1  0.86180000  0.34800000  0.93880000  1.0 0.0220256494
I  I38  1  0.90900000  0.18400000  0.04710000  1.0 -0.0313212593
I  I39  1  0.20160000  0.26040000  0.11500000  1.0 -0.00714239
I  I40  1  0.03100000  0.27280000  0.18910000  1.0 -0.1595900899
N  N1  1  0.81320000  0.97400000  0.69270000  1.0 -0.2192764353
N  N2  1  0.42980000  0.30080000  0.80220000  1.0 -0.1886264641
N  N3  1  0.86660000  0.58860000  0.57150000  1.0 -0.1804234183
N  N4  1  0.67020000  0.63140000  0.72360000  1.0 -0.4196332587
N  N5  1  0.67420000  0.52980000  0.68920000  1.0 -0.4196332587
N  N6  1  0.77270000  0.69970000  0.66350000  1.0 -0.4196332587
N  N7  1  0.07040000  0.70120000  0.53080000  1.0 -0.1886264641
N  N8  1  0.75480000  0.09060000  0.64350000  1.0 -0.2078315537
N  N9  1  0.56670000  0.32470000  0.39200000  1.0 -0.1804234183
N  N10  1  0.43820000  0.96820000  0.56130000  1.0 -0.4302914494
N  N11  1  0.56290000  0.11870000  0.52210000  1.0 -0.4196332587
N  N12  1  0.39500000  0.03080000  0.50070000  1.0 -0.4196332587
N  N13  1  0.47970000  0.35050000  0.29990000  1.0 -0.2078315537
N  N14  1  0.19100000  0.91260000  0.07030000  1.0 -0.1986471113
N  N15  1  0.79880000  0.95740000  0.19130000  1.0 -0.1986471113
N  N16  1  0.24240000  0.09760000  0.18910000  1.0 -0.4196332587
N  N17  1  0.07730000  0.00330000  0.16300000  1.0 -0.4302914494
N  N18  1  0.14350000  0.10290000  0.22210000  1.0 -0.4302914494
N  N19  1  0.68380000  0.01920000  0.14280000  1.0 -0.2078315537
N  N20  1  0.07520000  0.70660000  0.02990000  1.0 -0.2192764353
N  N21  1  0.45060000  0.21000000  0.89350000  1.0 -0.1689621299
N  N22  1  0.80680000  0.33800000  0.06300000  1.0 -0.4302914494
N  N23  1  0.74240000  0.38040000  0.00200000  1.0 -0.4410205007
N  N24  1  0.65360000  0.21280000  0.02350000  1.0 -0.4410205007
N  N25  1  0.97400000  0.81320000  0.30730000  1.0 -0.2192764353
N  N26  1  0.30080000  0.42980000  0.19780000  1.0 -0.1886264641
N  N27  1  0.58860000  0.86660000  0.42850000  1.0 -0.1804234183
N  N28  1  0.63140000  0.67020000  0.27640000  1.0 -0.4196332587
N  N29  1  0.52980000  0.67420000  0.31080000  1.0 -0.4196332587
N  N30  1  0.69970000  0.77270000  0.33650000  1.0 -0.4196332587
N  N31  1  0.70120000  0.07040000  0.46920000  1.0 -0.1886264641
N  N32  1  0.09060000  0.75480000  0.35650000  1.0 -0.2078315537
N  N33  1  0.32470000  0.56670000  0.60800000  1.0 -0.1804234183
N  N34  1  0.96820000  0.43820000  0.43870000  1.0 -0.4302914494
N  N35  1  0.11870000  0.56290000  0.47790000  1.0 -0.4196332587
N  N36  1  0.03080000  0.39500000  0.49930000  1.0 -0.4196332587
N  N37  1  0.35050000  0.47970000  0.70010000  1.0 -0.2078315537
N  N38  1  0.91260000  0.19100000  0.92970000  1.0 -0.1986471113
N  N39  1  0.95740000  0.79880000  0.80870000  1.0 -0.1986471113
N  N40  1  0.09760000  0.24240000  0.81090000  1.0 -0.4302914494
N  N41  1  0.00330000  0.07730000  0.83700000  1.0 -0.4302914494
N  N42  1  0.10290000  0.14350000  0.77790000  1.0 -0.4302914494
N  N43  1  0.01920000  0.68380000  0.85720000  1.0 -0.2078315537
N  N44  1  0.70660000  0.07520000  0.97010000  1.0 -0.2192764353
N  N45  1  0.21000000  0.45060000  0.10650000  1.0 -0.1689621299
N  N46  1  0.33800000  0.80680000  0.93700000  1.0 -0.4302914494
N  N47  1  0.38040000  0.74240000  0.99800000  1.0 -0.4410205007
N  N48  1  0.21280000  0.65360000  0.97650000  1.0 -0.4410205007
