# DDEC6 charges by PACMAN v1.1 (https://github.com/mtap-research/PACMAN-charge/)
data_CARLEP_FSR_pacman
_symmetry_space_group_name_H-M   'P 1'
_cell_length_a   19.22260000
_cell_length_b   19.22260000
_cell_length_c   30.65300000
_cell_angle_alpha   79.90130000
_cell_angle_beta   100.09900000
_cell_angle_gamma   134.76600000
_symmetry_Int_Tables_number   1
_chemical_formula_structural   Zn3H24C36(I5N6)2
_chemical_formula_sum   'Zn12 H96 C144 I40 N48'
_cell_volume   7895.29806436
_cell_formula_units_Z   4
loop_
 _symmetry_equiv_pos_site_id
 _symmetry_equiv_pos_as_xyz
  1  'x, y, z'
loop_
 _atom_site_type_symbol
 _atom_site_label
 _atom_site_symmetry_multiplicity
 _atom_site_fract_x
 _atom_site_fract_y
 _atom_site_fract_z
 _atom_site_occupancy
 _atom_site_charge
Zn  Zn1  1  0.68503000  0.03151000  0.97270000  1.0 0.3386217737
Zn  Zn2  1  0.22398000  0.97912000  0.81562000  1.0 0.3691505358
Zn  Zn3  1  0.28899000  0.44739000  0.64888000  1.0 0.3594704671
Zn  Zn4  1  0.96773000  0.31229000  0.47333000  1.0 0.4429300778
Zn  Zn5  1  0.55140000  0.71020000  0.14852000  1.0 0.4523389542
Zn  Zn6  1  0.01622000  0.77358000  0.31729000  1.0 0.3594704671
Zn  Zn7  1  0.03151000  0.68503000  0.02730000  1.0 0.3325342738
Zn  Zn8  1  0.97912000  0.22398000  0.18438000  1.0 0.3691505358
Zn  Zn9  1  0.44739000  0.28899000  0.35112000  1.0 0.3594704671
Zn  Zn10  1  0.31229000  0.96773000  0.52667000  1.0 0.4429300778
Zn  Zn11  1  0.71020000  0.55140000  0.85148000  1.0 0.4523389542
Zn  Zn12  1  0.77358000  0.01622000  0.68271000  1.0 0.3594704671
H  H1  1  0.08670000  0.76150000  0.82560000  1.0 0.1001585708
H  H2  1  0.06460000  0.63940000  0.86790000  1.0 0.1383563985
H  H3  1  0.29160000  0.83800000  0.95050000  1.0 0.1001585708
H  H4  1  0.31380000  0.95960000  0.90320000  1.0 0.0695155291
H  H5  1  0.51760000  0.81820000  0.08020000  1.0 0.1001585708
H  H6  1  0.38490000  0.77590000  0.02670000  1.0 0.1195092006
H  H7  1  0.21070000  0.48990000  0.06940000  1.0 0.1111882922
H  H8  1  0.34460000  0.54140000  0.12610000  1.0 0.0786119942
H  H9  1  0.88270000  0.16130000  0.00640000  1.0 0.0786119942
H  H10  1  0.03710000  0.32410000  0.00000000  1.0 0.129645034
H  H11  1  0.88380000  0.38520000  0.92560000  1.0 0.1383563985
H  H12  1  0.75490000  0.22550000  0.92950000  1.0 0.0898069949
H  H13  1  0.57720000  0.92540000  0.88340000  1.0 0.1001585708
H  H14  1  0.57860000  0.85380000  0.83830000  1.0 0.129645034
H  H15  1  0.81780000  0.92920000  0.90960000  1.0 0.129645034
H  H16  1  0.81350000  0.00910000  0.95280000  1.0 0.1001585708
H  H17  1  0.07740000  0.92120000  0.87580000  1.0 0.1111882922
H  H18  1  0.95110000  0.89750000  0.87420000  1.0 0.1383563985
H  H19  1  0.89890000  0.85650000  0.74120000  1.0 0.129645034
H  H20  1  0.05050000  0.90650000  0.74520000  1.0 0.0898069949
H  H21  1  0.49370000  0.53010000  0.67420000  1.0 0.0786119942
H  H22  1  0.63710000  0.65410000  0.72000000  1.0 0.129645034
H  H23  1  0.47880000  0.67120000  0.77570000  1.0 0.1383563985
H  H24  1  0.32600000  0.51680000  0.73920000  1.0 0.0898069949
H  H25  1  0.46510000  0.65330000  0.61320000  1.0 0.0898069949
H  H26  1  0.50080000  0.76240000  0.55710000  1.0 0.1195092006
H  H27  1  0.21300000  0.59460000  0.52360000  1.0 0.129645034
H  H28  1  0.18540000  0.49500000  0.58300000  1.0 0.1111882922
H  H29  1  0.03470000  0.68150000  0.40520000  1.0 0.0786119942
H  H30  1  0.16030000  0.70410000  0.45160000  1.0 0.1195092006
H  H31  1  0.36300000  0.94560000  0.37120000  1.0 0.129645034
H  H32  1  0.23140000  0.90640000  0.32220000  1.0 0.0898069949
H  H33  1  0.77250000  0.24730000  0.42730000  1.0 0.1001585708
H  H34  1  0.60010000  0.09990000  0.42570000  1.0 0.1383563985
H  H35  1  0.66150000  0.95810000  0.50560000  1.0 0.1195092006
H  H36  1  0.82830000  0.09430000  0.49750000  1.0 0.1001585708
H  H37  1  0.07160000  0.42280000  0.38980000  1.0 0.1001585708
H  H38  1  0.14840000  0.41360000  0.33780000  1.0 0.129645034
H  H39  1  0.05840000  0.16740000  0.40810000  1.0 0.129645034
H  H40  1  0.00830000  0.19550000  0.46190000  1.0 0.1001585708
H  H41  1  0.45170000  0.49210000  0.17030000  1.0 0.1111882922
H  H42  1  0.34850000  0.36290000  0.21720000  1.0 0.1383563985
H  H43  1  0.36360000  0.54240000  0.28210000  1.0 0.1383563985
H  H44  1  0.43370000  0.65050000  0.22000000  1.0 0.1001585708
H  H45  1  0.05280000  0.89980000  0.37380000  1.0 0.0786119942
H  H46  1  0.12120000  0.06800000  0.37210000  1.0 0.129645034
H  H47  1  0.13320000  0.08920000  0.24160000  1.0 0.1383563985
H  H48  1  0.08390000  0.94130000  0.24680000  1.0 0.0898069949
H  H49  1  0.76150000  0.08670000  0.17440000  1.0 0.1001585708
H  H50  1  0.63940000  0.06460000  0.13210000  1.0 0.1383563985
H  H51  1  0.83800000  0.29160000  0.04950000  1.0 0.1001585708
H  H52  1  0.95960000  0.31380000  0.09680000  1.0 0.0695155291
H  H53  1  0.81820000  0.51760000  0.91980000  1.0 0.1001585708
H  H54  1  0.77590000  0.38490000  0.97330000  1.0 0.1195092006
H  H55  1  0.48990000  0.21070000  0.93060000  1.0 0.1111882922
H  H56  1  0.54140000  0.34460000  0.87390000  1.0 0.0786119942
H  H57  1  0.16130000  0.88270000  0.99360000  1.0 0.0786119942
H  H58  1  0.32410000  0.03710000  0.00000000  1.0 0.129645034
H  H59  1  0.38520000  0.88380000  0.07440000  1.0 0.1383563985
H  H60  1  0.22550000  0.75490000  0.07050000  1.0 0.0898069949
H  H61  1  0.92540000  0.57720000  0.11660000  1.0 0.1001585708
H  H62  1  0.85380000  0.57860000  0.16170000  1.0 0.129645034
H  H63  1  0.92920000  0.81780000  0.09040000  1.0 0.129645034
H  H64  1  0.00910000  0.81350000  0.04720000  1.0 0.1001585708
H  H65  1  0.92120000  0.07740000  0.12420000  1.0 0.1111882922
H  H66  1  0.89750000  0.95110000  0.12580000  1.0 0.1383563985
H  H67  1  0.85650000  0.89890000  0.25880000  1.0 0.129645034
H  H68  1  0.90650000  0.05050000  0.25480000  1.0 0.0898069949
H  H69  1  0.53010000  0.49370000  0.32580000  1.0 0.0786119942
H  H70  1  0.65410000  0.63710000  0.28000000  1.0 0.129645034
H  H71  1  0.67120000  0.47880000  0.22430000  1.0 0.1383563985
H  H72  1  0.51680000  0.32600000  0.26080000  1.0 0.0898069949
H  H73  1  0.65330000  0.46510000  0.38680000  1.0 0.0898069949
H  H74  1  0.76240000  0.50080000  0.44290000  1.0 0.1195092006
H  H75  1  0.59460000  0.21300000  0.47640000  1.0 0.129645034
H  H76  1  0.49500000  0.18540000  0.41700000  1.0 0.1111882922
H  H77  1  0.68150000  0.03470000  0.59480000  1.0 0.0786119942
H  H78  1  0.70410000  0.16030000  0.54840000  1.0 0.1195092006
H  H79  1  0.94560000  0.36300000  0.62880000  1.0 0.129645034
H  H80  1  0.90640000  0.23140000  0.67780000  1.0 0.0898069949
H  H81  1  0.24730000  0.77250000  0.57270000  1.0 0.1001585708
H  H82  1  0.09990000  0.60010000  0.57430000  1.0 0.1383563985
H  H83  1  0.95810000  0.66150000  0.49440000  1.0 0.1195092006
H  H84  1  0.09430000  0.82830000  0.50250000  1.0 0.1001585708
H  H85  1  0.42280000  0.07160000  0.61020000  1.0 0.1001585708
H  H86  1  0.41360000  0.14840000  0.66220000  1.0 0.129645034
H  H87  1  0.16740000  0.05840000  0.59190000  1.0 0.129645034
H  H88  1  0.19550000  0.00830000  0.53810000  1.0 0.1001585708
H  H89  1  0.49210000  0.45170000  0.82970000  1.0 0.1111882922
H  H90  1  0.36290000  0.34850000  0.78280000  1.0 0.1383563985
H  H91  1  0.54240000  0.36360000  0.71790000  1.0 0.1383563985
H  H92  1  0.65050000  0.43370000  0.78000000  1.0 0.1001585708
H  H93  1  0.89980000  0.05280000  0.62620000  1.0 0.0786119942
H  H94  1  0.06800000  0.12120000  0.62790000  1.0 0.129645034
H  H95  1  0.08920000  0.13320000  0.75840000  1.0 0.1383563985
H  H96  1  0.94130000  0.08390000  0.75320000  1.0 0.0898069949
C  C1  1  0.13040000  0.77760000  0.85120000  1.0 0.0695155291
C  C2  1  0.11540000  0.70460000  0.87680000  1.0 -0.1394261282
C  C3  1  0.16950000  0.72150000  0.91430000  1.0 0.0484189949
C  C4  1  0.24870000  0.82130000  0.92460000  1.0 -0.1705597213
C  C5  1  0.26150000  0.89310000  0.89610000  1.0 0.0603919101
C  C6  1  0.45680000  0.75200000  0.07730000  1.0 0.0786119942
C  C7  1  0.37620000  0.72420000  0.04380000  1.0 -0.1165182761
C  C8  1  0.29660000  0.63660000  0.03650000  1.0 0.0603919101
C  C9  1  0.27280000  0.55600000  0.06990000  1.0 -0.1920575521
C  C10  1  0.35500000  0.58840000  0.10370000  1.0 0.1195092006
C  C11  1  0.88740000  0.20940000  0.98780000  1.0 0.0898069949
C  C12  1  0.97920000  0.30820000  0.98660000  1.0 -0.1499838829
C  C13  1  0.98470000  0.38630000  0.96440000  1.0 0.0191674118
C  C14  1  0.89080000  0.34360000  0.94230000  1.0 -0.1807815926
C  C15  1  0.81450000  0.24810000  0.94480000  1.0 0.0695155291
C  C16  1  0.15810000  0.64350000  0.94350000  1.0 0.3691505358
C  C17  1  0.21500000  0.60260000  0.00170000  1.0 0.3691505358
C  C18  1  0.06870000  0.48430000  0.96500000  1.0 0.2765930199
C  C19  1  0.62770000  0.92570000  0.88850000  1.0 0.0124087675
C  C20  1  0.62910000  0.88590000  0.86160000  1.0 -0.1394261282
C  C21  1  0.70650000  0.88690000  0.86480000  1.0 0.0257618257
C  C22  1  0.76850000  0.93030000  0.90240000  1.0 -0.1600058119
C  C23  1  0.76340000  0.97420000  0.92960000  1.0 0.0786119942
C  C24  1  0.04300000  0.91360000  0.84780000  1.0 0.0405021279
C  C25  1  0.96850000  0.89530000  0.84770000  1.0 -0.1499838829
C  C26  1  0.90520000  0.87000000  0.80680000  1.0 0.0695155291
C  C27  1  0.93780000  0.87360000  0.76870000  1.0 -0.1600058119
C  C28  1  0.02670000  0.90210000  0.77120000  1.0 0.0484189949
C  C29  1  0.48830000  0.55830000  0.69430000  1.0 0.0695155291
C  C30  1  0.57570000  0.63230000  0.72260000  1.0 -0.1600058119
C  C31  1  0.56600000  0.66820000  0.75230000  1.0 0.0603919101
C  C32  1  0.48240000  0.63960000  0.75690000  1.0 -0.1312977236
C  C33  1  0.38990000  0.55270000  0.73090000  1.0 0.0786119942
C  C34  1  0.71720000  0.84720000  0.83570000  1.0 0.2715413326
C  C35  1  0.81040000  0.84160000  0.80600000  1.0 0.3386217737
C  C36  1  0.65380000  0.74840000  0.78280000  1.0 0.3386217737
C  C37  1  0.41300000  0.64300000  0.59550000  1.0 0.0034851613
C  C38  1  0.43370000  0.70830000  0.56290000  1.0 -0.1165182761
C  C39  1  0.36990000  0.70390000  0.53860000  1.0 0.0484189949
C  C40  1  0.26550000  0.61030000  0.54350000  1.0 -0.1705597213
C  C41  1  0.25220000  0.55160000  0.57760000  1.0 0.0786119942
C  C42  1  0.10120000  0.73320000  0.39800000  1.0 0.0484189949
C  C43  1  0.17630000  0.74690000  0.42570000  1.0 -0.1312977236
C  C44  1  0.26970000  0.81950000  0.41580000  1.0 0.0484189949
C  C45  1  0.29640000  0.88940000  0.37710000  1.0 -0.1499838829
C  C46  1  0.21790000  0.86790000  0.34950000  1.0 0.0898069949
C  C47  1  0.75060000  0.18780000  0.44250000  1.0 0.0786119942
C  C48  1  0.64770000  0.10030000  0.44130000  1.0 -0.1394261282
C  C49  1  0.62180000  0.01840000  0.46340000  1.0 0.0603919101
C  C50  1  0.68400000  0.01520000  0.48740000  1.0 -0.1499838829
C  C51  1  0.78230000  0.09830000  0.48490000  1.0 0.0603919101
C  C52  1  0.39110000  0.77730000  0.50330000  1.0 0.3495603853
C  C53  1  0.34900000  0.83560000  0.44630000  1.0 0.3691505358
C  C54  1  0.50830000  0.92210000  0.46660000  1.0 0.3828275108
C  C55  1  0.06930000  0.37110000  0.39380000  1.0 0.1195092006
C  C56  1  0.11590000  0.36570000  0.36210000  1.0 -0.1499838829
C  C57  1  0.11020000  0.29280000  0.36900000  1.0 0.0603919101
C  C58  1  0.06480000  0.22180000  0.40470000  1.0 -0.1394261282
C  C59  1  0.03000000  0.23560000  0.43480000  1.0 0.0603919101
C  C60  1  0.42910000  0.49850000  0.19300000  1.0 0.0191674118
C  C61  1  0.36750000  0.42330000  0.21930000  1.0 -0.1600058119
C  C62  1  0.32780000  0.43040000  0.25150000  1.0 0.0405021279
C  C63  1  0.37150000  0.52710000  0.25670000  1.0 -0.1807815926
C  C64  1  0.42430000  0.59430000  0.22370000  1.0 0.0898069949
C  C65  1  0.07250000  0.94010000  0.34680000  1.0 0.0898069949
C  C66  1  0.10980000  0.04100000  0.34560000  1.0 -0.1312977236
C  C67  1  0.12600000  0.09000000  0.30650000  1.0 0.0484189949
C  C68  1  0.11810000  0.05290000  0.26960000  1.0 -0.1499838829
C  C69  1  0.08900000  0.96460000  0.27320000  1.0 0.0695155291
C  C70  1  0.15270000  0.28270000  0.33460000  1.0 0.3495603853
C  C71  1  0.25360000  0.34620000  0.27870000  1.0 0.3123176449
C  C72  1  0.15670000  0.18530000  0.30540000  1.0 0.3594704671
C  C73  1  0.77760000  0.13040000  0.14880000  1.0 0.0695155291
C  C74  1  0.70460000  0.11540000  0.12320000  1.0 -0.1394261282
C  C75  1  0.72150000  0.16950000  0.08570000  1.0 0.0484189949
C  C76  1  0.82130000  0.24870000  0.07540000  1.0 -0.1705597213
C  C77  1  0.89310000  0.26150000  0.10390000  1.0 0.0603919101
C  C78  1  0.75200000  0.45680000  0.92270000  1.0 0.0786119942
C  C79  1  0.72420000  0.37620000  0.95620000  1.0 -0.1165182761
C  C80  1  0.63660000  0.29660000  0.96350000  1.0 0.0603919101
C  C81  1  0.55600000  0.27280000  0.93010000  1.0 -0.1920575521
C  C82  1  0.58840000  0.35500000  0.89630000  1.0 0.1195092006
C  C83  1  0.20940000  0.88740000  0.01220000  1.0 0.0898069949
C  C84  1  0.30820000  0.97920000  0.01340000  1.0 -0.1499838829
C  C85  1  0.38630000  0.98470000  0.03560000  1.0 0.0191674118
C  C86  1  0.34360000  0.89080000  0.05770000  1.0 -0.1807815926
C  C87  1  0.24810000  0.81450000  0.05520000  1.0 0.0695155291
C  C88  1  0.64350000  0.15810000  0.05650000  1.0 0.3691505358
C  C89  1  0.60260000  0.21500000  0.99830000  1.0 0.3691505358
C  C90  1  0.48430000  0.06870000  0.03500000  1.0 0.2765930199
C  C91  1  0.92570000  0.62770000  0.11150000  1.0 0.0124087675
C  C92  1  0.88590000  0.62910000  0.13840000  1.0 -0.1394261282
C  C93  1  0.88690000  0.70650000  0.13520000  1.0 0.0257618257
C  C94  1  0.93030000  0.76850000  0.09760000  1.0 -0.1600058119
C  C95  1  0.97420000  0.76340000  0.07040000  1.0 0.0786119942
C  C96  1  0.91360000  0.04300000  0.15220000  1.0 0.0405021279
C  C97  1  0.89530000  0.96850000  0.15230000  1.0 -0.1499838829
C  C98  1  0.87000000  0.90520000  0.19320000  1.0 0.0695155291
C  C99  1  0.87360000  0.93780000  0.23130000  1.0 -0.1600058119
C  C100  1  0.90210000  0.02670000  0.22880000  1.0 0.0484189949
C  C101  1  0.55830000  0.48830000  0.30570000  1.0 0.0695155291
C  C102  1  0.63230000  0.57570000  0.27740000  1.0 -0.1600058119
C  C103  1  0.66820000  0.56600000  0.24770000  1.0 0.0603919101
C  C104  1  0.63960000  0.48240000  0.24310000  1.0 -0.1312977236
C  C105  1  0.55270000  0.38990000  0.26910000  1.0 0.0786119942
C  C106  1  0.84720000  0.71720000  0.16430000  1.0 0.2715413326
C  C107  1  0.84160000  0.81040000  0.19400000  1.0 0.3386217737
C  C108  1  0.74840000  0.65380000  0.21720000  1.0 0.3386217737
C  C109  1  0.64300000  0.41300000  0.40450000  1.0 0.0034851613
C  C110  1  0.70830000  0.43370000  0.43710000  1.0 -0.1165182761
C  C111  1  0.70390000  0.36990000  0.46140000  1.0 0.0484189949
C  C112  1  0.61030000  0.26550000  0.45650000  1.0 -0.1705597213
C  C113  1  0.55160000  0.25220000  0.42240000  1.0 0.0786119942
C  C114  1  0.73320000  0.10120000  0.60200000  1.0 0.0484189949
C  C115  1  0.74690000  0.17630000  0.57430000  1.0 -0.1312977236
C  C116  1  0.81950000  0.26970000  0.58420000  1.0 0.0484189949
C  C117  1  0.88940000  0.29640000  0.62290000  1.0 -0.1499838829
C  C118  1  0.86790000  0.21790000  0.65050000  1.0 0.0898069949
C  C119  1  0.18780000  0.75060000  0.55750000  1.0 0.0786119942
C  C120  1  0.10030000  0.64770000  0.55870000  1.0 -0.1394261282
C  C121  1  0.01840000  0.62180000  0.53660000  1.0 0.0603919101
C  C122  1  0.01520000  0.68400000  0.51260000  1.0 -0.1499838829
C  C123  1  0.09830000  0.78230000  0.51510000  1.0 0.0603919101
C  C124  1  0.77730000  0.39110000  0.49670000  1.0 0.3495603853
C  C125  1  0.83560000  0.34900000  0.55370000  1.0 0.3691505358
C  C126  1  0.92210000  0.50830000  0.53340000  1.0 0.3828275108
C  C127  1  0.37110000  0.06930000  0.60620000  1.0 0.1195092006
C  C128  1  0.36570000  0.11590000  0.63790000  1.0 -0.1499838829
C  C129  1  0.29280000  0.11020000  0.63100000  1.0 0.0603919101
C  C130  1  0.22180000  0.06480000  0.59530000  1.0 -0.1312977236
C  C131  1  0.23560000  0.03000000  0.56520000  1.0 0.0603919101
C  C132  1  0.49850000  0.42910000  0.80700000  1.0 0.0191674118
C  C133  1  0.42330000  0.36750000  0.78070000  1.0 -0.1600058119
C  C134  1  0.43040000  0.32780000  0.74850000  1.0 0.0405021279
C  C135  1  0.52710000  0.37150000  0.74330000  1.0 -0.1807815926
C  C136  1  0.59430000  0.42430000  0.77630000  1.0 0.0898069949
C  C137  1  0.94010000  0.07250000  0.65320000  1.0 0.0898069949
C  C138  1  0.04100000  0.10980000  0.65440000  1.0 -0.1312977236
C  C139  1  0.09000000  0.12600000  0.69350000  1.0 0.0484189949
C  C140  1  0.05290000  0.11810000  0.73040000  1.0 -0.1499838829
C  C141  1  0.96460000  0.08900000  0.72680000  1.0 0.0695155291
C  C142  1  0.28270000  0.15270000  0.66540000  1.0 0.3495603853
C  C143  1  0.34620000  0.25360000  0.72130000  1.0 0.3123176449
C  C144  1  0.18530000  0.15670000  0.69460000  1.0 0.3594704671
I  I1  1  0.52977000  0.99383000  0.95158000  1.0 -0.0077280599
I  I2  1  0.72194000  0.97446000  0.04810000  1.0 -0.355193714
I  I3  1  0.31995000  0.13665000  0.86530000  1.0 0.0603919101
I  I4  1  0.27865000  0.99555000  0.74920000  1.0 -0.0398782271
I  I5  1  0.13295000  0.36485000  0.68319000  1.0 -0.3479922609
I  I6  1  0.31089000  0.35991000  0.60653000  1.0 -0.0722421951
I  I7  1  0.99840000  0.46534000  0.45162000  1.0 -0.438671822
I  I8  1  0.02126000  0.27750000  0.54894000  1.0 -0.4494232333
I  I9  1  0.63102000  0.86246000  0.18474000  1.0 -0.3989083267
I  I10  1  0.63452000  0.68466000  0.10796000  1.0 -0.4086560077
I  I11  1  0.00160000  0.71700000  0.25250000  1.0 -0.0466448723
I  I12  1  0.85900000  0.67460000  0.36920000  1.0 0.0484189949
I  I13  1  0.53620000  0.01440000  0.94680000  1.0 -0.0193180535
I  I14  1  0.70820000  0.97420000  0.04800000  1.0 -0.3269147075
I  I15  1  0.34070000  0.13350000  0.84800000  1.0 0.0034851613
I  I16  1  0.23828000  0.94912000  0.73646000  1.0 -0.0024314263
I  I17  1  0.14120000  0.37580000  0.68940000  1.0 -0.3794122494
I  I18  1  0.32540000  0.37280000  0.61410000  1.0 -0.0193180535
I  I19  1  0.03957000  0.74943000  0.23960000  1.0 -0.0077280599
I  I20  1  0.86460000  0.66820000  0.35110000  1.0 -0.0077280599
I  I21  1  0.99383000  0.52977000  0.04842000  1.0 -0.0077280599
I  I22  1  0.97446000  0.72194000  0.95190000  1.0 -0.3479922609
I  I23  1  0.13665000  0.31995000  0.13470000  1.0 0.0484189949
I  I24  1  0.99555000  0.27865000  0.25080000  1.0 -0.0466448723
I  I25  1  0.36485000  0.13295000  0.31681000  1.0 -0.3479922609
I  I26  1  0.35991000  0.31089000  0.39347000  1.0 -0.0722421951
I  I27  1  0.46534000  0.99840000  0.54838000  1.0 -0.438671822
I  I28  1  0.27750000  0.02126000  0.45106000  1.0 -0.4494232333
I  I29  1  0.86246000  0.63102000  0.81526000  1.0 -0.3989083267
I  I30  1  0.68466000  0.63452000  0.89204000  1.0 -0.4086560077
I  I31  1  0.71700000  0.00160000  0.74750000  1.0 -0.0466448723
I  I32  1  0.67460000  0.85900000  0.63080000  1.0 0.0603919101
I  I33  1  0.01440000  0.53620000  0.05320000  1.0 -0.0193180535
I  I34  1  0.97420000  0.70820000  0.95200000  1.0 -0.3223557866
I  I35  1  0.13350000  0.34070000  0.15200000  1.0 0.0034851613
I  I36  1  0.94912000  0.23828000  0.26354000  1.0 -0.0024314263
I  I37  1  0.37580000  0.14120000  0.31060000  1.0 -0.3794122494
I  I38  1  0.37280000  0.32540000  0.38590000  1.0 -0.0193180535
I  I39  1  0.74943000  0.03957000  0.76040000  1.0 -0.0193180535
I  I40  1  0.66820000  0.86460000  0.64890000  1.0 -0.0077280599
N  N1  1  0.20500000  0.87380000  0.85990000  1.0 -0.1988074399
N  N2  1  0.43670000  0.67450000  0.10390000  1.0 -0.1499838829
N  N3  1  0.81130000  0.18250000  0.96520000  1.0 -0.1705597213
N  N4  1  0.22960000  0.67640000  0.97690000  1.0 -0.427458728
N  N5  1  0.14160000  0.50900000  0.99740000  1.0 -0.4086560077
N  N6  1  0.07800000  0.55260000  0.93910000  1.0 -0.3794122494
N  N7  1  0.69250000  0.97070000  0.92520000  1.0 -0.1807815926
N  N8  1  0.08170000  0.92430000  0.81110000  1.0 -0.2304679102
N  N9  1  0.40260000  0.52920000  0.69550000  1.0 -0.1920575521
N  N10  1  0.79950000  0.87650000  0.83440000  1.0 -0.3737198031
N  N11  1  0.74150000  0.77750000  0.77680000  1.0 -0.4189697898
N  N12  1  0.63360000  0.77380000  0.80930000  1.0 -0.3737198031
N  N13  1  0.31560000  0.55860000  0.60490000  1.0 -0.1705597213
N  N14  1  0.12580000  0.79600000  0.36010000  1.0 -0.1988074399
N  N15  1  0.81720000  0.18640000  0.46520000  1.0 -0.1988074399
N  N16  1  0.32150000  0.76710000  0.47810000  1.0 -0.3737198031
N  N17  1  0.44550000  0.91950000  0.43690000  1.0 -0.4086560077
N  N18  1  0.49130000  0.85770000  0.49830000  1.0 -0.3989083267
N  N19  1  0.02570000  0.30530000  0.42690000  1.0 -0.1920575521
N  N20  1  0.46250000  0.58790000  0.19730000  1.0 -0.1988074399
N  N21  1  0.06710000  0.90830000  0.31030000  1.0 -0.1988074399
N  N22  1  0.21420000  0.35780000  0.30900000  1.0 -0.4086560077
N  N23  1  0.22330000  0.26150000  0.27660000  1.0 -0.4086560077
N  N24  1  0.11740000  0.18820000  0.33720000  1.0 -0.4494232333
N  N25  1  0.87380000  0.20500000  0.14010000  1.0 -0.1988074399
N  N26  1  0.67450000  0.43670000  0.89610000  1.0 -0.1499838829
N  N27  1  0.18250000  0.81130000  0.03480000  1.0 -0.1705597213
N  N28  1  0.67640000  0.22960000  0.02310000  1.0 -0.427458728
N  N29  1  0.50900000  0.14160000  0.00260000  1.0 -0.4086560077
N  N30  1  0.55260000  0.07800000  0.06090000  1.0 -0.3794122494
N  N31  1  0.97070000  0.69250000  0.07480000  1.0 -0.1807815926
N  N32  1  0.92430000  0.08170000  0.18890000  1.0 -0.2304679102
N  N33  1  0.52920000  0.40260000  0.30450000  1.0 -0.1920575521
N  N34  1  0.87650000  0.79950000  0.16560000  1.0 -0.3737198031
N  N35  1  0.77750000  0.74150000  0.22320000  1.0 -0.4189697898
N  N36  1  0.77380000  0.63360000  0.19070000  1.0 -0.3737198031
N  N37  1  0.55860000  0.31560000  0.39510000  1.0 -0.1705597213
N  N38  1  0.79600000  0.12580000  0.63990000  1.0 -0.1988074399
N  N39  1  0.18640000  0.81720000  0.53480000  1.0 -0.1988074399
N  N40  1  0.76710000  0.32150000  0.52190000  1.0 -0.3794122494
N  N41  1  0.91950000  0.44550000  0.56310000  1.0 -0.4086560077
N  N42  1  0.85770000  0.49130000  0.50170000  1.0 -0.3989083267
N  N43  1  0.30530000  0.02570000  0.57310000  1.0 -0.1920575521
N  N44  1  0.58790000  0.46250000  0.80270000  1.0 -0.1988074399
N  N45  1  0.90830000  0.06710000  0.68970000  1.0 -0.1988074399
N  N46  1  0.35780000  0.21420000  0.69100000  1.0 -0.4086560077
N  N47  1  0.26150000  0.22330000  0.72340000  1.0 -0.4086560077
N  N48  1  0.18820000  0.11740000  0.66280000  1.0 -0.4494232333
