# DDEC6 charges by PACMAN v1.1 (https://github.com/mtap-research/PACMAN-charge/)
data_CASWIE_ASR_pacman
_symmetry_space_group_name_H-M   'P 1'
_cell_length_a   15.26900000
_cell_length_b   15.26900000
_cell_length_c   10.33600000
_cell_angle_alpha   90.00000000
_cell_angle_beta   90.00000000
_cell_angle_gamma   120.00000000
_symmetry_Int_Tables_number   1
_chemical_formula_structural   AlZn3(PO2)9
_chemical_formula_sum   'Al2 Zn6 P18 O36'
_cell_volume   2086.91289490
_cell_formula_units_Z   2
loop_
 _symmetry_equiv_pos_site_id
 _symmetry_equiv_pos_as_xyz
  1  'x, y, z'
loop_
 _atom_site_type_symbol
 _atom_site_label
 _atom_site_symmetry_multiplicity
 _atom_site_fract_x
 _atom_site_fract_y
 _atom_site_fract_z
 _atom_site_occupancy
 _atom_site_charge
Al  Al1  1  0.33333333  0.66666667  0.77877000  1.0 1.6921353749
Al  Al2  1  0.66666667  0.33333333  0.27877000  1.0 1.6921353749
Zn  Zn1  1  0.08602000  0.54301000  0.99905000  1.0 1.0188168298
Zn  Zn2  1  0.45699000  0.54301000  0.99905000  1.0 1.0188168298
Zn  Zn3  1  0.45699000  0.91398000  0.99905000  1.0 1.0188168298
Zn  Zn4  1  0.91398000  0.45699000  0.49905000  1.0 1.0188168298
Zn  Zn5  1  0.54301000  0.45699000  0.49905000  1.0 1.0188168298
Zn  Zn6  1  0.54301000  0.08602000  0.49905000  1.0 1.0188168298
P  P1  1  0.23546000  0.47092000  0.98042000  1.0 1.3180398634
P  P2  1  0.52908000  0.76454000  0.98042000  1.0 1.3180398634
P  P3  1  0.23546000  0.76454000  0.98042000  1.0 1.3071874789
P  P4  1  0.76454000  0.52908000  0.48042000  1.0 1.3180398634
P  P5  1  0.47092000  0.23546000  0.48042000  1.0 1.3180398634
P  P6  1  0.76454000  0.23546000  0.48042000  1.0 1.3180398634
P  P7  1  0.10779000  0.52766000  0.68915000  1.0 0.3343472266
P  P8  1  0.47234000  0.58013000  0.68915000  1.0 0.3343472266
P  P9  1  0.41987000  0.89221000  0.68915000  1.0 0.3356438688
P  P10  1  0.89221000  0.47234000  0.18915000  1.0 0.3343472266
P  P11  1  0.52766000  0.41987000  0.18915000  1.0 0.3343472266
P  P12  1  0.58013000  0.10779000  0.18915000  1.0 0.3343472266
P  P13  1  0.47234000  0.89221000  0.68915000  1.0 0.3343472266
P  P14  1  0.41987000  0.52766000  0.68915000  1.0 0.3343472266
P  P15  1  0.10779000  0.58013000  0.68915000  1.0 0.3343472266
P  P16  1  0.52766000  0.10779000  0.18915000  1.0 0.3343472266
P  P17  1  0.58013000  0.47234000  0.18915000  1.0 0.3343472266
P  P18  1  0.89221000  0.41987000  0.18915000  1.0 0.3343472266
O  O1  1  0.05766000  0.52883000  0.81528000  1.0 -0.4420539676
O  O2  1  0.47117000  0.52883000  0.81528000  1.0 -0.4420539676
O  O3  1  0.47117000  0.94234000  0.81528000  1.0 -0.4420539676
O  O4  1  0.94234000  0.47117000  0.31528000  1.0 -0.4420539676
O  O5  1  0.52883000  0.47117000  0.31528000  1.0 -0.4420539676
O  O6  1  0.52883000  0.05766000  0.31528000  1.0 -0.4420539676
O  O7  1  0.04752000  0.52376000  0.57061000  1.0 -0.4122791677
O  O8  1  0.47624000  0.52376000  0.57061000  1.0 -0.4122791677
O  O9  1  0.47624000  0.95248000  0.57061000  1.0 -0.4122791677
O  O10  1  0.95248000  0.47624000  0.07061000  1.0 -0.4122791677
O  O11  1  0.52376000  0.47624000  0.07061000  1.0 -0.4122791677
O  O12  1  0.52376000  0.04752000  0.07061000  1.0 -0.4122791677
O  O13  1  0.21700000  0.60850000  0.67146000  1.0 -0.4691819189
O  O14  1  0.39150000  0.60850000  0.67146000  1.0 -0.4691819189
O  O15  1  0.39150000  0.78300000  0.67146000  1.0 -0.4691819189
O  O16  1  0.78300000  0.39150000  0.17146000  1.0 -0.4691819189
O  O17  1  0.60850000  0.39150000  0.17146000  1.0 -0.4691819189
O  O18  1  0.60850000  0.21700000  0.17146000  1.0 -0.4691819189
O  O19  1  0.15562000  0.47295000  0.06114000  1.0 -0.699554631
O  O20  1  0.52705000  0.68267000  0.06114000  1.0 -0.699554631
O  O21  1  0.31733000  0.84438000  0.06114000  1.0 -0.699554631
O  O22  1  0.84438000  0.52705000  0.56114000  1.0 -0.699554631
O  O23  1  0.47295000  0.31733000  0.56114000  1.0 -0.699554631
O  O24  1  0.68267000  0.15562000  0.56114000  1.0 -0.699554631
O  O25  1  0.52705000  0.84438000  0.06114000  1.0 -0.699554631
O  O26  1  0.31733000  0.47295000  0.06114000  1.0 -0.699554631
O  O27  1  0.15562000  0.68267000  0.06114000  1.0 -0.699554631
O  O28  1  0.47295000  0.15562000  0.56114000  1.0 -0.699554631
O  O29  1  0.68267000  0.52705000  0.56114000  1.0 -0.699554631
O  O30  1  0.84438000  0.31733000  0.56114000  1.0 -0.699554631
O  O31  1  0.27444000  0.54888000  0.87825000  1.0 -0.845681853
O  O32  1  0.45112000  0.72556000  0.87825000  1.0 -0.845681853
O  O33  1  0.27444000  0.72556000  0.87825000  1.0 -0.8438667246
O  O34  1  0.72556000  0.45112000  0.37825000  1.0 -0.845681853
O  O35  1  0.54888000  0.27444000  0.37825000  1.0 -0.845681853
O  O36  1  0.72556000  0.27444000  0.37825000  1.0 -0.845681853
