# DDEC6 charges by PACMAN v1.1 (https://github.com/mtap-research/PACMAN-charge/)
data_CATBUX_FSR_pacman
_chemical_formula_sum              "W2 Cu10 S6 B2 H44 N21 C39"
_cell_length_a       10.255
_cell_length_b       15.408
_cell_length_c       15.654
_cell_angle_alpha    71.9
_cell_angle_beta     70.88
_cell_angle_gamma    70.56

_symmetry_space_group_name_H-M    "P 1"
_symmetry_Int_Tables_number       1

loop_
  _symmetry_equiv_pos_as_xyz
  'x, y, z'

loop_
  _atom_site_type_symbol
  _atom_site_label
  _atom_site_symmetry_multiplicity
  _atom_site_fract_x
  _atom_site_fract_y
  _atom_site_fract_z
  _atom_site_occupancy
 _atom_site_charge
W   W1        1.0  0.11710  0.20959  0.49601  1.0000 0.9579046328
Cu  Cu1       1.0  0.18790  0.22936  0.31211  1.0000 0.2269509394
Cu  Cu2       1.0  0.91430  0.33241  0.41697  1.0000 0.2396039438
Cu  Cu3       1.0  0.18874  0.37034  0.40450  1.0000 0.2396039438
Cu  Cu4       1.0  0.40949  0.17185  0.99513  1.0000 0.3491191823
Cu  Cu5       1.0  0.47272  0.43704  0.72414  1.0000 0.5260117907
S   S1        1.0  0.33080  0.22787  0.39439  1.0000 -0.4298131954
S   S2        1.0  0.99890  0.18199  0.40800  1.0000 -0.4528774362
S   S3        1.0  0.99550  0.36047  0.51871  1.0000 -0.4298131954
B   B1        1.0  0.14010  0.04060  0.69250  1.0000 0.2891878966
H   H1        1.0  0.13900  0.98000  0.75800  1.0000 -0.1172635
N   N1        1.0  0.31020  0.20700  0.11330  1.0000 -0.3166740876
N   N2        1.0  0.44940  0.32810  0.82350  1.0000 -0.3100263517
N   N3        1.0  0.64320  0.48290  0.67980  1.0000 -0.3508284133
N   N4        1.0  0.32470  0.52690  0.66610  1.0000 -0.3646504026
N   N5        1.0  0.21050  0.11510  0.68790  1.0000 -0.0927316289
N   N6        1.0  0.21680  0.19130  0.61290  1.0000 -0.2110160332
N   N7        1.0  0.98310  0.08560  0.69330  1.0000 -0.0970763133
N   N8        1.0  0.94560  0.16010  0.62260  1.0000 -0.2030070986
N   N9        1.0  0.21400  0.99630  0.60900  1.0000 -0.0970763133
N   N10       1.0  0.22630  0.05200  0.52100  1.0000 -0.1939375814
N   N11       1.0  0.52010  0.96020  0.00220  1.0000 -0.0768285137
C   C1        1.0  0.25940  0.22090  0.18590  1.0000 0.005637135
C   C2        1.0  0.43190  0.26800  0.88790  1.0000 -0.057920758
C   C3        1.0  0.72000  0.52960  0.64940  1.0000 0.0472074259
C   C4        1.0  0.23580  0.58100  0.63370  1.0000 -0.0006122872
C   C5        1.0  0.27810  0.05010  0.83950  1.0000 -0.4703451771
H   H2        1.0  0.18460  0.04140  0.87220  1.0000 0.1602912483
H   H3        1.0  0.31260  0.07260  0.87650  1.0000 0.1602912483
H   H4        1.0  0.34190  0.99100  0.82760  1.0000 0.1602912483
C   C6        1.0  0.27100  0.12010  0.75020  1.0000 0.2700637751
C   C7        1.0  0.32010  0.19990  0.71380  1.0000 -0.3508284133
H   H5        1.0  0.36780  0.22150  0.74110  1.0000 0.1725149188
C   C8        1.0  0.28630  0.24240  0.63010  1.0000 0.2700637751
C   C9        1.0  0.32230  0.33040  0.56690  1.0000 -0.4703451771
H   H6        1.0  0.38690  0.31640  0.50980  1.0000 0.1602912483
H   H7        1.0  0.36670  0.35540  0.59580  1.0000 0.1602912483
H   H8        1.0  0.23660  0.37610  0.55430  1.0000 0.1602912483
C   C10       1.0  0.86890  0.99060  0.84340  1.0000 -0.4703451771
H   H9        1.0  0.92250  0.93140  0.82680  1.0000 0.1510946203
H   H10       1.0  0.77320  0.98720  0.87710  1.0000 0.1602912483
H   H11       1.0  0.91340  0.00360  0.88170  1.0000 0.1510946203
C   C11       1.0  0.86510  0.06720  0.75800  1.0000 0.2700637751
C   C12       1.0  0.74960  0.13240  0.72940  1.0000 -0.3508284133
H   H12       1.0  0.65410  0.13720  0.76060  1.0000 0.1753042597
C   C13       1.0  0.80130  0.18930  0.64610  1.0000 0.2801304568
C   C14       1.0  0.70880  0.26840  0.59090  1.0000 -0.4889442887
H   H13       1.0  0.72750  0.32710  0.58570  1.0000 0.1602912483
H   H14       1.0  0.61020  0.27110  0.62160  1.0000 0.1510946203
H   H15       1.0  0.72940  0.25770  0.53010  1.0000 0.1510946203
C   C15       1.0  0.28590  0.82660  0.69100  1.0000 -0.4703451771
H   H16       1.0  0.34210  0.83250  0.72630  1.0000 0.1510946203
H   H17       1.0  0.32690  0.76750  0.67230  1.0000 0.1602912483
H   H18       1.0  0.19020  0.82880  0.72850  1.0000 0.1510946203
C   C16       1.0  0.28340  0.90600  0.60690  1.0000 0.2891878966
C   C17       1.0  0.34400  0.90230  0.51580  1.0000 -0.3398946565
H   H19       1.0  0.39930  0.84860  0.49350  1.0000 0.1725149188
C   C18       1.0  0.30800  0.99280  0.46290  1.0000 0.2700637751
C   C19       1.0  0.35410  0.01880  0.36030  1.0000 -0.4889442887
H   H20       1.0  0.27250  0.03860  0.33510  1.0000 0.1602912483
H   H21       1.0  0.42060  0.96510  0.33770  1.0000 0.1510946203
H   H22       1.0  0.39930  0.06960  0.34140  1.0000 0.1602912483
C   C20       1.0  0.47990  0.03980  0.99780  1.0000 -0.3398946565
W   W2        1.0  0.88290  0.79041  0.50399  1.0000 0.9579046328
Cu  Cu6       1.0  0.81210  0.77064  0.68789  1.0000 0.2269509394
Cu  Cu7       1.0  0.08570  0.66759  0.58303  1.0000 0.2396039438
Cu  Cu8       1.0  0.81126  0.62966  0.59550  1.0000 0.2396039438
Cu  Cu9       1.0  0.59051  0.82815  0.00487  1.0000 0.2484089989
Cu  Cu10      1.0  0.52728  0.56296  0.27586  1.0000 0.5208046097
S   S4        1.0  0.66920  0.77213  0.60561  1.0000 -0.4298131954
S   S5        1.0  0.00110  0.81801  0.59200  1.0000 -0.4528774362
S   S6        1.0  0.00450  0.63953  0.48129  1.0000 -0.4298131954
B   B2        1.0  0.85990  0.95940  0.30750  1.0000 0.2891878966
H   H23       1.0  0.86100  0.02000  0.24200  1.0000 -0.1172635
N   N12       1.0  0.68980  0.79300  0.88670  1.0000 -0.3100263517
N   N13       1.0  0.55060  0.67190  0.17650  1.0000 -0.3166740876
N   N14       1.0  0.35680  0.51710  0.32020  1.0000 -0.3508284133
N   N15       1.0  0.67530  0.47310  0.33390  1.0000 -0.3646504026
N   N16       1.0  0.78950  0.88490  0.31210  1.0000 -0.0927316289
N   N17       1.0  0.78320  0.80870  0.38710  1.0000 -0.2110160332
N   N18       1.0  0.01690  0.91440  0.30670  1.0000 -0.0927316289
N   N19       1.0  0.05440  0.83990  0.37740  1.0000 -0.2030070986
N   N20       1.0  0.78600  0.00370  0.39100  1.0000 -0.0970763133
N   N21       1.0  0.77370  0.94800  0.47900  1.0000 -0.1939375814
C   C21       1.0  0.74060  0.77910  0.81410  1.0000 0.0183417952
C   C22       1.0  0.56810  0.73200  0.11210  1.0000 -0.0394275006
C   C23       1.0  0.28000  0.47040  0.35060  1.0000 0.0472074259
C   C24       1.0  0.76420  0.41900  0.36630  1.0000 -0.0006122872
C   C25       1.0  0.72190  0.94990  0.16050  1.0000 -0.4703451771
H   H24       1.0  0.81540  0.95860  0.12780  1.0000 0.1602912483
H   H25       1.0  0.68740  0.92740  0.12350  1.0000 0.1602912483
H   H26       1.0  0.65810  0.00900  0.17240  1.0000 0.1602912483
C   C26       1.0  0.72900  0.87990  0.24980  1.0000 0.2637142796
C   C27       1.0  0.67990  0.80010  0.28620  1.0000 -0.3508284133
H   H27       1.0  0.63220  0.77850  0.25890  1.0000 0.1725149188
C   C28       1.0  0.71370  0.75760  0.36990  1.0000 0.2700637751
C   C29       1.0  0.67770  0.66960  0.43310  1.0000 -0.4703451771
H   H28       1.0  0.61310  0.68360  0.49020  1.0000 0.1602912483
H   H29       1.0  0.63330  0.64460  0.40420  1.0000 0.1602912483
H   H30       1.0  0.76340  0.62390  0.44570  1.0000 0.1602912483
C   C30       1.0  0.13110  0.00940  0.15660  1.0000 -0.4703451771
H   H31       1.0  0.07750  0.06860  0.17320  1.0000 0.1602912483
H   H32       1.0  0.22680  0.01280  0.12290  1.0000 0.1602912483
H   H33       1.0  0.08660  0.99640  0.11830  1.0000 0.1510946203
C   C31       1.0  0.13490  0.93280  0.24200  1.0000 0.2700637751
C   C32       1.0  0.25040  0.86760  0.27060  1.0000 -0.3398946565
H   H34       1.0  0.34590  0.86280  0.23940  1.0000 0.1753042597
C   C33       1.0  0.19870  0.81070  0.35390  1.0000 0.2801304568
C   C34       1.0  0.29120  0.73160  0.40910  1.0000 -0.4889442887
H   H35       1.0  0.27250  0.67290  0.41430  1.0000 0.1602912483
H   H36       1.0  0.38980  0.72890  0.37840  1.0000 0.1510946203
H   H37       1.0  0.27060  0.74230  0.46990  1.0000 0.1510946203
C   C35       1.0  0.71410  0.17340  0.30900  1.0000 -0.4703451771
H   H38       1.0  0.65790  0.16750  0.27370  1.0000 0.1510946203
H   H39       1.0  0.67310  0.23250  0.32770  1.0000 0.1602912483
H   H40       1.0  0.80980  0.17120  0.27150  1.0000 0.1510946203
C   C36       1.0  0.71660  0.09400  0.39310  1.0000 0.2891878966
C   C37       1.0  0.65600  0.09770  0.48420  1.0000 -0.3398946565
H   H41       1.0  0.60070  0.15140  0.50650  1.0000 0.1725149188
C   C38       1.0  0.69200  0.00720  0.53710  1.0000 0.2700637751
C   C39       1.0  0.64590  0.98120  0.63970  1.0000 -0.4889442887
H   H42       1.0  0.72750  0.96140  0.66490  1.0000 0.1510946203
H   H43       1.0  0.57940  0.03490  0.66230  1.0000 0.1510946203
H   H44       1.0  0.60070  0.93040  0.65860  1.0000 0.1510946203
  C   C40       1.0  0.52010  0.96020  0.00220  1.0000
  N   N22       1.0  0.47990  0.03980  0.99780  1.0000
