# DDEC6 charges by PACMAN v1.1 (https://github.com/mtap-research/PACMAN-charge/)
data_CATZOP_FSR_pacman
_symmetry_space_group_name_H-M   'P 1'
_cell_length_a   12.55240000
_cell_length_b   12.55240000
_cell_length_c   12.55240000
_cell_angle_alpha   103.91800000
_cell_angle_beta   103.91800000
_cell_angle_gamma   121.26000000
_symmetry_Int_Tables_number   1
_chemical_formula_structural   InH5(C4O3)2
_chemical_formula_sum   'In4 H20 C32 O24'
_cell_volume   1473.36979529
_cell_formula_units_Z   4
loop_
 _symmetry_equiv_pos_site_id
 _symmetry_equiv_pos_as_xyz
  1  'x, y, z'
loop_
 _atom_site_type_symbol
 _atom_site_label
 _atom_site_symmetry_multiplicity
 _atom_site_fract_x
 _atom_site_fract_y
 _atom_site_fract_z
 _atom_site_occupancy
 _atom_site_charge
In  In1  1  0.43835000  0.56165000  0.50000000  1.0 1.1510474872
In  In2  1  0.06165000  0.93835000  0.50000000  1.0 1.1510474872
In  In3  1  0.81165000  0.81165000  0.62330000  1.0 1.1510474872
In  In4  1  0.18835000  0.18835000  0.37670000  1.0 1.1510474872
H  H1  1  0.44290000  0.37200000  0.54090000  1.0 0.2495215725
H  H2  1  0.78640000  0.10910000  0.55450000  1.0 0.0994267952
H  H3  1  0.83110000  0.90200000  0.45910000  1.0 0.2495215725
H  H4  1  0.55460000  0.23190000  0.44550000  1.0 0.0994267952
H  H5  1  0.62200000  0.58110000  0.42910000  1.0 0.2495215725
H  H6  1  0.35910000  0.30460000  0.82270000  1.0 0.0994267952
H  H7  1  0.15200000  0.19290000  0.57090000  1.0 0.2495215725
H  H8  1  0.48190000  0.53640000  0.17730000  1.0 0.0994267952
H  H9  1  0.80710000  0.84800000  0.42910000  1.0 0.2495215725
H  H10  1  0.46360000  0.51810000  0.82270000  1.0 0.0994267952
H  H11  1  0.41890000  0.37800000  0.57090000  1.0 0.2495215725
H  H12  1  0.69540000  0.64090000  0.17730000  1.0 0.0994267952
H  H13  1  0.62800000  0.55710000  0.45910000  1.0 0.2495215725
H  H14  1  0.89090000  0.21360000  0.44550000  1.0 0.0994267952
H  H15  1  0.09800000  0.16890000  0.54090000  1.0 0.2495215725
H  H16  1  0.76810000  0.44540000  0.55450000  1.0 0.0994267952
H  H17  1  0.38490000  0.88490000  0.50000000  1.0 0.1348859709
H  H18  1  0.13490000  0.13490000  0.00000000  1.0 0.1348859709
H  H19  1  0.86510000  0.86510000  0.00000000  1.0 0.1350141656
H  H20  1  0.11510000  0.61510000  0.50000000  1.0 0.1348859709
C  C1  1  0.70070000  0.09510000  0.53140000  1.0 -0.1780045997
C  C2  1  0.58640000  0.97970000  0.52890000  1.0 -0.0227411032
C  C3  1  0.59540000  0.87400000  0.55480000  1.0 0.6012661051
C  C4  1  0.56370000  0.16930000  0.46860000  1.0 -0.1780045997
C  C5  1  0.45080000  0.05750000  0.47110000  1.0 -0.0227411032
C  C6  1  0.31920000  0.04060000  0.44520000  1.0 0.6012661051
C  C7  1  0.34510000  0.31370000  0.89440000  1.0 -0.1780045997
C  C8  1  0.22970000  0.20080000  0.89330000  1.0 -0.0227411032
C  C9  1  0.12400000  0.06920000  0.77860000  1.0 0.6012661051
C  C10  1  0.41930000  0.45070000  0.10560000  1.0 -0.1780045997
C  C11  1  0.30750000  0.33640000  0.10670000  1.0 -0.0227411032
C  C12  1  0.29060000  0.34540000  0.22140000  1.0 0.6012661051
C  C13  1  0.54930000  0.58070000  0.89440000  1.0 -0.1780045997
C  C14  1  0.66360000  0.69250000  0.89330000  1.0 -0.0227411032
C  C15  1  0.65460000  0.70940000  0.77860000  1.0 0.6012661051
C  C16  1  0.68630000  0.65490000  0.10560000  1.0 -0.1780045997
C  C17  1  0.79920000  0.77030000  0.10670000  1.0 -0.0227411032
C  C18  1  0.93080000  0.87600000  0.22140000  1.0 0.6012661051
C  C19  1  0.90490000  0.29930000  0.46860000  1.0 -0.1780045997
C  C20  1  0.02030000  0.41360000  0.47110000  1.0 -0.0227411032
C  C21  1  0.12600000  0.40460000  0.44520000  1.0 0.6012661051
C  C22  1  0.83070000  0.43630000  0.53140000  1.0 -0.1780045997
C  C23  1  0.94250000  0.54920000  0.52890000  1.0 -0.0227411032
C  C24  1  0.95940000  0.68080000  0.55480000  1.0 0.6012661051
C  C25  1  0.68990000  0.18990000  0.50000000  1.0 0.0763102364
C  C26  1  0.46210000  0.96210000  0.50000000  1.0 -0.1205162812
C  C27  1  0.43990000  0.43990000  0.00000000  1.0 0.0763102364
C  C28  1  0.21210000  0.21210000  0.00000000  1.0 -0.1205162812
C  C29  1  0.56010000  0.56010000  0.00000000  1.0 0.0763102364
C  C30  1  0.78790000  0.78790000  0.00000000  1.0 -0.1205162812
C  C31  1  0.81010000  0.31010000  0.50000000  1.0 0.0763102364
C  C32  1  0.03790000  0.53790000  0.50000000  1.0 -0.1205162812
O  O1  1  0.48205000  0.75347000  0.50684000  1.0 -0.5426809598
O  O2  1  0.71409000  0.91323000  0.61912000  1.0 -0.5873635817
O  O3  1  0.38830000  0.37200000  0.48790000  1.0 -0.2403039593
O  O4  1  0.24663000  0.97521000  0.49316000  1.0 -0.5426809598
O  O5  1  0.29411000  0.09497000  0.38088000  1.0 -0.5873635817
O  O6  1  0.88410000  0.90040000  0.51210000  1.0 -0.2403039593
O  O7  1  0.00347000  0.99663000  0.77142000  1.0 -0.5426809598
O  O8  1  0.16323000  0.04411000  0.69914000  1.0 -0.5873635817
O  O9  1  0.62200000  0.63410000  0.48370000  1.0 -0.2403039593
O  O10  1  0.22521000  0.23205000  0.22858000  1.0 -0.5426809598
O  O11  1  0.34497000  0.46409000  0.30086000  1.0 -0.5873635817
O  O12  1  0.15040000  0.13830000  0.51630000  1.0 -0.2403039593
O  O13  1  0.76795000  0.77479000  0.77142000  1.0 -0.5426809598
O  O14  1  0.53591000  0.65503000  0.69914000  1.0 -0.5873635817
O  O15  1  0.86170000  0.84960000  0.48370000  1.0 -0.2403039593
O  O16  1  0.00337000  0.99653000  0.22858000  1.0 -0.5426809598
O  O17  1  0.95589000  0.83677000  0.30086000  1.0 -0.5873635817
O  O18  1  0.36590000  0.37800000  0.51630000  1.0 -0.2403039593
O  O19  1  0.24653000  0.51795000  0.49316000  1.0 -0.5426809598
O  O20  1  0.08677000  0.28591000  0.38088000  1.0 -0.5873635817
O  O21  1  0.62800000  0.61170000  0.51210000  1.0 -0.2403039593
O  O22  1  0.02479000  0.75337000  0.50684000  1.0 -0.5426809598
O  O23  1  0.90503000  0.70589000  0.61912000  1.0 -0.5873635817
O  O24  1  0.09960000  0.11590000  0.48790000  1.0 -0.2403039593
