# DDEC6 charges by PACMAN v1.1 (https://github.com/mtap-research/PACMAN-charge/)
data_CAVFEN01_ion_pacman
_symmetry_space_group_name_H-M   'P 1'
_cell_length_a   7.89380000
_cell_length_b   17.80190000
_cell_length_c   31.66040000
_cell_angle_alpha   90.00000000
_cell_angle_beta   90.00000000
_cell_angle_gamma   90.00000000
_symmetry_Int_Tables_number   1
_chemical_formula_structural   ZnH15C21N3O8
_chemical_formula_sum   'Zn8 H120 C168 N24 O64'
_cell_volume   4449.06625590
_cell_formula_units_Z   8
loop_
 _symmetry_equiv_pos_site_id
 _symmetry_equiv_pos_as_xyz
  1  'x, y, z'
loop_
 _atom_site_type_symbol
 _atom_site_label
 _atom_site_symmetry_multiplicity
 _atom_site_fract_x
 _atom_site_fract_y
 _atom_site_fract_z
 _atom_site_occupancy
 _atom_site_charge
Zn  Zn1  1  0.20750000  0.26691000  0.57961000  1.0 0.8104070124
Zn  Zn2  1  0.29250000  0.23309000  0.07961000  1.0 0.8104070124
Zn  Zn3  1  0.79250000  0.76691000  0.57961000  1.0 0.8104070124
Zn  Zn4  1  0.70750000  0.73309000  0.07961000  1.0 0.8104070124
Zn  Zn5  1  0.20750000  0.23309000  0.42039000  1.0 0.8104070124
Zn  Zn6  1  0.29250000  0.26691000  0.92039000  1.0 0.8104070124
Zn  Zn7  1  0.79250000  0.73309000  0.42039000  1.0 0.8104070124
Zn  Zn8  1  0.70750000  0.76691000  0.92039000  1.0 0.8104070124
H  H1  1  0.06320000  0.50570000  0.57570000  1.0 0.1106490664
H  H2  1  0.17410000  0.67750000  0.49630000  1.0 0.1363725547
H  H3  1  0.35050000  0.46730000  0.47200000  1.0 0.1324426536
H  H4  1  0.43150000  0.65450000  0.44960000  1.0 0.1324426536
H  H5  1  0.46970000  0.57020000  0.43510000  1.0 0.1214726978
H  H6  1  0.28890000  0.73040000  0.40320000  1.0 0.1324426536
H  H7  1  0.15420000  0.74860000  0.33920000  1.0 0.1502737947
H  H8  1  0.09500000  0.52370000  0.32900000  1.0 0.1502737947
H  H9  1  0.23060000  0.50940000  0.39330000  1.0 0.1324426536
H  H10  1  0.00120000  0.59850000  0.27080000  1.0 0.1214726978
H  H11  1  0.04840000  0.75210000  0.27600000  1.0 0.1214726978
H  H12  1  0.91820000  0.82470000  0.21990000  1.0 0.1363725547
H  H13  1  0.79490000  0.83360000  0.15360000  1.0 0.1106490664
H  H14  1  0.81010000  0.61370000  0.14000000  1.0 0.1106490664
H  H15  1  0.93490000  0.59960000  0.20530000  1.0 0.1324426536
H  H16  1  0.43680000  0.99430000  0.07570000  1.0 0.1106490664
H  H17  1  0.32590000  0.82250000  0.99630000  1.0 0.1363725547
H  H18  1  0.14950000  0.03270000  0.97200000  1.0 0.1324426536
H  H19  1  0.06850000  0.84550000  0.94960000  1.0 0.1324426536
H  H20  1  0.03030000  0.92980000  0.93510000  1.0 0.1214726978
H  H21  1  0.21110000  0.76960000  0.90320000  1.0 0.1324426536
H  H22  1  0.34580000  0.75140000  0.83920000  1.0 0.1502737947
H  H23  1  0.40500000  0.97630000  0.82900000  1.0 0.1502737947
H  H24  1  0.26940000  0.99060000  0.89330000  1.0 0.1324426536
H  H25  1  0.49880000  0.90150000  0.77080000  1.0 0.1214726978
H  H26  1  0.45160000  0.74790000  0.77600000  1.0 0.1214726978
H  H27  1  0.58180000  0.67530000  0.71990000  1.0 0.1363725547
H  H28  1  0.70510000  0.66640000  0.65360000  1.0 0.1106490664
H  H29  1  0.68990000  0.88630000  0.64000000  1.0 0.1106490664
H  H30  1  0.56510000  0.90040000  0.70530000  1.0 0.1324426536
H  H31  1  0.93680000  0.00570000  0.57570000  1.0 0.1106490664
H  H32  1  0.82590000  0.17750000  0.49630000  1.0 0.1363725547
H  H33  1  0.64950000  0.96730000  0.47200000  1.0 0.1324426536
H  H34  1  0.56850000  0.15450000  0.44960000  1.0 0.1324426536
H  H35  1  0.53030000  0.07020000  0.43510000  1.0 0.1214726978
H  H36  1  0.71110000  0.23040000  0.40320000  1.0 0.1324426536
H  H37  1  0.84580000  0.24860000  0.33920000  1.0 0.1502737947
H  H38  1  0.90500000  0.02370000  0.32900000  1.0 0.1502737947
H  H39  1  0.76940000  0.00940000  0.39330000  1.0 0.1324426536
H  H40  1  0.99880000  0.09850000  0.27080000  1.0 0.1214726978
H  H41  1  0.95160000  0.25210000  0.27600000  1.0 0.1214726978
H  H42  1  0.08180000  0.32470000  0.21990000  1.0 0.1363725547
H  H43  1  0.20510000  0.33360000  0.15360000  1.0 0.1106490664
H  H44  1  0.18990000  0.11370000  0.14000000  1.0 0.1106490664
H  H45  1  0.06510000  0.09960000  0.20530000  1.0 0.1324426536
H  H46  1  0.56320000  0.49430000  0.07570000  1.0 0.1106490664
H  H47  1  0.67410000  0.32250000  0.99630000  1.0 0.1363725547
H  H48  1  0.85050000  0.53270000  0.97200000  1.0 0.1324426536
H  H49  1  0.93150000  0.34550000  0.94960000  1.0 0.1324426536
H  H50  1  0.96970000  0.42980000  0.93510000  1.0 0.1214726978
H  H51  1  0.78890000  0.26960000  0.90320000  1.0 0.1324426536
H  H52  1  0.65420000  0.25140000  0.83920000  1.0 0.1502737947
H  H53  1  0.59500000  0.47630000  0.82900000  1.0 0.1502737947
H  H54  1  0.73060000  0.49060000  0.89330000  1.0 0.1324426536
H  H55  1  0.50120000  0.40150000  0.77080000  1.0 0.1214726978
H  H56  1  0.54840000  0.24790000  0.77600000  1.0 0.1214726978
H  H57  1  0.41820000  0.17530000  0.71990000  1.0 0.1363725547
H  H58  1  0.29490000  0.16640000  0.65360000  1.0 0.1106490664
H  H59  1  0.31010000  0.38630000  0.64000000  1.0 0.1106490664
H  H60  1  0.43490000  0.40040000  0.70530000  1.0 0.1324426536
H  H61  1  0.06320000  0.99430000  0.42430000  1.0 0.1106490664
H  H62  1  0.17410000  0.82250000  0.50370000  1.0 0.1363725547
H  H63  1  0.35050000  0.03270000  0.52800000  1.0 0.1324426536
H  H64  1  0.43150000  0.84550000  0.55040000  1.0 0.1324426536
H  H65  1  0.46970000  0.92980000  0.56490000  1.0 0.1214726978
H  H66  1  0.28890000  0.76960000  0.59680000  1.0 0.1324426536
H  H67  1  0.15420000  0.75140000  0.66080000  1.0 0.1502737947
H  H68  1  0.09500000  0.97630000  0.67100000  1.0 0.1502737947
H  H69  1  0.23060000  0.99060000  0.60670000  1.0 0.1324426536
H  H70  1  0.00120000  0.90150000  0.72920000  1.0 0.1214726978
H  H71  1  0.04840000  0.74790000  0.72400000  1.0 0.1214726978
H  H72  1  0.91820000  0.67530000  0.78010000  1.0 0.1363725547
H  H73  1  0.79490000  0.66640000  0.84640000  1.0 0.1106490664
H  H74  1  0.81010000  0.88630000  0.86000000  1.0 0.1106490664
H  H75  1  0.93490000  0.90040000  0.79470000  1.0 0.1324426536
H  H76  1  0.43680000  0.50570000  0.92430000  1.0 0.1106490664
H  H77  1  0.32590000  0.67750000  0.00370000  1.0 0.1363725547
H  H78  1  0.14950000  0.46730000  0.02800000  1.0 0.1324426536
H  H79  1  0.06850000  0.65450000  0.05040000  1.0 0.1324426536
H  H80  1  0.03030000  0.57020000  0.06490000  1.0 0.1214726978
H  H81  1  0.21110000  0.73040000  0.09680000  1.0 0.1324426536
H  H82  1  0.34580000  0.74860000  0.16080000  1.0 0.1502737947
H  H83  1  0.40500000  0.52370000  0.17100000  1.0 0.1502737947
H  H84  1  0.26940000  0.50940000  0.10670000  1.0 0.1324426536
H  H85  1  0.49880000  0.59850000  0.22920000  1.0 0.1214726978
H  H86  1  0.45160000  0.75210000  0.22400000  1.0 0.1214726978
H  H87  1  0.58180000  0.82470000  0.28010000  1.0 0.1363725547
H  H88  1  0.70510000  0.83360000  0.34640000  1.0 0.1106490664
H  H89  1  0.68990000  0.61370000  0.36000000  1.0 0.1106490664
H  H90  1  0.56510000  0.59960000  0.29470000  1.0 0.1324426536
H  H91  1  0.93680000  0.49430000  0.42430000  1.0 0.1106490664
H  H92  1  0.82590000  0.32250000  0.50370000  1.0 0.1363725547
H  H93  1  0.64950000  0.53270000  0.52800000  1.0 0.1324426536
H  H94  1  0.56850000  0.34550000  0.55040000  1.0 0.1324426536
H  H95  1  0.53030000  0.42980000  0.56490000  1.0 0.1214726978
H  H96  1  0.71110000  0.26960000  0.59680000  1.0 0.1324426536
H  H97  1  0.84580000  0.25140000  0.66080000  1.0 0.1502737947
H  H98  1  0.90500000  0.47630000  0.67100000  1.0 0.1502737947
H  H99  1  0.76940000  0.49060000  0.60670000  1.0 0.1324426536
H  H100  1  0.99880000  0.40150000  0.72920000  1.0 0.1214726978
H  H101  1  0.95160000  0.24790000  0.72400000  1.0 0.1214726978
H  H102  1  0.08180000  0.17530000  0.78010000  1.0 0.1363725547
H  H103  1  0.20510000  0.16640000  0.84640000  1.0 0.1106490664
H  H104  1  0.18990000  0.38630000  0.86000000  1.0 0.1106490664
H  H105  1  0.06510000  0.40040000  0.79470000  1.0 0.1324426536
H  H106  1  0.56320000  0.00570000  0.92430000  1.0 0.1106490664
H  H107  1  0.67410000  0.17750000  0.00370000  1.0 0.1363725547
H  H108  1  0.85050000  0.96730000  0.02800000  1.0 0.1324426536
H  H109  1  0.93150000  0.15450000  0.05040000  1.0 0.1324426536
H  H110  1  0.96970000  0.07020000  0.06490000  1.0 0.1214726978
H  H111  1  0.78890000  0.23040000  0.09680000  1.0 0.1324426536
H  H112  1  0.65420000  0.24860000  0.16080000  1.0 0.1502737947
H  H113  1  0.59500000  0.02370000  0.17100000  1.0 0.1502737947
H  H114  1  0.73060000  0.00940000  0.10670000  1.0 0.1324426536
H  H115  1  0.50120000  0.09850000  0.22920000  1.0 0.1214726978
H  H116  1  0.54840000  0.25210000  0.22400000  1.0 0.1214726978
H  H117  1  0.41820000  0.32470000  0.28010000  1.0 0.1363725547
H  H118  1  0.29490000  0.33360000  0.34640000  1.0 0.1106490664
H  H119  1  0.31010000  0.11370000  0.36000000  1.0 0.1106490664
H  H120  1  0.43490000  0.09960000  0.29470000  1.0 0.1324426536
C  C1  1  0.21720000  0.39350000  0.53709000  1.0 0.5167352852
C  C2  1  0.20550000  0.47470000  0.52527000  1.0 -0.0230720977
C  C3  1  0.11570000  0.52360000  0.55059000  1.0 -0.1247652101
C  C4  1  0.10150000  0.59920000  0.53958000  1.0 -0.0038672397
C  C5  1  0.99310000  0.64950000  0.56649000  1.0 0.5398066637
C  C6  1  0.18320000  0.62590000  0.50374000  1.0 -0.1391566361
C  C7  1  0.27880000  0.57740000  0.47853000  1.0 0.1214726978
C  C8  1  0.28800000  0.50110000  0.48929000  1.0 -0.1560441184
C  C9  1  0.37790000  0.60630000  0.44154000  1.0 -0.1932199116
C  C10  1  0.25060000  0.68830000  0.38748000  1.0 0.045219436
C  C11  1  0.17060000  0.69910000  0.34960000  1.0 -0.1798733141
C  C12  1  0.11330000  0.63820000  0.32638000  1.0 0.1617901695
C  C13  1  0.13580000  0.56660000  0.34369000  1.0 -0.1798733141
C  C14  1  0.21630000  0.55820000  0.38165000  1.0 0.0585357633
C  C15  1  0.03660000  0.64390000  0.28392000  1.0 -0.130527221
C  C16  1  0.01360000  0.70670000  0.26289000  1.0 -0.130527221
C  C17  1  0.93820000  0.71190000  0.22068000  1.0 0.1502737947
C  C18  1  0.89670000  0.78030000  0.20409000  1.0 -0.1988997053
C  C19  1  0.82320000  0.78540000  0.16432000  1.0 0.0982182917
C  C20  1  0.83250000  0.65720000  0.15646000  1.0 0.0843538118
C  C21  1  0.90590000  0.64830000  0.19538000  1.0 -0.1988997053
C  C22  1  0.28280000  0.10650000  0.03709000  1.0 0.5167352852
C  C23  1  0.29450000  0.02530000  0.02527000  1.0 -0.0230720977
C  C24  1  0.38430000  0.97640000  0.05059000  1.0 -0.1247652101
C  C25  1  0.39850000  0.90080000  0.03958000  1.0 -0.0038672397
C  C26  1  0.50690000  0.85050000  0.06649000  1.0 0.5398066637
C  C27  1  0.31680000  0.87410000  0.00374000  1.0 -0.1391566361
C  C28  1  0.22120000  0.92260000  0.97853000  1.0 0.1214726978
C  C29  1  0.21200000  0.99890000  0.98929000  1.0 -0.1560441184
C  C30  1  0.12210000  0.89370000  0.94154000  1.0 -0.1932199116
C  C31  1  0.24940000  0.81170000  0.88748000  1.0 0.045219436
C  C32  1  0.32940000  0.80090000  0.84960000  1.0 -0.1798733141
C  C33  1  0.38670000  0.86180000  0.82638000  1.0 0.1617901695
C  C34  1  0.36420000  0.93340000  0.84369000  1.0 -0.1798733141
C  C35  1  0.28370000  0.94180000  0.88165000  1.0 0.0585357633
C  C36  1  0.46340000  0.85610000  0.78392000  1.0 -0.130527221
C  C37  1  0.48640000  0.79330000  0.76289000  1.0 -0.130527221
C  C38  1  0.56180000  0.78810000  0.72068000  1.0 0.1502737947
C  C39  1  0.60330000  0.71970000  0.70409000  1.0 -0.1988997053
C  C40  1  0.67680000  0.71460000  0.66432000  1.0 0.0982182917
C  C41  1  0.66750000  0.84280000  0.65646000  1.0 0.0843538118
C  C42  1  0.59410000  0.85170000  0.69538000  1.0 -0.1988997053
C  C43  1  0.78280000  0.89350000  0.53709000  1.0 0.5167352852
C  C44  1  0.79450000  0.97470000  0.52527000  1.0 -0.0230720977
C  C45  1  0.88430000  0.02360000  0.55059000  1.0 -0.1247652101
C  C46  1  0.89850000  0.09920000  0.53958000  1.0 -0.0038672397
C  C47  1  0.00690000  0.14950000  0.56649000  1.0 0.5398066637
C  C48  1  0.81680000  0.12590000  0.50374000  1.0 -0.1391566361
C  C49  1  0.72120000  0.07740000  0.47853000  1.0 0.1214726978
C  C50  1  0.71200000  0.00110000  0.48929000  1.0 -0.1560441184
C  C51  1  0.62210000  0.10630000  0.44154000  1.0 -0.1932199116
C  C52  1  0.74940000  0.18830000  0.38748000  1.0 0.045219436
C  C53  1  0.82940000  0.19910000  0.34960000  1.0 -0.1798733141
C  C54  1  0.88670000  0.13820000  0.32638000  1.0 0.1617901695
C  C55  1  0.86420000  0.06660000  0.34369000  1.0 -0.1798733141
C  C56  1  0.78370000  0.05820000  0.38165000  1.0 0.0585357633
C  C57  1  0.96340000  0.14390000  0.28392000  1.0 -0.130527221
C  C58  1  0.98640000  0.20670000  0.26289000  1.0 -0.130527221
C  C59  1  0.06180000  0.21190000  0.22068000  1.0 0.1502737947
C  C60  1  0.10330000  0.28030000  0.20409000  1.0 -0.1988997053
C  C61  1  0.17680000  0.28540000  0.16432000  1.0 0.0982182917
C  C62  1  0.16750000  0.15720000  0.15646000  1.0 0.0843538118
C  C63  1  0.09410000  0.14830000  0.19538000  1.0 -0.1988997053
C  C64  1  0.71720000  0.60650000  0.03709000  1.0 0.5167352852
C  C65  1  0.70550000  0.52530000  0.02527000  1.0 -0.0230720977
C  C66  1  0.61570000  0.47640000  0.05059000  1.0 -0.1247652101
C  C67  1  0.60150000  0.40080000  0.03958000  1.0 -0.0038672397
C  C68  1  0.49310000  0.35050000  0.06649000  1.0 0.5398066637
C  C69  1  0.68320000  0.37410000  0.00374000  1.0 -0.1391566361
C  C70  1  0.77880000  0.42260000  0.97853000  1.0 0.1214726978
C  C71  1  0.78800000  0.49890000  0.98929000  1.0 -0.1560441184
C  C72  1  0.87790000  0.39370000  0.94154000  1.0 -0.1932199116
C  C73  1  0.75060000  0.31170000  0.88748000  1.0 0.045219436
C  C74  1  0.67060000  0.30090000  0.84960000  1.0 -0.1798733141
C  C75  1  0.61330000  0.36180000  0.82638000  1.0 0.1617901695
C  C76  1  0.63580000  0.43340000  0.84369000  1.0 -0.1798733141
C  C77  1  0.71630000  0.44180000  0.88165000  1.0 0.0585357633
C  C78  1  0.53660000  0.35610000  0.78392000  1.0 -0.130527221
C  C79  1  0.51360000  0.29330000  0.76289000  1.0 -0.130527221
C  C80  1  0.43820000  0.28810000  0.72068000  1.0 0.1502737947
C  C81  1  0.39670000  0.21970000  0.70409000  1.0 -0.1988997053
C  C82  1  0.32320000  0.21460000  0.66432000  1.0 0.0982182917
C  C83  1  0.33250000  0.34280000  0.65646000  1.0 0.0843538118
C  C84  1  0.40590000  0.35170000  0.69538000  1.0 -0.1988997053
C  C85  1  0.21720000  0.10650000  0.46291000  1.0 0.5167352852
C  C86  1  0.20550000  0.02530000  0.47473000  1.0 -0.0230720977
C  C87  1  0.11570000  0.97640000  0.44941000  1.0 -0.1247652101
C  C88  1  0.10150000  0.90080000  0.46042000  1.0 -0.0038672397
C  C89  1  0.99310000  0.85050000  0.43351000  1.0 0.5398066637
C  C90  1  0.18320000  0.87410000  0.49626000  1.0 -0.1391566361
C  C91  1  0.27880000  0.92260000  0.52147000  1.0 0.1214726978
C  C92  1  0.28800000  0.99890000  0.51071000  1.0 -0.1560441184
C  C93  1  0.37790000  0.89370000  0.55846000  1.0 -0.1932199116
C  C94  1  0.25060000  0.81170000  0.61252000  1.0 0.045219436
C  C95  1  0.17060000  0.80090000  0.65040000  1.0 -0.1798733141
C  C96  1  0.11330000  0.86180000  0.67362000  1.0 0.1617901695
C  C97  1  0.13580000  0.93340000  0.65631000  1.0 -0.1798733141
C  C98  1  0.21630000  0.94180000  0.61835000  1.0 0.0585357633
C  C99  1  0.03660000  0.85610000  0.71608000  1.0 -0.130527221
C  C100  1  0.01360000  0.79330000  0.73711000  1.0 -0.130527221
C  C101  1  0.93820000  0.78810000  0.77932000  1.0 0.1502737947
C  C102  1  0.89670000  0.71970000  0.79591000  1.0 -0.1988997053
C  C103  1  0.82320000  0.71460000  0.83568000  1.0 0.0982182917
C  C104  1  0.83250000  0.84280000  0.84354000  1.0 0.0843538118
C  C105  1  0.90590000  0.85170000  0.80462000  1.0 -0.1988997053
C  C106  1  0.28280000  0.39350000  0.96291000  1.0 0.5167352852
C  C107  1  0.29450000  0.47470000  0.97473000  1.0 -0.0230720977
C  C108  1  0.38430000  0.52360000  0.94941000  1.0 -0.1247652101
C  C109  1  0.39850000  0.59920000  0.96042000  1.0 -0.0038672397
C  C110  1  0.50690000  0.64950000  0.93351000  1.0 0.5398066637
C  C111  1  0.31680000  0.62590000  0.99626000  1.0 -0.1391566361
C  C112  1  0.22120000  0.57740000  0.02147000  1.0 0.1214726978
C  C113  1  0.21200000  0.50110000  0.01071000  1.0 -0.1560441184
C  C114  1  0.12210000  0.60630000  0.05846000  1.0 -0.1932199116
C  C115  1  0.24940000  0.68830000  0.11252000  1.0 0.045219436
C  C116  1  0.32940000  0.69910000  0.15040000  1.0 -0.1798733141
C  C117  1  0.38670000  0.63820000  0.17362000  1.0 0.1617901695
C  C118  1  0.36420000  0.56660000  0.15631000  1.0 -0.1798733141
C  C119  1  0.28370000  0.55820000  0.11835000  1.0 0.0585357633
C  C120  1  0.46340000  0.64390000  0.21608000  1.0 -0.130527221
C  C121  1  0.48640000  0.70670000  0.23711000  1.0 -0.130527221
C  C122  1  0.56180000  0.71190000  0.27932000  1.0 0.1502737947
C  C123  1  0.60330000  0.78030000  0.29591000  1.0 -0.1988997053
C  C124  1  0.67680000  0.78540000  0.33568000  1.0 0.0982182917
C  C125  1  0.66750000  0.65720000  0.34354000  1.0 0.0843538118
C  C126  1  0.59410000  0.64830000  0.30462000  1.0 -0.1988997053
C  C127  1  0.78280000  0.60650000  0.46291000  1.0 0.5167352852
C  C128  1  0.79450000  0.52530000  0.47473000  1.0 -0.0230720977
C  C129  1  0.88430000  0.47640000  0.44941000  1.0 -0.1247652101
C  C130  1  0.89850000  0.40080000  0.46042000  1.0 -0.0038672397
C  C131  1  0.00690000  0.35050000  0.43351000  1.0 0.5398066637
C  C132  1  0.81680000  0.37410000  0.49626000  1.0 -0.1391566361
C  C133  1  0.72120000  0.42260000  0.52147000  1.0 0.1214726978
C  C134  1  0.71200000  0.49890000  0.51071000  1.0 -0.1560441184
C  C135  1  0.62210000  0.39370000  0.55846000  1.0 -0.1932199116
C  C136  1  0.74940000  0.31170000  0.61252000  1.0 0.045219436
C  C137  1  0.82940000  0.30090000  0.65040000  1.0 -0.1798733141
C  C138  1  0.88670000  0.36180000  0.67362000  1.0 0.1617901695
C  C139  1  0.86420000  0.43340000  0.65631000  1.0 -0.1798733141
C  C140  1  0.78370000  0.44180000  0.61835000  1.0 0.0585357633
C  C141  1  0.96340000  0.35610000  0.71608000  1.0 -0.130527221
C  C142  1  0.98640000  0.29330000  0.73711000  1.0 -0.130527221
C  C143  1  0.06180000  0.28810000  0.77932000  1.0 0.1502737947
C  C144  1  0.10330000  0.21970000  0.79591000  1.0 -0.1988997053
C  C145  1  0.17680000  0.21460000  0.83568000  1.0 0.0982182917
C  C146  1  0.16750000  0.34280000  0.84354000  1.0 0.0843538118
C  C147  1  0.09410000  0.35170000  0.80462000  1.0 -0.1988997053
C  C148  1  0.71720000  0.89350000  0.96291000  1.0 0.5167352852
C  C149  1  0.70550000  0.97470000  0.97473000  1.0 -0.0230720977
C  C150  1  0.61570000  0.02360000  0.94941000  1.0 -0.1247652101
C  C151  1  0.60150000  0.09920000  0.96042000  1.0 -0.0038672397
C  C152  1  0.49310000  0.14950000  0.93351000  1.0 0.5398066637
C  C153  1  0.68320000  0.12590000  0.99626000  1.0 -0.1391566361
C  C154  1  0.77880000  0.07740000  0.02147000  1.0 0.1214726978
C  C155  1  0.78800000  0.00110000  0.01071000  1.0 -0.1560441184
C  C156  1  0.87790000  0.10630000  0.05846000  1.0 -0.1932199116
C  C157  1  0.75060000  0.18830000  0.11252000  1.0 0.045219436
C  C158  1  0.67060000  0.19910000  0.15040000  1.0 -0.1798733141
C  C159  1  0.61330000  0.13820000  0.17362000  1.0 0.1617901695
C  C160  1  0.63580000  0.06660000  0.15631000  1.0 -0.1798733141
C  C161  1  0.71630000  0.05820000  0.11835000  1.0 0.0585357633
C  C162  1  0.53660000  0.14390000  0.21608000  1.0 -0.130527221
C  C163  1  0.51360000  0.20670000  0.23711000  1.0 -0.130527221
C  C164  1  0.43820000  0.21190000  0.27932000  1.0 0.1502737947
C  C165  1  0.39670000  0.28030000  0.29591000  1.0 -0.1988997053
C  C166  1  0.32320000  0.28540000  0.33568000  1.0 0.0982182917
C  C167  1  0.33250000  0.15720000  0.34354000  1.0 0.0843538118
C  C168  1  0.40590000  0.14830000  0.30462000  1.0 -0.1988997053
N  N1  1  0.79100000  0.72460000  0.14057000  1.0 -0.2486114654
N  N2  1  0.27550000  0.61830000  0.40261000  1.0 0.1214726978
N  N3  1  0.70900000  0.77540000  0.64057000  1.0 -0.2486114654
N  N4  1  0.22450000  0.88170000  0.90261000  1.0 0.1214726978
N  N5  1  0.20900000  0.22460000  0.14057000  1.0 -0.2486114654
N  N6  1  0.72450000  0.11830000  0.40261000  1.0 0.1214726978
N  N7  1  0.29100000  0.27540000  0.64057000  1.0 -0.2486114654
N  N8  1  0.77550000  0.38170000  0.90261000  1.0 0.1214726978
N  N9  1  0.79100000  0.77540000  0.85943000  1.0 -0.2486114654
N  N10  1  0.27550000  0.88170000  0.59739000  1.0 0.1214726978
N  N11  1  0.70900000  0.72460000  0.35943000  1.0 -0.2486114654
N  N12  1  0.22450000  0.61830000  0.09739000  1.0 0.1214726978
N  N13  1  0.20900000  0.27540000  0.85943000  1.0 -0.2486114654
N  N14  1  0.72450000  0.38170000  0.59739000  1.0 0.1214726978
N  N15  1  0.29100000  0.22460000  0.35943000  1.0 -0.2486114654
N  N16  1  0.77550000  0.11830000  0.09739000  1.0 0.1214726978
N  N17  1  0.09130000  0.92440000  0.12171000  1.0 0.6350893077
N  N18  1  0.09130000  0.57560000  0.87829000  1.0 0.6350893077
N  N19  1  0.40870000  0.57560000  0.62171000  1.0 0.6350893077
N  N20  1  0.40870000  0.92440000  0.37829000  1.0 0.6350893077
N  N21  1  0.90870000  0.07560000  0.87829000  1.0 0.6350893077
N  N22  1  0.90870000  0.42440000  0.12171000  1.0 0.6350893077
N  N23  1  0.59130000  0.42440000  0.37829000  1.0 0.6350893077
N  N24  1  0.59130000  0.07560000  0.62171000  1.0 0.6350893077
O  O1  1  0.28950000  0.34706000  0.51383000  1.0 -0.3988413292
O  O2  1  0.41230000  0.21062000  0.55716000  1.0 -0.2339176539
O  O3  1  0.15580000  0.37500000  0.57245000  1.0 -0.5521241578
O  O4  1  0.90820000  0.62249000  0.59574000  1.0 -0.542701334
O  O5  1  0.99320000  0.71898000  0.55652000  1.0 -0.5300239625
O  O6  1  0.21050000  0.15294000  0.01383000  1.0 -0.3988413292
O  O7  1  0.08770000  0.28938000  0.05716000  1.0 -0.2339176539
O  O8  1  0.34420000  0.12500000  0.07245000  1.0 -0.5521241578
O  O9  1  0.59180000  0.87751000  0.09574000  1.0 -0.542701334
O  O10  1  0.50680000  0.78102000  0.05652000  1.0 -0.5300239625
O  O11  1  0.71050000  0.84706000  0.51383000  1.0 -0.3988413292
O  O12  1  0.58770000  0.71062000  0.55716000  1.0 -0.2339176539
O  O13  1  0.84420000  0.87500000  0.57245000  1.0 -0.5521241578
O  O14  1  0.09180000  0.12249000  0.59574000  1.0 -0.542701334
O  O15  1  0.00680000  0.21898000  0.55652000  1.0 -0.5300239625
O  O16  1  0.78950000  0.65294000  0.01383000  1.0 -0.3988413292
O  O17  1  0.91230000  0.78938000  0.05716000  1.0 -0.2339176539
O  O18  1  0.65580000  0.62500000  0.07245000  1.0 -0.5521241578
O  O19  1  0.40820000  0.37751000  0.09574000  1.0 -0.542701334
O  O20  1  0.49320000  0.28102000  0.05652000  1.0 -0.5300239625
O  O21  1  0.28950000  0.15294000  0.48617000  1.0 -0.3988413292
O  O22  1  0.41230000  0.28938000  0.44284000  1.0 -0.2339176539
O  O23  1  0.15580000  0.12500000  0.42755000  1.0 -0.5521241578
O  O24  1  0.90820000  0.87751000  0.40426000  1.0 -0.542701334
O  O25  1  0.99320000  0.78102000  0.44348000  1.0 -0.5300239625
O  O26  1  0.21050000  0.34706000  0.98617000  1.0 -0.3988413292
O  O27  1  0.08770000  0.21062000  0.94284000  1.0 -0.2339176539
O  O28  1  0.34420000  0.37500000  0.92755000  1.0 -0.5521241578
O  O29  1  0.59180000  0.62249000  0.90426000  1.0 -0.542701334
O  O30  1  0.50680000  0.71898000  0.94348000  1.0 -0.5300239625
O  O31  1  0.71050000  0.65294000  0.48617000  1.0 -0.3988413292
O  O32  1  0.58770000  0.78938000  0.44284000  1.0 -0.2339176539
O  O33  1  0.84420000  0.62500000  0.42755000  1.0 -0.5521241578
O  O34  1  0.09180000  0.37751000  0.40426000  1.0 -0.542701334
O  O35  1  0.00680000  0.28102000  0.44348000  1.0 -0.5300239625
O  O36  1  0.78950000  0.84706000  0.98617000  1.0 -0.3988413292
O  O37  1  0.91230000  0.71062000  0.94284000  1.0 -0.2339176539
O  O38  1  0.65580000  0.87500000  0.92755000  1.0 -0.5521241578
O  O39  1  0.40820000  0.12249000  0.90426000  1.0 -0.542701334
O  O40  1  0.49320000  0.21898000  0.94348000  1.0 -0.5300239625
O  O41  1  0.16070000  0.86420000  0.12760000  1.0 -0.372283161
O  O42  1  0.98650000  0.92340000  0.09337000  1.0 -0.3391761037
O  O43  1  0.12510000  0.97980000  0.14170000  1.0 -0.3988413292
O  O44  1  0.16070000  0.63580000  0.87240000  1.0 -0.372283161
O  O45  1  0.98650000  0.57660000  0.90663000  1.0 -0.3391761037
O  O46  1  0.12510000  0.52020000  0.85830000  1.0 -0.3988413292
O  O47  1  0.33930000  0.63580000  0.62760000  1.0 -0.372283161
O  O48  1  0.51350000  0.57660000  0.59337000  1.0 -0.3391761037
O  O49  1  0.37490000  0.52020000  0.64170000  1.0 -0.3988413292
O  O50  1  0.33930000  0.86420000  0.37240000  1.0 -0.372283161
O  O51  1  0.51350000  0.92340000  0.40663000  1.0 -0.3391761037
O  O52  1  0.37490000  0.97980000  0.35830000  1.0 -0.3988413292
O  O53  1  0.83930000  0.13580000  0.87240000  1.0 -0.372283161
O  O54  1  0.01350000  0.07660000  0.90663000  1.0 -0.3391761037
O  O55  1  0.87490000  0.02020000  0.85830000  1.0 -0.3988413292
O  O56  1  0.83930000  0.36420000  0.12760000  1.0 -0.372283161
O  O57  1  0.01350000  0.42340000  0.09337000  1.0 -0.3391761037
O  O58  1  0.87490000  0.47980000  0.14170000  1.0 -0.3988413292
O  O59  1  0.66070000  0.36420000  0.37240000  1.0 -0.372283161
O  O60  1  0.48650000  0.42340000  0.40663000  1.0 -0.3391761037
O  O61  1  0.62510000  0.47980000  0.35830000  1.0 -0.3988413292
O  O62  1  0.66070000  0.13580000  0.62760000  1.0 -0.372283161
O  O63  1  0.48650000  0.07660000  0.59337000  1.0 -0.3391761037
O  O64  1  0.62510000  0.02020000  0.64170000  1.0 -0.3988413292
