# DDEC6 charges by PACMAN v1.1 (https://github.com/mtap-research/PACMAN-charge/)
data_CAVSUP_ASR_pacman
_symmetry_space_group_name_H-M   'P 1'
_cell_length_a   5.84903000
_cell_length_b   18.78200000
_cell_length_c   13.34440000
_cell_angle_alpha   90.00000000
_cell_angle_beta   97.71100000
_cell_angle_gamma   90.00000000
_symmetry_Int_Tables_number   1
_chemical_formula_structural   LaP4C10(NO6)2
_chemical_formula_sum   'La2 P8 C20 N4 O24'
_cell_volume   1452.71274640
_cell_formula_units_Z   2
loop_
 _symmetry_equiv_pos_site_id
 _symmetry_equiv_pos_as_xyz
  1  'x, y, z'
loop_
 _atom_site_type_symbol
 _atom_site_label
 _atom_site_symmetry_multiplicity
 _atom_site_fract_x
 _atom_site_fract_y
 _atom_site_fract_z
 _atom_site_occupancy
 _atom_site_charge
La  La1  1  0.66490000  0.25000000  0.37110000  1.0 2.1062699322
La  La2  1  0.33510000  0.75000000  0.62890000  1.0 2.1062699322
P  P1  1  0.85600000  0.08530000  0.56010000  1.0 1.2342919473
P  P2  1  0.14400000  0.58530000  0.43990000  1.0 1.2356410984
P  P3  1  0.13700000  0.13360000  0.26690000  1.0 1.2811209325
P  P4  1  0.86300000  0.63360000  0.73310000  1.0 1.2811209325
P  P5  1  0.22000000  0.90450000  0.45760000  1.0 1.2356410984
P  P6  1  0.78000000  0.40450000  0.54240000  1.0 1.2342919473
P  P7  1  0.89370000  0.86510000  0.71970000  1.0 1.2811209325
P  P8  1  0.10630000  0.36510000  0.28030000  1.0 1.2811209325
C  C1  1  0.73900000  0.06240000  0.67520000  1.0 -0.0152246535
C  C2  1  0.26100000  0.56240000  0.32480000  1.0 -0.0131389072
C  C3  1  0.15500000  0.04170000  0.30600000  1.0 -0.0534422707
C  C4  1  0.84500000  0.54170000  0.69400000  1.0 -0.0534422707
C  C5  1  0.68200000  0.00550000  0.83570000  1.0 0.2499120075
C  C6  1  0.31800000  0.50550000  0.16430000  1.0 0.2499120075
C  C7  1  0.44200000  0.98130000  0.84500000  1.0 0.0588891718
C  C8  1  0.55800000  0.48130000  0.15500000  1.0 0.0588891718
C  C9  1  0.39600000  0.97850000  0.95300000  1.0 0.0841671217
C  C10  1  0.60400000  0.47850000  0.04700000  1.0 0.0841671217
C  C11  1  0.33600000  0.92070000  0.34030000  1.0 -0.0679949608
C  C12  1  0.66400000  0.42070000  0.65970000  1.0 -0.0679949608
C  C13  1  0.98200000  0.95710000  0.73400000  1.0 -0.106107441
C  C14  1  0.01800000  0.45710000  0.26600000  1.0 -0.106107441
C  C15  1  0.35100000  0.98170000  0.17040000  1.0 0.2499120075
C  C16  1  0.64900000  0.48170000  0.82960000  1.0 0.2499120075
C  C17  1  0.58500000  0.98080000  0.13740000  1.0 0.0588891718
C  C18  1  0.41500000  0.48080000  0.86260000  1.0 0.0588891718
C  C19  1  0.59600000  0.95870000  0.03030000  1.0 0.0489868361
C  C20  1  0.40400000  0.45870000  0.96970000  1.0 0.0489868361
N  N1  1  0.75100000  0.99270000  0.73260000  1.0 0.1460353796
N  N2  1  0.24900000  0.49270000  0.26740000  1.0 0.1460353796
N  N3  1  0.33700000  0.98970000  0.28170000  1.0 0.1752647821
N  N4  1  0.66300000  0.48970000  0.71830000  1.0 0.1752647821
O  O1  1  0.11900000  0.07430000  0.57700000  1.0 -0.5402281519
O  O2  1  0.88100000  0.57430000  0.42300000  1.0 -0.5289502379
O  O3  1  0.79400000  0.16360000  0.53700000  1.0 -0.7369758722
O  O4  1  0.20600000  0.66360000  0.46300000  1.0 -0.7369758722
O  O5  1  0.74200000  0.03660000  0.47510000  1.0 -0.5289502379
O  O6  1  0.25800000  0.53660000  0.52490000  1.0 -0.5289502379
O  O7  1  0.19300000  0.13800000  0.15740000  1.0 -0.6374246713
O  O8  1  0.80700000  0.63800000  0.84260000  1.0 -0.6374246713
O  O9  1  0.31600000  0.17580000  0.33900000  1.0 -0.8097341296
O  O10  1  0.68400000  0.67580000  0.66100000  1.0 -0.8097341296
O  O11  1  0.89100000  0.16130000  0.27100000  1.0 -0.7706398304
O  O12  1  0.10900000  0.66130000  0.72900000  1.0 -0.7706398304
O  O13  1  0.95500000  0.90910000  0.43700000  1.0 -0.5402281519
O  O14  1  0.04500000  0.40910000  0.56300000  1.0 -0.5402281519
O  O15  1  0.30000000  0.83040000  0.49670000  1.0 -0.7706398304
O  O16  1  0.70000000  0.33040000  0.50330000  1.0 -0.7706398304
O  O17  1  0.31600000  0.96240000  0.53380000  1.0 -0.4704942044
O  O18  1  0.68400000  0.46240000  0.46620000  1.0 -0.4704942044
O  O19  1  0.92000000  0.83260000  0.82690000  1.0 -0.6630486782
O  O20  1  0.08000000  0.33260000  0.17310000  1.0 -0.6630486782
O  O21  1  0.64200000  0.86280000  0.66920000  1.0 -0.7059625622
O  O22  1  0.35800000  0.36280000  0.33080000  1.0 -0.7047744628
O  O23  1  0.05200000  0.82840000  0.65260000  1.0 -0.8006815549
O  O24  1  0.94800000  0.32840000  0.34740000  1.0 -0.8006815549
