# DDEC6 charges by PACMAN v1.1 (https://github.com/mtap-research/PACMAN-charge/)
data_CAVTAW_ASR_pacman
_symmetry_space_group_name_H-M   'P 1'
_cell_length_a   5.82000000
_cell_length_b   18.18740000
_cell_length_c   12.50350000
_cell_angle_alpha   90.00000000
_cell_angle_beta   101.92300000
_cell_angle_gamma   90.00000000
_symmetry_Int_Tables_number   1
_chemical_formula_structural   LaP4C10(NO6)2
_chemical_formula_sum   'La2 P8 C20 N4 O24'
_cell_volume   1294.95072862
_cell_formula_units_Z   2
loop_
 _symmetry_equiv_pos_site_id
 _symmetry_equiv_pos_as_xyz
  1  'x, y, z'
loop_
 _atom_site_type_symbol
 _atom_site_label
 _atom_site_symmetry_multiplicity
 _atom_site_fract_x
 _atom_site_fract_y
 _atom_site_fract_z
 _atom_site_occupancy
 _atom_site_charge
La  La1  1  0.62370000  0.25000000  0.33050000  1.0 2.0885449607
La  La2  1  0.37630000  0.75000000  0.66950000  1.0 2.0885449607
P  P1  1  0.82000000  0.08890000  0.53480000  1.0 1.2201218266
P  P2  1  0.18000000  0.58890000  0.46520000  1.0 1.2201218266
P  P3  1  0.08600000  0.11260000  0.25210000  1.0 1.2874995032
P  P4  1  0.91400000  0.61260000  0.74790000  1.0 1.2874995032
P  P5  1  0.20300000  0.89860000  0.44680000  1.0 1.2201218266
P  P6  1  0.79700000  0.39860000  0.55320000  1.0 1.2201218266
P  P7  1  0.92700000  0.88040000  0.79320000  1.0 1.2840741832
P  P8  1  0.07300000  0.38040000  0.20680000  1.0 1.2874995032
C  C1  1  0.68100000  0.07320000  0.65160000  1.0 0.0096111984
C  C2  1  0.31900000  0.57320000  0.34840000  1.0 0.0096111984
C  C3  1  0.16700000  0.02290000  0.30910000  1.0 -0.0659117627
C  C4  1  0.83300000  0.52290000  0.69090000  1.0 -0.0659117627
C  C5  1  0.72600000  0.08780000  0.84710000  1.0 0.2751345296
C  C6  1  0.27400000  0.58780000  0.15290000  1.0 0.2733067531
C  C7  1  0.49000000  0.09920000  0.87630000  1.0 -0.00076225
C  C8  1  0.51000000  0.59920000  0.12370000  1.0 -0.00076225
C  C9  1  0.47600000  0.06520000  0.98340000  1.0 0.1311275472
C  C10  1  0.52400000  0.56520000  0.01660000  1.0 0.1311275472
C  C11  1  0.27900000  0.89430000  0.31150000  1.0 -0.0659117627
C  C12  1  0.72100000  0.39430000  0.68850000  1.0 -0.0659117627
C  C13  1  0.91300000  0.97830000  0.76880000  1.0 -0.1430261175
C  C14  1  0.08700000  0.47830000  0.23120000  1.0 -0.1430261175
C  C15  1  0.49000000  0.98630000  0.20930000  1.0 0.3132359345
C  C16  1  0.51000000  0.48630000  0.79070000  1.0 0.3132359345
C  C17  1  0.35700000  0.96270000  0.09700000  1.0 0.0488377694
C  C18  1  0.64300000  0.46270000  0.90300000  1.0 0.0488377694
C  C19  1  0.45900000  0.98490000  0.00100000  1.0 0.1217635233
C  C20  1  0.54100000  0.48490000  0.99900000  1.0 0.1217635233
N  N1  1  0.71300000  0.03200000  0.75710000  1.0 0.160113502
N  N2  1  0.28700000  0.53200000  0.24290000  1.0 0.160113502
N  N3  1  0.36400000  0.97150000  0.30030000  1.0 0.1402658034
N  N4  1  0.63600000  0.47150000  0.69970000  1.0 0.1402658034
O  O1  1  0.08600000  0.08920000  0.57010000  1.0 -0.551183794
O  O2  1  0.91400000  0.58920000  0.42990000  1.0 -0.551183794
O  O3  1  0.74100000  0.16820000  0.50040000  1.0 -0.7691622715
O  O4  1  0.25900000  0.66820000  0.49960000  1.0 -0.7691622715
O  O5  1  0.72200000  0.03010000  0.45070000  1.0 -0.551183794
O  O6  1  0.27800000  0.53010000  0.54930000  1.0 -0.551183794
O  O7  1  0.06900000  0.10660000  0.12700000  1.0 -0.6675455909
O  O8  1  0.93100000  0.60660000  0.87300000  1.0 -0.6675455909
O  O9  1  0.29000000  0.16300000  0.30490000  1.0 -0.8126660328
O  O10  1  0.71000000  0.66300000  0.69510000  1.0 -0.8126660328
O  O11  1  0.84900000  0.13410000  0.28150000  1.0 -0.7821092646
O  O12  1  0.15100000  0.63410000  0.71850000  1.0 -0.7821092646
O  O13  1  0.95500000  0.86590000  0.43260000  1.0 -0.5789840858
O  O14  1  0.04500000  0.36590000  0.56740000  1.0 -0.5789840858
O  O15  1  0.39800000  0.84860000  0.51690000  1.0 -0.7132940929
O  O16  1  0.60200000  0.34860000  0.48310000  1.0 -0.7132940929
O  O17  1  0.23300000  0.97590000  0.49220000  1.0 -0.4301630299
O  O18  1  0.76700000  0.47590000  0.50780000  1.0 -0.4301630299
O  O19  1  0.95900000  0.86800000  0.91800000  1.0 -0.6206947904
O  O20  1  0.04100000  0.36800000  0.08200000  1.0 -0.6206947904
O  O21  1  0.69400000  0.84680000  0.73200000  1.0 -0.7614920776
O  O22  1  0.30600000  0.34680000  0.26800000  1.0 -0.7614920776
O  O23  1  0.14000000  0.84870000  0.75160000  1.0 -0.7871601622
O  O24  1  0.86000000  0.34870000  0.24840000  1.0 -0.7871601622
