# DDEC6 charges by PACMAN v1.1 (https://github.com/mtap-research/PACMAN-charge/)
data_CAWBUY_FSR_pacman
_symmetry_space_group_name_H-M   'P 1'
_cell_length_a   8.46400000
_cell_length_b   7.61300000
_cell_length_c   13.17600000
_cell_angle_alpha   90.00000000
_cell_angle_beta   90.48200000
_cell_angle_gamma   90.00000000
_symmetry_Int_Tables_number   1
_chemical_formula_structural   Cu2B2H50(C10N3)5
_chemical_formula_sum   'Cu2 B2 H50 C50 N15'
_cell_volume   848.98438586
_cell_formula_units_Z   1
loop_
 _symmetry_equiv_pos_site_id
 _symmetry_equiv_pos_as_xyz
  1  'x, y, z'
loop_
 _atom_site_type_symbol
 _atom_site_label
 _atom_site_symmetry_multiplicity
 _atom_site_fract_x
 _atom_site_fract_y
 _atom_site_fract_z
 _atom_site_occupancy
 _atom_site_charge
Cu  Cu1  1  0.91952000  0.50000000  0.49662000  1.0 0.7318793897
Cu  Cu2  1  0.95108000  0.00000000  0.99462000  1.0 0.3365663056
B  B1  1  0.11211000  0.00000000  0.33487000  1.0 0.1472886567
B  B2  1  0.13750000  0.50000000  0.82335000  1.0 0.159831267
H  H1  1  0.39640000  0.70940000  0.56510000  1.0 0.0883834053
H  H2  1  0.39640000  0.29060000  0.56510000  1.0 0.0883834053
H  H3  1  0.35860000  0.62440000  0.45650000  1.0 0.0883834053
H  H4  1  0.35860000  0.37560000  0.45650000  1.0 0.0883834053
H  H5  1  0.34730000  0.50680000  0.55690000  1.0 0.1362063055
H  H6  1  0.34730000  0.49320000  0.55690000  1.0 0.1362063055
H  H7  1  0.47260000  0.68200000  0.00410000  1.0 0.1114021474
H  H8  1  0.47260000  0.31800000  0.00410000  1.0 0.1114021474
H  H9  1  0.37650000  0.85810000  0.97940000  1.0 0.0701152948
H  H10  1  0.37650000  0.14190000  0.97940000  1.0 0.0701152948
H  H11  1  0.46390000  0.75470000  0.89030000  1.0 -0.0101339649
H  H12  1  0.46390000  0.24530000  0.89030000  1.0 -0.0101339649
H  H13  1  0.33410000  0.80290000  0.23090000  1.0 0.1854744618
H  H14  1  0.33410000  0.19710000  0.23090000  1.0 0.1854744618
H  H15  1  0.61030000  0.79080000  0.23760000  1.0 0.2214761142
H  H16  1  0.61030000  0.20920000  0.23760000  1.0 0.2214761142
H  H17  1  0.75000000  0.97220000  0.35020000  1.0 0.1114021474
H  H18  1  0.75000000  0.02780000  0.35020000  1.0 0.1114021474
H  H19  1  0.61360000  0.83450000  0.45610000  1.0 0.0883834053
H  H20  1  0.61360000  0.16550000  0.45610000  1.0 0.0883834053
H  H21  1  0.33740000  0.17750000  0.44950000  1.0 0.0766069096
H  H22  1  0.33740000  0.82250000  0.44950000  1.0 0.0766069096
H  H23  1  0.34240000  0.73590000  0.73400000  1.0 0.1682452623
H  H24  1  0.34240000  0.26410000  0.73400000  1.0 0.1682452623
H  H25  1  0.61810000  0.75580000  0.72870000  1.0 0.2038002078
H  H26  1  0.61810000  0.24420000  0.72870000  1.0 0.2038002078
H  H27  1  0.77400000  0.54510000  0.81140000  1.0 0.0883834053
H  H28  1  0.77400000  0.45490000  0.81140000  1.0 0.0883834053
H  H29  1  0.65410000  0.68550000  0.89950000  1.0 0.159831267
H  H30  1  0.65410000  0.31450000  0.89950000  1.0 0.159831267
H  H31  1  0.37840000  0.70540000  0.90480000  1.0 0.0701152948
H  H32  1  0.37840000  0.29460000  0.90480000  1.0 0.0701152948
H  H33  1  0.37590000  0.98030000  0.05300000  1.0 -0.0244113758
H  H34  1  0.37590000  0.01970000  0.05300000  1.0 -0.0244113758
H  H35  1  0.38960000  0.82720000  0.97030000  1.0 0.009454606
H  H36  1  0.38960000  0.17280000  0.97030000  1.0 0.009454606
H  H37  1  0.44370000  0.79190000  0.08510000  1.0 0.0701152948
H  H38  1  0.44370000  0.20810000  0.08510000  1.0 0.0701152948
H  H39  1  0.37650000  0.93500000  0.03290000  1.0 0.009454606
H  H40  1  0.37650000  0.06500000  0.03290000  1.0 0.009454606
H  H41  1  0.41910000  0.89260000  0.09690000  1.0 0.0701152948
H  H42  1  0.41910000  0.10740000  0.09690000  1.0 0.0701152948
H  H43  1  0.37430000  0.87650000  0.97910000  1.0 0.0598018122
H  H44  1  0.37430000  0.12350000  0.97910000  1.0 0.0598018122
H  H45  1  0.39560000  0.90890000  0.90140000  1.0 -0.0284750854
H  H46  1  0.39560000  0.09110000  0.90140000  1.0 -0.0284750854
H  H47  1  0.36920000  0.08390000  0.96640000  1.0 0.0019491919
H  H48  1  0.36920000  0.91610000  0.96640000  1.0 0.0019491919
H  H49  1  0.43850000  0.09630000  0.85400000  1.0 0.0598018122
H  H50  1  0.43850000  0.90370000  0.85400000  1.0 0.0598018122
C  C1  1  0.05210000  0.17130000  0.38813000  1.0 0.0241236173
C  C2  1  0.05210000  0.82870000  0.38813000  1.0 0.0241236173
C  C3  1  0.06350000  0.00000000  0.22010000  1.0 0.0766069096
C  C4  1  0.06090000  0.50000000  0.71456000  1.0 0.0766069096
C  C5  1  0.07630000  0.33850000  0.88446000  1.0 0.1043766205
C  C6  1  0.07630000  0.66150000  0.88446000  1.0 0.1043766205
C  C7  1  0.40460000  0.60270000  0.52380000  1.0 -0.2735271688
C  C8  1  0.40460000  0.39730000  0.52380000  1.0 -0.2735271688
C  C9  1  0.56830000  0.55490000  0.51370000  1.0 0.2425794367
C  C10  1  0.56830000  0.44510000  0.51370000  1.0 0.2425794367
C  C11  1  0.46960000  0.78810000  0.96200000  1.0 -0.1378302659
C  C12  1  0.46960000  0.21190000  0.96200000  1.0 -0.1378302659
C  C13  1  0.61030000  0.89000000  0.98010000  1.0 0.0503677517
C  C14  1  0.61030000  0.11000000  0.98010000  1.0 0.0503677517
C  C15  1  0.30982000  0.99131000  0.33959000  1.0 -0.0284750854
C  C16  1  0.30982000  0.00869000  0.33959000  1.0 -0.0284750854
C  C17  1  0.39086000  0.87650000  0.27670000  1.0 -0.0804123218
C  C18  1  0.39086000  0.12350000  0.27670000  1.0 -0.0878002853
C  C19  1  0.55488000  0.86930000  0.28060000  1.0 -0.0101339649
C  C20  1  0.55488000  0.13070000  0.28060000  1.0 -0.0101339649
C  C21  1  0.63789000  0.97700000  0.34749000  1.0 -0.1204632904
C  C22  1  0.63789000  0.02300000  0.34749000  1.0 -0.1204632904
C  C23  1  0.55685000  0.90810000  0.41040000  1.0 -0.0420893255
C  C24  1  0.55685000  0.09190000  0.41040000  1.0 -0.0420893255
C  C25  1  0.39282000  0.09900000  0.40650000  1.0 -0.0609135787
C  C26  1  0.39282000  0.90100000  0.40650000  1.0 -0.0609135787
C  C27  1  0.33451000  0.51337000  0.81989000  1.0 -0.0284750854
C  C28  1  0.33451000  0.48663000  0.81989000  1.0 -0.0284750854
C  C29  1  0.40570000  0.65030000  0.76760000  1.0 -0.0804123218
C  C30  1  0.40570000  0.34970000  0.76760000  1.0 -0.0804123218
C  C31  1  0.56947000  0.66220000  0.76440000  1.0 -0.0101339649
C  C32  1  0.56947000  0.33780000  0.76440000  1.0 -0.0101339649
C  C33  1  0.66203000  0.53700000  0.81359000  1.0 -0.1204632904
C  C34  1  0.66203000  0.46300000  0.81359000  1.0 -0.1204632904
C  C35  1  0.59084000  0.59990000  0.86588000  1.0 -0.0420893255
C  C36  1  0.59084000  0.40010000  0.86588000  1.0 -0.0420893255
C  C37  1  0.42708000  0.61180000  0.86903000  1.0 -0.0878002853
C  C38  1  0.42708000  0.38820000  0.86903000  1.0 -0.0878002853
C  C39  1  0.43880000  0.88000000  0.03070000  1.0 -0.1204632904
C  C40  1  0.43880000  0.12000000  0.03070000  1.0 -0.1204632904
C  C41  1  0.59510000  0.01200000  0.95680000  1.0 0.0503677517
C  C42  1  0.59510000  0.98800000  0.95680000  1.0 0.0503677517
C  C43  1  0.42720000  0.94900000  0.03040000  1.0 -0.0524572778
C  C44  1  0.42720000  0.05100000  0.03040000  1.0 -0.0524572778
C  C45  1  0.59110000  0.03000000  0.00460000  1.0 0.0503677517
C  C46  1  0.59110000  0.97000000  0.00460000  1.0 0.0503677517
C  C47  1  0.59620000  0.93700000  0.00680000  1.0 0.0701152948
C  C48  1  0.59620000  0.06300000  0.00680000  1.0 0.0701152948
C  C49  1  0.43700000  0.02600000  0.91650000  1.0 -0.0725048903
C  C50  1  0.43700000  0.97400000  0.91650000  1.0 -0.0725048903
N  N1  1  0.00080000  0.29150000  0.42782000  1.0 -0.3370381828
N  N2  1  0.00080000  0.70850000  0.42782000  1.0 -0.3370381828
N  N3  1  0.02020000  0.00000000  0.13742000  1.0 -0.0101339649
N  N4  1  0.00940000  0.50000000  0.63434000  1.0 -0.3643143113
N  N5  1  0.03030000  0.21500000  0.92360000  1.0 -0.0284750854
N  N6  1  0.03030000  0.78500000  0.92360000  1.0 -0.0284750854
N  N7  1  0.69790000  0.51710000  0.50560000  1.0 -0.4342244501
N  N8  1  0.69790000  0.48290000  0.50560000  1.0 -0.4342244501
N  N9  1  0.72170000  0.97100000  0.99450000  1.0 -0.2632345121
N  N10  1  0.72170000  0.02900000  0.99450000  1.0 -0.2632345121
N  N11  1  0.72020000  0.00000000  0.98880000  1.0 -0.3467540677
N  N12  1  0.72080000  0.98300000  0.98790000  1.0 -0.3201350505
N  N13  1  0.72080000  0.01700000  0.98790000  1.0 -0.3201350505
N  N14  1  0.72090000  0.01400000  0.98420000  1.0 -0.3265220012
N  N15  1  0.72090000  0.98600000  0.98420000  1.0 -0.3265220012
