# DDEC6 charges by PACMAN v1.1 (https://github.com/mtap-research/PACMAN-charge/)
data_CAWDOU_ASR_pacman
_symmetry_space_group_name_H-M   'P 1'
_cell_length_a   13.73270000
_cell_length_b   16.41890000
_cell_length_c   16.59750000
_cell_angle_alpha   90.00000000
_cell_angle_beta   90.00000000
_cell_angle_gamma   90.00000000
_symmetry_Int_Tables_number   1
_chemical_formula_structural   CuH16C24(N4O)2
_chemical_formula_sum   'Cu4 H64 C96 N32 O8'
_cell_volume   3742.33505573
_cell_formula_units_Z   4
loop_
 _symmetry_equiv_pos_site_id
 _symmetry_equiv_pos_as_xyz
  1  'x, y, z'
loop_
 _atom_site_type_symbol
 _atom_site_label
 _atom_site_symmetry_multiplicity
 _atom_site_fract_x
 _atom_site_fract_y
 _atom_site_fract_z
 _atom_site_occupancy
 _atom_site_charge
Cu  Cu1  1  0.37634000  0.43889000  0.32204000  1.0 0.2191546224
Cu  Cu2  1  0.12366000  0.56111000  0.82204000  1.0 0.2191546224
Cu  Cu3  1  0.62366000  0.93889000  0.17796000  1.0 0.2191546224
Cu  Cu4  1  0.87634000  0.06111000  0.67796000  1.0 0.2191546224
H  H1  1  0.55560000  0.41930000  0.41900000  1.0 0.0988987333
H  H2  1  0.94440000  0.58070000  0.91900000  1.0 0.0988987333
H  H3  1  0.44440000  0.91930000  0.08100000  1.0 0.0988987333
H  H4  1  0.05560000  0.08070000  0.58100000  1.0 0.0988987333
H  H5  1  0.65470000  0.50010000  0.50260000  1.0 0.1316312713
H  H6  1  0.84530000  0.49990000  0.00260000  1.0 0.1316312713
H  H7  1  0.34530000  0.00010000  0.99740000  1.0 0.1316312713
H  H8  1  0.15470000  0.99990000  0.49740000  1.0 0.1316312713
H  H9  1  0.49120000  0.69750000  0.45340000  1.0 0.1374272682
H  H10  1  0.00880000  0.30250000  0.95340000  1.0 0.1374272682
H  H11  1  0.50880000  0.19750000  0.04660000  1.0 0.1374272682
H  H12  1  0.99120000  0.80250000  0.54660000  1.0 0.1374272682
H  H13  1  0.39810000  0.61910000  0.36840000  1.0 0.0988987333
H  H14  1  0.10190000  0.38090000  0.86840000  1.0 0.0988987333
H  H15  1  0.60190000  0.11910000  0.13160000  1.0 0.0988987333
H  H16  1  0.89810000  0.88090000  0.63160000  1.0 0.0988987333
H  H17  1  0.98200000  0.49150000  0.71550000  1.0 0.0988987333
H  H18  1  0.51800000  0.50850000  0.21550000  1.0 0.0988987333
H  H19  1  0.01800000  0.99150000  0.78450000  1.0 0.0988987333
H  H20  1  0.48200000  0.00850000  0.28450000  1.0 0.0988987333
H  H21  1  0.85410000  0.52750000  0.63320000  1.0 0.1374272682
H  H22  1  0.64590000  0.47250000  0.13320000  1.0 0.1374272682
H  H23  1  0.14590000  0.02750000  0.86680000  1.0 0.1374272682
H  H24  1  0.35410000  0.97250000  0.36680000  1.0 0.1374272682
H  H25  1  0.86840000  0.75430000  0.72360000  1.0 0.1316312713
H  H26  1  0.63160000  0.24570000  0.22360000  1.0 0.1316312713
H  H27  1  0.13160000  0.25430000  0.77640000  1.0 0.1316312713
H  H28  1  0.36840000  0.74570000  0.27640000  1.0 0.1316312713
H  H29  1  0.00920000  0.71600000  0.79270000  1.0 0.0988987333
H  H30  1  0.49080000  0.28400000  0.29270000  1.0 0.0988987333
H  H31  1  0.99080000  0.21600000  0.70730000  1.0 0.0988987333
H  H32  1  0.50920000  0.78400000  0.20730000  1.0 0.0988987333
H  H33  1  0.25090000  0.46370000  0.46890000  1.0 0.0988987333
H  H34  1  0.24910000  0.53630000  0.96890000  1.0 0.0988987333
H  H35  1  0.74910000  0.96370000  0.03110000  1.0 0.0988987333
H  H36  1  0.75090000  0.03630000  0.53110000  1.0 0.0988987333
H  H37  1  0.10960000  0.53770000  0.50470000  1.0 0.1316312713
H  H38  1  0.39040000  0.46230000  0.00470000  1.0 0.1316312713
H  H39  1  0.89040000  0.03770000  0.99530000  1.0 0.1316312713
H  H40  1  0.60960000  0.96230000  0.49530000  1.0 0.1316312713
H  H41  1  0.09490000  0.62390000  0.27880000  1.0 0.1374272682
H  H42  1  0.40510000  0.37610000  0.77880000  1.0 0.1374272682
H  H43  1  0.90510000  0.12390000  0.22120000  1.0 0.1374272682
H  H44  1  0.59490000  0.87610000  0.72120000  1.0 0.1374272682
H  H45  1  0.23810000  0.54610000  0.24780000  1.0 0.0988987333
H  H46  1  0.26190000  0.45390000  0.74780000  1.0 0.0988987333
H  H47  1  0.76190000  0.04610000  0.25220000  1.0 0.0988987333
H  H48  1  0.73810000  0.95390000  0.75220000  1.0 0.0988987333
H  H49  1  0.63800000  0.88500000  0.35970000  1.0 0.0988987333
H  H50  1  0.86200000  0.11500000  0.85970000  1.0 0.0988987333
H  H51  1  0.36200000  0.38500000  0.14030000  1.0 0.0988987333
H  H52  1  0.13800000  0.61500000  0.64030000  1.0 0.0988987333
H  H53  1  0.73280000  0.80080000  0.43360000  1.0 0.1374272682
H  H54  1  0.76720000  0.19920000  0.93360000  1.0 0.1374272682
H  H55  1  0.26720000  0.30080000  0.06640000  1.0 0.1374272682
H  H56  1  0.23280000  0.69920000  0.56640000  1.0 0.1374272682
H  H57  1  0.90330000  0.75890000  0.24150000  1.0 0.1374272682
H  H58  1  0.59670000  0.24110000  0.74150000  1.0 0.1374272682
H  H59  1  0.09670000  0.25890000  0.25850000  1.0 0.1374272682
H  H60  1  0.40330000  0.74110000  0.75850000  1.0 0.1374272682
H  H61  1  0.80610000  0.84230000  0.16730000  1.0 0.0988987333
H  H62  1  0.69390000  0.15770000  0.66730000  1.0 0.0988987333
H  H63  1  0.19390000  0.34230000  0.33270000  1.0 0.0988987333
H  H64  1  0.30610000  0.65770000  0.83270000  1.0 0.0988987333
C  C1  1  0.54210000  0.47550000  0.42660000  1.0 0.0194740677
C  C2  1  0.95790000  0.52450000  0.92660000  1.0 0.0194740677
C  C3  1  0.45790000  0.97550000  0.07340000  1.0 0.0194740677
C  C4  1  0.04210000  0.02450000  0.57340000  1.0 0.0194740677
C  C5  1  0.60160000  0.52440000  0.47490000  1.0 -0.1694519529
C  C6  1  0.89840000  0.47560000  0.97490000  1.0 -0.1694519529
C  C7  1  0.39840000  0.02440000  0.02510000  1.0 -0.1694519529
C  C8  1  0.10160000  0.97560000  0.52510000  1.0 -0.1694519529
C  C9  1  0.58550000  0.60710000  0.48340000  1.0 0.0394059848
C  C10  1  0.91450000  0.39290000  0.98340000  1.0 0.0394059848
C  C11  1  0.41450000  0.10710000  0.01660000  1.0 0.0394059848
C  C12  1  0.08550000  0.89290000  0.51660000  1.0 0.0394059848
C  C13  1  0.50610000  0.64150000  0.44590000  1.0 -0.1772891618
C  C14  1  0.99390000  0.35850000  0.94590000  1.0 -0.1772891618
C  C15  1  0.49390000  0.14150000  0.05410000  1.0 -0.1772891618
C  C16  1  0.00610000  0.85850000  0.55410000  1.0 -0.1772891618
C  C17  1  0.44910000  0.59380000  0.39780000  1.0 0.0572541347
C  C18  1  0.05090000  0.40620000  0.89780000  1.0 0.0572541347
C  C19  1  0.55090000  0.09380000  0.10220000  1.0 0.0572541347
C  C20  1  0.94910000  0.90620000  0.60220000  1.0 0.0572541347
C  C21  1  0.65030000  0.65120000  0.53530000  1.0 0.2630555816
C  C22  1  0.84970000  0.34880000  0.03530000  1.0 0.2630555816
C  C23  1  0.34970000  0.15120000  0.96470000  1.0 0.2630555816
C  C24  1  0.15030000  0.84880000  0.46470000  1.0 0.2630555816
C  C25  1  0.76270000  0.67030000  0.61950000  1.0 0.286248643
C  C26  1  0.73730000  0.32970000  0.11950000  1.0 0.286248643
C  C27  1  0.23730000  0.17030000  0.88050000  1.0 0.286248643
C  C28  1  0.26270000  0.82970000  0.38050000  1.0 0.286248643
C  C29  1  0.96000000  0.54640000  0.71540000  1.0 0.0263992511
C  C30  1  0.54000000  0.45360000  0.21540000  1.0 0.0263992511
C  C31  1  0.04000000  0.04640000  0.78460000  1.0 0.0263992511
C  C32  1  0.46000000  0.95360000  0.28460000  1.0 0.0263992511
C  C33  1  0.88330000  0.56750000  0.66680000  1.0 -0.1694519529
C  C34  1  0.61670000  0.43250000  0.16680000  1.0 -0.1694519529
C  C35  1  0.11670000  0.06750000  0.83320000  1.0 -0.1694519529
C  C36  1  0.38330000  0.93250000  0.33320000  1.0 -0.1694519529
C  C37  1  0.84880000  0.64430000  0.66620000  1.0 0.070346619
C  C38  1  0.65120000  0.35570000  0.16620000  1.0 0.070346619
C  C39  1  0.15120000  0.14430000  0.83380000  1.0 0.070346619
C  C40  1  0.34880000  0.85570000  0.33380000  1.0 0.070346619
C  C41  1  0.89340000  0.70060000  0.71840000  1.0 -0.2095299773
C  C42  1  0.60660000  0.29940000  0.21840000  1.0 -0.2095299773
C  C43  1  0.10660000  0.20060000  0.78160000  1.0 -0.2095299773
C  C44  1  0.39340000  0.79940000  0.28160000  1.0 -0.2095299773
C  C45  1  0.97450000  0.67650000  0.76220000  1.0 0.0572541347
C  C46  1  0.52550000  0.32350000  0.26220000  1.0 0.0572541347
C  C47  1  0.02550000  0.17650000  0.73780000  1.0 0.0572541347
C  C48  1  0.47450000  0.82350000  0.23780000  1.0 0.0572541347
C  C49  1  0.21920000  0.49670000  0.42990000  1.0 0.0466297232
C  C50  1  0.28080000  0.50330000  0.92990000  1.0 0.0466297232
C  C51  1  0.78080000  0.99670000  0.07010000  1.0 0.0466297232
C  C52  1  0.71920000  0.00330000  0.57010000  1.0 0.0466297232
C  C53  1  0.13510000  0.54000000  0.45150000  1.0 -0.1772891618
C  C54  1  0.36490000  0.46000000  0.95150000  1.0 -0.1772891618
C  C55  1  0.86490000  0.04000000  0.04850000  1.0 -0.1772891618
C  C56  1  0.63510000  0.96000000  0.54850000  1.0 -0.1772891618
C  C57  1  0.09210000  0.58470000  0.39400000  1.0 0.070346619
C  C58  1  0.40790000  0.41530000  0.89400000  1.0 0.070346619
C  C59  1  0.90790000  0.08470000  0.10600000  1.0 0.070346619
C  C60  1  0.59210000  0.91530000  0.60600000  1.0 0.070346619
C  C61  1  0.12600000  0.59100000  0.31830000  1.0 -0.1694519529
C  C62  1  0.37400000  0.40900000  0.81830000  1.0 -0.1694519529
C  C63  1  0.87400000  0.09100000  0.18170000  1.0 -0.1694519529
C  C64  1  0.62600000  0.90900000  0.68170000  1.0 -0.1694519529
C  C65  1  0.21190000  0.54490000  0.30070000  1.0 0.0572541347
C  C66  1  0.28810000  0.45510000  0.80070000  1.0 0.0572541347
C  C67  1  0.78810000  0.04490000  0.19930000  1.0 0.0572541347
C  C68  1  0.71190000  0.95510000  0.69930000  1.0 0.0572541347
C  C69  1  0.00310000  0.63370000  0.41440000  1.0 0.2836558558
C  C70  1  0.49690000  0.36630000  0.91440000  1.0 0.2836558558
C  C71  1  0.99690000  0.13370000  0.08560000  1.0 0.2836558558
C  C72  1  0.50310000  0.86630000  0.58560000  1.0 0.2836558558
C  C73  1  0.88690000  0.71860000  0.39200000  1.0 0.2340443693
C  C74  1  0.61310000  0.28140000  0.89200000  1.0 0.2340443693
C  C75  1  0.11310000  0.21860000  0.10800000  1.0 0.2340443693
C  C76  1  0.38690000  0.78140000  0.60800000  1.0 0.2340443693
C  C77  1  0.69140000  0.85840000  0.33460000  1.0 0.0194740677
C  C78  1  0.80860000  0.14160000  0.83460000  1.0 0.0194740677
C  C79  1  0.30860000  0.35840000  0.16540000  1.0 0.0194740677
C  C80  1  0.19140000  0.64160000  0.66540000  1.0 0.0194740677
C  C81  1  0.74810000  0.80930000  0.37840000  1.0 -0.1694519529
C  C82  1  0.75190000  0.19070000  0.87840000  1.0 -0.1694519529
C  C83  1  0.25190000  0.30930000  0.12160000  1.0 -0.1694519529
C  C84  1  0.24810000  0.69070000  0.62160000  1.0 -0.1694519529
C  C85  1  0.82860000  0.77040000  0.34590000  1.0 0.0466297232
C  C86  1  0.67140000  0.22960000  0.84590000  1.0 0.0466297232
C  C87  1  0.17140000  0.27040000  0.15410000  1.0 0.0466297232
C  C88  1  0.32860000  0.72960000  0.65410000  1.0 0.0466297232
C  C89  1  0.84850000  0.78410000  0.26600000  1.0 -0.1772891618
C  C90  1  0.65150000  0.21590000  0.76600000  1.0 -0.1772891618
C  C91  1  0.15150000  0.28410000  0.23400000  1.0 -0.1772891618
C  C92  1  0.34850000  0.71590000  0.73400000  1.0 -0.1772891618
C  C93  1  0.79020000  0.83340000  0.22230000  1.0 0.0394059848
C  C94  1  0.70980000  0.16660000  0.72230000  1.0 0.0394059848
C  C95  1  0.20980000  0.33340000  0.27770000  1.0 0.0394059848
C  C96  1  0.29020000  0.66666667  0.77770000  1.0 0.0394059848
N  N1  1  0.46130000  0.51300000  0.38970000  1.0 -0.2328631803
N  N2  1  0.03870000  0.48700000  0.88970000  1.0 -0.2328631803
N  N3  1  0.53870000  0.01300000  0.11030000  1.0 -0.2328631803
N  N4  1  0.96130000  0.98700000  0.61030000  1.0 -0.2328631803
N  N5  1  0.64960000  0.72590000  0.55730000  1.0 -0.2676727213
N  N6  1  0.85040000  0.27410000  0.05730000  1.0 -0.2676727213
N  N7  1  0.35040000  0.22590000  0.94270000  1.0 -0.2676727213
N  N8  1  0.14960000  0.77410000  0.44270000  1.0 -0.2676727213
N  N9  1  0.72630000  0.74020000  0.61150000  1.0 -0.2754943929
N  N10  1  0.77370000  0.25980000  0.11150000  1.0 -0.2754943929
N  N11  1  0.27370000  0.24020000  0.88850000  1.0 -0.2754943929
N  N12  1  0.22630000  0.75980000  0.38850000  1.0 -0.2754943929
N  N13  1  0.00440000  0.60050000  0.76250000  1.0 -0.1933665983
N  N14  1  0.49560000  0.39950000  0.26250000  1.0 -0.1933665983
N  N15  1  0.99560000  0.10050000  0.73750000  1.0 -0.1933665983
N  N16  1  0.50440000  0.89950000  0.23750000  1.0 -0.1933665983
N  N17  1  0.25530000  0.50100000  0.35620000  1.0 -0.1991494708
N  N18  1  0.24470000  0.49900000  0.85620000  1.0 -0.1991494708
N  N19  1  0.74470000  0.00100000  0.14380000  1.0 -0.1991494708
N  N20  1  0.75530000  0.99900000  0.64380000  1.0 -0.1991494708
N  N21  1  0.95750000  0.64080000  0.48030000  1.0 -0.2676727213
N  N22  1  0.54250000  0.35920000  0.98030000  1.0 -0.2676727213
N  N23  1  0.04250000  0.14080000  0.01970000  1.0 -0.2676727213
N  N24  1  0.45750000  0.85920000  0.51970000  1.0 -0.2676727213
N  N25  1  0.88100000  0.69270000  0.46700000  1.0 -0.2496254276
N  N26  1  0.61900000  0.30730000  0.96700000  1.0 -0.2496254276
N  N27  1  0.11900000  0.19270000  0.03300000  1.0 -0.2496254276
N  N28  1  0.38100000  0.80730000  0.53300000  1.0 -0.2496254276
N  N29  1  0.70880000  0.87150000  0.25310000  1.0 -0.2496254276
N  N30  1  0.79120000  0.12850000  0.75310000  1.0 -0.2496254276
N  N31  1  0.29120000  0.37150000  0.24690000  1.0 -0.2496254276
N  N32  1  0.20880000  0.62850000  0.74690000  1.0 -0.2496254276
O  O1  1  0.72360000  0.61100000  0.57430000  1.0 -0.1772891618
O  O2  1  0.77640000  0.38900000  0.07430000  1.0 -0.1772891618
O  O3  1  0.27640000  0.11100000  0.92570000  1.0 -0.1772891618
O  O4  1  0.22360000  0.88900000  0.42570000  1.0 -0.1772891618
O  O5  1  0.96540000  0.68060000  0.35490000  1.0 -0.1772891618
O  O6  1  0.53460000  0.31940000  0.85490000  1.0 -0.1772891618
O  O7  1  0.03460000  0.18060000  0.14510000  1.0 -0.1772891618
O  O8  1  0.46540000  0.81940000  0.64510000  1.0 -0.1772891618
