# DDEC6 charges by PACMAN v1.1 (https://github.com/mtap-research/PACMAN-charge/)
data_CAWDOU01_ASR_pacman
_symmetry_space_group_name_H-M   'P 1'
_cell_length_a   16.40300000
_cell_length_b   16.40300000
_cell_length_c   13.90500000
_cell_angle_alpha   90.00000000
_cell_angle_beta   90.00000000
_cell_angle_gamma   90.00000000
_symmetry_Int_Tables_number   1
_chemical_formula_structural   CuH18C24(N4O)2
_chemical_formula_sum   'Cu4 H72 C96 N32 O8'
_cell_volume   3741.25717714
_cell_formula_units_Z   4
loop_
 _symmetry_equiv_pos_site_id
 _symmetry_equiv_pos_as_xyz
  1  'x, y, z'
loop_
 _atom_site_type_symbol
 _atom_site_label
 _atom_site_symmetry_multiplicity
 _atom_site_fract_x
 _atom_site_fract_y
 _atom_site_fract_z
 _atom_site_occupancy
 _atom_site_charge
Cu  Cu1  1  0.31741000  0.31741000  0.50000000  1.0 0.0042041761
Cu  Cu2  1  0.68259000  0.68259000  0.00000000  1.0 0.0042041761
Cu  Cu3  1  0.81741000  0.18259000  0.75000000  1.0 0.0042041761
Cu  Cu4  1  0.18259000  0.81741000  0.25000000  1.0 0.0042041761
H  H1  1  0.41950000  0.33370000  0.33030000  1.0 0.0973794
H  H2  1  0.58050000  0.66630000  0.83030000  1.0 0.0973794
H  H3  1  0.83370000  0.08050000  0.58030000  1.0 0.0973794
H  H4  1  0.16630000  0.91950000  0.08030000  1.0 0.0973794
H  H5  1  0.91950000  0.16630000  0.91970000  1.0 0.0973794
H  H6  1  0.08050000  0.83370000  0.41970000  1.0 0.0973794
H  H7  1  0.33370000  0.41950000  0.66970000  1.0 0.0973794
H  H8  1  0.66630000  0.58050000  0.16970000  1.0 0.0973794
H  H9  1  0.49840000  0.26260000  0.22820000  1.0 0.1485064828
H  H10  1  0.50160000  0.73740000  0.72820000  1.0 0.1485064828
H  H11  1  0.76260000  0.00160000  0.47820000  1.0 0.1485064828
H  H12  1  0.23740000  0.99840000  0.97820000  1.0 0.1485064828
H  H13  1  0.99840000  0.23740000  0.02180000  1.0 0.1485064828
H  H14  1  0.00160000  0.76260000  0.52180000  1.0 0.1485064828
H  H15  1  0.26260000  0.49840000  0.77180000  1.0 0.1485064828
H  H16  1  0.73740000  0.50160000  0.27180000  1.0 0.1485064828
H  H17  1  0.45060000  0.06150000  0.38230000  1.0 0.1413706474
H  H18  1  0.54940000  0.93850000  0.88230000  1.0 0.1413706474
H  H19  1  0.56150000  0.04940000  0.63230000  1.0 0.1413706474
H  H20  1  0.43850000  0.95060000  0.13230000  1.0 0.1413706474
H  H21  1  0.95060000  0.43850000  0.86770000  1.0 0.1413706474
H  H22  1  0.04940000  0.56150000  0.36770000  1.0 0.1413706474
H  H23  1  0.06150000  0.45060000  0.61770000  1.0 0.1413706474
H  H24  1  0.93850000  0.54940000  0.11770000  1.0 0.1413706474
H  H25  1  0.37310000  0.13930000  0.48070000  1.0 0.1055508514
H  H26  1  0.62690000  0.86070000  0.98070000  1.0 0.1055508514
H  H27  1  0.63930000  0.12690000  0.73070000  1.0 0.1055508514
H  H28  1  0.36070000  0.87310000  0.23070000  1.0 0.1055508514
H  H29  1  0.87310000  0.36070000  0.76930000  1.0 0.1055508514
H  H30  1  0.12690000  0.63930000  0.26930000  1.0 0.1055508514
H  H31  1  0.13930000  0.37310000  0.51930000  1.0 0.1055508514
H  H32  1  0.86070000  0.62690000  0.01930000  1.0 0.1055508514
H  H33  1  0.63610000  0.22770000  0.02450000  1.0 0.1485064828
H  H34  1  0.36390000  0.77230000  0.52450000  1.0 0.1485064828
H  H35  1  0.72770000  0.86390000  0.27450000  1.0 0.1485064828
H  H36  1  0.27230000  0.13610000  0.77450000  1.0 0.1485064828
H  H37  1  0.13610000  0.27230000  0.22550000  1.0 0.1485064828
H  H38  1  0.86390000  0.72770000  0.72550000  1.0 0.1485064828
H  H39  1  0.22770000  0.63610000  0.97550000  1.0 0.1485064828
H  H40  1  0.77230000  0.36390000  0.47550000  1.0 0.1485064828
H  H41  1  0.24240000  0.21320000  0.64510000  1.0 0.0973794
H  H42  1  0.75760000  0.78680000  0.14510000  1.0 0.0973794
H  H43  1  0.71320000  0.25760000  0.89510000  1.0 0.0973794
H  H44  1  0.28680000  0.74240000  0.39510000  1.0 0.0973794
H  H45  1  0.74240000  0.28680000  0.60490000  1.0 0.0973794
H  H46  1  0.25760000  0.71320000  0.10490000  1.0 0.0973794
H  H47  1  0.21320000  0.24240000  0.35490000  1.0 0.0973794
H  H48  1  0.78680000  0.75760000  0.85490000  1.0 0.0973794
H  H49  1  0.46780000  0.28200000  0.61730000  1.0 0.0973794
H  H50  1  0.53220000  0.71800000  0.11730000  1.0 0.0973794
H  H51  1  0.78200000  0.03220000  0.86730000  1.0 0.0942788504
H  H52  1  0.21800000  0.96780000  0.36730000  1.0 0.0973794
H  H53  1  0.96780000  0.21800000  0.63270000  1.0 0.0942788504
H  H54  1  0.03220000  0.78200000  0.13270000  1.0 0.0973794
H  H55  1  0.28200000  0.46780000  0.38270000  1.0 0.0973794
H  H56  1  0.71800000  0.53220000  0.88270000  1.0 0.0973794
H  H57  1  0.71070000  0.99660000  0.00240000  1.0 0.1413706474
H  H58  1  0.28930000  0.00340000  0.50240000  1.0 0.1413706474
H  H59  1  0.49660000  0.78930000  0.25240000  1.0 0.1413706474
H  H60  1  0.50340000  0.21070000  0.75240000  1.0 0.1413706474
H  H61  1  0.21070000  0.50340000  0.24760000  1.0 0.1413706474
H  H62  1  0.78930000  0.49660000  0.74760000  1.0 0.1413706474
H  H63  1  0.99660000  0.71070000  0.99760000  1.0 0.1413706474
H  H64  1  0.00340000  0.28930000  0.49760000  1.0 0.1413706474
H  H65  1  0.22910000  0.85790000  0.20240000  1.0 0.128827878
H  H66  1  0.77090000  0.14210000  0.70240000  1.0 0.128827878
H  H67  1  0.35790000  0.27090000  0.45240000  1.0 0.128827878
H  H68  1  0.64210000  0.72910000  0.95240000  1.0 0.128827878
H  H69  1  0.72910000  0.64210000  0.04760000  1.0 0.128827878
H  H70  1  0.27090000  0.35790000  0.54760000  1.0 0.128827878
H  H71  1  0.85790000  0.22910000  0.79760000  1.0 0.128827878
H  H72  1  0.14210000  0.77090000  0.29760000  1.0 0.128827878
C  C1  1  0.42620000  0.27800000  0.34010000  1.0 0.0068460997
C  C2  1  0.57380000  0.72200000  0.84010000  1.0 0.0042041761
C  C3  1  0.77800000  0.07380000  0.59010000  1.0 0.0068460997
C  C4  1  0.22200000  0.92620000  0.09010000  1.0 0.0068460997
C  C5  1  0.92620000  0.22200000  0.90990000  1.0 0.0068460997
C  C6  1  0.07380000  0.77800000  0.40990000  1.0 0.0068460997
C  C7  1  0.27800000  0.42620000  0.65990000  1.0 0.0068460997
C  C8  1  0.72200000  0.57380000  0.15990000  1.0 0.0068460997
C  C9  1  0.47330000  0.23600000  0.27930000  1.0 -0.1811052047
C  C10  1  0.52670000  0.76400000  0.77930000  1.0 -0.1811052047
C  C11  1  0.73600000  0.02670000  0.52930000  1.0 -0.1811052047
C  C12  1  0.26400000  0.97330000  0.02930000  1.0 -0.1811052047
C  C13  1  0.97330000  0.26400000  0.97070000  1.0 -0.1811052047
C  C14  1  0.02670000  0.73600000  0.47070000  1.0 -0.1811052047
C  C15  1  0.23600000  0.47330000  0.72070000  1.0 -0.1811052047
C  C16  1  0.76400000  0.52670000  0.22070000  1.0 -0.1811052047
C  C17  1  0.48490000  0.15300000  0.29200000  1.0 0.04905865
C  C18  1  0.51510000  0.84700000  0.79200000  1.0 0.04905865
C  C19  1  0.65300000  0.01510000  0.54200000  1.0 0.04905865
C  C20  1  0.34700000  0.98490000  0.04200000  1.0 0.04905865
C  C21  1  0.98490000  0.34700000  0.95800000  1.0 0.04905865
C  C22  1  0.01510000  0.65300000  0.45800000  1.0 0.04905865
C  C23  1  0.15300000  0.48490000  0.70800000  1.0 0.04905865
C  C24  1  0.84700000  0.51510000  0.20800000  1.0 0.04905865
C  C25  1  0.44510000  0.11710000  0.37050000  1.0 -0.1811052047
C  C26  1  0.55490000  0.88290000  0.87050000  1.0 -0.185356805
C  C27  1  0.61710000  0.05490000  0.62050000  1.0 -0.185356805
C  C28  1  0.38290000  0.94510000  0.12050000  1.0 -0.185356805
C  C29  1  0.94510000  0.38290000  0.87950000  1.0 -0.185356805
C  C30  1  0.05490000  0.61710000  0.37950000  1.0 -0.185356805
C  C31  1  0.11710000  0.44510000  0.62950000  1.0 -0.185356805
C  C32  1  0.88290000  0.55490000  0.12950000  1.0 -0.185356805
C  C33  1  0.39880000  0.16370000  0.42850000  1.0 0.0213172015
C  C34  1  0.60120000  0.83630000  0.92850000  1.0 0.0213172015
C  C35  1  0.66370000  0.10120000  0.67850000  1.0 0.0213172015
C  C36  1  0.33630000  0.89880000  0.17850000  1.0 0.0213172015
C  C37  1  0.89880000  0.33630000  0.82150000  1.0 0.0213172015
C  C38  1  0.10120000  0.66370000  0.32150000  1.0 0.0213172015
C  C39  1  0.16370000  0.39880000  0.57150000  1.0 0.0213172015
C  C40  1  0.83630000  0.60120000  0.07150000  1.0 0.0213172015
C  C41  1  0.53720000  0.10590000  0.22970000  1.0 0.2813417
C  C42  1  0.46280000  0.89410000  0.72970000  1.0 0.2813417
C  C43  1  0.60590000  0.96280000  0.47970000  1.0 0.2743133463
C  C44  1  0.39410000  0.03720000  0.97970000  1.0 0.2743133463
C  C45  1  0.03720000  0.39410000  0.02030000  1.0 0.2743133463
C  C46  1  0.96280000  0.60590000  0.52030000  1.0 0.2743133463
C  C47  1  0.10590000  0.53720000  0.77030000  1.0 0.2813417
C  C48  1  0.89410000  0.46280000  0.27030000  1.0 0.2813417
C  C49  1  0.61730000  0.08650000  0.11250000  1.0 0.2813417
C  C50  1  0.38270000  0.91350000  0.61250000  1.0 0.2813417
C  C51  1  0.58650000  0.88270000  0.36250000  1.0 0.2813417
C  C52  1  0.41350000  0.11730000  0.86250000  1.0 0.2813417
C  C53  1  0.11730000  0.41350000  0.13750000  1.0 0.2813417
C  C54  1  0.88270000  0.58650000  0.63750000  1.0 0.2813417
C  C55  1  0.08650000  0.61730000  0.88750000  1.0 0.2813417
C  C56  1  0.91350000  0.38270000  0.38750000  1.0 0.2813417
C  C57  1  0.66390000  0.10630000  0.02800000  1.0 0.0602887419
C  C58  1  0.33610000  0.89370000  0.52800000  1.0 0.0602887419
C  C59  1  0.60630000  0.83610000  0.27800000  1.0 0.0602887419
C  C60  1  0.39370000  0.16390000  0.77800000  1.0 0.0602887419
C  C61  1  0.16390000  0.39370000  0.22200000  1.0 0.0602887419
C  C62  1  0.83610000  0.60630000  0.72200000  1.0 0.0602887419
C  C63  1  0.10630000  0.66390000  0.97200000  1.0 0.0602887419
C  C64  1  0.89370000  0.33610000  0.47200000  1.0 0.0602887419
C  C65  1  0.66570000  0.18690000  0.99390000  1.0 -0.1701638654
C  C66  1  0.33430000  0.81310000  0.49390000  1.0 -0.1701638654
C  C67  1  0.68690000  0.83430000  0.24390000  1.0 -0.1701638654
C  C68  1  0.31310000  0.16570000  0.74390000  1.0 -0.1701638654
C  C69  1  0.16570000  0.31310000  0.25610000  1.0 -0.1701638654
C  C70  1  0.83430000  0.68690000  0.75610000  1.0 -0.1701638654
C  C71  1  0.18690000  0.66570000  0.00610000  1.0 -0.1701638654
C  C72  1  0.81310000  0.33430000  0.50610000  1.0 -0.1701638654
C  C73  1  0.29630000  0.21140000  0.66570000  1.0 0.0213172015
C  C74  1  0.70370000  0.78860000  0.16570000  1.0 0.0213172015
C  C75  1  0.71140000  0.20370000  0.91570000  1.0 0.0213172015
C  C76  1  0.28860000  0.79630000  0.41570000  1.0 0.0213172015
C  C77  1  0.79630000  0.28860000  0.58430000  1.0 0.0213172015
C  C78  1  0.20370000  0.71140000  0.08430000  1.0 0.0213172015
C  C79  1  0.21140000  0.29630000  0.33430000  1.0 0.0213172015
C  C80  1  0.78860000  0.70370000  0.83430000  1.0 0.0213172015
C  C81  1  0.42790000  0.25260000  0.64960000  1.0 0.0068460997
C  C82  1  0.57210000  0.74740000  0.14960000  1.0 0.0068460997
C  C83  1  0.75260000  0.07210000  0.89960000  1.0 0.0068460997
C  C84  1  0.24740000  0.92790000  0.39960000  1.0 0.0068460997
C  C85  1  0.92790000  0.24740000  0.60040000  1.0 0.0068460997
C  C86  1  0.07210000  0.75260000  0.10040000  1.0 0.0068460997
C  C87  1  0.25260000  0.42790000  0.35040000  1.0 0.0068460997
C  C88  1  0.74740000  0.57210000  0.85040000  1.0 0.0068460997
C  C89  1  0.70900000  0.05020000  0.98050000  1.0 -0.1701638654
C  C90  1  0.29100000  0.94980000  0.48050000  1.0 -0.1701638654
C  C91  1  0.55020000  0.79100000  0.23050000  1.0 -0.1701638654
C  C92  1  0.44980000  0.20900000  0.73050000  1.0 -0.1701638654
C  C93  1  0.20900000  0.44980000  0.26950000  1.0 -0.1701638654
C  C94  1  0.79100000  0.55020000  0.76950000  1.0 -0.1701638654
C  C95  1  0.05020000  0.70900000  0.01950000  1.0 -0.1701638654
C  C96  1  0.94980000  0.29100000  0.51950000  1.0 -0.1701638654
N  N1  1  0.38840000  0.24270000  0.41450000  1.0 -0.185356805
N  N2  1  0.61160000  0.75730000  0.91450000  1.0 -0.1811052047
N  N3  1  0.74270000  0.11160000  0.66450000  1.0 -0.1811052047
N  N4  1  0.25730000  0.88840000  0.16450000  1.0 -0.1811052047
N  N5  1  0.88840000  0.25730000  0.83550000  1.0 -0.1811052047
N  N6  1  0.11160000  0.74270000  0.33550000  1.0 -0.1811052047
N  N7  1  0.24270000  0.38840000  0.58550000  1.0 -0.185356805
N  N8  1  0.75730000  0.61160000  0.08550000  1.0 -0.1811052047
N  N9  1  0.55530000  0.03040000  0.23180000  1.0 -0.2621890895
N  N10  1  0.44470000  0.96960000  0.73180000  1.0 -0.2621890895
N  N11  1  0.53040000  0.94470000  0.48180000  1.0 -0.2621890895
N  N12  1  0.46960000  0.05530000  0.98180000  1.0 -0.2621890895
N  N13  1  0.05530000  0.46960000  0.01820000  1.0 -0.2621890895
N  N14  1  0.94470000  0.53040000  0.51820000  1.0 -0.2621890895
N  N15  1  0.03040000  0.55530000  0.76820000  1.0 -0.2621890895
N  N16  1  0.96960000  0.44470000  0.26820000  1.0 -0.2621890895
N  N17  1  0.60970000  0.01740000  0.15530000  1.0 -0.2694799521
N  N18  1  0.39030000  0.98260000  0.65530000  1.0 -0.2694799521
N  N19  1  0.51740000  0.89030000  0.40530000  1.0 -0.2694799521
N  N20  1  0.48260000  0.10970000  0.90530000  1.0 -0.2694799521
N  N21  1  0.10970000  0.48260000  0.09470000  1.0 -0.2694799521
N  N22  1  0.89030000  0.51740000  0.59470000  1.0 -0.2694799521
N  N23  1  0.01740000  0.60970000  0.84470000  1.0 -0.2694799521
N  N24  1  0.98260000  0.39030000  0.34470000  1.0 -0.2694799521
N  N25  1  0.35100000  0.25420000  0.61570000  1.0 -0.2418518152
N  N26  1  0.64900000  0.74580000  0.11570000  1.0 -0.2418518152
N  N27  1  0.75420000  0.14900000  0.86570000  1.0 -0.2418518152
N  N28  1  0.24580000  0.85100000  0.36570000  1.0 -0.2418518152
N  N29  1  0.85100000  0.24580000  0.63430000  1.0 -0.2418518152
N  N30  1  0.14900000  0.75420000  0.13430000  1.0 -0.2418518152
N  N31  1  0.25420000  0.35100000  0.38430000  1.0 -0.2418518152
N  N32  1  0.74580000  0.64900000  0.88430000  1.0 -0.2418518152
O  O1  1  0.57246000  0.14565000  0.15451000  1.0 -0.1701638654
O  O2  1  0.42754000  0.85435000  0.65451000  1.0 -0.1701638654
O  O3  1  0.64565000  0.92754000  0.40451000  1.0 -0.1701638654
O  O4  1  0.35435000  0.07246000  0.90451000  1.0 -0.1701638654
O  O5  1  0.07246000  0.35435000  0.09549000  1.0 -0.1701638654
O  O6  1  0.92754000  0.64565000  0.59549000  1.0 -0.1701638654
O  O7  1  0.14565000  0.57246000  0.84549000  1.0 -0.1701638654
O  O8  1  0.85435000  0.42754000  0.34549000  1.0 -0.1701638654
