# DDEC6 charges by PACMAN v1.1 (https://github.com/mtap-research/PACMAN-charge/)
data_CAXWEF_ASR_pacman
_symmetry_space_group_name_H-M   'P 1'
_cell_length_a   15.15900000
_cell_length_b   15.15900000
_cell_length_c   15.15900000
_cell_angle_alpha   117.77700000
_cell_angle_beta   117.77700000
_cell_angle_gamma   117.77700000
_symmetry_Int_Tables_number   1
_chemical_formula_structural   FeH2C4O5
_chemical_formula_sum   'Fe6 H12 C24 O30'
_cell_volume   1331.09204264
_cell_formula_units_Z   6
loop_
 _symmetry_equiv_pos_site_id
 _symmetry_equiv_pos_as_xyz
  1  'x, y, z'
loop_
 _atom_site_type_symbol
 _atom_site_label
 _atom_site_symmetry_multiplicity
 _atom_site_fract_x
 _atom_site_fract_y
 _atom_site_fract_z
 _atom_site_occupancy
 _atom_site_charge
Fe  Fe1  1  0.10810000  0.52190000  0.79300000  1.0 0.9869849905
Fe  Fe2  1  0.52190000  0.79300000  0.10810000  1.0 0.9869849905
Fe  Fe3  1  0.79300000  0.10810000  0.52190000  1.0 0.9869849905
Fe  Fe4  1  0.89190000  0.47810000  0.20700000  1.0 0.9869849905
Fe  Fe5  1  0.47810000  0.20700000  0.89190000  1.0 0.9869849905
Fe  Fe6  1  0.20700000  0.89190000  0.47810000  1.0 0.9869849905
H  H1  1  0.16170000  0.75170000  0.94610000  1.0 0.3429068948
H  H2  1  0.75170000  0.94610000  0.16170000  1.0 0.3429068948
H  H3  1  0.94610000  0.16170000  0.75170000  1.0 0.3429068948
H  H4  1  0.83830000  0.24830000  0.05390000  1.0 0.3429068948
H  H5  1  0.24830000  0.05390000  0.83830000  1.0 0.3429068948
H  H6  1  0.05390000  0.83830000  0.24830000  1.0 0.3429068948
H  H7  1  0.35350000  0.81550000  0.37210000  1.0 0.1655533935
H  H8  1  0.81550000  0.37210000  0.35350000  1.0 0.1655533935
H  H9  1  0.37210000  0.35350000  0.81550000  1.0 0.1655533935
H  H10  1  0.64650000  0.18450000  0.62790000  1.0 0.1655533935
H  H11  1  0.18450000  0.62790000  0.64650000  1.0 0.1655533935
H  H12  1  0.62790000  0.64650000  0.18450000  1.0 0.1655533935
C  C1  1  0.33660000  0.72090000  0.15870000  1.0 0.5993730351
C  C2  1  0.72090000  0.15870000  0.33660000  1.0 0.5993730351
C  C3  1  0.15870000  0.33660000  0.72090000  1.0 0.5993730351
C  C4  1  0.66340000  0.27910000  0.84130000  1.0 0.5993730351
C  C5  1  0.27910000  0.84130000  0.66340000  1.0 0.5993730351
C  C6  1  0.84130000  0.66340000  0.27910000  1.0 0.5993730351
C  C7  1  0.16850000  0.62570000  0.08090000  1.0 -0.1418066944
C  C8  1  0.62570000  0.08090000  0.16850000  1.0 -0.1418066944
C  C9  1  0.08090000  0.16850000  0.62570000  1.0 -0.1418066944
C  C10  1  0.83150000  0.37430000  0.91910000  1.0 -0.1418066944
C  C11  1  0.37430000  0.91910000  0.83150000  1.0 -0.1418066944
C  C12  1  0.91910000  0.83150000  0.37430000  1.0 -0.1418066944
C  C13  1  0.96680000  0.43150000  0.86360000  1.0 0.3729393606
C  C14  1  0.43150000  0.86360000  0.96680000  1.0 0.3729393606
C  C15  1  0.86360000  0.96680000  0.43150000  1.0 0.3729393606
C  C16  1  0.03320000  0.56850000  0.13640000  1.0 0.3729393606
C  C17  1  0.56850000  0.13640000  0.03320000  1.0 0.3729393606
C  C18  1  0.13640000  0.03320000  0.56850000  1.0 0.3729393606
C  C19  1  0.19530000  0.67240000  0.20330000  1.0 -0.1418066944
C  C20  1  0.67240000  0.20330000  0.19530000  1.0 -0.1418066944
C  C21  1  0.20330000  0.19530000  0.67240000  1.0 -0.1418066944
C  C22  1  0.80470000  0.32760000  0.79670000  1.0 -0.1418066944
C  C23  1  0.32760000  0.79670000  0.80470000  1.0 -0.1418066944
C  C24  1  0.79670000  0.80470000  0.32760000  1.0 -0.1418066944
O  O1  1  0.32040000  0.67240000  0.04910000  1.0 -0.5767865255
O  O2  1  0.67240000  0.04910000  0.32040000  1.0 -0.5767865255
O  O3  1  0.04910000  0.32040000  0.67240000  1.0 -0.5767865255
O  O4  1  0.67960000  0.32760000  0.95090000  1.0 -0.5767865255
O  O5  1  0.32760000  0.95090000  0.67960000  1.0 -0.5767865255
O  O6  1  0.95090000  0.67960000  0.32760000  1.0 -0.5767865255
O  O7  1  0.52090000  0.90440000  0.37920000  1.0 -0.5186565196
O  O8  1  0.90440000  0.37920000  0.52090000  1.0 -0.5186565196
O  O9  1  0.37920000  0.52090000  0.90440000  1.0 -0.5186565196
O  O10  1  0.47910000  0.09560000  0.62080000  1.0 -0.5186565196
O  O11  1  0.09560000  0.62080000  0.47910000  1.0 -0.5186565196
O  O12  1  0.62080000  0.47910000  0.09560000  1.0 -0.5186565196
O  O13  1  0.92900000  0.36040000  0.73760000  1.0 -0.5186565196
O  O14  1  0.36040000  0.73760000  0.92900000  1.0 -0.5186565196
O  O15  1  0.73760000  0.92900000  0.36040000  1.0 -0.5186565196
O  O16  1  0.07100000  0.63960000  0.26240000  1.0 -0.5186565196
O  O17  1  0.63960000  0.26240000  0.07100000  1.0 -0.5186565196
O  O18  1  0.26240000  0.07100000  0.63960000  1.0 -0.5186565196
O  O19  1  0.20500000  0.75480000  0.89820000  1.0 -0.3438282982
O  O20  1  0.75480000  0.89820000  0.20500000  1.0 -0.3458309149
O  O21  1  0.89820000  0.20500000  0.75480000  1.0 -0.3438282982
O  O22  1  0.79500000  0.24520000  0.10180000  1.0 -0.3458309149
O  O23  1  0.24520000  0.10180000  0.79500000  1.0 -0.3438282982
O  O24  1  0.10180000  0.79500000  0.24520000  1.0 -0.3458309149
O  O25  1  0.97000000  0.56900000  0.71300000  1.0 -0.2255551492
O  O26  1  0.56900000  0.71300000  0.97000000  1.0 -0.2245350455
O  O27  1  0.71300000  0.97000000  0.56900000  1.0 -0.2255551492
O  O28  1  0.03000000  0.43100000  0.28700000  1.0 -0.2245350455
O  O29  1  0.43100000  0.28700000  0.03000000  1.0 -0.2255551492
O  O30  1  0.28700000  0.03000000  0.43100000  1.0 -0.2255551492
