# DDEC6 charges by PACMAN v1.1 (https://github.com/mtap-research/PACMAN-charge/)
data_CAYCEL_ASR_pacman
_symmetry_space_group_name_H-M   'P 1'
_cell_length_a   14.38270000
_cell_length_b   14.38270000
_cell_length_c   19.99200000
_cell_angle_alpha   90.00000000
_cell_angle_beta   90.00000000
_cell_angle_gamma   120.00000000
_symmetry_Int_Tables_number   1
_chemical_formula_structural   P2H5RuC2O7
_chemical_formula_sum   'P24 H60 Ru12 C24 O84'
_cell_volume   3581.52278610
_cell_formula_units_Z   12
loop_
 _symmetry_equiv_pos_site_id
 _symmetry_equiv_pos_as_xyz
  1  'x, y, z'
loop_
 _atom_site_type_symbol
 _atom_site_label
 _atom_site_symmetry_multiplicity
 _atom_site_fract_x
 _atom_site_fract_y
 _atom_site_fract_z
 _atom_site_occupancy
 _atom_site_charge
P  P1  1  0.55948000  0.85058000  0.96699000  1.0 1.1677602598
P  P2  1  0.14942000  0.70890000  0.96699000  1.0 1.1677602598
P  P3  1  0.29110000  0.44052000  0.96699000  1.0 1.1677602598
P  P4  1  0.29110000  0.85058000  0.53301000  1.0 1.1677602598
P  P5  1  0.55948000  0.70890000  0.53301000  1.0 1.1677602598
P  P6  1  0.14942000  0.44052000  0.53301000  1.0 1.1677602598
P  P7  1  0.44052000  0.14942000  0.03301000  1.0 1.1677602598
P  P8  1  0.85058000  0.29110000  0.03301000  1.0 1.1677602598
P  P9  1  0.70890000  0.55948000  0.03301000  1.0 1.1677602598
P  P10  1  0.70890000  0.14942000  0.46699000  1.0 1.1677602598
P  P11  1  0.44052000  0.29110000  0.46699000  1.0 1.1677602598
P  P12  1  0.85058000  0.55948000  0.46699000  1.0 1.1677602598
P  P13  1  0.55016000  0.00232000  0.86678000  1.0 1.1218286623
P  P14  1  0.99768000  0.54784000  0.86678000  1.0 1.1218286623
P  P15  1  0.45216000  0.44984000  0.86678000  1.0 1.1218286623
P  P16  1  0.45216000  0.00232000  0.63322000  1.0 1.1218286623
P  P17  1  0.55016000  0.54784000  0.63322000  1.0 1.1218286623
P  P18  1  0.99768000  0.44984000  0.63322000  1.0 1.1218286623
P  P19  1  0.44984000  0.99768000  0.13322000  1.0 1.1218286623
P  P20  1  0.00232000  0.45216000  0.13322000  1.0 1.1218286623
P  P21  1  0.54784000  0.55016000  0.13322000  1.0 1.1218286623
P  P22  1  0.54784000  0.99768000  0.36678000  1.0 1.1218286623
P  P23  1  0.44984000  0.45216000  0.36678000  1.0 1.1218286623
P  P24  1  0.00232000  0.55016000  0.36678000  1.0 1.1218286623
H  H1  1  0.73170000  0.97300000  0.88890000  1.0 0.3789340251
H  H2  1  0.02700000  0.75870000  0.88890000  1.0 0.3789340251
H  H3  1  0.24130000  0.26830000  0.88890000  1.0 0.3789340251
H  H4  1  0.24130000  0.97300000  0.61110000  1.0 0.3789340251
H  H5  1  0.73170000  0.75870000  0.61110000  1.0 0.3789340251
H  H6  1  0.02700000  0.26830000  0.61110000  1.0 0.3789340251
H  H7  1  0.26830000  0.02700000  0.11110000  1.0 0.3789340251
H  H8  1  0.97300000  0.24130000  0.11110000  1.0 0.3789340251
H  H9  1  0.75870000  0.73170000  0.11110000  1.0 0.3789340251
H  H10  1  0.75870000  0.02700000  0.38890000  1.0 0.3789340251
H  H11  1  0.26830000  0.24130000  0.38890000  1.0 0.3789340251
H  H12  1  0.97300000  0.73170000  0.38890000  1.0 0.3789340251
H  H13  1  0.51060000  0.82630000  0.79020000  1.0 0.1484586771
H  H14  1  0.17370000  0.68430000  0.79020000  1.0 0.1484586771
H  H15  1  0.31570000  0.48940000  0.79020000  1.0 0.1484586771
H  H16  1  0.31570000  0.82630000  0.70980000  1.0 0.1484586771
H  H17  1  0.51060000  0.68430000  0.70980000  1.0 0.1484586771
H  H18  1  0.17370000  0.48940000  0.70980000  1.0 0.1484586771
H  H19  1  0.48940000  0.17370000  0.20980000  1.0 0.1484586771
H  H20  1  0.82630000  0.31570000  0.20980000  1.0 0.1484586771
H  H21  1  0.68430000  0.51060000  0.20980000  1.0 0.1484586771
H  H22  1  0.68430000  0.17370000  0.29020000  1.0 0.1484586771
H  H23  1  0.48940000  0.31570000  0.29020000  1.0 0.1484586771
H  H24  1  0.82630000  0.51060000  0.29020000  1.0 0.1484586771
H  H25  1  0.43260000  0.76830000  0.85030000  1.0 0.1484586771
H  H26  1  0.23170000  0.66430000  0.85030000  1.0 0.1484586771
H  H27  1  0.33570000  0.56740000  0.85030000  1.0 0.1484586771
H  H28  1  0.33570000  0.76830000  0.64970000  1.0 0.1484586771
H  H29  1  0.43260000  0.66430000  0.64970000  1.0 0.1484586771
H  H30  1  0.23170000  0.56740000  0.64970000  1.0 0.1484586771
H  H31  1  0.56740000  0.23170000  0.14970000  1.0 0.1484586771
H  H32  1  0.76830000  0.33570000  0.14970000  1.0 0.1484586771
H  H33  1  0.66430000  0.43260000  0.14970000  1.0 0.1484586771
H  H34  1  0.66430000  0.23170000  0.35030000  1.0 0.1484586771
H  H35  1  0.56740000  0.33570000  0.35030000  1.0 0.1484586771
H  H36  1  0.76830000  0.43260000  0.35030000  1.0 0.1484586771
H  H37  1  0.52740000  0.74700000  0.83560000  1.0 0.1659554659
H  H38  1  0.25300000  0.78040000  0.83560000  1.0 0.1659554659
H  H39  1  0.21960000  0.47260000  0.83560000  1.0 0.1659554659
H  H40  1  0.21960000  0.74700000  0.66440000  1.0 0.1659554659
H  H41  1  0.52740000  0.78040000  0.66440000  1.0 0.1659554659
H  H42  1  0.25300000  0.47260000  0.66440000  1.0 0.1659554659
H  H43  1  0.47260000  0.25300000  0.16440000  1.0 0.1659554659
H  H44  1  0.74700000  0.21960000  0.16440000  1.0 0.1659554659
H  H45  1  0.78040000  0.52740000  0.16440000  1.0 0.1659554659
H  H46  1  0.78040000  0.25300000  0.33560000  1.0 0.1659554659
H  H47  1  0.47260000  0.21960000  0.33560000  1.0 0.1659554659
H  H48  1  0.74700000  0.52740000  0.33560000  1.0 0.1659554659
H  H49  1  0.53540000  0.05770000  0.76830000  1.0 0.3709641565
H  H50  1  0.94230000  0.47770000  0.76830000  1.0 0.3709641565
H  H51  1  0.52230000  0.46460000  0.76830000  1.0 0.3709641565
H  H52  1  0.52230000  0.05770000  0.73170000  1.0 0.3709641565
H  H53  1  0.53540000  0.47770000  0.73170000  1.0 0.3709641565
H  H54  1  0.94230000  0.46460000  0.73170000  1.0 0.3709641565
H  H55  1  0.46460000  0.94230000  0.23170000  1.0 0.3709641565
H  H56  1  0.05770000  0.52230000  0.23170000  1.0 0.3709641565
H  H57  1  0.47770000  0.53540000  0.23170000  1.0 0.3709641565
H  H58  1  0.47770000  0.94230000  0.26830000  1.0 0.3709641565
H  H59  1  0.46460000  0.52230000  0.26830000  1.0 0.3709641565
H  H60  1  0.05770000  0.53540000  0.26830000  1.0 0.3709641565
Ru  Ru1  1  0.40992000  0.93619000  0.98887000  1.0 1.0102937588
Ru  Ru2  1  0.06381000  0.47373000  0.98887000  1.0 1.0102937588
Ru  Ru3  1  0.52627000  0.59008000  0.98887000  1.0 1.0102937588
Ru  Ru4  1  0.52627000  0.93619000  0.51113000  1.0 1.0102937588
Ru  Ru5  1  0.40992000  0.47373000  0.51113000  1.0 1.0102937588
Ru  Ru6  1  0.06381000  0.59008000  0.51113000  1.0 1.0102937588
Ru  Ru7  1  0.59008000  0.06381000  0.01113000  1.0 1.0102937588
Ru  Ru8  1  0.93619000  0.52627000  0.01113000  1.0 1.0102937588
Ru  Ru9  1  0.47373000  0.40992000  0.01113000  1.0 1.0102937588
Ru  Ru10  1  0.47373000  0.06381000  0.48887000  1.0 1.0102937588
Ru  Ru11  1  0.59008000  0.52627000  0.48887000  1.0 1.0102937588
Ru  Ru12  1  0.93619000  0.40992000  0.48887000  1.0 1.0102937588
C  C1  1  0.57780000  0.89210000  0.88070000  1.0 -0.1650243035
C  C2  1  0.10790000  0.68570000  0.88070000  1.0 -0.1641208356
C  C3  1  0.31430000  0.42220000  0.88070000  1.0 -0.1641208356
C  C4  1  0.31430000  0.89210000  0.61930000  1.0 -0.1650243035
C  C5  1  0.57780000  0.68570000  0.61930000  1.0 -0.1641208356
C  C6  1  0.10790000  0.42220000  0.61930000  1.0 -0.1641208356
C  C7  1  0.42220000  0.10790000  0.11930000  1.0 -0.1641208356
C  C8  1  0.89210000  0.31430000  0.11930000  1.0 -0.1641208356
C  C9  1  0.68570000  0.57780000  0.11930000  1.0 -0.1641208356
C  C10  1  0.68570000  0.10790000  0.38070000  1.0 -0.1641208356
C  C11  1  0.42220000  0.31430000  0.38070000  1.0 -0.1641208356
C  C12  1  0.89210000  0.57780000  0.38070000  1.0 -0.1641208356
C  C13  1  0.50550000  0.80000000  0.83500000  1.0 -0.4229202599
C  C14  1  0.20000000  0.70550000  0.83500000  1.0 -0.4229202599
C  C15  1  0.29450000  0.49450000  0.83500000  1.0 -0.4229202599
C  C16  1  0.29450000  0.80000000  0.66500000  1.0 -0.4229202599
C  C17  1  0.50550000  0.70550000  0.66500000  1.0 -0.4229202599
C  C18  1  0.20000000  0.49450000  0.66500000  1.0 -0.4229202599
C  C19  1  0.49450000  0.20000000  0.16500000  1.0 -0.4229202599
C  C20  1  0.80000000  0.29450000  0.16500000  1.0 -0.4229202599
C  C21  1  0.70550000  0.50550000  0.16500000  1.0 -0.4229202599
C  C22  1  0.70550000  0.20000000  0.33500000  1.0 -0.4229202599
C  C23  1  0.49450000  0.29450000  0.33500000  1.0 -0.4229202599
C  C24  1  0.80000000  0.50550000  0.33500000  1.0 -0.4229202599
O  O1  1  0.44180000  0.81240000  0.98460000  1.0 -0.6097540803
O  O2  1  0.18760000  0.62940000  0.98460000  1.0 -0.6097540803
O  O3  1  0.37060000  0.55820000  0.98460000  1.0 -0.6097540803
O  O4  1  0.37060000  0.81240000  0.51540000  1.0 -0.6097540803
O  O5  1  0.44180000  0.62940000  0.51540000  1.0 -0.6097540803
O  O6  1  0.18760000  0.55820000  0.51540000  1.0 -0.6097540803
O  O7  1  0.55820000  0.18760000  0.01540000  1.0 -0.6097540803
O  O8  1  0.81240000  0.37060000  0.01540000  1.0 -0.6097540803
O  O9  1  0.62940000  0.44180000  0.01540000  1.0 -0.6097540803
O  O10  1  0.62940000  0.18760000  0.48460000  1.0 -0.6097540803
O  O11  1  0.55820000  0.37060000  0.48460000  1.0 -0.6097540803
O  O12  1  0.81240000  0.44180000  0.48460000  1.0 -0.6097540803
O  O13  1  0.63420000  0.95080000  0.00873000  1.0 -0.6097540803
O  O14  1  0.04920000  0.68340000  0.00873000  1.0 -0.6097540803
O  O15  1  0.31660000  0.36580000  0.00873000  1.0 -0.6097540803
O  O16  1  0.31660000  0.95080000  0.49127000  1.0 -0.6097540803
O  O17  1  0.63420000  0.68340000  0.49127000  1.0 -0.6097540803
O  O18  1  0.04920000  0.36580000  0.49127000  1.0 -0.6097540803
O  O19  1  0.36580000  0.04920000  0.99127000  1.0 -0.6097540803
O  O20  1  0.95080000  0.31660000  0.99127000  1.0 -0.6097540803
O  O21  1  0.68340000  0.63420000  0.99127000  1.0 -0.6097540803
O  O22  1  0.68340000  0.04920000  0.50873000  1.0 -0.6097540803
O  O23  1  0.36580000  0.31660000  0.50873000  1.0 -0.6097540803
O  O24  1  0.95080000  0.63420000  0.50873000  1.0 -0.6097540803
O  O25  1  0.59110000  0.76600000  0.97394000  1.0 -0.577316727
O  O26  1  0.23400000  0.82510000  0.97394000  1.0 -0.574930065
O  O27  1  0.17490000  0.40890000  0.97394000  1.0 -0.577316727
O  O28  1  0.17490000  0.76600000  0.52606000  1.0 -0.577316727
O  O29  1  0.59110000  0.82510000  0.52606000  1.0 -0.577316727
O  O30  1  0.23400000  0.40890000  0.52606000  1.0 -0.577316727
O  O31  1  0.40890000  0.23400000  0.02606000  1.0 -0.577316727
O  O32  1  0.76600000  0.17490000  0.02606000  1.0 -0.577316727
O  O33  1  0.82510000  0.59110000  0.02606000  1.0 -0.577316727
O  O34  1  0.82510000  0.23400000  0.47394000  1.0 -0.577316727
O  O35  1  0.40890000  0.17490000  0.47394000  1.0 -0.577316727
O  O36  1  0.76600000  0.59110000  0.47394000  1.0 -0.577316727
O  O37  1  0.43330000  0.96000000  0.88691000  1.0 -0.6358516942
O  O38  1  0.04000000  0.47330000  0.88691000  1.0 -0.6358516942
O  O39  1  0.52670000  0.56670000  0.88691000  1.0 -0.6358516942
O  O40  1  0.52670000  0.96000000  0.61309000  1.0 -0.6358516942
O  O41  1  0.43330000  0.47330000  0.61309000  1.0 -0.6342434616
O  O42  1  0.04000000  0.56670000  0.61309000  1.0 -0.6358516942
O  O43  1  0.56670000  0.04000000  0.11309000  1.0 -0.6358516942
O  O44  1  0.96000000  0.52670000  0.11309000  1.0 -0.6342434616
O  O45  1  0.47330000  0.43330000  0.11309000  1.0 -0.6358516942
O  O46  1  0.47330000  0.04000000  0.38691000  1.0 -0.6358516942
O  O47  1  0.56670000  0.52670000  0.38691000  1.0 -0.6342434616
O  O48  1  0.96000000  0.43330000  0.38691000  1.0 -0.6358516942
O  O49  1  0.62580000  0.09680000  0.91329000  1.0 -0.6097540803
O  O50  1  0.90320000  0.52900000  0.91329000  1.0 -0.6097540803
O  O51  1  0.47100000  0.37420000  0.91329000  1.0 -0.6097540803
O  O52  1  0.47100000  0.09680000  0.58671000  1.0 -0.6097540803
O  O53  1  0.62580000  0.52900000  0.58671000  1.0 -0.6097540803
O  O54  1  0.90320000  0.37420000  0.58671000  1.0 -0.6097540803
O  O55  1  0.37420000  0.90320000  0.08671000  1.0 -0.6097540803
O  O56  1  0.09680000  0.47100000  0.08671000  1.0 -0.6097540803
O  O57  1  0.52900000  0.62580000  0.08671000  1.0 -0.6097540803
O  O58  1  0.52900000  0.90320000  0.41329000  1.0 -0.6097540803
O  O59  1  0.37420000  0.47100000  0.41329000  1.0 -0.6097540803
O  O60  1  0.09680000  0.62580000  0.41329000  1.0 -0.6097540803
O  O61  1  0.57340000  0.03610000  0.79439000  1.0 -0.4977351358
O  O62  1  0.96390000  0.53730000  0.79439000  1.0 -0.4977351358
O  O63  1  0.46270000  0.42660000  0.79439000  1.0 -0.4977351358
O  O64  1  0.46270000  0.03610000  0.70561000  1.0 -0.4977351358
O  O65  1  0.57340000  0.53730000  0.70561000  1.0 -0.4977351358
O  O66  1  0.96390000  0.42660000  0.70561000  1.0 -0.4977351358
O  O67  1  0.42660000  0.96390000  0.20561000  1.0 -0.4977351358
O  O68  1  0.03610000  0.46270000  0.20561000  1.0 -0.4934705129
O  O69  1  0.53730000  0.57340000  0.20561000  1.0 -0.4977351358
O  O70  1  0.53730000  0.96390000  0.29439000  1.0 -0.4977351358
O  O71  1  0.42660000  0.46270000  0.29439000  1.0 -0.4977351358
O  O72  1  0.03610000  0.57340000  0.29439000  1.0 -0.4977351358
O  O73  1  0.68740000  0.92530000  0.86233000  1.0 -0.3866674593
O  O74  1  0.07470000  0.76210000  0.86233000  1.0 -0.3866674593
O  O75  1  0.23790000  0.31260000  0.86233000  1.0 -0.3866674593
O  O76  1  0.23790000  0.92530000  0.63767000  1.0 -0.3866674593
O  O77  1  0.68740000  0.76210000  0.63767000  1.0 -0.3866674593
O  O78  1  0.07470000  0.31260000  0.63767000  1.0 -0.3866674593
O  O79  1  0.31260000  0.07470000  0.13767000  1.0 -0.3866674593
O  O80  1  0.92530000  0.23790000  0.13767000  1.0 -0.3841779611
O  O81  1  0.76210000  0.68740000  0.13767000  1.0 -0.3866674593
O  O82  1  0.76210000  0.07470000  0.36233000  1.0 -0.3866674593
O  O83  1  0.31260000  0.23790000  0.36233000  1.0 -0.3866674593
O  O84  1  0.92530000  0.68740000  0.36233000  1.0 -0.3841779611
