# DDEC6 charges by PACMAN v1.1 (https://github.com/mtap-research/PACMAN-charge/)
data_CAYCAI_ion_pacman
_symmetry_space_group_name_H-M   'P 1'
_cell_length_a   16.06710000
_cell_length_b   16.31280000
_cell_length_c   20.86260000
_cell_angle_alpha   72.91900000
_cell_angle_beta   72.72900000
_cell_angle_gamma   80.88300000
_symmetry_Int_Tables_number   1
_chemical_formula_structural   Rb5Na2Mo12P8H44C20N4O63
_chemical_formula_sum   'Rb10 Na4 Mo24 P16 H88 C40 N8 O126'
_cell_volume   4975.97914551
_cell_formula_units_Z   2
loop_
 _symmetry_equiv_pos_site_id
 _symmetry_equiv_pos_as_xyz
  1  'x, y, z'
loop_
 _atom_site_type_symbol
 _atom_site_label
 _atom_site_symmetry_multiplicity
 _atom_site_fract_x
 _atom_site_fract_y
 _atom_site_fract_z
 _atom_site_occupancy
 _atom_site_charge
Rb  Rb1  1  0.95801000  0.94591000  0.16032000  1.0 0.9321760702
Rb  Rb2  1  0.04199000  0.05409000  0.83968000  1.0 0.9321760702
Rb  Rb3  1  0.91654000  0.65777000  0.52259000  1.0 0.9377589094
Rb  Rb4  1  0.08346000  0.34223000  0.47741000  1.0 0.9377589094
Rb  Rb5  1  0.99595000  0.42508000  0.14196000  1.0 0.9211714534
Rb  Rb6  1  0.00405000  0.57492000  0.85804000  1.0 0.9211714534
Rb  Rb7  1  0.33452000  0.07726000  0.05861000  1.0 0.9211714534
Rb  Rb8  1  0.66548000  0.92274000  0.94139000  1.0 0.9211714534
Rb  Rb9  1  0.57388000  0.00339000  0.61273000  1.0 0.9211714534
Rb  Rb10  1  0.42612000  0.99661000  0.38727000  1.0 0.9211714534
Na  Na1  1  0.75170000  0.74800000  0.24982000  1.0 0.9090293813
Na  Na2  1  0.24830000  0.25200000  0.75018000  1.0 0.9090293813
Na  Na3  1  0.18770000  0.82730000  0.55140000  1.0 0.9847284424
Na  Na4  1  0.81230000  0.17270000  0.44860000  1.0 0.9847284424
Mo  Mo1  1  0.78702000  0.52824000  0.25441000  1.0 2.1394086349
Mo  Mo2  1  0.21298000  0.47176000  0.74559000  1.0 2.1394086349
Mo  Mo3  1  0.69713000  0.42218000  0.44078000  1.0 2.1229241955
Mo  Mo4  1  0.30287000  0.57782000  0.55922000  1.0 2.1229241955
Mo  Mo5  1  0.83280000  0.43939000  0.52001000  1.0 2.0298720467
Mo  Mo6  1  0.16720000  0.56061000  0.47999000  1.0 2.0298720467
Mo  Mo7  1  0.88000000  0.79922000  0.34609000  1.0 2.1623911727
Mo  Mo8  1  0.12000000  0.20078000  0.65391000  1.0 2.1623911727
Mo  Mo9  1  0.83212000  0.03519000  0.31448000  1.0 2.0868216622
Mo  Mo10  1  0.16788000  0.96481000  0.68552000  1.0 2.0868216622
Mo  Mo11  1  0.63803000  0.06742000  0.40400000  1.0 2.0127171147
Mo  Mo12  1  0.36197000  0.93258000  0.59600000  1.0 2.0127171147
Mo  Mo13  1  0.05208000  0.83141000  0.01583000  1.0 2.1394086349
Mo  Mo14  1  0.94792000  0.16859000  0.98417000  1.0 2.1394086349
Mo  Mo15  1  0.08171000  0.63935000  0.00062000  1.0 2.0207731593
Mo  Mo16  1  0.91829000  0.36065000  0.99938000  1.0 2.0207731593
Mo  Mo17  1  0.52721000  0.78126000  0.32860000  1.0 2.13086568
Mo  Mo18  1  0.47279000  0.21874000  0.67140000  1.0 2.13086568
Mo  Mo19  1  0.43147000  0.69641000  0.22260000  1.0 2.1495984662
Mo  Mo20  1  0.56853000  0.30359000  0.77740000  1.0 2.1495984662
Mo  Mo21  1  0.44864000  0.83662000  0.07722000  1.0 2.0298720467
Mo  Mo22  1  0.55136000  0.16338000  0.92278000  1.0 2.0298720467
Mo  Mo23  1  0.81184000  0.88151000  0.07096000  1.0 2.1495984662
Mo  Mo24  1  0.18816000  0.11849000  0.92904000  1.0 2.1495984662
P  P1  1  0.83167000  0.59699000  0.37950000  1.0 1.269971596
P  P2  1  0.16833000  0.40301000  0.62050000  1.0 1.269971596
P  P3  1  0.92319000  0.42888000  0.35820000  1.0 1.2808746684
P  P4  1  0.07681000  0.57112000  0.64180000  1.0 1.2808746684
P  P5  1  0.74196000  0.88687000  0.47196000  1.0 1.2867556083
P  P6  1  0.25804000  0.11313000  0.52804000  1.0 1.2867556083
P  P7  1  0.66993000  0.88776000  0.35537000  1.0 1.2573691773
P  P8  1  0.33007000  0.11224000  0.64463000  1.0 1.2573691773
P  P9  1  0.89808000  0.67237000  0.11701000  1.0 1.2573691773
P  P10  1  0.10192000  0.32763000  0.88299000  1.0 1.2573691773
P  P11  1  0.90056000  0.74576000  0.96723000  1.0 1.2808746684
P  P12  1  0.09944000  0.25424000  0.03277000  1.0 1.269971596
P  P13  1  0.43096000  0.91892000  0.20741000  1.0 1.2867556083
P  P14  1  0.56904000  0.08108000  0.79259000  1.0 1.2867556083
P  P15  1  0.60477000  0.83302000  0.15077000  1.0 1.2808746684
P  P16  1  0.39523000  0.16698000  0.84923000  1.0 1.2808746684
H  H1  1  0.06620000  0.52810000  0.35490000  1.0 0.1106510354
H  H2  1  0.93380000  0.47190000  0.64510000  1.0 0.1106510354
H  H3  1  0.01850000  0.61840000  0.35940000  1.0 0.1186977892
H  H4  1  0.98150000  0.38160000  0.64060000  1.0 0.1186977892
H  H5  1  0.04690000  0.54820000  0.24410000  1.0 0.1106510354
H  H6  1  0.95310000  0.45180000  0.75590000  1.0 0.1106510354
H  H7  1  0.98950000  0.63460000  0.24900000  1.0 0.1186977892
H  H8  1  0.01050000  0.36540000  0.75100000  1.0 0.1186977892
H  H9  1  0.10760000  0.70220000  0.24090000  1.0 0.128139004
H  H10  1  0.89240000  0.29780000  0.75910000  1.0 0.128139004
H  H11  1  0.16610000  0.61540000  0.25000000  1.0 0.1186977892
H  H12  1  0.83390000  0.38460000  0.75000000  1.0 0.1186977892
H  H13  1  0.10960000  0.69990000  0.14070000  1.0 0.2714675534
H  H14  1  0.89040000  0.30010000  0.85930000  1.0 0.2714675534
H  H15  1  0.14580000  0.61150000  0.14920000  1.0 0.251730116
H  H16  1  0.85420000  0.38850000  0.85080000  1.0 0.251730116
H  H17  1  0.23520000  0.72540000  0.07730000  1.0 0.1488265264
H  H18  1  0.76480000  0.27460000  0.92270000  1.0 0.1488265264
H  H19  1  0.27660000  0.64160000  0.12010000  1.0 0.1393816042
H  H20  1  0.72340000  0.35840000  0.87990000  1.0 0.1393816042
H  H21  1  0.25050000  0.72360000  0.14850000  1.0 0.1393816042
H  H22  1  0.74950000  0.27640000  0.85150000  1.0 0.1393816042
H  H23  1  0.56850000  0.81400000  0.54290000  1.0 0.1186977892
H  H24  1  0.43150000  0.18600000  0.45710000  1.0 0.1186977892
H  H25  1  0.53520000  0.80930000  0.48090000  1.0 0.1186977892
H  H26  1  0.46480000  0.19070000  0.51910000  1.0 0.1186977892
H  H27  1  0.68080000  0.70940000  0.51900000  1.0 0.101817103
H  H28  1  0.31920000  0.29060000  0.48100000  1.0 0.101817103
H  H29  1  0.64940000  0.70560000  0.45550000  1.0 0.1186977892
H  H30  1  0.35060000  0.29440000  0.54450000  1.0 0.1186977892
H  H31  1  0.53750000  0.66340000  0.59660000  1.0 0.1106510354
H  H32  1  0.46250000  0.33660000  0.40340000  1.0 0.1106510354
H  H33  1  0.51250000  0.65280000  0.53250000  1.0 0.1186977892
H  H34  1  0.48750000  0.34720000  0.46750000  1.0 0.1186977892
H  H35  1  0.65090000  0.56570000  0.57040000  1.0 0.251730116
H  H36  1  0.34910000  0.43430000  0.42960000  1.0 0.251730116
H  H37  1  0.60710000  0.54850000  0.52490000  1.0 0.2772381026
H  H38  1  0.39290000  0.45150000  0.47510000  1.0 0.2772381026
H  H39  1  0.57430000  0.49510000  0.65930000  1.0 0.128139004
H  H40  1  0.42570000  0.50490000  0.34070000  1.0 0.128139004
H  H41  1  0.56440000  0.44840000  0.60640000  1.0 0.1488265264
H  H42  1  0.43560000  0.55160000  0.39360000  1.0 0.1488265264
H  H43  1  0.49220000  0.51860000  0.62940000  1.0 0.128139004
H  H44  1  0.50780000  0.48140000  0.37060000  1.0 0.128139004
H  H45  1  0.82260000  0.57270000  0.00820000  1.0 0.1186977892
H  H46  1  0.17740000  0.42730000  0.99180000  1.0 0.1186977892
H  H47  1  0.81460000  0.54400000  0.08830000  1.0 0.0914507824
H  H48  1  0.18540000  0.45600000  0.91170000  1.0 0.0914507824
H  H49  1  0.71270000  0.66540000  0.10370000  1.0 0.1186977892
H  H50  1  0.28730000  0.33460000  0.89630000  1.0 0.1186977892
H  H51  1  0.72120000  0.69480000  0.02360000  1.0 0.1106510354
H  H52  1  0.27880000  0.30520000  0.97640000  1.0 0.1186977892
H  H53  1  0.59240000  0.62430000  0.07700000  1.0 0.128139004
H  H54  1  0.40760000  0.37570000  0.92300000  1.0 0.128139004
H  H55  1  0.65850000  0.56470000  0.03440000  1.0 0.1106510354
H  H56  1  0.34150000  0.43530000  0.96560000  1.0 0.1106510354
H  H57  1  0.69880000  0.50130000  0.14310000  1.0 0.2597912493
H  H58  1  0.30120000  0.49870000  0.85690000  1.0 0.2597912493
H  H59  1  0.61500000  0.54010000  0.17620000  1.0 0.2866037059
H  H60  1  0.38500000  0.45990000  0.82380000  1.0 0.2866037059
H  H61  1  0.56620000  0.46560000  0.10570000  1.0 0.128139004
H  H62  1  0.43380000  0.53440000  0.89430000  1.0 0.128139004
H  H63  1  0.56190000  0.42490000  0.18450000  1.0 0.1393816042
H  H64  1  0.43810000  0.57510000  0.81550000  1.0 0.1393816042
H  H65  1  0.64290000  0.40150000  0.12720000  1.0 0.128139004
H  H66  1  0.35710000  0.59850000  0.87280000  1.0 0.128139004
H  H67  1  0.62540000  0.01710000  0.08240000  1.0 0.1106510354
H  H68  1  0.37460000  0.98290000  0.91760000  1.0 0.1106510354
H  H69  1  0.53440000  0.06390000  0.10880000  1.0 0.1106510354
H  H70  1  0.46560000  0.93610000  0.89120000  1.0 0.1106510354
H  H71  1  0.63780000  0.98000000  0.19940000  1.0 0.128139004
H  H72  1  0.36220000  0.02000000  0.80060000  1.0 0.128139004
H  H73  1  0.55560000  0.04510000  0.21460000  1.0 0.1106510354
H  H74  1  0.44440000  0.95490000  0.78540000  1.0 0.1106510354
H  H75  1  0.72640000  0.09250000  0.11960000  1.0 0.128139004
H  H76  1  0.27360000  0.90750000  0.88040000  1.0 0.128139004
H  H77  1  0.64430000  0.15710000  0.11140000  1.0 0.1186977892
H  H78  1  0.35570000  0.84290000  0.88860000  1.0 0.1186977892
H  H79  1  0.70260000  0.10030000  0.21860000  1.0 0.2772381026
H  H80  1  0.29740000  0.89970000  0.78140000  1.0 0.2772381026
H  H81  1  0.62240000  0.15420000  0.21550000  1.0 0.2597912493
H  H82  1  0.37760000  0.84580000  0.78450000  1.0 0.2597912493
H  H83  1  0.78430000  0.21030000  0.14160000  1.0 0.1488265264
H  H84  1  0.21570000  0.78970000  0.85840000  1.0 0.1488265264
H  H85  1  0.72900000  0.23540000  0.20970000  1.0 0.1488265264
H  H86  1  0.27100000  0.76460000  0.79030000  1.0 0.1488265264
H  H87  1  0.69670000  0.26850000  0.14190000  1.0 0.1186977892
H  H88  1  0.30330000  0.73150000  0.85810000  1.0 0.1186977892
C  C1  1  0.93340000  0.52740000  0.38040000  1.0 -0.2307017726
C  C2  1  0.06660000  0.47260000  0.61960000  1.0 -0.2307017726
C  C3  1  0.01890000  0.56880000  0.34260000  1.0 -0.2010450892
C  C4  1  0.98110000  0.43120000  0.65740000  1.0 -0.1907803654
C  C5  1  0.03900000  0.59830000  0.26200000  1.0 -0.1907803654
C  C6  1  0.96100000  0.40170000  0.73800000  1.0 -0.1907803654
C  C7  1  0.11970000  0.64710000  0.22970000  1.0 -0.0374303331
C  C8  1  0.88030000  0.35290000  0.77030000  1.0 -0.0374303331
C  C9  1  0.23500000  0.69040000  0.12320000  1.0 -0.2562902403
C  C10  1  0.76500000  0.30960000  0.87680000  1.0 -0.2562902403
C  C11  1  0.64350000  0.87730000  0.44850000  1.0 -0.2413416264
C  C12  1  0.35650000  0.12270000  0.55150000  1.0 -0.2413416264
C  C13  1  0.58720000  0.80510000  0.49660000  1.0 -0.1842900497
C  C14  1  0.41280000  0.19490000  0.50340000  1.0 -0.1842900497
C  C15  1  0.63010000  0.71610000  0.50120000  1.0 -0.1907803654
C  C16  1  0.36990000  0.28390000  0.49880000  1.0 -0.1907803654
C  C17  1  0.56070000  0.64860000  0.55250000  1.0 -0.0462103394
C  C18  1  0.43930000  0.35140000  0.44750000  1.0 -0.0462103394
C  C19  1  0.55380000  0.50190000  0.61910000  1.0 -0.2413416264
C  C20  1  0.44620000  0.49810000  0.38090000  1.0 -0.2413416264
C  C21  1  0.88970000  0.64830000  0.03750000  1.0 -0.2307017726
C  C22  1  0.11030000  0.35170000  0.96250000  1.0 -0.2307017726
C  C23  1  0.81380000  0.59360000  0.04900000  1.0 -0.2010450892
C  C24  1  0.18620000  0.40640000  0.95100000  1.0 -0.2010450892
C  C25  1  0.72210000  0.64500000  0.06270000  1.0 -0.1907803654
C  C26  1  0.27790000  0.35500000  0.93730000  1.0 -0.1907803654
C  C27  1  0.64750000  0.58940000  0.07340000  1.0 -0.0690298808
C  C28  1  0.35250000  0.41060000  0.92660000  1.0 -0.0690298808
C  C29  1  0.59990000  0.44640000  0.13920000  1.0 -0.2701115591
C  C30  1  0.40010000  0.55360000  0.86080000  1.0 -0.2701115591
C  C31  1  0.53130000  0.93220000  0.13870000  1.0 -0.2413416264
C  C32  1  0.46870000  0.06780000  0.86130000  1.0 -0.2413416264
C  C33  1  0.57530000  0.01600000  0.12240000  1.0 -0.1842900497
C  C34  1  0.42470000  0.98400000  0.87760000  1.0 -0.1842900497
C  C35  1  0.60550000  0.03140000  0.17860000  1.0 -0.2099223566
C  C36  1  0.39450000  0.96860000  0.82140000  1.0 -0.2099223566
C  C37  1  0.66920000  0.11240000  0.14440000  1.0 0.0145823079
C  C38  1  0.33080000  0.88760000  0.85560000  1.0 0.0145823079
C  C39  1  0.72620000  0.22130000  0.16890000  1.0 -0.2701115591
C  C40  1  0.27380000  0.77870000  0.83110000  1.0 -0.2701115591
N  N1  1  0.14820000  0.66100000  0.15920000  1.0 -0.1496877876
N  N2  1  0.85180000  0.33900000  0.84080000  1.0 -0.1496877876
N  N3  1  0.59800000  0.56500000  0.56410000  1.0 -0.1496877876
N  N4  1  0.40200000  0.43500000  0.43590000  1.0 -0.1496877876
N  N5  1  0.64420000  0.51950000  0.13940000  1.0 -0.1562131476
N  N6  1  0.35580000  0.48050000  0.86060000  1.0 -0.1562131476
N  N7  1  0.67660000  0.14210000  0.19020000  1.0 -0.1226585527
N  N8  1  0.32340000  0.85790000  0.80980000  1.0 -0.1226585527
O  O1  1  0.81330000  0.61730000  0.30870000  1.0 -0.8232853941
O  O2  1  0.18670000  0.38270000  0.69130000  1.0 -0.8232853941
O  O3  1  0.76540000  0.54170000  0.44050000  1.0 -0.8042850774
O  O4  1  0.23460000  0.45830000  0.55950000  1.0 -0.8042850774
O  O5  1  0.97020000  0.59480000  0.01840000  1.0 -0.5519572031
O  O6  1  0.02980000  0.40520000  0.98160000  1.0 -0.5519572031
O  O7  1  0.69730000  0.98130000  0.32460000  1.0 -0.8042850774
O  O8  1  0.30270000  0.01870000  0.67540000  1.0 -0.8042850774
O  O9  1  0.99390000  0.69530000  0.09330000  1.0 -0.812454058
O  O10  1  0.00610000  0.30470000  0.90670000  1.0 -0.812454058
O  O11  1  0.88820000  0.58890000  0.17690000  1.0 -0.7674050015
O  O12  1  0.11180000  0.41110000  0.82310000  1.0 -0.7674050015
O  O13  1  0.72240000  0.47110000  0.34410000  1.0 -0.8403172624
O  O14  1  0.27760000  0.52890000  0.65590000  1.0 -0.8403172624
O  O15  1  0.58690000  0.88000000  0.33730000  1.0 -0.7674050015
O  O16  1  0.41310000  0.12000000  0.66270000  1.0 -0.7674050015
O  O17  1  0.93120000  0.49790000  0.45400000  1.0 -0.5573499334
O  O18  1  0.06880000  0.50210000  0.54600000  1.0 -0.5573499334
O  O19  1  0.89810000  0.45400000  0.28920000  1.0 -0.7831584431
O  O20  1  0.10190000  0.54600000  0.71080000  1.0 -0.7831584431
O  O21  1  0.83200000  0.74530000  0.13380000  1.0 -0.812454058
O  O22  1  0.16800000  0.25470000  0.86620000  1.0 -0.812454058
O  O23  1  0.84120000  0.67780000  0.39780000  1.0 -0.7521191072
O  O24  1  0.15880000  0.32220000  0.60220000  1.0 -0.7521191072
O  O25  1  0.74310000  0.82150000  0.33530000  1.0 -0.812454058
O  O26  1  0.25690000  0.17850000  0.66470000  1.0 -0.812454058
O  O27  1  0.81240000  0.82070000  0.44680000  1.0 -0.7831584431
O  O28  1  0.18760000  0.17930000  0.55320000  1.0 -0.7831584431
O  O29  1  0.83310000  0.81660000  0.99040000  1.0 -0.7831584431
O  O30  1  0.16690000  0.18340000  0.00960000  1.0 -0.7831584431
O  O31  1  0.72260000  0.87970000  0.54800000  1.0 -0.6716077062
O  O32  1  0.27740000  0.12030000  0.45200000  1.0 -0.6716077062
O  O33  1  0.99690000  0.76330000  0.95900000  1.0 -0.8403172624
O  O34  1  0.00310000  0.23670000  0.04100000  1.0 -0.8403172624
O  O35  1  0.93580000  0.87650000  0.04650000  1.0 -0.9038785231
O  O36  1  0.06420000  0.12350000  0.95350000  1.0 -0.9038785231
O  O37  1  0.72520000  0.39910000  0.53020000  1.0 -0.812454058
O  O38  1  0.27480000  0.60090000  0.46980000  1.0 -0.812454058
O  O39  1  0.84720000  0.39120000  0.42010000  1.0 -0.8662309182
O  O40  1  0.15280000  0.60880000  0.57990000  1.0 -0.8662309182
O  O41  1  0.79210000  0.90860000  0.14760000  1.0 -0.6944596899
O  O42  1  0.20790000  0.09140000  0.85240000  1.0 -0.6944596899
O  O43  1  0.76220000  0.98030000  0.42810000  1.0 -0.8523613048
O  O44  1  0.23780000  0.01970000  0.57190000  1.0 -0.8523613048
O  O45  1  0.89360000  0.72510000  0.90400000  1.0 -0.6182042492
O  O46  1  0.10640000  0.27490000  0.09600000  1.0 -0.6182042492
O  O47  1  0.90950000  0.77990000  0.26610000  1.0 -0.6965868306
O  O48  1  0.09050000  0.22010000  0.73390000  1.0 -0.6965868306
O  O49  1  0.71100000  0.60520000  0.23010000  1.0 -0.6423197123
O  O50  1  0.28900000  0.39480000  0.76990000  1.0 -0.6423197123
O  O51  1  0.87700000  0.92070000  0.31620000  1.0 -0.8910939825
O  O52  1  0.12300000  0.07930000  0.68380000  1.0 -0.8910939825
O  O53  1  0.00610000  0.37130000  0.35930000  1.0 -0.6423197123
O  O54  1  0.99390000  0.62870000  0.64070000  1.0 -0.6512450366
O  O55  1  0.91110000  0.07430000  0.33170000  1.0 -0.5845204723
O  O56  1  0.08890000  0.92570000  0.66830000  1.0 -0.5845204723
O  O57  1  0.13690000  0.73460000  0.99820000  1.0 -0.8523613048
O  O58  1  0.86310000  0.26540000  0.00180000  1.0 -0.8523613048
O  O59  1  0.12800000  0.55830000  0.05650000  1.0 -0.7321217191
O  O60  1  0.87200000  0.44170000  0.94350000  1.0 -0.7321217191
O  O61  1  0.60430000  0.70510000  0.35230000  1.0 -0.6182042492
O  O62  1  0.39570000  0.29490000  0.64770000  1.0 -0.6182042492
O  O63  1  0.59000000  0.95900000  0.45530000  1.0 -0.5430343282
O  O64  1  0.41000000  0.04100000  0.54470000  1.0 -0.5430343282
O  O65  1  0.09160000  0.84500000  0.07990000  1.0 -0.7113030237
O  O66  1  0.90840000  0.15500000  0.92010000  1.0 -0.7113030237
O  O67  1  0.78470000  0.45500000  0.21200000  1.0 -0.6802397664
O  O68  1  0.21530000  0.54500000  0.78800000  1.0 -0.6802397664
O  O69  1  0.85220000  0.07330000  0.22660000  1.0 -0.6802397664
O  O70  1  0.14780000  0.92670000  0.77340000  1.0 -0.6802397664
O  O71  1  0.62430000  0.11400000  0.46950000  1.0 -0.6802397664
O  O72  1  0.37570000  0.88600000  0.53050000  1.0 -0.6802397664
O  O73  1  0.97650000  0.77760000  0.36860000  1.0 -0.6512450366
O  O74  1  0.02350000  0.22240000  0.63140000  1.0 -0.6512450366
O  O75  1  0.67630000  0.32150000  0.44450000  1.0 -0.6512450366
O  O76  1  0.32370000  0.67850000  0.55550000  1.0 -0.6512450366
O  O77  1  0.59650000  0.46960000  0.46610000  1.0 -0.6052688492
O  O78  1  0.40350000  0.53040000  0.53390000  1.0 -0.6000407072
O  O79  1  0.80540000  0.50360000  0.57610000  1.0 -0.7113030237
O  O80  1  0.19460000  0.49640000  0.42390000  1.0 -0.7113030237
O  O81  1  0.73560000  0.11840000  0.33940000  1.0 -0.8342703563
O  O82  1  0.26440000  0.88160000  0.66060000  1.0 -0.8342703563
O  O83  1  0.62150000  0.81170000  0.22170000  1.0 -0.8232853941
O  O84  1  0.37850000  0.18830000  0.77830000  1.0 -0.8232853941
O  O85  1  0.55160000  0.76940000  0.14190000  1.0 -0.7868653866
O  O86  1  0.44840000  0.23060000  0.85810000  1.0 -0.7868653866
O  O87  1  0.50670000  0.93250000  0.07650000  1.0 -0.5519572031
O  O88  1  0.49330000  0.06750000  0.92350000  1.0 -0.5519572031
O  O89  1  0.68850000  0.84500000  0.09220000  1.0 -0.7521191072
O  O90  1  0.31150000  0.15500000  0.90780000  1.0 -0.7521191072
O  O91  1  0.39540000  0.84410000  0.19370000  1.0 -0.8403172624
O  O92  1  0.60460000  0.15590000  0.80630000  1.0 -0.8403172624
O  O93  1  0.41340000  0.72690000  0.12870000  1.0 -0.8342703563
O  O94  1  0.58660000  0.27310000  0.87130000  1.0 -0.8342703563
O  O95  1  0.36970000  0.99770000  0.19770000  1.0 -0.627596466
O  O96  1  0.63030000  0.00230000  0.80230000  1.0 -0.627596466
O  O97  1  0.79050000  0.97650000  0.01590000  1.0 -0.6182042492
O  O98  1  0.20950000  0.02350000  0.98410000  1.0 -0.6182042492
O  O99  1  0.47350000  0.72190000  0.28920000  1.0 -0.8232853941
O  O100  1  0.52650000  0.27810000  0.71080000  1.0 -0.8232853941
O  O101  1  0.51380000  0.81530000  0.00240000  1.0 -0.6965868306
O  O102  1  0.48620000  0.18470000  0.99760000  1.0 -0.6965868306
O  O103  1  0.48450000  0.59730000  0.21940000  1.0 -0.6802397664
O  O104  1  0.51550000  0.40270000  0.78060000  1.0 -0.6802397664
O  O105  1  0.45330000  0.89280000  0.27650000  1.0 -0.7831584431
O  O106  1  0.54670000  0.10720000  0.72350000  1.0 -0.7868653866
O  O107  1  0.32770000  0.67250000  0.26980000  1.0 -0.627596466
O  O108  1  0.67230000  0.32750000  0.73020000  1.0 -0.627596466
O  O109  1  0.09380000  0.90940000  0.94440000  1.0 -0.6576800477
O  O110  1  0.90620000  0.09060000  0.05560000  1.0 -0.6576800477
O  O111  1  0.88730000  0.34900000  0.55940000  1.0 -0.6512450366
O  O112  1  0.11270000  0.65100000  0.44060000  1.0 -0.6512450366
O  O113  1  0.13090000  0.62210000  0.92090000  1.0 -0.6802397664
O  O114  1  0.86910000  0.37790000  0.07910000  1.0 -0.6802397664
O  O115  1  0.55780000  0.11730000  0.36420000  1.0 -0.7167787683
O  O116  1  0.44220000  0.88270000  0.63580000  1.0 -0.7167787683
O  O117  1  0.35530000  0.89020000  0.05720000  1.0 -0.6802397664
O  O118  1  0.64470000  0.10980000  0.94280000  1.0 -0.6716077062
O  O119  1  0.45010000  0.77950000  0.40410000  1.0 -0.6000407072
O  O120  1  0.54990000  0.22050000  0.59590000  1.0 -0.6000407072
O  O121  1  0.61510000  0.87590000  0.74120000  1.0 -0.3086348903
O  O122  1  0.38490000  0.12410000  0.25880000  1.0 -0.298711462
O  O123  1  0.26560000  0.22210000  0.12830000  1.0 -0.0877431911
O  O124  1  0.73440000  0.77790000  0.87170000  1.0 -0.0833515731
O  O125  1  0.12700000  0.37480000  0.22730000  1.0 -0.2701115591
O  O126  1  0.87300000  0.62520000  0.77270000  1.0 -0.2701115591
