# DDEC6 charges by PACMAN v1.1 (https://github.com/mtap-research/PACMAN-charge/)
data_CAYQOK_ASR_pacman
_symmetry_space_group_name_H-M   'P 1'
_cell_length_a   18.57440000
_cell_length_b   18.57440000
_cell_length_c   22.13000000
_cell_angle_alpha   90.00000000
_cell_angle_beta   90.00000000
_cell_angle_gamma   97.49550000
_symmetry_Int_Tables_number   1
_chemical_formula_structural   Cu4H12C79O20
_chemical_formula_sum   'Cu8 H24 C158 O40'
_cell_volume   7569.79393052
_cell_formula_units_Z   2
loop_
 _symmetry_equiv_pos_site_id
 _symmetry_equiv_pos_as_xyz
  1  'x, y, z'
loop_
 _atom_site_type_symbol
 _atom_site_label
 _atom_site_symmetry_multiplicity
 _atom_site_fract_x
 _atom_site_fract_y
 _atom_site_fract_z
 _atom_site_occupancy
 _atom_site_charge
Cu  Cu1  1  0.21235000  0.27485000  0.54606000  1.0 0.9068513841
Cu  Cu2  1  0.78765000  0.72515000  0.54606000  1.0 0.9068513841
Cu  Cu3  1  0.72515000  0.78765000  0.45394000  1.0 0.9068513841
Cu  Cu4  1  0.27485000  0.21235000  0.45394000  1.0 0.9068513841
Cu  Cu5  1  0.21699000  0.70639000  0.54127000  1.0 0.8938326866
Cu  Cu6  1  0.78301000  0.29361000  0.54127000  1.0 0.8938326866
Cu  Cu7  1  0.29361000  0.78301000  0.45873000  1.0 0.8938326866
Cu  Cu8  1  0.70639000  0.21699000  0.45873000  1.0 0.8938326866
H  H1  1  0.17000000  0.09700000  0.65530000  1.0 0.1481644124
H  H2  1  0.83000000  0.90300000  0.65530000  1.0 0.1481644124
H  H3  1  0.90300000  0.83000000  0.34470000  1.0 0.1481644124
H  H4  1  0.09700000  0.17000000  0.34470000  1.0 0.1481644124
H  H5  1  0.26290000  0.98850000  0.52370000  1.0 0.1481644124
H  H6  1  0.73710000  0.01150000  0.52370000  1.0 0.1481644124
H  H7  1  0.01150000  0.73710000  0.47630000  1.0 0.1481644124
H  H8  1  0.98850000  0.26290000  0.47630000  1.0 0.1481644124
H  H9  1  0.17290000  0.87990000  0.66980000  1.0 0.1445320576
H  H10  1  0.82710000  0.12010000  0.66980000  1.0 0.1445320576
H  H11  1  0.12010000  0.82710000  0.33020000  1.0 0.1445320576
H  H12  1  0.87990000  0.17290000  0.33020000  1.0 0.1445320576
H  H13  1  0.39780000  0.30880000  0.67150000  1.0 0.1481644124
H  H14  1  0.60220000  0.69120000  0.67150000  1.0 0.1481644124
H  H15  1  0.69120000  0.60220000  0.32850000  1.0 0.1481644124
H  H16  1  0.30880000  0.39780000  0.32850000  1.0 0.1481644124
H  H17  1  0.49330000  0.25630000  0.51580000  1.0 0.1481644124
H  H18  1  0.50670000  0.74370000  0.51580000  1.0 0.1481644124
H  H19  1  0.74370000  0.50670000  0.48420000  1.0 0.1481644124
H  H20  1  0.25630000  0.49330000  0.48420000  1.0 0.1481644124
H  H21  1  0.61460000  0.30000000  0.66680000  1.0 0.1481644124
H  H22  1  0.38540000  0.70000000  0.66680000  1.0 0.1481644124
H  H23  1  0.70000000  0.38540000  0.33320000  1.0 0.1481644124
H  H24  1  0.30000000  0.61460000  0.33320000  1.0 0.1481644124
C  C1  1  0.89400000  0.91280000  0.96780000  1.0 0.0022148143
C  C2  1  0.10600000  0.08720000  0.96780000  1.0 0.0022148143
C  C3  1  0.08720000  0.10600000  0.03220000  1.0 0.0022148143
C  C4  1  0.91280000  0.89400000  0.03220000  1.0 0.0022148143
C  C5  1  0.82130000  0.92030000  0.95820000  1.0 0.2663896635
C  C6  1  0.17870000  0.07970000  0.95820000  1.0 0.2663896635
C  C7  1  0.07970000  0.17870000  0.04180000  1.0 0.2663896635
C  C8  1  0.92030000  0.82130000  0.04180000  1.0 0.2663896635
C  C9  1  0.79890000  0.94390000  0.90250000  1.0 -0.069781858
C  C10  1  0.20110000  0.05610000  0.90250000  1.0 -0.069781858
C  C11  1  0.05610000  0.20110000  0.09750000  1.0 -0.069781858
C  C12  1  0.94390000  0.79890000  0.09750000  1.0 -0.069781858
C  C13  1  0.84930000  0.96010000  0.85640000  1.0 -0.0399221448
C  C14  1  0.15070000  0.03990000  0.85640000  1.0 -0.0399221448
C  C15  1  0.03990000  0.15070000  0.14360000  1.0 -0.0399221448
C  C16  1  0.96010000  0.84930000  0.14360000  1.0 -0.0399221448
C  C17  1  0.92190000  0.95270000  0.86590000  1.0 0.0022148143
C  C18  1  0.07810000  0.04730000  0.86590000  1.0 0.0022148143
C  C19  1  0.04730000  0.07810000  0.13410000  1.0 0.0022148143
C  C20  1  0.95270000  0.92190000  0.13410000  1.0 0.0022148143
C  C21  1  0.94420000  0.92900000  0.92160000  1.0 0.0406394367
C  C22  1  0.05580000  0.07100000  0.92160000  1.0 0.0406394367
C  C23  1  0.07100000  0.05580000  0.07840000  1.0 0.0406394367
C  C24  1  0.92900000  0.94420000  0.07840000  1.0 0.0406394367
C  C25  1  0.01690000  0.91910000  0.93260000  1.0 -0.0184119342
C  C26  1  0.98310000  0.08090000  0.93260000  1.0 -0.0184119342
C  C27  1  0.08090000  0.98310000  0.06740000  1.0 -0.0184119342
C  C28  1  0.91910000  0.01690000  0.06740000  1.0 -0.0184119342
C  C29  1  0.06870000  0.93170000  0.88720000  1.0 -0.0399221448
C  C30  1  0.93130000  0.06830000  0.88720000  1.0 -0.0399221448
C  C31  1  0.06830000  0.93130000  0.11280000  1.0 -0.0399221448
C  C32  1  0.93170000  0.06870000  0.11280000  1.0 -0.0495318836
C  C33  1  0.04810000  0.95870000  0.83290000  1.0 0.0692704629
C  C34  1  0.95190000  0.04130000  0.83290000  1.0 0.0692704629
C  C35  1  0.04130000  0.95190000  0.16710000  1.0 0.0692704629
C  C36  1  0.95870000  0.04810000  0.16710000  1.0 0.0692704629
C  C37  1  0.97570000  0.96690000  0.82130000  1.0 0.0200861928
C  C38  1  0.02430000  0.03310000  0.82130000  1.0 0.0200861928
C  C39  1  0.03310000  0.02430000  0.17870000  1.0 0.0200861928
C  C40  1  0.96690000  0.97570000  0.17870000  1.0 0.0200861928
C  C41  1  0.45560000  0.42260000  0.97260000  1.0 0.0200861928
C  C42  1  0.54440000  0.57740000  0.97260000  1.0 0.0200861928
C  C43  1  0.57740000  0.54440000  0.02740000  1.0 0.0200861928
C  C44  1  0.42260000  0.45560000  0.02740000  1.0 0.0200861928
C  C45  1  0.46060000  0.34940000  0.96380000  1.0 0.1790508509
C  C46  1  0.53940000  0.65060000  0.96380000  1.0 0.1790508509
C  C47  1  0.65060000  0.53940000  0.03620000  1.0 0.1790508509
C  C48  1  0.34940000  0.46060000  0.03620000  1.0 0.1790508509
C  C49  1  0.47920000  0.32480000  0.90730000  1.0 0.0315094471
C  C50  1  0.52080000  0.67520000  0.90730000  1.0 0.0315094471
C  C51  1  0.67520000  0.52080000  0.09270000  1.0 0.0315094471
C  C52  1  0.32480000  0.47920000  0.09270000  1.0 0.0315094471
C  C53  1  0.49270000  0.37350000  0.85960000  1.0 0.0093223243
C  C54  1  0.50730000  0.62650000  0.85960000  1.0 0.0022148143
C  C55  1  0.62650000  0.50730000  0.14040000  1.0 0.0093223243
C  C56  1  0.37350000  0.49270000  0.14040000  1.0 0.0093223243
C  C57  1  0.48750000  0.44670000  0.86850000  1.0 0.0476570532
C  C58  1  0.51250000  0.55330000  0.86850000  1.0 0.0406394367
C  C59  1  0.55330000  0.51250000  0.13150000  1.0 0.0406394367
C  C60  1  0.44670000  0.48750000  0.13150000  1.0 0.0476570532
C  C61  1  0.46900000  0.47120000  0.92500000  1.0 0.0093223243
C  C62  1  0.53100000  0.52880000  0.92500000  1.0 0.0093223243
C  C63  1  0.52880000  0.53100000  0.07500000  1.0 0.0093223243
C  C64  1  0.47120000  0.46900000  0.07500000  1.0 0.0093223243
C  C65  1  0.53020000  0.45500000  0.93720000  1.0 0.0200861928
C  C66  1  0.46980000  0.54500000  0.93720000  1.0 0.0200861928
C  C67  1  0.54500000  0.46980000  0.06280000  1.0 0.0200861928
C  C68  1  0.45500000  0.53020000  0.06280000  1.0 0.0200861928
C  C69  1  0.51590000  0.40310000  0.89200000  1.0 0.0406394367
C  C70  1  0.48410000  0.59690000  0.89200000  1.0 0.0406394367
C  C71  1  0.59690000  0.48410000  0.10800000  1.0 0.0406394367
C  C72  1  0.40310000  0.51590000  0.10800000  1.0 0.0406394367
C  C73  1  0.50130000  0.42730000  0.83390000  1.0 -0.0026219659
C  C74  1  0.49870000  0.57270000  0.83390000  1.0 0.0022148143
C  C75  1  0.57270000  0.49870000  0.16610000  1.0 -0.0026219659
C  C76  1  0.42730000  0.50130000  0.16610000  1.0 -0.0026219659
C  C77  1  0.50000000  0.50000000  0.82280000  1.0 -0.1195333024
C  C78  1  0.50000000  0.50000000  0.17720000  1.0 -0.1195333024
C  C79  1  0.16570000  0.98850000  0.67120000  1.0 0.1145153224
C  C80  1  0.83430000  0.01150000  0.67120000  1.0 0.1145153224
C  C81  1  0.01150000  0.83430000  0.32880000  1.0 0.1145153224
C  C82  1  0.98850000  0.16570000  0.32880000  1.0 0.1145153224
C  C83  1  0.18290000  0.05290000  0.63950000  1.0 -0.0915228136
C  C84  1  0.81710000  0.94710000  0.63950000  1.0 -0.0915228136
C  C85  1  0.94710000  0.81710000  0.36050000  1.0 -0.0915228136
C  C86  1  0.05290000  0.18290000  0.36050000  1.0 -0.0915228136
C  C87  1  0.21920000  0.05300000  0.58450000  1.0 -0.0399221448
C  C88  1  0.78080000  0.94700000  0.58450000  1.0 -0.0399221448
C  C89  1  0.94700000  0.78080000  0.41550000  1.0 -0.0399221448
C  C90  1  0.05300000  0.21920000  0.41550000  1.0 -0.0399221448
C  C91  1  0.23810000  0.98850000  0.56130000  1.0 -0.069781858
C  C92  1  0.76190000  0.01150000  0.56130000  1.0 -0.069781858
C  C93  1  0.01150000  0.76190000  0.43870000  1.0 -0.069781858
C  C94  1  0.98850000  0.23810000  0.43870000  1.0 -0.069781858
C  C95  1  0.22100000  0.92400000  0.59310000  1.0 -0.0399221448
C  C96  1  0.77900000  0.07600000  0.59310000  1.0 -0.0399221448
C  C97  1  0.07600000  0.77900000  0.40690000  1.0 -0.0399221448
C  C98  1  0.92400000  0.22100000  0.40690000  1.0 -0.0399221448
C  C99  1  0.18470000  0.92390000  0.64810000  1.0 -0.0915228136
C  C100  1  0.81530000  0.07610000  0.64810000  1.0 -0.0915228136
C  C101  1  0.07610000  0.81530000  0.35190000  1.0 -0.0952487409
C  C102  1  0.92390000  0.18470000  0.35190000  1.0 -0.0952487409
C  C103  1  0.23720000  0.85520000  0.56630000  1.0 0.5991981953
C  C104  1  0.76280000  0.14480000  0.56630000  1.0 0.5991981953
C  C105  1  0.14480000  0.76280000  0.43370000  1.0 0.5991981953
C  C106  1  0.85520000  0.23720000  0.43370000  1.0 0.5991981953
C  C107  1  0.23030000  0.12290000  0.55250000  1.0 0.5900793453
C  C108  1  0.76970000  0.87710000  0.55250000  1.0 0.5900793453
C  C109  1  0.87710000  0.76970000  0.44750000  1.0 0.5900793453
C  C110  1  0.12290000  0.23030000  0.44750000  1.0 0.5900793453
C  C111  1  0.36680000  0.27460000  0.55670000  1.0 0.5900793453
C  C112  1  0.63320000  0.72540000  0.55670000  1.0 0.5900793453
C  C113  1  0.72540000  0.63320000  0.44330000  1.0 0.5900793453
C  C114  1  0.27460000  0.36680000  0.44330000  1.0 0.5900793453
C  C115  1  0.63080000  0.26860000  0.55260000  1.0 0.5900793453
C  C116  1  0.36920000  0.73140000  0.55260000  1.0 0.5900793453
C  C117  1  0.73140000  0.36920000  0.44740000  1.0 0.5900793453
C  C118  1  0.26860000  0.63080000  0.44740000  1.0 0.5900793453
C  C119  1  0.50700000  0.30740000  0.67870000  1.0 0.1328609765
C  C120  1  0.49300000  0.69260000  0.67870000  1.0 0.1328609765
C  C121  1  0.69260000  0.49300000  0.32130000  1.0 0.1328609765
C  C122  1  0.30740000  0.50700000  0.32130000  1.0 0.1328609765
C  C123  1  0.44010000  0.30050000  0.64980000  1.0 -0.0801563233
C  C124  1  0.55990000  0.69950000  0.64980000  1.0 -0.0801563233
C  C125  1  0.69950000  0.55990000  0.35020000  1.0 -0.0801563233
C  C126  1  0.30050000  0.44010000  0.35020000  1.0 -0.0801563233
C  C127  1  0.43490000  0.28150000  0.58910000  1.0 -0.0495318836
C  C128  1  0.56510000  0.71850000  0.58910000  1.0 -0.0495318836
C  C129  1  0.71850000  0.56510000  0.41090000  1.0 -0.0495318836
C  C130  1  0.28150000  0.43490000  0.41090000  1.0 -0.0495318836
C  C131  1  0.49670000  0.26930000  0.55730000  1.0 -0.069781858
C  C132  1  0.50330000  0.73070000  0.55730000  1.0 -0.069781858
C  C133  1  0.73070000  0.50330000  0.44270000  1.0 -0.069781858
C  C134  1  0.26930000  0.49670000  0.44270000  1.0 -0.069781858
C  C135  1  0.56370000  0.27630000  0.58620000  1.0 -0.0344092593
C  C136  1  0.43630000  0.72370000  0.58620000  1.0 -0.0344092593
C  C137  1  0.72370000  0.43630000  0.41380000  1.0 -0.0344092593
C  C138  1  0.27630000  0.56370000  0.41380000  1.0 -0.0344092593
C  C139  1  0.56880000  0.29520000  0.64700000  1.0 -0.0915228136
C  C140  1  0.43120000  0.70480000  0.64700000  1.0 -0.0915228136
C  C141  1  0.70480000  0.43120000  0.35300000  1.0 -0.0915228136
C  C142  1  0.29520000  0.56880000  0.35300000  1.0 -0.0915228136
C  C143  1  0.09700000  0.97240000  0.78290000  1.0 -0.0495318836
C  C144  1  0.90300000  0.02760000  0.78290000  1.0 -0.0495318836
C  C145  1  0.02760000  0.90300000  0.21710000  1.0 -0.0495318836
C  C146  1  0.97240000  0.09700000  0.21710000  1.0 -0.0495318836
C  C147  1  0.12880000  0.98800000  0.72770000  1.0 -0.1195333024
C  C148  1  0.87120000  0.01200000  0.72770000  1.0 -0.1195333024
C  C149  1  0.01200000  0.87120000  0.27230000  1.0 -0.1195333024
C  C150  1  0.98800000  0.12880000  0.27230000  1.0 -0.1195333024
C  C151  1  0.49820000  0.34660000  0.79940000  1.0 0.0406394367
C  C152  1  0.50180000  0.65340000  0.79940000  1.0 0.0406394367
C  C153  1  0.65340000  0.50180000  0.20060000  1.0 0.0406394367
C  C154  1  0.34660000  0.49820000  0.20060000  1.0 0.0406394367
C  C155  1  0.51210000  0.32750000  0.74140000  1.0 -0.2087216943
C  C156  1  0.48790000  0.67250000  0.74140000  1.0 -0.2087216943
C  C157  1  0.67250000  0.48790000  0.25860000  1.0 -0.2087216943
C  C158  1  0.32750000  0.51210000  0.25860000  1.0 -0.2087216943
O  O1  1  0.21600000  0.79460000  0.59190000  1.0 -0.5081482649
O  O2  1  0.78400000  0.20540000  0.59190000  1.0 -0.5081482649
O  O3  1  0.20540000  0.78400000  0.40810000  1.0 -0.5081482649
O  O4  1  0.79460000  0.21600000  0.40810000  1.0 -0.5081482649
O  O5  1  0.27430000  0.86050000  0.51680000  1.0 -0.5481002748
O  O6  1  0.72570000  0.13950000  0.51680000  1.0 -0.5481002748
O  O7  1  0.13950000  0.72570000  0.48320000  1.0 -0.5481002748
O  O8  1  0.86050000  0.27430000  0.48320000  1.0 -0.5481002748
O  O9  1  0.21360000  0.18120000  0.57890000  1.0 -0.5312263339
O  O10  1  0.78640000  0.81880000  0.57890000  1.0 -0.5312263339
O  O11  1  0.81880000  0.78640000  0.42110000  1.0 -0.5312263339
O  O12  1  0.18120000  0.21360000  0.42110000  1.0 -0.5312263339
O  O13  1  0.25110000  0.12330000  0.49600000  1.0 -0.5081482649
O  O14  1  0.74890000  0.87670000  0.49600000  1.0 -0.5081482649
O  O15  1  0.87670000  0.74890000  0.50400000  1.0 -0.5081482649
O  O16  1  0.12330000  0.25110000  0.50400000  1.0 -0.5081482649
O  O17  1  0.31290000  0.30310000  0.57760000  1.0 -0.4998432815
O  O18  1  0.68710000  0.69690000  0.57760000  1.0 -0.4998432815
O  O19  1  0.69690000  0.68710000  0.42240000  1.0 -0.4998432815
O  O20  1  0.30310000  0.31290000  0.42240000  1.0 -0.4998432815
O  O21  1  0.36450000  0.24050000  0.50620000  1.0 -0.5228587061
O  O22  1  0.63550000  0.75950000  0.50620000  1.0 -0.5228587061
O  O23  1  0.75950000  0.63550000  0.49380000  1.0 -0.5228587061
O  O24  1  0.24050000  0.36450000  0.49380000  1.0 -0.5228587061
O  O25  1  0.69180000  0.29340000  0.57520000  1.0 -0.4901193648
O  O26  1  0.30820000  0.70660000  0.57520000  1.0 -0.4901193648
O  O27  1  0.70660000  0.30820000  0.42480000  1.0 -0.4901193648
O  O28  1  0.29340000  0.69180000  0.42480000  1.0 -0.4901193648
O  O29  1  0.62770000  0.23790000  0.50000000  1.0 -0.4998432815
O  O30  1  0.37230000  0.76210000  0.50000000  1.0 -0.4998432815
O  O31  1  0.76210000  0.37230000  0.50000000  1.0 -0.4998432815
O  O32  1  0.23790000  0.62770000  0.50000000  1.0 -0.4998432815
O  O33  1  0.77650000  0.91050000  0.00650000  1.0 -0.407257174
O  O34  1  0.22350000  0.08950000  0.00650000  1.0 -0.407257174
O  O35  1  0.08950000  0.22350000  0.99350000  1.0 -0.407257174
O  O36  1  0.91050000  0.77650000  0.99350000  1.0 -0.407257174
O  O37  1  0.44700000  0.30300000  0.01100000  1.0 -0.315644142
O  O38  1  0.55300000  0.69700000  0.01100000  1.0 -0.315644142
O  O39  1  0.69700000  0.55300000  0.98900000  1.0 -0.3079659313
O  O40  1  0.30300000  0.44700000  0.98900000  1.0 -0.3079659313
