# DDEC6 charges by PACMAN v1.1 (https://github.com/mtap-research/PACMAN-charge/)
data_CAYQIE_ASR_pacman
_symmetry_space_group_name_H-M   'P 1'
_cell_length_a   18.84230000
_cell_length_b   18.84230000
_cell_length_c   21.92100000
_cell_angle_alpha   90.00000000
_cell_angle_beta   90.00000000
_cell_angle_gamma   90.00000000
_symmetry_Int_Tables_number   1
_chemical_formula_structural   Cu4H12C87O20
_chemical_formula_sum   'Cu8 H24 C174 O40'
_cell_volume   7782.66237511
_cell_formula_units_Z   2
loop_
 _symmetry_equiv_pos_site_id
 _symmetry_equiv_pos_as_xyz
  1  'x, y, z'
loop_
 _atom_site_type_symbol
 _atom_site_label
 _atom_site_symmetry_multiplicity
 _atom_site_fract_x
 _atom_site_fract_y
 _atom_site_fract_z
 _atom_site_occupancy
 _atom_site_charge
Cu  Cu1  1  0.79061000  0.77478000  0.41644000  1.0 0.8322401006
Cu  Cu2  1  0.20939000  0.22522000  0.41644000  1.0 0.8322401006
Cu  Cu3  1  0.22522000  0.79061000  0.41644000  1.0 0.8322401006
Cu  Cu4  1  0.77478000  0.20939000  0.41644000  1.0 0.8322401006
Cu  Cu5  1  0.29065000  0.72307000  0.32572000  1.0 0.8671632666
Cu  Cu6  1  0.70935000  0.27693000  0.32572000  1.0 0.8671632666
Cu  Cu7  1  0.27693000  0.29065000  0.32572000  1.0 0.8671632666
Cu  Cu8  1  0.72307000  0.70935000  0.32572000  1.0 0.8671632666
H  H1  1  0.69350000  0.88150000  0.21050000  1.0 0.1468804344
H  H2  1  0.30650000  0.11850000  0.21050000  1.0 0.1468804344
H  H3  1  0.11850000  0.69350000  0.21050000  1.0 0.1468804344
H  H4  1  0.88150000  0.30650000  0.21050000  1.0 0.1468804344
H  H5  1  0.75020000  0.99850000  0.35780000  1.0 0.1295259796
H  H6  1  0.24980000  0.00150000  0.35780000  1.0 0.1295259796
H  H7  1  0.00150000  0.75020000  0.35780000  1.0 0.1295259796
H  H8  1  0.99850000  0.24980000  0.35780000  1.0 0.1295259796
H  H9  1  0.68450000  0.09620000  0.20310000  1.0 0.1429220421
H  H10  1  0.31550000  0.90380000  0.20310000  1.0 0.1429220421
H  H11  1  0.90380000  0.68450000  0.20310000  1.0 0.1429220421
H  H12  1  0.09620000  0.31550000  0.20310000  1.0 0.1429220421
H  H13  1  0.51290000  0.74280000  0.38780000  1.0 0.1577731329
H  H14  1  0.48710000  0.25720000  0.38780000  1.0 0.1577731329
H  H15  1  0.25720000  0.51290000  0.38780000  1.0 0.1577731329
H  H16  1  0.74280000  0.48710000  0.38780000  1.0 0.1577731329
H  H17  1  0.40470000  0.82110000  0.53270000  1.0 0.1468804344
H  H18  1  0.59530000  0.17890000  0.53270000  1.0 0.1468804344
H  H19  1  0.17890000  0.40470000  0.53270000  1.0 0.1468804344
H  H20  1  0.82110000  0.59530000  0.53270000  1.0 0.1468804344
H  H21  1  0.61900000  0.80440000  0.53960000  1.0 0.1429220421
H  H22  1  0.38100000  0.19560000  0.53960000  1.0 0.1429220421
H  H23  1  0.19560000  0.61900000  0.53960000  1.0 0.1429220421
H  H24  1  0.80440000  0.38100000  0.53960000  1.0 0.1429220421
C  C1  1  0.57970000  0.93470000  0.99480000  1.0 0.0104293186
C  C2  1  0.42030000  0.06530000  0.99480000  1.0 0.0104293186
C  C3  1  0.06530000  0.57970000  0.99480000  1.0 0.0104293186
C  C4  1  0.93470000  0.42030000  0.99480000  1.0 0.0104293186
C  C5  1  0.53420000  0.92660000  0.94540000  1.0 0.0104293186
C  C6  1  0.46580000  0.07340000  0.94540000  1.0 0.0104293186
C  C7  1  0.07340000  0.53420000  0.94540000  1.0 0.0104293186
C  C8  1  0.92660000  0.46580000  0.94540000  1.0 0.0104293186
C  C9  1  0.46250000  0.94220000  0.95160000  1.0 0.0197288338
C  C10  1  0.53750000  0.05780000  0.95160000  1.0 0.0197288338
C  C11  1  0.05780000  0.46250000  0.95160000  1.0 0.0197288338
C  C12  1  0.94220000  0.53750000  0.95160000  1.0 0.0197288338
C  C13  1  0.43630000  0.96610000  0.00720000  1.0 0.0197288338
C  C14  1  0.56370000  0.03390000  0.00720000  1.0 0.0104293186
C  C15  1  0.03390000  0.43630000  0.00720000  1.0 0.0197288338
C  C16  1  0.96610000  0.56370000  0.00720000  1.0 0.0197288338
C  C17  1  0.48180000  0.97420000  0.05670000  1.0 -0.0208721603
C  C18  1  0.51820000  0.02580000  0.05670000  1.0 -0.0208721603
C  C19  1  0.02580000  0.48180000  0.05670000  1.0 -0.0208721603
C  C20  1  0.97420000  0.51820000  0.05670000  1.0 -0.0208721603
C  C21  1  0.36820000  0.77430000  0.42120000  1.0 0.5721283067
C  C22  1  0.63180000  0.22570000  0.42120000  1.0 0.5721283067
C  C23  1  0.22570000  0.36820000  0.42120000  1.0 0.5721283067
C  C24  1  0.77430000  0.63180000  0.42120000  1.0 0.5721283067
C  C25  1  0.47710000  0.87420000  0.72450000  1.0 0.0581420879
C  C26  1  0.52290000  0.12580000  0.72450000  1.0 0.0581420879
C  C27  1  0.12580000  0.47710000  0.72450000  1.0 0.0581420879
C  C28  1  0.87420000  0.52290000  0.72450000  1.0 0.0581420879
C  C29  1  0.45600000  0.82770000  0.77020000  1.0 -0.1196887199
C  C30  1  0.54400000  0.17230000  0.77020000  1.0 -0.1196887199
C  C31  1  0.17230000  0.45600000  0.77020000  1.0 -0.1196887199
C  C32  1  0.82770000  0.54400000  0.77020000  1.0 -0.1196887199
C  C33  1  0.43570000  0.85400000  0.82690000  1.0 0.222737636
C  C34  1  0.56430000  0.14600000  0.82690000  1.0 0.222737636
C  C35  1  0.14600000  0.43570000  0.82690000  1.0 0.222737636
C  C36  1  0.85400000  0.56430000  0.82690000  1.0 0.222737636
C  C37  1  0.43650000  0.92660000  0.83770000  1.0 -0.0404470586
C  C38  1  0.56350000  0.07340000  0.83770000  1.0 -0.0404470586
C  C39  1  0.07340000  0.43650000  0.83770000  1.0 -0.0404470586
C  C40  1  0.92660000  0.56350000  0.83770000  1.0 -0.0404470586
C  C41  1  0.45760000  0.97310000  0.79200000  1.0 0.0410077093
C  C42  1  0.54240000  0.02690000  0.79200000  1.0 0.0410077093
C  C43  1  0.02690000  0.45760000  0.79200000  1.0 0.0410077093
C  C44  1  0.97310000  0.54240000  0.79200000  1.0 0.0410077093
C  C45  1  0.68510000  0.98820000  0.19730000  1.0 0.1295259796
C  C46  1  0.31490000  0.01180000  0.19730000  1.0 0.1295259796
C  C47  1  0.01180000  0.68510000  0.19730000  1.0 0.1295259796
C  C48  1  0.98820000  0.31490000  0.19730000  1.0 0.1295259796
C  C49  1  0.69990000  0.92640000  0.22940000  1.0 -0.1196887199
C  C50  1  0.30010000  0.07360000  0.22940000  1.0 -0.1196887199
C  C51  1  0.07360000  0.69990000  0.22940000  1.0 -0.1196887199
C  C52  1  0.92640000  0.30010000  0.22940000  1.0 -0.1196887199
C  C53  1  0.72420000  0.93020000  0.28920000  1.0 -0.0601587238
C  C54  1  0.27580000  0.06980000  0.28920000  1.0 -0.0676699273
C  C55  1  0.06980000  0.72420000  0.28920000  1.0 -0.0676699273
C  C56  1  0.93020000  0.27580000  0.28920000  1.0 -0.0601587238
C  C57  1  0.73360000  0.99590000  0.31690000  1.0 -0.0676699273
C  C58  1  0.26640000  0.00410000  0.31690000  1.0 -0.0676699273
C  C59  1  0.00410000  0.73360000  0.31690000  1.0 -0.0676699273
C  C60  1  0.99590000  0.26640000  0.31690000  1.0 -0.0676699273
C  C61  1  0.71880000  0.05770000  0.28480000  1.0 -0.0601587238
C  C62  1  0.28120000  0.94230000  0.28480000  1.0 -0.0601587238
C  C63  1  0.94230000  0.71880000  0.28480000  1.0 -0.0601587238
C  C64  1  0.05770000  0.28120000  0.28480000  1.0 -0.0601587238
C  C65  1  0.69460000  0.05390000  0.22500000  1.0 -0.0901769894
C  C66  1  0.30540000  0.94610000  0.22500000  1.0 -0.0901769894
C  C67  1  0.94610000  0.69460000  0.22500000  1.0 -0.0901769894
C  C68  1  0.05390000  0.30540000  0.22500000  1.0 -0.0901769894
C  C69  1  0.51260000  0.76170000  0.42790000  1.0 -0.105598113
C  C70  1  0.48740000  0.23830000  0.42790000  1.0 -0.105598113
C  C71  1  0.23830000  0.51260000  0.42790000  1.0 -0.105598113
C  C72  1  0.76170000  0.48740000  0.42790000  1.0 -0.105598113
C  C73  1  0.44880000  0.78050000  0.45530000  1.0 0.0104293186
C  C74  1  0.55120000  0.21950000  0.45530000  1.0 0.0104293186
C  C75  1  0.21950000  0.44880000  0.45530000  1.0 0.0104293186
C  C76  1  0.78050000  0.55120000  0.45530000  1.0 0.0104293186
C  C77  1  0.44840000  0.80820000  0.51400000  1.0 -0.1596753285
C  C78  1  0.55160000  0.19180000  0.51400000  1.0 -0.1596753285
C  C79  1  0.19180000  0.44840000  0.51400000  1.0 -0.1596753285
C  C80  1  0.80820000  0.55160000  0.51400000  1.0 -0.1596753285
C  C81  1  0.51180000  0.81710000  0.54550000  1.0 0.1429220421
C  C82  1  0.48820000  0.18290000  0.54550000  1.0 0.1429220421
C  C83  1  0.18290000  0.51180000  0.54550000  1.0 0.1429220421
C  C84  1  0.81710000  0.48820000  0.54550000  1.0 0.1429220421
C  C85  1  0.57570000  0.79830000  0.51810000  1.0 -0.1290513467
C  C86  1  0.42430000  0.20170000  0.51810000  1.0 -0.1290513467
C  C87  1  0.20170000  0.57570000  0.51810000  1.0 -0.1290513467
C  C88  1  0.79830000  0.42430000  0.51810000  1.0 -0.1290513467
C  C89  1  0.57610000  0.77060000  0.45940000  1.0 -0.0404470586
C  C90  1  0.42390000  0.22940000  0.45940000  1.0 -0.0404470586
C  C91  1  0.22940000  0.57610000  0.45940000  1.0 -0.0404470586
C  C92  1  0.77060000  0.42390000  0.45940000  1.0 -0.0404470586
C  C93  1  0.74240000  0.86210000  0.31570000  1.0 0.5887205857
C  C94  1  0.25760000  0.13790000  0.31570000  1.0 0.5887205857
C  C95  1  0.13790000  0.74240000  0.31570000  1.0 0.5887205857
C  C96  1  0.86210000  0.25760000  0.31570000  1.0 0.5887205857
C  C97  1  0.72700000  0.11600000  0.32290000  1.0 0.4989869479
C  C98  1  0.27300000  0.88400000  0.32290000  1.0 0.4989869479
C  C99  1  0.88400000  0.72700000  0.32290000  1.0 0.4989869479
C  C100  1  0.11600000  0.27300000  0.32290000  1.0 0.4989869479
C  C101  1  0.64740000  0.76100000  0.43460000  1.0 0.5721283067
C  C102  1  0.35260000  0.23900000  0.43460000  1.0 0.5721283067
C  C103  1  0.23900000  0.64740000  0.43460000  1.0 0.5721283067
C  C104  1  0.76100000  0.35260000  0.43460000  1.0 0.5721283067
C  C105  1  0.49550000  0.82900000  0.60850000  1.0 -0.1596753285
C  C106  1  0.50450000  0.17100000  0.60850000  1.0 -0.1596753285
C  C107  1  0.17100000  0.49550000  0.60850000  1.0 -0.1596753285
C  C108  1  0.82900000  0.50450000  0.60850000  1.0 -0.1596753285
C  C109  1  0.36580000  0.98960000  0.01090000  1.0 0.0197288338
C  C110  1  0.63420000  0.01040000  0.01090000  1.0 0.0197288338
C  C111  1  0.01040000  0.36580000  0.01090000  1.0 0.0197288338
C  C112  1  0.98960000  0.63420000  0.01090000  1.0 0.0197288338
C  C113  1  0.48500000  0.77900000  0.90200000  1.0 0.4043488461
C  C114  1  0.51500000  0.22100000  0.90200000  1.0 0.4043488461
C  C115  1  0.22100000  0.48500000  0.90200000  1.0 0.4043488461
C  C116  1  0.77900000  0.51500000  0.90200000  1.0 0.4043488461
C  C117  1  0.50000000  0.00000000  0.69170000  1.0 -0.0404470586
C  C118  1  0.00000000  0.50000000  0.69170000  1.0 -0.0404470586
C  C119  1  0.45730000  0.04400000  0.80570000  1.0 -0.0901769894
C  C120  1  0.54270000  0.95600000  0.80570000  1.0 -0.0901769894
C  C121  1  0.95600000  0.45730000  0.80570000  1.0 -0.0901769894
C  C122  1  0.04400000  0.54270000  0.80570000  1.0 -0.0901769894
C  C123  1  0.49260000  0.83970000  0.66350000  1.0 -0.0115927128
C  C124  1  0.50740000  0.16030000  0.66350000  1.0 -0.0115927128
C  C125  1  0.16030000  0.49260000  0.66350000  1.0 -0.0115927128
C  C126  1  0.83970000  0.50740000  0.66350000  1.0 -0.0115927128
C  C127  1  0.49900000  0.92940000  0.70550000  1.0 -0.0115927128
C  C128  1  0.50100000  0.07060000  0.70550000  1.0 -0.0115927128
C  C129  1  0.07060000  0.49900000  0.70550000  1.0 -0.0115927128
C  C130  1  0.92940000  0.50100000  0.70550000  1.0 -0.0115927128
C  C131  1  0.64950000  0.98650000  0.13670000  1.0 -0.1196887199
C  C132  1  0.35050000  0.01350000  0.13670000  1.0 -0.1196887199
C  C133  1  0.01350000  0.64950000  0.13670000  1.0 -0.1196887199
C  C134  1  0.98650000  0.35050000  0.13670000  1.0 -0.1196887199
C  C135  1  0.51700000  0.83200000  0.94900000  1.0 -0.3482902628
C  C136  1  0.48300000  0.16800000  0.94900000  1.0 -0.3482902628
C  C137  1  0.16800000  0.51700000  0.94900000  1.0 -0.3482902628
C  C138  1  0.83200000  0.48300000  0.94900000  1.0 -0.3482902628
C  C139  1  0.60310000  0.97490000  0.09810000  1.0 -0.0901769894
C  C140  1  0.39690000  0.02510000  0.09810000  1.0 -0.0901769894
C  C141  1  0.02510000  0.60310000  0.09810000  1.0 -0.0901769894
C  C142  1  0.97490000  0.39690000  0.09810000  1.0 -0.0901769894
C  C143  1  0.41410000  0.93880000  0.90300000  1.0 0.0047462057
C  C144  1  0.58590000  0.06120000  0.90300000  1.0 0.0104293186
C  C145  1  0.06120000  0.41410000  0.90300000  1.0 0.0047462057
C  C146  1  0.93880000  0.58590000  0.90300000  1.0 0.0104293186
C  C147  1  0.31900000  0.98310000  0.96340000  1.0 -0.1290513467
C  C148  1  0.68100000  0.01690000  0.96340000  1.0 -0.1290513467
C  C149  1  0.01690000  0.31900000  0.96340000  1.0 -0.1290513467
C  C150  1  0.98310000  0.68100000  0.96340000  1.0 -0.1290513467
C  C151  1  0.34280000  0.95690000  0.90620000  1.0 0.2029788155
C  C152  1  0.65720000  0.04310000  0.90620000  1.0 0.2029788155
C  C153  1  0.04310000  0.34280000  0.90620000  1.0 0.2029788155
C  C154  1  0.95690000  0.65720000  0.90620000  1.0 0.2029788155
C  C155  1  0.22830000  0.97160000  0.86370000  1.0 0.4614268574
C  C156  1  0.77170000  0.02840000  0.86370000  1.0 0.4614268574
C  C157  1  0.02840000  0.22830000  0.86370000  1.0 0.4614268574
C  C158  1  0.97160000  0.77170000  0.86370000  1.0 0.4614268574
C  C159  1  0.21700000  0.03200000  0.81600000  1.0 -0.4326400649
C  C160  1  0.78300000  0.96800000  0.81600000  1.0 -0.4326400649
C  C161  1  0.96800000  0.21700000  0.81600000  1.0 -0.4326400649
C  C162  1  0.03200000  0.78300000  0.81600000  1.0 -0.4326400649
C  C163  1  0.52100000  0.90700000  0.76230000  1.0 0.0047462057
C  C164  1  0.47900000  0.09300000  0.76230000  1.0 0.0047462057
C  C165  1  0.09300000  0.52100000  0.76230000  1.0 0.0047462057
C  C166  1  0.90700000  0.47900000  0.76230000  1.0 0.0047462057
C  C167  1  0.55350000  0.95850000  0.05050000  1.0 0.0737963799
C  C168  1  0.44650000  0.04150000  0.05050000  1.0 0.0737963799
C  C169  1  0.04150000  0.55350000  0.05050000  1.0 0.0737963799
C  C170  1  0.95850000  0.44650000  0.05050000  1.0 0.0737963799
C  C171  1  0.47790000  0.94690000  0.73530000  1.0 0.0410077093
C  C172  1  0.52210000  0.05310000  0.73530000  1.0 0.0410077093
C  C173  1  0.05310000  0.47790000  0.73530000  1.0 0.0410077093
C  C174  1  0.94690000  0.52210000  0.73530000  1.0 0.0410077093
O  O1  1  0.37220000  0.74280000  0.37220000  1.0 -0.4326400649
O  O2  1  0.62780000  0.25720000  0.37220000  1.0 -0.4326400649
O  O3  1  0.25720000  0.37220000  0.37220000  1.0 -0.4326400649
O  O4  1  0.74280000  0.62780000  0.37220000  1.0 -0.4326400649
O  O5  1  0.76410000  0.12040000  0.37430000  1.0 -0.5322777968
O  O6  1  0.23590000  0.87960000  0.37430000  1.0 -0.5322777968
O  O7  1  0.87960000  0.76410000  0.37430000  1.0 -0.5322777968
O  O8  1  0.12040000  0.23590000  0.37430000  1.0 -0.5322777968
O  O9  1  0.76840000  0.86240000  0.36800000  1.0 -0.4829197716
O  O10  1  0.23160000  0.13760000  0.36800000  1.0 -0.4829197716
O  O11  1  0.13760000  0.76840000  0.36800000  1.0 -0.4829197716
O  O12  1  0.86240000  0.23160000  0.36800000  1.0 -0.4829197716
O  O13  1  0.63530000  0.73110000  0.38110000  1.0 -0.5352181536
O  O14  1  0.36470000  0.26890000  0.38110000  1.0 -0.5352181536
O  O15  1  0.26890000  0.63530000  0.38110000  1.0 -0.5352181536
O  O16  1  0.73110000  0.36470000  0.38110000  1.0 -0.5352181536
O  O17  1  0.70300000  0.17700000  0.29080000  1.0 -0.6146983397
O  O18  1  0.29700000  0.82300000  0.29080000  1.0 -0.6146983397
O  O19  1  0.82300000  0.70300000  0.29080000  1.0 -0.6146983397
O  O20  1  0.17700000  0.29700000  0.29080000  1.0 -0.6146983397
O  O21  1  0.31640000  0.79780000  0.44010000  1.0 -0.3550450843
O  O22  1  0.68360000  0.20220000  0.44010000  1.0 -0.3550450843
O  O23  1  0.20220000  0.31640000  0.44010000  1.0 -0.3550450843
O  O24  1  0.79780000  0.68360000  0.44010000  1.0 -0.3482902628
O  O25  1  0.70540000  0.78470000  0.45130000  1.0 -0.445650835
O  O26  1  0.29460000  0.21530000  0.45130000  1.0 -0.445650835
O  O27  1  0.21530000  0.70540000  0.45130000  1.0 -0.445650835
O  O28  1  0.78470000  0.29460000  0.45130000  1.0 -0.445650835
O  O29  1  0.71890000  0.81130000  0.28860000  1.0 -0.4710030448
O  O30  1  0.28110000  0.18870000  0.28860000  1.0 -0.4710030448
O  O31  1  0.18870000  0.71890000  0.28860000  1.0 -0.4710030448
O  O32  1  0.81130000  0.28110000  0.28860000  1.0 -0.4710030448
O  O33  1  0.42100000  0.80150000  0.87070000  1.0 -0.1544992145
O  O34  1  0.57900000  0.19850000  0.87070000  1.0 -0.1544992145
O  O35  1  0.19850000  0.42100000  0.87070000  1.0 -0.1544992145
O  O36  1  0.80150000  0.57900000  0.87070000  1.0 -0.1544992145
O  O37  1  0.29950000  0.94550000  0.85660000  1.0 -0.2238884609
O  O38  1  0.70050000  0.05450000  0.85660000  1.0 -0.2238884609
O  O39  1  0.05450000  0.29950000  0.85660000  1.0 -0.2238884609
O  O40  1  0.94550000  0.70050000  0.85660000  1.0 -0.2238884609
