# DDEC6 charges by PACMAN v1.1 (https://github.com/mtap-research/PACMAN-charge/)
data_CAYQUQ_ASR_pacman
_symmetry_space_group_name_H-M   'P 1'
_cell_length_a   19.02890000
_cell_length_b   19.02890000
_cell_length_c   21.91070000
_cell_angle_alpha   90.00000000
_cell_angle_beta   90.00000000
_cell_angle_gamma   90.00000000
_symmetry_Int_Tables_number   1
_chemical_formula_structural   Cu4H12C107O20
_chemical_formula_sum   'Cu8 H24 C214 O40'
_cell_volume   7933.84333078
_cell_formula_units_Z   2
loop_
 _symmetry_equiv_pos_site_id
 _symmetry_equiv_pos_as_xyz
  1  'x, y, z'
loop_
 _atom_site_type_symbol
 _atom_site_label
 _atom_site_symmetry_multiplicity
 _atom_site_fract_x
 _atom_site_fract_y
 _atom_site_fract_z
 _atom_site_occupancy
 _atom_site_charge
Cu  Cu1  1  0.21399000  0.22268000  0.41740000  1.0 0.8502028896
Cu  Cu2  1  0.78601000  0.77732000  0.41740000  1.0 0.8502028896
Cu  Cu3  1  0.77732000  0.21399000  0.41740000  1.0 0.8502028896
Cu  Cu4  1  0.22268000  0.78601000  0.41740000  1.0 0.8502028896
Cu  Cu5  1  0.72227000  0.71328000  0.32499000  1.0 0.8502028896
Cu  Cu6  1  0.27773000  0.28672000  0.32499000  1.0 0.8502028896
Cu  Cu7  1  0.28672000  0.72227000  0.32499000  1.0 0.8502028896
Cu  Cu8  1  0.71328000  0.27773000  0.32499000  1.0 0.8502028896
H  H1  1  0.89020000  0.30760000  0.20960000  1.0 0.1421223495
H  H2  1  0.10980000  0.69240000  0.20960000  1.0 0.1421223495
H  H3  1  0.69240000  0.89020000  0.20960000  1.0 0.1421223495
H  H4  1  0.30760000  0.10980000  0.20960000  1.0 0.1421223495
H  H5  1  0.99630000  0.24900000  0.35980000  1.0 0.1421223495
H  H6  1  0.00370000  0.75100000  0.35980000  1.0 0.1421223495
H  H7  1  0.75100000  0.99630000  0.35980000  1.0 0.1421223495
H  H8  1  0.24900000  0.00370000  0.35980000  1.0 0.1421223495
H  H9  1  0.10140000  0.30980000  0.20970000  1.0 0.1421223495
H  H10  1  0.89860000  0.69020000  0.20970000  1.0 0.1421223495
H  H11  1  0.69020000  0.10140000  0.20970000  1.0 0.1421223495
H  H12  1  0.30980000  0.89860000  0.20970000  1.0 0.1421223495
H  H13  1  0.74260000  0.49550000  0.38730000  1.0 0.1421223495
H  H14  1  0.25740000  0.50450000  0.38730000  1.0 0.1421223495
H  H15  1  0.50450000  0.74260000  0.38730000  1.0 0.1421223495
H  H16  1  0.49550000  0.25740000  0.38730000  1.0 0.1421223495
H  H17  1  0.81210000  0.59800000  0.53590000  1.0 0.1421223495
H  H18  1  0.18790000  0.40200000  0.53590000  1.0 0.1421223495
H  H19  1  0.40200000  0.81210000  0.53590000  1.0 0.1421223495
H  H20  1  0.59800000  0.18790000  0.53590000  1.0 0.1421223495
H  H21  1  0.80740000  0.38690000  0.53420000  1.0 0.1421223495
H  H22  1  0.19260000  0.61310000  0.53420000  1.0 0.1421223495
H  H23  1  0.61310000  0.80740000  0.53420000  1.0 0.1421223495
H  H24  1  0.38690000  0.19260000  0.53420000  1.0 0.1421223495
C  C1  1  0.96280000  0.44030000  0.04790000  1.0 0.0757192982
C  C2  1  0.03720000  0.55970000  0.04790000  1.0 0.0757192982
C  C3  1  0.55970000  0.96280000  0.04790000  1.0 0.0757192982
C  C4  1  0.44030000  0.03720000  0.04790000  1.0 0.0757192982
C  C5  1  0.94470000  0.41600000  0.99020000  1.0 -0.0102310961
C  C6  1  0.05530000  0.58400000  0.99020000  1.0 -0.016872025
C  C7  1  0.58400000  0.94470000  0.99020000  1.0 -0.0102310961
C  C8  1  0.41600000  0.05530000  0.99020000  1.0 -0.0102310961
C  C9  1  0.93790000  0.46300000  0.94200000  1.0 -0.0772333896
C  C10  1  0.06210000  0.53700000  0.94200000  1.0 -0.0772333896
C  C11  1  0.53700000  0.93790000  0.94200000  1.0 -0.0772333896
C  C12  1  0.46300000  0.06210000  0.94200000  1.0 -0.0772333896
C  C13  1  0.94940000  0.53430000  0.95150000  1.0 -0.0102310961
C  C14  1  0.05060000  0.46570000  0.95150000  1.0 -0.0102310961
C  C15  1  0.46570000  0.94940000  0.95150000  1.0 -0.0102310961
C  C16  1  0.53430000  0.05060000  0.95150000  1.0 -0.0102310961
C  C17  1  0.03240000  0.44140000  0.00920000  1.0 0.0381337417
C  C18  1  0.96760000  0.55860000  0.00920000  1.0 0.0381337417
C  C19  1  0.55860000  0.03240000  0.00920000  1.0 0.0381337417
C  C20  1  0.44140000  0.96760000  0.00920000  1.0 0.0381337417
C  C21  1  0.97430000  0.51160000  0.05740000  1.0 -0.016872025
C  C22  1  0.02570000  0.48840000  0.05740000  1.0 -0.016872025
C  C23  1  0.48840000  0.97430000  0.05740000  1.0 -0.016872025
C  C24  1  0.51160000  0.02570000  0.05740000  1.0 -0.016872025
C  C25  1  0.76960000  0.63030000  0.42250000  1.0 0.5700816923
C  C26  1  0.23040000  0.36970000  0.42250000  1.0 0.5700816923
C  C27  1  0.36970000  0.76960000  0.42250000  1.0 0.5700816923
C  C28  1  0.63030000  0.23040000  0.42250000  1.0 0.5700816923
C  C29  1  0.87430000  0.50990000  0.72350000  1.0 0.0458414782
C  C30  1  0.12570000  0.49010000  0.72350000  1.0 0.0458414782
C  C31  1  0.49010000  0.87430000  0.72350000  1.0 0.0458414782
C  C32  1  0.50990000  0.12570000  0.72350000  1.0 0.0458414782
C  C33  1  0.82710000  0.52530000  0.77000000  1.0 -0.1813915893
C  C34  1  0.17290000  0.47470000  0.77000000  1.0 -0.1813915893
C  C35  1  0.47470000  0.82710000  0.77000000  1.0 -0.1813915893
C  C36  1  0.52530000  0.17290000  0.77000000  1.0 -0.1813915893
C  C37  1  0.85170000  0.54860000  0.82630000  1.0 0.2029751254
C  C38  1  0.14830000  0.45140000  0.82630000  1.0 0.2029751254
C  C39  1  0.45140000  0.85170000  0.82630000  1.0 0.2029751254
C  C40  1  0.54860000  0.14830000  0.82630000  1.0 0.2029751254
C  C41  1  0.92340000  0.55640000  0.83600000  1.0 -0.016872025
C  C42  1  0.07660000  0.44360000  0.83600000  1.0 -0.016872025
C  C43  1  0.44360000  0.92340000  0.83600000  1.0 -0.016872025
C  C44  1  0.55640000  0.07660000  0.83600000  1.0 -0.016872025
C  C45  1  0.97060000  0.54100000  0.78950000  1.0 0.0284611915
C  C46  1  0.02940000  0.45900000  0.78950000  1.0 0.0284611915
C  C47  1  0.45900000  0.97060000  0.78950000  1.0 0.0284611915
C  C48  1  0.54100000  0.02940000  0.78950000  1.0 0.0284611915
C  C49  1  0.94610000  0.51770000  0.73320000  1.0 0.0284611915
C  C50  1  0.05390000  0.48230000  0.73320000  1.0 0.0284611915
C  C51  1  0.48230000  0.94610000  0.73320000  1.0 0.0284611915
C  C52  1  0.51770000  0.05390000  0.73320000  1.0 0.0284611915
C  C53  1  0.99570000  0.31260000  0.19970000  1.0 0.1202299683
C  C54  1  0.00430000  0.68740000  0.19970000  1.0 0.1202299683
C  C55  1  0.68740000  0.99570000  0.19970000  1.0 0.1202299683
C  C56  1  0.31260000  0.00430000  0.19970000  1.0 0.1202299683
C  C57  1  0.93260000  0.30010000  0.22970000  1.0 -0.1077196659
C  C58  1  0.06740000  0.69990000  0.22970000  1.0 -0.1077196659
C  C59  1  0.69990000  0.93260000  0.22970000  1.0 -0.1077196659
C  C60  1  0.30010000  0.06740000  0.22970000  1.0 -0.1077196659
C  C61  1  0.93281000  0.27620000  0.28960000  1.0 -0.0405686267
C  C62  1  0.06719000  0.72380000  0.28960000  1.0 -0.0405686267
C  C63  1  0.72380000  0.93281000  0.28960000  1.0 -0.0405686267
C  C64  1  0.27620000  0.06719000  0.28960000  1.0 -0.0405686267
C  C65  1  0.99620000  0.26490000  0.31960000  1.0 -0.0711647929
C  C66  1  0.00380000  0.73510000  0.31960000  1.0 -0.0711647929
C  C67  1  0.73510000  0.99620000  0.31960000  1.0 -0.0711647929
C  C68  1  0.26490000  0.00380000  0.31960000  1.0 -0.0711647929
C  C69  1  0.05932000  0.27750000  0.28970000  1.0 -0.0456097858
C  C70  1  0.94068000  0.72250000  0.28970000  1.0 -0.0456097858
C  C71  1  0.72250000  0.05932000  0.28970000  1.0 -0.0456097858
C  C72  1  0.27750000  0.94068000  0.28970000  1.0 -0.0456097858
C  C73  1  0.05910000  0.30140000  0.22970000  1.0 -0.1077196659
C  C74  1  0.94090000  0.69860000  0.22970000  1.0 -0.1077196659
C  C75  1  0.69860000  0.05910000  0.22970000  1.0 -0.1077196659
C  C76  1  0.30140000  0.94090000  0.22970000  1.0 -0.1077196659
C  C77  1  0.76060000  0.49470000  0.42680000  1.0 -0.088132097
C  C78  1  0.23940000  0.50530000  0.42680000  1.0 -0.088132097
C  C79  1  0.50530000  0.76060000  0.42680000  1.0 -0.088132097
C  C80  1  0.49470000  0.23940000  0.42680000  1.0 -0.088132097
C  C81  1  0.77540000  0.55740000  0.45680000  1.0 -0.0102310961
C  C82  1  0.22460000  0.44260000  0.45680000  1.0 -0.0102310961
C  C83  1  0.44260000  0.77540000  0.45680000  1.0 -0.0102310961
C  C84  1  0.55740000  0.22460000  0.45680000  1.0 -0.0102310961
C  C85  1  0.80220000  0.55610000  0.51580000  1.0 -0.1364922641
C  C86  1  0.19780000  0.44390000  0.51580000  1.0 -0.1364922641
C  C87  1  0.44390000  0.80220000  0.51580000  1.0 -0.1364922641
C  C88  1  0.55610000  0.19780000  0.51580000  1.0 -0.1364922641
C  C89  1  0.81420000  0.49230000  0.54480000  1.0 0.1280467672
C  C90  1  0.18580000  0.50770000  0.54480000  1.0 0.1280467672
C  C91  1  0.50770000  0.81420000  0.54480000  1.0 0.1280467672
C  C92  1  0.49230000  0.18580000  0.54480000  1.0 0.1280467672
C  C93  1  0.79940000  0.42960000  0.51480000  1.0 -0.1338151233
C  C94  1  0.20060000  0.57040000  0.51480000  1.0 -0.1338151233
C  C95  1  0.57040000  0.79940000  0.51480000  1.0 -0.1338151233
C  C96  1  0.42960000  0.20060000  0.51480000  1.0 -0.1338151233
C  C97  1  0.77260000  0.43090000  0.45580000  1.0 -0.0102310961
C  C98  1  0.22740000  0.56910000  0.45580000  1.0 -0.0102310961
C  C99  1  0.56910000  0.77260000  0.45580000  1.0 -0.0102310961
C  C100  1  0.43090000  0.22740000  0.45580000  1.0 -0.0102310961
C  C101  1  0.86330000  0.26550000  0.31830000  1.0 0.5700816923
C  C102  1  0.13670000  0.73450000  0.31830000  1.0 0.5700816923
C  C103  1  0.73450000  0.86330000  0.31830000  1.0 0.5700816923
C  C104  1  0.26550000  0.13670000  0.31830000  1.0 0.5700816923
C  C105  1  0.12640000  0.26760000  0.32250000  1.0 0.5791742815
C  C106  1  0.87360000  0.73240000  0.32250000  1.0 0.5791742815
C  C107  1  0.73240000  0.12640000  0.32250000  1.0 0.5791742815
C  C108  1  0.26760000  0.87360000  0.32250000  1.0 0.5791742815
C  C109  1  0.75960000  0.36030000  0.42130000  1.0 0.5700816923
C  C110  1  0.24040000  0.63970000  0.42130000  1.0 0.5700816923
C  C111  1  0.63970000  0.75960000  0.42130000  1.0 0.5700816923
C  C112  1  0.36030000  0.24040000  0.42130000  1.0 0.5700816923
C  C113  1  0.83180000  0.50300000  0.60960000  1.0 -0.1184741469
C  C114  1  0.16820000  0.49700000  0.60960000  1.0 -0.1184741469
C  C115  1  0.49700000  0.83180000  0.60960000  1.0 -0.1184741469
C  C116  1  0.50300000  0.16820000  0.60960000  1.0 -0.1184741469
C  C117  1  0.02070000  0.36710000  0.01640000  1.0 0.0187338964
C  C118  1  0.97930000  0.63290000  0.01640000  1.0 0.0187338964
C  C119  1  0.63290000  0.02070000  0.01640000  1.0 0.0187338964
C  C120  1  0.36710000  0.97930000  0.01640000  1.0 0.0187338964
C  C121  1  0.00000000  0.50000000  0.68680000  1.0 0.000544628
C  C122  1  0.50000000  0.00000000  0.68680000  1.0 0.000544628
C  C123  1  0.04150000  0.54800000  0.80130000  1.0 -0.0772333896
C  C124  1  0.95850000  0.45200000  0.80130000  1.0 -0.0772333896
C  C125  1  0.45200000  0.04150000  0.80130000  1.0 -0.0772333896
C  C126  1  0.54800000  0.95850000  0.80130000  1.0 -0.0772333896
C  C127  1  0.84230000  0.50250000  0.66350000  1.0 -0.0027425811
C  C128  1  0.15770000  0.49750000  0.66350000  1.0 -0.0027425811
C  C129  1  0.49750000  0.84230000  0.66350000  1.0 -0.0027425811
C  C130  1  0.50250000  0.15770000  0.66350000  1.0 -0.0027425811
C  C131  1  0.93090000  0.49220000  0.69910000  1.0 -0.0027425811
C  C132  1  0.06910000  0.50780000  0.69910000  1.0 -0.0027425811
C  C133  1  0.50780000  0.93090000  0.69910000  1.0 -0.0027425811
C  C134  1  0.49220000  0.06910000  0.69910000  1.0 -0.0027425811
C  C135  1  0.90700000  0.46220000  0.75430000  1.0 -0.0027425811
C  C136  1  0.09300000  0.53780000  0.75430000  1.0 -0.0027425811
C  C137  1  0.53780000  0.90700000  0.75430000  1.0 -0.0027425811
C  C138  1  0.46220000  0.09300000  0.75430000  1.0 -0.0027425811
C  C139  1  0.99110000  0.35060000  0.14130000  1.0 -0.1364922641
C  C140  1  0.00890000  0.64940000  0.14130000  1.0 -0.1364922641
C  C141  1  0.64940000  0.99110000  0.14130000  1.0 -0.1364922641
C  C142  1  0.35060000  0.00890000  0.14130000  1.0 -0.1364922641
C  C143  1  0.97980000  0.39080000  0.09820000  1.0 -0.0711647929
C  C144  1  0.02020000  0.60920000  0.09820000  1.0 -0.0711647929
C  C145  1  0.60920000  0.97980000  0.09820000  1.0 -0.0711647929
C  C146  1  0.39080000  0.02020000  0.09820000  1.0 -0.0711647929
C  C147  1  0.93810000  0.57910000  0.90170000  1.0 0.0187338964
C  C148  1  0.06190000  0.42090000  0.90170000  1.0 0.0187338964
C  C149  1  0.42090000  0.93810000  0.90170000  1.0 0.0187338964
C  C150  1  0.57910000  0.06190000  0.90170000  1.0 0.0187338964
C  C151  1  0.02940000  0.32000000  0.96900000  1.0 -0.1813915893
C  C152  1  0.97060000  0.68000000  0.96900000  1.0 -0.1813915893
C  C153  1  0.68000000  0.02940000  0.96900000  1.0 -0.1813915893
C  C154  1  0.32000000  0.97060000  0.96900000  1.0 -0.1813915893
C  C155  1  0.95000000  0.65070000  0.91120000  1.0 0.2156927599
C  C156  1  0.05000000  0.34930000  0.91120000  1.0 0.2149853123
C  C157  1  0.34930000  0.95000000  0.91120000  1.0 0.2149853123
C  C158  1  0.65070000  0.05000000  0.91120000  1.0 0.2149853123
C  C159  1  0.02030000  0.72230000  0.80200000  1.0 -0.016872025
C  C160  1  0.97970000  0.27770000  0.80200000  1.0 -0.016872025
C  C161  1  0.27770000  0.02030000  0.80200000  1.0 -0.016872025
C  C162  1  0.72230000  0.97970000  0.80200000  1.0 -0.016872025
C  C163  1  0.98240000  0.70300000  0.75000000  1.0 -0.0027425811
C  C164  1  0.01760000  0.29700000  0.75000000  1.0 -0.0027425811
C  C165  1  0.29700000  0.98240000  0.75000000  1.0 -0.0027425811
C  C166  1  0.70300000  0.01760000  0.75000000  1.0 -0.0027425811
C  C167  1  0.01700000  0.67700000  0.69930000  1.0 0.0187338964
C  C168  1  0.98300000  0.32300000  0.69930000  1.0 0.0187338964
C  C169  1  0.32300000  0.01700000  0.69930000  1.0 0.0187338964
C  C170  1  0.67700000  0.98300000  0.69930000  1.0 0.0187338964
C  C171  1  0.09000000  0.67070000  0.69980000  1.0 0.0187338964
C  C172  1  0.91000000  0.32930000  0.69980000  1.0 0.0187338964
C  C173  1  0.32930000  0.09000000  0.69980000  1.0 0.0187338964
C  C174  1  0.67070000  0.91000000  0.69980000  1.0 0.0187338964
C  C175  1  0.12780000  0.69000000  0.75100000  1.0 0.0284611915
C  C176  1  0.87220000  0.31000000  0.75100000  1.0 0.0284611915
C  C177  1  0.31000000  0.12780000  0.75100000  1.0 0.0284611915
C  C178  1  0.69000000  0.87220000  0.75100000  1.0 0.0284611915
C  C179  1  0.09300000  0.71600000  0.80250000  1.0 -0.016872025
C  C180  1  0.90700000  0.28400000  0.80250000  1.0 -0.016872025
C  C181  1  0.28400000  0.09300000  0.80250000  1.0 -0.016872025
C  C182  1  0.71600000  0.90700000  0.80250000  1.0 -0.016872025
C  C183  1  0.98000000  0.74960000  0.85700000  1.0 0.1578920385
C  C184  1  0.02000000  0.25040000  0.85700000  1.0 0.1578920385
C  C185  1  0.25040000  0.98000000  0.85700000  1.0 0.1578920385
C  C186  1  0.74960000  0.02000000  0.85700000  1.0 0.1578920385
C  C187  1  0.75750000  0.44870000  0.87800000  1.0 -0.016872025
C  C188  1  0.24250000  0.55130000  0.87800000  1.0 -0.016872025
C  C189  1  0.55130000  0.75750000  0.87800000  1.0 -0.016872025
C  C190  1  0.44870000  0.24250000  0.87800000  1.0 -0.016872025
C  C191  1  0.72040000  0.39120000  0.85580000  1.0 -0.0405686267
C  C192  1  0.27960000  0.60880000  0.85580000  1.0 -0.0405686267
C  C193  1  0.60880000  0.72040000  0.85580000  1.0 -0.0405686267
C  C194  1  0.39120000  0.27960000  0.85580000  1.0 -0.0405686267
C  C195  1  0.74750000  0.32390000  0.86270000  1.0 0.0187338964
C  C196  1  0.25250000  0.67610000  0.86270000  1.0 0.0187338964
C  C197  1  0.67610000  0.74750000  0.86270000  1.0 0.0187338964
C  C198  1  0.32390000  0.25250000  0.86270000  1.0 0.0187338964
C  C199  1  0.81160000  0.31400000  0.89180000  1.0 0.0284611915
C  C200  1  0.18840000  0.68600000  0.89180000  1.0 0.0284611915
C  C201  1  0.68600000  0.81160000  0.89180000  1.0 0.0284611915
C  C202  1  0.31400000  0.18840000  0.89180000  1.0 0.0284611915
C  C203  1  0.84880000  0.37100000  0.91390000  1.0 0.0187338964
C  C204  1  0.15120000  0.62900000  0.91390000  1.0 0.0187338964
C  C205  1  0.62900000  0.84880000  0.91390000  1.0 0.0187338964
C  C206  1  0.37100000  0.15120000  0.91390000  1.0 0.0187338964
C  C207  1  0.82170000  0.43890000  0.90700000  1.0 -0.0405686267
C  C208  1  0.17830000  0.56110000  0.90700000  1.0 -0.0405686267
C  C209  1  0.56110000  0.82170000  0.90700000  1.0 -0.0405686267
C  C210  1  0.43890000  0.17830000  0.90700000  1.0 -0.0405686267
C  C211  1  0.73640000  0.52980000  0.87460000  1.0 0.1909698857
C  C212  1  0.26360000  0.47020000  0.87460000  1.0 0.1909698857
C  C213  1  0.47020000  0.73640000  0.87460000  1.0 0.1909698857
C  C214  1  0.52980000  0.26360000  0.87460000  1.0 0.1909698857
O  O1  1  0.73610000  0.62720000  0.37240000  1.0 -0.5235561119
O  O2  1  0.26390000  0.37280000  0.37240000  1.0 -0.5235561119
O  O3  1  0.37280000  0.73610000  0.37240000  1.0 -0.5235561119
O  O4  1  0.62720000  0.26390000  0.37240000  1.0 -0.5235561119
O  O5  1  0.12520000  0.23590000  0.37260000  1.0 -0.5016968237
O  O6  1  0.87480000  0.76410000  0.37260000  1.0 -0.5016968237
O  O7  1  0.76410000  0.12520000  0.37260000  1.0 -0.5016968237
O  O8  1  0.23590000  0.87480000  0.37260000  1.0 -0.5016968237
O  O9  1  0.86600000  0.23240000  0.37170000  1.0 -0.5478011357
O  O10  1  0.13400000  0.76760000  0.37170000  1.0 -0.5478011357
O  O11  1  0.76760000  0.86600000  0.37170000  1.0 -0.5478011357
O  O12  1  0.23240000  0.13400000  0.37170000  1.0 -0.5478011357
O  O13  1  0.73170000  0.36320000  0.37300000  1.0 -0.4607830333
O  O14  1  0.26830000  0.63680000  0.37300000  1.0 -0.4607830333
O  O15  1  0.63680000  0.73170000  0.37300000  1.0 -0.4607830333
O  O16  1  0.36320000  0.26830000  0.37300000  1.0 -0.4607830333
O  O17  1  0.18040000  0.29090000  0.29430000  1.0 -0.5379453884
O  O18  1  0.81960000  0.70910000  0.29430000  1.0 -0.5379453884
O  O19  1  0.70910000  0.18040000  0.29430000  1.0 -0.5379453884
O  O20  1  0.29090000  0.81960000  0.29430000  1.0 -0.5379453884
O  O21  1  0.79340000  0.68050000  0.44720000  1.0 -0.4694145607
O  O22  1  0.20660000  0.31950000  0.44720000  1.0 -0.4694145607
O  O23  1  0.31950000  0.79340000  0.44720000  1.0 -0.4694145607
O  O24  1  0.68050000  0.20660000  0.44720000  1.0 -0.4694145607
O  O25  1  0.78110000  0.30680000  0.45120000  1.0 -0.5339115845
O  O26  1  0.21890000  0.69320000  0.45120000  1.0 -0.5339115845
O  O27  1  0.69320000  0.78110000  0.45120000  1.0 -0.5339115845
O  O28  1  0.30680000  0.21890000  0.45120000  1.0 -0.5339115845
O  O29  1  0.80990000  0.28510000  0.29200000  1.0 -0.4815031426
O  O30  1  0.19010000  0.71490000  0.29200000  1.0 -0.4815031426
O  O31  1  0.71490000  0.80990000  0.29200000  1.0 -0.4815031426
O  O32  1  0.28510000  0.19010000  0.29200000  1.0 -0.4815031426
O  O33  1  0.92460000  0.69790000  0.87020000  1.0 -0.1813915893
O  O34  1  0.07540000  0.30210000  0.87020000  1.0 -0.1813915893
O  O35  1  0.30210000  0.92460000  0.87020000  1.0 -0.1813915893
O  O36  1  0.69790000  0.07540000  0.87020000  1.0 -0.1813915893
O  O37  1  0.80690000  0.56170000  0.87670000  1.0 -0.212391297
O  O38  1  0.19310000  0.43830000  0.87670000  1.0 -0.212391297
O  O39  1  0.43830000  0.80690000  0.87670000  1.0 -0.212391297
O  O40  1  0.56170000  0.19310000  0.87670000  1.0 -0.212391297
