# DDEC6 charges by PACMAN v1.1 (https://github.com/mtap-research/PACMAN-charge/)
data_CAZFOA_ASR_pacman
_symmetry_space_group_name_H-M   'P 1'
_cell_length_a   10.35470000
_cell_length_b   10.51720000
_cell_length_c   12.39000000
_cell_angle_alpha   109.35400000
_cell_angle_beta   89.45100000
_cell_angle_gamma   116.15100000
_symmetry_Int_Tables_number   1
_chemical_formula_structural   CoH12C20N5O4
_chemical_formula_sum   'Co2 H24 C40 N10 O8'
_cell_volume   1127.80005342
_cell_formula_units_Z   2
loop_
 _symmetry_equiv_pos_site_id
 _symmetry_equiv_pos_as_xyz
  1  'x, y, z'
loop_
 _atom_site_type_symbol
 _atom_site_label
 _atom_site_symmetry_multiplicity
 _atom_site_fract_x
 _atom_site_fract_y
 _atom_site_fract_z
 _atom_site_occupancy
 _atom_site_charge
Co  Co1  1  0.00000000  0.00000000  0.00000000  1.0 0.9110293662
Co  Co2  1  0.00000000  0.50000000  0.00000000  1.0 0.7408960736
H  H1  1  0.38670000  0.53710000  0.77520000  1.0 0.2793741202
H  H2  1  0.61330000  0.46290000  0.22480000  1.0 0.2793741202
H  H3  1  0.71730000  0.54790000  0.01930000  1.0 0.0980407478
H  H4  1  0.28270000  0.45210000  0.98070000  1.0 0.0980407478
H  H5  1  0.84150000  0.34020000  0.75180000  1.0 0.1147490492
H  H6  1  0.15850000  0.65980000  0.24820000  1.0 0.1147490492
H  H7  1  0.66580000  0.32130000  0.62940000  1.0 0.1413064873
H  H8  1  0.33420000  0.67870000  0.37060000  1.0 0.1413064873
H  H9  1  0.53840000  0.53650000  0.90430000  1.0 0.1333654425
H  H10  1  0.46160000  0.46350000  0.09570000  1.0 0.1333654425
H  H11  1  0.40110000  0.22050000  0.33400000  1.0 0.1413064873
H  H12  1  0.59890000  0.77950000  0.66600000  1.0 0.1413064873
H  H13  1  0.28480000  0.10630000  0.14760000  1.0 0.1177878639
H  H14  1  0.71520000  0.89370000  0.85240000  1.0 0.1177878639
H  H15  1  0.98920000  0.23840000  0.23380000  1.0 0.1177878639
H  H16  1  0.01080000  0.76160000  0.76620000  1.0 0.1177878639
H  H17  1  0.09560000  0.35210000  0.42500000  1.0 0.1333654425
H  H18  1  0.90440000  0.64790000  0.57500000  1.0 0.1333654425
H  H19  1  0.68910000  0.98760000  0.32130000  1.0 0.1177878639
H  H20  1  0.31090000  0.01240000  0.67870000  1.0 0.1177878639
H  H21  1  0.81370000  0.05430000  0.49840000  1.0 0.1177878639
H  H22  1  0.18630000  0.94570000  0.50160000  1.0 0.1177878639
H  H23  1  0.06110000  0.87000000  0.34410000  1.0 0.1177878639
H  H24  1  0.93890000  0.13000000  0.65590000  1.0 0.1177878639
C  C1  1  0.70860000  0.50400000  0.93930000  1.0 0.0980407478
C  C2  1  0.29140000  0.49600000  0.06070000  1.0 0.0980407478
C  C3  1  0.78120000  0.38250000  0.78320000  1.0 0.0811516991
C  C4  1  0.21880000  0.61750000  0.21680000  1.0 0.0811516991
C  C5  1  0.67430000  0.36890000  0.70890000  1.0 -0.1622352028
C  C6  1  0.32570000  0.63110000  0.29110000  1.0 -0.1622352028
C  C7  1  0.58040000  0.42550000  0.75170000  1.0 0.0715090447
C  C8  1  0.41960000  0.57450000  0.24830000  1.0 0.0715090447
C  C9  1  0.59910000  0.49570000  0.87100000  1.0 -0.1534449184
C  C10  1  0.40090000  0.50430000  0.12900000  1.0 -0.1534449184
C  C11  1  0.46750000  0.41450000  0.67340000  1.0 0.2566873606
C  C12  1  0.53250000  0.58550000  0.32660000  1.0 0.2566873606
C  C13  1  0.33030000  0.36050000  0.52350000  1.0 0.2566873606
C  C14  1  0.66970000  0.63950000  0.47650000  1.0 0.2548579252
C  C15  1  0.25950000  0.29510000  0.40170000  1.0 0.0715090447
C  C16  1  0.74050000  0.70490000  0.59830000  1.0 0.0715090447
C  C17  1  0.31560000  0.22320000  0.31600000  1.0 -0.1719891006
C  C18  1  0.68440000  0.77680000  0.68400000  1.0 -0.1719891006
C  C19  1  0.24550000  0.15550000  0.20420000  1.0 0.0811516991
C  C20  1  0.75450000  0.84450000  0.79580000  1.0 0.0811516991
C  C21  1  0.07170000  0.23220000  0.25480000  1.0 0.0811516991
C  C22  1  0.92830000  0.76780000  0.74520000  1.0 0.0811516991
C  C23  1  0.13530000  0.30170000  0.36980000  1.0 -0.1719891006
C  C24  1  0.86470000  0.69830000  0.63020000  1.0 -0.1719891006
C  C25  1  0.73180000  0.88870000  0.11250000  1.0 0.5696798837
C  C26  1  0.26820000  0.11130000  0.88750000  1.0 0.5696798837
C  C27  1  0.80970000  0.90510000  0.22290000  1.0 -0.0429269993
C  C28  1  0.19030000  0.09490000  0.77710000  1.0 -0.0429269993
C  C29  1  0.76870000  0.96940000  0.32500000  1.0 -0.1111375415
C  C30  1  0.23130000  0.03060000  0.67500000  1.0 -0.1111375415
C  C31  1  0.84200000  0.00720000  0.43180000  1.0 -0.1410161281
C  C32  1  0.15800000  0.99280000  0.56820000  1.0 -0.1410161281
C  C33  1  0.95760000  0.97620000  0.44190000  1.0 0.0715090447
C  C34  1  0.04240000  0.02380000  0.55810000  1.0 0.0715090447
C  C35  1  0.98990000  0.90010000  0.33980000  1.0 -0.1622352028
C  C36  1  0.01010000  0.09990000  0.66020000  1.0 -0.1622352028
C  C37  1  0.92100000  0.86640000  0.23090000  1.0 -0.0547633232
C  C38  1  0.07900000  0.13360000  0.76910000  1.0 -0.0556875379
C  C39  1  0.96780000  0.78180000  0.12770000  1.0 0.5769793964
C  C40  1  0.03220000  0.21820000  0.87230000  1.0 0.5769793964
N  N1  1  0.38480000  0.48220000  0.70550000  1.0 -0.1410161281
N  N2  1  0.61520000  0.51780000  0.29450000  1.0 -0.1410161281
N  N3  1  0.29600000  0.45010000  0.61010000  1.0 -0.2496940294
N  N4  1  0.70400000  0.54990000  0.38990000  1.0 -0.2496940294
N  N5  1  0.43640000  0.33630000  0.55890000  1.0 -0.4046802843
N  N6  1  0.56360000  0.66370000  0.44110000  1.0 -0.4046802843
N  N7  1  0.80340000  0.45270000  0.89770000  1.0 -0.2290832648
N  N8  1  0.19660000  0.54730000  0.10230000  1.0 -0.2290832648
N  N9  1  0.12290000  0.15650000  0.17190000  1.0 -0.2496940294
N  N10  1  0.87710000  0.84350000  0.82810000  1.0 -0.2496940294
O  O1  1  0.97930000  0.67000000  0.13300000  1.0 -0.5580616021
O  O2  1  0.02070000  0.33000000  0.86700000  1.0 -0.5580616021
O  O3  1  0.99410000  0.82280000  0.04150000  1.0 -0.550999912
O  O4  1  0.00590000  0.17720000  0.95850000  1.0 -0.550999912
O  O5  1  0.59620000  0.81110000  0.09210000  1.0 -0.5580616021
O  O6  1  0.40380000  0.18890000  0.90790000  1.0 -0.5580616021
O  O7  1  0.80420000  0.96460000  0.05370000  1.0 -0.5580616021
O  O8  1  0.19580000  0.03540000  0.94630000  1.0 -0.5580616021
