# DDEC6 charges by PACMAN v1.1 (https://github.com/mtap-research/PACMAN-charge/)
data_CAZNOI_FSR_pacman
_symmetry_space_group_name_H-M   'P 1'
_cell_length_a   15.06100000
_cell_length_b   28.35300000
_cell_length_c   17.06900000
_cell_angle_alpha   90.00000000
_cell_angle_beta   100.65300000
_cell_angle_gamma   90.00000000
_symmetry_Int_Tables_number   1
_chemical_formula_structural   Co3H52C70(N2O7)3
_chemical_formula_sum   'Co6 H104 C140 N12 O42'
_cell_volume   7163.25619399
_cell_formula_units_Z   2
loop_
 _symmetry_equiv_pos_site_id
 _symmetry_equiv_pos_as_xyz
  1  'x, y, z'
loop_
 _atom_site_type_symbol
 _atom_site_label
 _atom_site_symmetry_multiplicity
 _atom_site_fract_x
 _atom_site_fract_y
 _atom_site_fract_z
 _atom_site_occupancy
 _atom_site_charge
Co  Co1  1  0.52174000  0.02995000  0.86795000  1.0 1.0262229617
Co  Co2  1  0.47826000  0.52995000  0.13205000  1.0 1.0262229617
Co  Co3  1  0.48635000  0.43085000  0.24076000  1.0 1.0127093967
Co  Co4  1  0.51365000  0.93085000  0.75924000  1.0 1.0127093967
Co  Co5  1  0.51467000  0.03295000  0.65341000  1.0 1.0009342011
Co  Co6  1  0.48533000  0.53295000  0.34659000  1.0 1.0009342011
H  H1  1  0.05070000  0.37340000  0.71920000  1.0 0.0919788853
H  H2  1  0.94930000  0.87340000  0.28080000  1.0 0.0919788853
H  H3  1  0.11670000  0.33080000  0.74460000  1.0 0.1007641167
H  H4  1  0.88330000  0.83080000  0.25540000  1.0 0.1007641167
H  H5  1  0.93720000  0.37600000  0.76250000  1.0 0.1007641167
H  H6  1  0.06280000  0.87600000  0.23750000  1.0 0.1007641167
H  H7  1  0.86310000  0.33830000  0.72980000  1.0 0.1007641167
H  H8  1  0.13690000  0.83830000  0.27020000  1.0 0.1007641167
H  H9  1  0.92410000  0.31330000  0.58710000  1.0 0.1007641167
H  H10  1  0.07590000  0.81330000  0.41290000  1.0 0.1007641167
H  H11  1  0.97100000  0.33290000  0.51880000  1.0 0.1007641167
H  H12  1  0.02900000  0.83290000  0.48120000  1.0 0.0919788853
H  H13  1  0.18540000  0.35790000  0.63350000  1.0 0.1007641167
H  H14  1  0.81460000  0.85790000  0.36650000  1.0 0.1007641167
H  H15  1  0.10820000  0.39400000  0.60070000  1.0 0.1007641167
H  H16  1  0.89180000  0.89400000  0.39930000  1.0 0.1007641167
H  H17  1  0.07420000  0.27070000  0.55590000  1.0 0.1007641167
H  H18  1  0.92580000  0.77070000  0.44410000  1.0 0.1007641167
H  H19  1  0.03780000  0.25670000  0.63330000  1.0 0.11068589
H  H20  1  0.96220000  0.75670000  0.36670000  1.0 0.11068589
H  H21  1  0.88000000  0.27310000  0.90930000  1.0 0.1007641167
H  H22  1  0.12000000  0.77310000  0.09070000  1.0 0.1007641167
H  H23  1  0.93240000  0.25950000  0.84080000  1.0 0.11068589
H  H24  1  0.06760000  0.75950000  0.15920000  1.0 0.11068589
H  H25  1  0.79000000  0.36250000  0.83790000  1.0 0.1007641167
H  H26  1  0.21000000  0.86250000  0.16210000  1.0 0.1007641167
H  H27  1  0.87040000  0.39600000  0.87450000  1.0 0.1007641167
H  H28  1  0.12960000  0.89600000  0.12550000  1.0 0.1007641167
H  H29  1  0.04530000  0.31350000  0.88830000  1.0 0.1007641167
H  H30  1  0.95470000  0.81350000  0.11170000  1.0 0.1007641167
H  H31  1  0.99680000  0.33090000  0.95700000  1.0 0.1007641167
H  H32  1  0.00320000  0.83090000  0.04300000  1.0 0.1007641167
H  H33  1  0.85980000  0.45720000  0.60460000  1.0 0.1285079418
H  H34  1  0.14020000  0.95720000  0.39540000  1.0 0.1285079418
H  H35  1  0.73080000  0.48820000  0.52810000  1.0 0.1285079418
H  H36  1  0.26920000  0.98820000  0.47190000  1.0 0.1285079418
H  H37  1  0.70090000  0.37380000  0.39530000  1.0 0.1191974259
H  H38  1  0.29910000  0.87380000  0.60470000  1.0 0.1191974259
H  H39  1  0.83220000  0.34310000  0.46920000  1.0 0.1191974259
H  H40  1  0.16780000  0.84310000  0.53080000  1.0 0.1191974259
H  H41  1  0.23060000  0.42490000  0.56960000  1.0 0.1191974259
H  H42  1  0.76940000  0.92490000  0.43040000  1.0 0.1191974259
H  H43  1  0.31610000  0.46820000  0.49400000  1.0 0.1191974259
H  H44  1  0.68390000  0.96820000  0.50600000  1.0 0.1191974259
H  H45  1  0.26680000  0.37420000  0.32220000  1.0 0.1191974259
H  H46  1  0.73320000  0.87420000  0.67780000  1.0 0.1191974259
H  H47  1  0.17170000  0.33320000  0.39030000  1.0 0.1381646369
H  H48  1  0.82830000  0.83320000  0.60970000  1.0 0.1381646369
H  H49  1  0.10070000  0.19510000  0.57120000  1.0 0.1191974259
H  H50  1  0.89930000  0.69510000  0.42880000  1.0 0.1191974259
H  H51  1  0.16950000  0.12380000  0.56480000  1.0 0.1191974259
H  H52  1  0.83050000  0.62380000  0.43520000  1.0 0.1191974259
H  H53  1  0.39040000  0.17320000  0.70410000  1.0 0.1191974259
H  H54  1  0.60960000  0.67320000  0.29590000  1.0 0.1191974259
H  H55  1  0.31970000  0.24150000  0.71150000  1.0 0.1285079418
H  H56  1  0.68030000  0.74150000  0.28850000  1.0 0.1285079418
H  H57  1  0.80010000  0.20810000  0.91100000  1.0 0.1285079418
H  H58  1  0.19990000  0.70810000  0.08900000  1.0 0.1285079418
H  H59  1  0.72030000  0.13910000  0.89520000  1.0 0.1191974259
H  H60  1  0.27970000  0.63910000  0.10480000  1.0 0.1191974259
H  H61  1  0.65620000  0.15970000  0.67170000  1.0 0.1191974259
H  H62  1  0.34380000  0.65970000  0.32830000  1.0 0.1191974259
H  H63  1  0.69820000  0.24090000  0.68810000  1.0 0.1381646369
H  H64  1  0.30180000  0.74090000  0.31190000  1.0 0.1381646369
H  H65  1  0.80790000  0.33560000  0.08750000  1.0 0.1381646369
H  H66  1  0.19210000  0.83560000  0.91250000  1.0 0.1381646369
H  H67  1  0.70290000  0.36970000  0.15150000  1.0 0.1191974259
H  H68  1  0.29710000  0.86970000  0.84850000  1.0 0.1191974259
H  H69  1  0.64820000  0.46640000  0.98040000  1.0 0.1191974259
H  H70  1  0.35180000  0.96640000  0.01960000  1.0 0.1191974259
H  H71  1  0.73460000  0.42560000  0.90490000  1.0 0.1191974259
H  H72  1  0.26540000  0.92560000  0.09510000  1.0 0.1191974259
H  H73  1  0.09920000  0.46050000  0.89960000  1.0 0.1381646369
H  H74  1  0.90080000  0.96050000  0.10040000  1.0 0.1381646369
H  H75  1  0.23410000  0.49000000  0.97580000  1.0 0.1191974259
H  H76  1  0.76590000  0.99000000  0.02420000  1.0 0.1285079418
H  H77  1  0.28030000  0.36510000  0.07710000  1.0 0.1285079418
H  H78  1  0.71970000  0.86510000  0.92290000  1.0 0.1285079418
H  H79  1  0.15020000  0.33630000  0.00120000  1.0 0.1191974259
H  H80  1  0.84980000  0.83630000  0.99880000  1.0 0.1191974259
H  H81  1  0.51870000  0.04670000  0.16040000  1.0 0.1381646369
H  H82  1  0.48130000  0.54670000  0.83960000  1.0 0.1381646369
H  H83  1  0.53220000  0.01000000  0.04670000  1.0 0.11068589
H  H84  1  0.46780000  0.51000000  0.95330000  1.0 0.11068589
H  H85  1  0.53360000  0.12880000  0.93610000  1.0 0.1007641167
H  H86  1  0.46640000  0.62880000  0.06390000  1.0 0.1007641167
H  H87  1  0.52110000  0.16840000  0.04870000  1.0 0.1381646369
H  H88  1  0.47890000  0.66840000  0.95130000  1.0 0.1381646369
H  H89  1  0.51660000  0.04850000  0.35870000  1.0 0.1381646369
H  H90  1  0.48340000  0.54850000  0.64130000  1.0 0.1381646369
H  H91  1  0.51700000  0.01240000  0.47840000  1.0 0.11068589
H  H92  1  0.48300000  0.51240000  0.52160000  1.0 0.11068589
H  H93  1  0.51590000  0.13210000  0.58430000  1.0 0.1007641167
H  H94  1  0.48410000  0.63210000  0.41570000  1.0 0.1007641167
H  H95  1  0.51680000  0.17310000  0.46750000  1.0 0.1381646369
H  H96  1  0.48320000  0.67310000  0.53250000  1.0 0.1381646369
H  H97  1  0.50590000  0.26570000  0.13620000  1.0 0.1381646369
H  H98  1  0.49410000  0.76570000  0.86380000  1.0 0.1381646369
H  H99  1  0.49340000  0.34630000  0.13280000  1.0 0.11068589
H  H100  1  0.50660000  0.84630000  0.86720000  1.0 0.11068589
H  H101  1  0.48900000  0.34920000  0.35980000  1.0 0.11068589
H  H102  1  0.51100000  0.84920000  0.64020000  1.0 0.11068589
H  H103  1  0.49330000  0.26950000  0.36650000  1.0 0.1381646369
H  H104  1  0.50670000  0.76950000  0.63350000  1.0 0.1381646369
C  C1  1  0.05890000  0.33980000  0.71290000  1.0 -0.0822836996
C  C2  1  0.94110000  0.83980000  0.28710000  1.0 -0.0822836996
C  C3  1  0.92100000  0.34300000  0.76470000  1.0 -0.0822836996
C  C4  1  0.07900000  0.84300000  0.23530000  1.0 -0.0822836996
C  C5  1  0.05650000  0.32790000  0.62470000  1.0 0.0598038057
C  C6  1  0.94350000  0.82790000  0.37530000  1.0 0.0598038057
C  C7  1  0.91360000  0.33000000  0.84900000  1.0 0.0598038057
C  C8  1  0.08640000  0.83000000  0.15100000  1.0 0.0598038057
C  C9  1  0.96710000  0.33620000  0.57460000  1.0 -0.1002252132
C  C10  1  0.03290000  0.83620000  0.42540000  1.0 -0.1002252132
C  C11  1  0.12740000  0.36150000  0.59830000  1.0 -0.0691708211
C  C12  1  0.87260000  0.86150000  0.40170000  1.0 -0.0691708211
C  C13  1  0.07930000  0.27720000  0.61240000  1.0 -0.0822836996
C  C14  1  0.92070000  0.77720000  0.38760000  1.0 -0.0822836996
C  C15  1  0.88670000  0.28030000  0.85510000  1.0 -0.0890707037
C  C16  1  0.11330000  0.78030000  0.14490000  1.0 -0.0890707037
C  C17  1  0.84750000  0.36400000  0.87440000  1.0 -0.0822836996
C  C18  1  0.15250000  0.86400000  0.12560000  1.0 -0.0822836996
C  C19  1  0.00260000  0.33620000  0.90200000  1.0 -0.0822836996
C  C20  1  0.99740000  0.83620000  0.09800000  1.0 -0.0822836996
C  C21  1  0.85900000  0.39760000  0.54210000  1.0 0.2299601461
C  C22  1  0.14100000  0.89760000  0.45790000  1.0 0.2299601461
C  C23  1  0.82860000  0.44040000  0.56140000  1.0 -0.2320208881
C  C24  1  0.17140000  0.94040000  0.43860000  1.0 -0.2320208881
C  C25  1  0.75040000  0.45850000  0.51550000  1.0 -0.0595535824
C  C26  1  0.24960000  0.95850000  0.48450000  1.0 -0.0595535824
C  C27  1  0.70080000  0.43470000  0.45250000  1.0 -0.0691708211
C  C28  1  0.29920000  0.93470000  0.54750000  1.0 -0.0691708211
C  C29  1  0.73290000  0.39150000  0.43700000  1.0 -0.0691708211
C  C30  1  0.26710000  0.89150000  0.56300000  1.0 -0.0691708211
C  C31  1  0.81200000  0.37270000  0.48150000  1.0 -0.2397156547
C  C32  1  0.18800000  0.87270000  0.51850000  1.0 -0.2397156547
C  C33  1  0.61950000  0.45360000  0.40280000  1.0 0.5897821482
C  C34  1  0.38050000  0.95360000  0.59720000  1.0 0.5897821482
C  C35  1  0.19150000  0.37620000  0.48460000  1.0 0.2395290833
C  C36  1  0.80850000  0.87620000  0.51540000  1.0 0.2395290833
C  C37  1  0.23570000  0.41530000  0.51860000  1.0 -0.2397156547
C  C38  1  0.76430000  0.91530000  0.48140000  1.0 -0.2397156547
C  C39  1  0.28880000  0.44030000  0.47360000  1.0 -0.0822836996
C  C40  1  0.71120000  0.94030000  0.52640000  1.0 -0.0822836996
C  C41  1  0.30170000  0.42510000  0.40100000  1.0 -0.0691708211
C  C42  1  0.69830000  0.92510000  0.59900000  1.0 -0.0691708211
C  C43  1  0.25830000  0.38520000  0.37160000  1.0 -0.0890707037
C  C44  1  0.74170000  0.88520000  0.62840000  1.0 -0.0890707037
C  C45  1  0.20170000  0.36020000  0.41230000  1.0 -0.2196931285
C  C46  1  0.79830000  0.86020000  0.58770000  1.0 -0.2196931285
C  C47  1  0.36240000  0.44970000  0.35620000  1.0 0.5837008929
C  C48  1  0.63760000  0.94970000  0.64380000  1.0 0.5837008929
C  C49  1  0.20460000  0.22520000  0.64110000  1.0 0.2116619871
C  C50  1  0.79540000  0.72520000  0.35890000  1.0 0.2157017763
C  C51  1  0.15970000  0.19050000  0.59790000  1.0 -0.2320208881
C  C52  1  0.84030000  0.69050000  0.40210000  1.0 -0.2320208881
C  C53  1  0.20160000  0.14830000  0.59340000  1.0 -0.0691708211
C  C54  1  0.79840000  0.64830000  0.40660000  1.0 -0.0691708211
C  C55  1  0.28880000  0.14070000  0.62920000  1.0 -0.0505228585
C  C56  1  0.71120000  0.64070000  0.37080000  1.0 -0.0505228585
C  C57  1  0.33190000  0.17730000  0.67600000  1.0 -0.0890707037
C  C58  1  0.66810000  0.67730000  0.32400000  1.0 -0.0890707037
C  C59  1  0.28970000  0.21750000  0.68020000  1.0 -0.1899914641
C  C60  1  0.71030000  0.71750000  0.31980000  1.0 -0.1899914641
C  C61  1  0.33610000  0.09530000  0.62620000  1.0 0.5411877211
C  C62  1  0.66390000  0.59530000  0.37380000  1.0 0.5411877211
C  C63  1  0.76280000  0.23000000  0.79700000  1.0 0.2395290833
C  C64  1  0.23720000  0.73000000  0.20300000  1.0 0.2395290833
C  C65  1  0.76600000  0.20010000  0.86150000  1.0 -0.2320208881
C  C66  1  0.23400000  0.70010000  0.13850000  1.0 -0.2397156547
C  C67  1  0.71890000  0.15880000  0.85140000  1.0 -0.0890707037
C  C68  1  0.28110000  0.65880000  0.14860000  1.0 -0.0890707037
C  C69  1  0.67110000  0.14550000  0.78180000  1.0 -0.0505228585
C  C70  1  0.32890000  0.64550000  0.21820000  1.0 -0.0505228585
C  C71  1  0.67630000  0.17180000  0.72260000  1.0 -0.1002252132
C  C72  1  0.32370000  0.67180000  0.27740000  1.0 -0.1002252132
C  C73  1  0.71150000  0.21930000  0.72950000  1.0 -0.2196931285
C  C74  1  0.28850000  0.71930000  0.27050000  1.0 -0.2196931285
C  C75  1  0.62000000  0.09950000  0.77380000  1.0 0.5897821482
C  C76  1  0.38000000  0.59950000  0.22620000  1.0 0.5837008929
C  C77  1  0.78110000  0.37760000  0.98880000  1.0 0.2527231451
C  C78  1  0.21890000  0.87760000  0.01120000  1.0 0.2527231451
C  C79  1  0.77320000  0.36090000  0.06460000  1.0 -0.2196931285
C  C80  1  0.22680000  0.86090000  0.93540000  1.0 -0.2196931285
C  C81  1  0.71370000  0.38260000  0.10410000  1.0 -0.0890707037
C  C82  1  0.28630000  0.88260000  0.89590000  1.0 -0.0890707037
C  C83  1  0.66850000  0.42400000  0.07450000  1.0 -0.0595535824
C  C84  1  0.33150000  0.92400000  0.92550000  1.0 -0.0595535824
C  C85  1  0.67840000  0.43920000  0.00110000  1.0 -0.0822836996
C  C86  1  0.32160000  0.93920000  0.99890000  1.0 -0.0822836996
C  C87  1  0.73200000  0.41560000  0.95640000  1.0 -0.2397156547
C  C88  1  0.26800000  0.91560000  0.04360000  1.0 -0.2397156547
C  C89  1  0.60410000  0.44670000  0.11990000  1.0 0.574229854
C  C90  1  0.39590000  0.94670000  0.88010000  1.0 0.574229854
C  C91  1  0.11520000  0.39680000  0.94470000  1.0 0.2116619871
C  C92  1  0.88480000  0.89680000  0.05530000  1.0 0.2116619871
C  C93  1  0.13640000  0.44120000  0.93570000  1.0 -0.2111835773
C  C94  1  0.86360000  0.94120000  0.06430000  1.0 -0.2111835773
C  C95  1  0.21680000  0.45900000  0.98210000  1.0 -0.0822836996
C  C96  1  0.78320000  0.95900000  0.01790000  1.0 -0.0822836996
C  C97  1  0.26860000  0.43050000  0.03600000  1.0 -0.041559403
C  C98  1  0.73140000  0.93050000  0.96400000  1.0 -0.041559403
C  C99  1  0.24380000  0.38500000  0.04150000  1.0 -0.0890707037
C  C100  1  0.75620000  0.88500000  0.95850000  1.0 -0.0890707037
C  C101  1  0.16680000  0.36760000  0.99650000  1.0 -0.2196931285
C  C102  1  0.83320000  0.86760000  0.00350000  1.0 -0.2196931285
C  C103  1  0.35130000  0.44960000  0.08930000  1.0 0.5897821482
C  C104  1  0.64870000  0.94960000  0.91070000  1.0 0.5897821482
C  C105  1  0.51820000  0.13860000  0.19340000  1.0 0.3686226855
C  C106  1  0.48180000  0.63860000  0.80660000  1.0 0.3686226855
C  C107  1  0.51540000  0.14020000  0.32480000  1.0 0.3686226855
C  C108  1  0.48460000  0.64020000  0.67520000  1.0 0.3686226855
C  C109  1  0.50920000  0.20680000  0.25580000  1.0 0.34917708
C  C110  1  0.49080000  0.70680000  0.74420000  1.0 0.34917708
C  C111  1  0.52260000  0.11280000  0.11950000  1.0 0.0598038057
C  C112  1  0.47740000  0.61280000  0.88050000  1.0 0.0598038057
C  C113  1  0.52290000  0.06440000  0.11540000  1.0 -0.1801243672
C  C114  1  0.47710000  0.56440000  0.88460000  1.0 -0.1801243672
C  C115  1  0.52900000  0.04270000  0.04720000  1.0 0.0598038057
C  C116  1  0.47100000  0.54270000  0.95280000  1.0 0.0598038057
C  C117  1  0.53010000  0.11180000  0.98200000  1.0 0.0919788853
C  C118  1  0.46990000  0.61180000  0.01800000  1.0 0.0919788853
C  C119  1  0.52410000  0.13560000  0.05000000  1.0 -0.1801243672
C  C120  1  0.47590000  0.63560000  0.95000000  1.0 -0.1801243672
C  C121  1  0.51540000  0.11490000  0.40000000  1.0 0.0598038057
C  C122  1  0.48460000  0.61490000  0.60000000  1.0 0.0598038057
C  C123  1  0.51620000  0.06650000  0.40420000  1.0 -0.1693532292
C  C124  1  0.48380000  0.56650000  0.59580000  1.0 -0.1693532292
C  C125  1  0.51640000  0.04520000  0.47620000  1.0 0.1007641167
C  C126  1  0.48360000  0.54520000  0.52380000  1.0 0.1007641167
C  C127  1  0.51590000  0.11510000  0.53770000  1.0 0.1007641167
C  C128  1  0.48410000  0.61510000  0.46230000  1.0 0.1007641167
C  C129  1  0.51620000  0.14030000  0.46780000  1.0 -0.160668121
C  C130  1  0.48380000  0.64030000  0.53220000  1.0 -0.160668121
C  C131  1  0.50340000  0.25820000  0.25270000  1.0 0.0598038057
C  C132  1  0.49660000  0.75820000  0.74730000  1.0 0.0598038057
C  C133  1  0.50210000  0.28220000  0.18250000  1.0 -0.160668121
C  C134  1  0.49790000  0.78220000  0.81750000  1.0 -0.160668121
C  C135  1  0.49520000  0.33060000  0.18090000  1.0 0.0919788853
C  C136  1  0.50480000  0.83060000  0.81910000  1.0 0.0919788853
C  C137  1  0.49160000  0.33220000  0.31370000  1.0 0.0919788853
C  C138  1  0.50840000  0.83220000  0.68630000  1.0 0.0919788853
C  C139  1  0.49570000  0.28450000  0.31840000  1.0 -0.1693532292
C  C140  1  0.50430000  0.78450000  0.68160000  1.0 -0.1693532292
N  N1  1  0.51950000  0.11390000  0.26090000  1.0 -0.4079937611
N  N2  1  0.48050000  0.61390000  0.73910000  1.0 -0.4079937611
N  N3  1  0.51220000  0.18580000  0.32640000  1.0 -0.3937965159
N  N4  1  0.48780000  0.68580000  0.67360000  1.0 -0.3937965159
N  N5  1  0.51440000  0.18550000  0.18850000  1.0 -0.3970426295
N  N6  1  0.48560000  0.68550000  0.81150000  1.0 -0.3970426295
N  N7  1  0.53090000  0.06610000  0.97930000  1.0 -0.2397156547
N  N8  1  0.46910000  0.56610000  0.02070000  1.0 -0.2397156547
N  N9  1  0.51570000  0.06880000  0.54220000  1.0 -0.2111835773
N  N10  1  0.48430000  0.56880000  0.45780000  1.0 -0.2111835773
N  N11  1  0.49110000  0.35580000  0.24640000  1.0 -0.2196931285
N  N12  1  0.50890000  0.85580000  0.75360000  1.0 -0.2196931285
O  O1  1  0.98800000  0.31450000  0.73810000  1.0 -0.1801243672
O  O2  1  0.01200000  0.81450000  0.26190000  1.0 -0.1801243672
O  O3  1  0.40430000  0.07600000  0.82780000  1.0 0.0346056602
O  O4  1  0.59570000  0.57600000  0.17220000  1.0 0.0346056602
O  O5  1  0.93780000  0.38300000  0.58960000  1.0 -0.2111835773
O  O6  1  0.06220000  0.88300000  0.41040000  1.0 -0.2111835773
O  O7  1  0.13480000  0.34990000  0.52090000  1.0 -0.1801243672
O  O8  1  0.86520000  0.84990000  0.47910000  1.0 -0.1801243672
O  O9  1  0.16900000  0.26880000  0.65250000  1.0 -0.1801243672
O  O10  1  0.83100000  0.76880000  0.34750000  1.0 -0.1801243672
O  O11  1  0.80170000  0.27340000  0.80100000  1.0 -0.1899914641
O  O12  1  0.19830000  0.77340000  0.19900000  1.0 -0.1899914641
O  O13  1  0.83660000  0.35120000  0.95110000  1.0 -0.1801243672
O  O14  1  0.16340000  0.85120000  0.04890000  1.0 -0.1801243672
O  O15  1  0.03450000  0.38210000  0.89360000  1.0 -0.2196931285
O  O16  1  0.96550000  0.88210000  0.10640000  1.0 -0.2111835773
O  O17  1  0.57380000  0.42650000  0.35350000  1.0 -0.5438065056
O  O18  1  0.42620000  0.92650000  0.64650000  1.0 -0.5438065056
O  O19  1  0.59850000  0.49600000  0.41110000  1.0 -0.4855836455
O  O20  1  0.40150000  0.99600000  0.58890000  1.0 -0.4844586674
O  O21  1  0.39510000  0.48820000  0.38200000  1.0 -0.5264916096
O  O22  1  0.60490000  0.98820000  0.61800000  1.0 -0.5264916096
O  O23  1  0.37640000  0.43090000  0.29440000  1.0 -0.512812746
O  O24  1  0.62360000  0.93090000  0.70560000  1.0 -0.512812746
O  O25  1  0.29550000  0.06680000  0.56850000  1.0 -0.5500874444
O  O26  1  0.70450000  0.56680000  0.43150000  1.0 -0.5500874444
O  O27  1  0.40780000  0.08650000  0.66850000  1.0 -0.4651468221
O  O28  1  0.59220000  0.58650000  0.33150000  1.0 -0.4626501624
O  O29  1  0.60190000  0.08270000  0.70710000  1.0 -0.4844586674
O  O30  1  0.39810000  0.58270000  0.29290000  1.0 -0.4855836455
O  O31  1  0.59960000  0.08330000  0.83530000  1.0 -0.4990942453
O  O32  1  0.40040000  0.58330000  0.16470000  1.0 -0.4990942453
O  O33  1  0.56610000  0.48290000  0.09120000  1.0 -0.5264916096
O  O34  1  0.43390000  0.98290000  0.90880000  1.0 -0.5264916096
O  O35  1  0.59600000  0.42710000  0.18360000  1.0 -0.5195232753
O  O36  1  0.40400000  0.92710000  0.81640000  1.0 -0.5195232753
O  O37  1  0.40050000  0.42150000  0.13470000  1.0 -0.5500874444
O  O38  1  0.59950000  0.92150000  0.86530000  1.0 -0.5500874444
O  O39  1  0.36560000  0.49370000  0.08420000  1.0 -0.5500874444
O  O40  1  0.63440000  0.99370000  0.91580000  1.0 -0.5500874444
O  O41  1  0.49230000  0.00270000  0.75570000  1.0 -0.7906921927
O  O42  1  0.50770000  0.50270000  0.24430000  1.0 -0.7906921927
