# DDEC6 charges by PACMAN v1.1 (https://github.com/mtap-research/PACMAN-charge/)
data_CAZVOR_ASR_pacman
_symmetry_space_group_name_H-M   'P 1'
_cell_length_a   11.85630000
_cell_length_b   13.57780000
_cell_length_c   14.64160000
_cell_angle_alpha   63.53000000
_cell_angle_beta   75.45000000
_cell_angle_gamma   70.02300000
_symmetry_Int_Tables_number   1
_chemical_formula_structural   Cu2SiH26W12C26(N3O10)4
_chemical_formula_sum   'Cu2 Si1 H26 W12 C26 N12 O40'
_cell_volume   1969.22958680
_cell_formula_units_Z   1
loop_
 _symmetry_equiv_pos_site_id
 _symmetry_equiv_pos_as_xyz
  1  'x, y, z'
loop_
 _atom_site_type_symbol
 _atom_site_label
 _atom_site_symmetry_multiplicity
 _atom_site_fract_x
 _atom_site_fract_y
 _atom_site_fract_z
 _atom_site_occupancy
 _atom_site_charge
Cu  Cu1  1  0.73030000  0.92680000  0.51520000  1.0 0.7889572294
Cu  Cu2  1  0.26970000  0.07320000  0.48480000  1.0 0.7889572294
Si  Si1  1  0.50000000  0.50000000  0.50000000  1.0 1.4806459458
H  H1  1  0.93940000  0.71160000  0.61410000  1.0 0.1011148935
H  H2  1  0.78300000  0.96630000  0.70120000  1.0 0.1011148935
H  H3  1  0.12580000  0.67440000  0.78310000  1.0 0.1164563359
H  H4  1  0.09780000  0.59490000  0.74510000  1.0 0.1083848901
H  H5  1  0.99680000  0.46670000  0.86190000  1.0 0.089200907
H  H6  1  0.91370000  0.37160000  0.02780000  1.0 0.1083848901
H  H7  1  0.82220000  0.83120000  0.34640000  1.0 0.1083848901
H  H8  1  0.99190000  0.97900000  0.41850000  1.0 0.1011148935
H  H9  1  0.98780000  0.76540000  0.21680000  1.0 0.1011148935
H  H10  1  0.11440000  0.78260000  0.21030000  1.0 0.1164563359
H  H11  1  0.92060000  0.84750000  0.05110000  1.0 0.1011148935
H  H12  1  0.12100000  0.99520000  0.10450000  1.0 0.1011148935
H  H13  1  0.05380000  0.32730000  0.03170000  1.0 0.1083848901
H  H14  1  0.06060000  0.28840000  0.38590000  1.0 0.1011148935
H  H15  1  0.21700000  0.03370000  0.29880000  1.0 0.1011148935
H  H16  1  0.87420000  0.32560000  0.21690000  1.0 0.1164563359
H  H17  1  0.90220000  0.40510000  0.25490000  1.0 0.1083848901
H  H18  1  0.00320000  0.53330000  0.13810000  1.0 0.089200907
H  H19  1  0.08630000  0.62840000  0.97220000  1.0 0.1083848901
H  H20  1  0.17780000  0.16880000  0.65360000  1.0 0.1083848901
H  H21  1  0.00810000  0.02100000  0.58150000  1.0 0.1011148935
H  H22  1  0.01220000  0.23460000  0.78320000  1.0 0.1011148935
H  H23  1  0.88560000  0.21740000  0.78970000  1.0 0.1164563359
H  H24  1  0.07940000  0.15250000  0.94890000  1.0 0.1083848901
H  H25  1  0.87900000  0.00480000  0.89550000  1.0 0.1011148935
H  H26  1  0.94620000  0.67270000  0.96830000  1.0 0.1083848901
W  W1  1  0.56183000  0.48140000  0.25963000  1.0 2.4132385762
W  W2  1  0.38635000  0.73900000  0.28354000  1.0 2.4033756764
W  W3  1  0.69793000  0.64691000  0.30341000  1.0 2.3682549508
W  W4  1  0.81226000  0.40627000  0.51877000  1.0 2.2317146571
W  W5  1  0.32663000  0.75871000  0.52363000  1.0 2.3581977398
W  W6  1  0.63802000  0.66210000  0.54559000  1.0 2.3682549508
W  W7  1  0.43817000  0.51860000  0.74037000  1.0 2.4132385762
W  W8  1  0.61365000  0.26100000  0.71646000  1.0 2.4033756764
W  W9  1  0.30207000  0.35309000  0.69659000  1.0 2.3682549508
W  W10  1  0.18774000  0.59373000  0.48123000  1.0 2.2317146571
W  W11  1  0.67337000  0.24129000  0.47637000  1.0 2.3581977398
W  W12  1  0.36198000  0.33790000  0.45441000  1.0 2.3682549508
C  C1  1  0.91500000  0.75800000  0.65100000  1.0 0.0760875405
C  C2  1  0.82900000  0.89500000  0.70100000  1.0 0.1392806382
C  C3  1  0.06400000  0.64200000  0.78500000  1.0 -0.2297336026
C  C4  1  0.02800000  0.56400000  0.89900000  1.0 0.0738066049
C  C5  1  0.00400000  0.48000000  0.91700000  1.0 -0.1442819699
C  C6  1  0.98600000  0.39400000  0.02100000  1.0 -0.2737508057
C  C7  1  0.88000000  0.86200000  0.34890000  1.0 0.089200907
C  C8  1  0.97300000  0.94200000  0.38700000  1.0 0.1011148935
C  C9  1  0.02900000  0.82100000  0.20600000  1.0 -0.2297336026
C  C10  1  0.01200000  0.91700000  0.09800000  1.0 0.0760875405
C  C11  1  0.94900000  0.91100000  0.03200000  1.0 -0.1833399026
C  C12  1  0.06900000  0.99900000  0.06400000  1.0 -0.1583423554
C  C13  1  0.51200000  0.01100000  0.44390000  1.0 0.448986596
C  C14  1  0.08500000  0.24200000  0.34900000  1.0 0.0760875405
C  C15  1  0.17100000  0.10500000  0.29900000  1.0 0.1392806382
C  C16  1  0.93600000  0.35800000  0.21500000  1.0 -0.2297336026
C  C17  1  0.97200000  0.43600000  0.10100000  1.0 0.0738066049
C  C18  1  0.99600000  0.52000000  0.08300000  1.0 -0.1442819699
C  C19  1  0.01400000  0.60600000  0.97900000  1.0 -0.2737508057
C  C20  1  0.12000000  0.13800000  0.65110000  1.0 0.089200907
C  C21  1  0.02700000  0.05800000  0.61300000  1.0 0.1011148935
C  C22  1  0.97100000  0.17900000  0.79400000  1.0 -0.2297336026
C  C23  1  0.98800000  0.08300000  0.90200000  1.0 0.0760875405
C  C24  1  0.05100000  0.08900000  0.96800000  1.0 -0.1833399026
C  C25  1  0.93100000  0.00100000  0.93600000  1.0 -0.1583423554
C  C26  1  0.48800000  0.98900000  0.55610000  1.0 0.448986596
N  N1  1  0.90200000  0.82000000  0.77290000  1.0 -0.300131747
N  N2  1  0.04100000  0.91700000  0.31070000  1.0 -0.2453891798
N  N3  1  0.82760000  0.85940000  0.62930000  1.0 -0.3510134308
N  N4  1  0.95830000  0.73880000  0.73320000  1.0 0.1556254239
N  N5  1  0.86850000  0.90420000  0.41460000  1.0 -0.3374680667
N  N6  1  0.98200000  0.86630000  0.28430000  1.0 0.1330319257
N  N7  1  0.09800000  0.18000000  0.22710000  1.0 -0.300131747
N  N8  1  0.95900000  0.08300000  0.68930000  1.0 -0.2453891798
N  N9  1  0.17240000  0.14060000  0.37070000  1.0 -0.3510134308
N  N10  1  0.04170000  0.26120000  0.26680000  1.0 0.1556254239
N  N11  1  0.13150000  0.09580000  0.58540000  1.0 -0.3374680667
N  N12  1  0.01800000  0.13370000  0.71570000  1.0 0.1330319257
O  O1  1  0.52100000  0.41200000  0.43900000  1.0 -0.7325661867
O  O2  1  0.36800000  0.45800000  0.53400000  1.0 -0.6946724742
O  O3  1  0.47300000  0.42300000  0.63100000  1.0 -0.6462880759
O  O4  1  0.38700000  0.61500000  0.45700000  1.0 -0.6054623811
O  O5  1  0.66300000  0.34400000  0.33320000  1.0 -0.870380013
O  O6  1  0.42900000  0.41300000  0.32300000  1.0 -0.870380013
O  O7  1  0.43600000  0.62330000  0.23450000  1.0 -0.9564490407
O  O8  1  0.67790000  0.55050000  0.24920000  1.0 -0.9194690872
O  O9  1  0.25100000  0.68480000  0.34470000  1.0 -0.9194690872
O  O10  1  0.54550000  0.74820000  0.26710000  1.0 -0.9194690872
O  O11  1  0.35200000  0.80900000  0.37840000  1.0 -0.8818896501
O  O12  1  0.68100000  0.70860000  0.40000000  1.0 -0.8933654665
O  O13  1  0.81200000  0.51610000  0.37990000  1.0 -0.9000115781
O  O14  1  0.76200000  0.52710000  0.56340000  1.0 -0.870380013
O  O15  1  0.20300000  0.69800000  0.52820000  1.0 -0.8933654665
O  O16  1  0.24060000  0.88230000  0.53250000  1.0 -0.7366242497
O  O17  1  0.48540000  0.76600000  0.51420000  1.0 -0.8559658616
O  O18  1  0.70760000  0.73890000  0.56550000  1.0 -0.7539672344
O  O19  1  0.62320000  0.98300000  0.40730000  1.0 -0.4866693406
O  O20  1  0.42200000  0.04340000  0.39500000  1.0 -0.4718993394
O  O21  1  0.47900000  0.58800000  0.56100000  1.0 -0.7325661867
O  O22  1  0.63200000  0.54200000  0.46600000  1.0 -0.6946724742
O  O23  1  0.52700000  0.57700000  0.36900000  1.0 -0.6462880759
O  O24  1  0.61300000  0.38500000  0.54300000  1.0 -0.6046384065
O  O25  1  0.33700000  0.65600000  0.66680000  1.0 -0.870380013
O  O26  1  0.57100000  0.58700000  0.67700000  1.0 -0.870380013
O  O27  1  0.56400000  0.37670000  0.76550000  1.0 -0.9564490407
O  O28  1  0.32210000  0.44950000  0.75080000  1.0 -0.9194690872
O  O29  1  0.74900000  0.31520000  0.65530000  1.0 -0.9194690872
O  O30  1  0.45450000  0.25180000  0.73290000  1.0 -0.9194690872
O  O31  1  0.64800000  0.19100000  0.62160000  1.0 -0.8818896501
O  O32  1  0.31900000  0.29140000  0.60000000  1.0 -0.8933654665
O  O33  1  0.18800000  0.48390000  0.62010000  1.0 -0.9000115781
O  O34  1  0.23800000  0.47290000  0.43660000  1.0 -0.870380013
O  O35  1  0.79700000  0.30200000  0.47180000  1.0 -0.8933654665
O  O36  1  0.75940000  0.11770000  0.46750000  1.0 -0.7366242497
O  O37  1  0.51460000  0.23400000  0.48580000  1.0 -0.8559658616
O  O38  1  0.29240000  0.26110000  0.43450000  1.0 -0.7539672344
O  O39  1  0.37680000  0.01700000  0.59270000  1.0 -0.4866693406
O  O40  1  0.57800000  0.95660000  0.60500000  1.0 -0.4718993394
