# DDEC6 charges by PACMAN v1.1 (https://github.com/mtap-research/PACMAN-charge/)
data_CEBDOD_FSR_pacman
_symmetry_space_group_name_H-M   'P 1'
_cell_length_a   13.48360000
_cell_length_b   13.48360000
_cell_length_c   7.18620000
_cell_angle_alpha   82.46710000
_cell_angle_beta   97.53290000
_cell_angle_gamma   119.43100000
_symmetry_Int_Tables_number   1
_chemical_formula_structural   Ba3P4H8C4(NO8)2
_chemical_formula_sum   'Ba6 P8 H16 C8 N4 O32'
_cell_volume   1124.70874897
_cell_formula_units_Z   2
loop_
 _symmetry_equiv_pos_site_id
 _symmetry_equiv_pos_as_xyz
  1  'x, y, z'
loop_
 _atom_site_type_symbol
 _atom_site_label
 _atom_site_symmetry_multiplicity
 _atom_site_fract_x
 _atom_site_fract_y
 _atom_site_fract_z
 _atom_site_occupancy
 _atom_site_charge
Ba  Ba1  1  0.89938000  0.89938000  0.25000000  1.0 1.5214242378
Ba  Ba2  1  0.10062000  0.10062000  0.75000000  1.0 1.5214242378
Ba  Ba3  1  0.66819000  0.15129000  0.10959000  1.0 1.5257553099
Ba  Ba4  1  0.15129000  0.66819000  0.39041000  1.0 1.5257553099
Ba  Ba5  1  0.33181000  0.84871000  0.89041000  1.0 1.5257553099
Ba  Ba6  1  0.84871000  0.33181000  0.60959000  1.0 1.5214242378
P  P1  1  0.56022000  0.14568000  0.64534000  1.0 1.3266849556
P  P2  1  0.14568000  0.56022000  0.85466000  1.0 1.3266849556
P  P3  1  0.43978000  0.85432000  0.35466000  1.0 1.3266849556
P  P4  1  0.85432000  0.43978000  0.14534000  1.0 1.3266849556
P  P5  1  0.19722000  0.96584000  0.10205000  1.0 1.3089376726
P  P6  1  0.96584000  0.19722000  0.39795000  1.0 1.3089376726
P  P7  1  0.80278000  0.03416000  0.89795000  1.0 1.3089376726
P  P8  1  0.03416000  0.80278000  0.60205000  1.0 1.3089376726
H  H1  1  0.39400000  0.12400000  0.62200000  1.0 0.1427717321
H  H2  1  0.12400000  0.39400000  0.87800000  1.0 0.1427717321
H  H3  1  0.60600000  0.87600000  0.37800000  1.0 0.1427717321
H  H4  1  0.87600000  0.60600000  0.12200000  1.0 0.1427717321
H  H5  1  0.44200000  0.21000000  0.47300000  1.0 0.1494911444
H  H6  1  0.21000000  0.44200000  0.02700000  1.0 0.1494911444
H  H7  1  0.55800000  0.79000000  0.52700000  1.0 0.1494911444
H  H8  1  0.79000000  0.55800000  0.97300000  1.0 0.1494911444
H  H9  1  0.27200000  0.12600000  0.27000000  1.0 0.1494911444
H  H10  1  0.12600000  0.27200000  0.23000000  1.0 0.1494911444
H  H11  1  0.72800000  0.87400000  0.73000000  1.0 0.1494911444
H  H12  1  0.87400000  0.72800000  0.77000000  1.0 0.1494911444
H  H13  1  0.20800000  0.01400000  0.39900000  1.0 0.1640318521
H  H14  1  0.01400000  0.20800000  0.10100000  1.0 0.1650383511
H  H15  1  0.79200000  0.98600000  0.60100000  1.0 0.1640318521
H  H16  1  0.98600000  0.79200000  0.89900000  1.0 0.1640318521
C  C1  1  0.43080000  0.14420000  0.53120000  1.0 -0.3671520389
C  C2  1  0.14420000  0.43080000  0.96880000  1.0 -0.3671520389
C  C3  1  0.56920000  0.85580000  0.46880000  1.0 -0.3671520389
C  C4  1  0.85580000  0.56920000  0.03120000  1.0 -0.3671520389
C  C5  1  0.26115000  0.04885000  0.30750000  1.0 -0.3926605842
C  C6  1  0.04885000  0.26115000  0.19250000  1.0 -0.3950270674
C  C7  1  0.73885000  0.95115000  0.69250000  1.0 -0.3926605842
C  C8  1  0.95115000  0.73885000  0.80750000  1.0 -0.3926605842
N  N1  1  0.37168000  0.05732000  0.39000000  1.0 0.2801739537
N  N2  1  0.05732000  0.37168000  0.11000000  1.0 0.2801739537
N  N3  1  0.62832000  0.94268000  0.61000000  1.0 0.2801739537
N  N4  1  0.94268000  0.62832000  0.89000000  1.0 0.2801739537
O  O1  1  0.52363000  0.04397000  0.79010000  1.0 -0.7765952906
O  O2  1  0.04397000  0.52363000  0.70990000  1.0 -0.7765952906
O  O3  1  0.47637000  0.95603000  0.20990000  1.0 -0.7765952906
O  O4  1  0.95603000  0.47637000  0.29010000  1.0 -0.7765952906
O  O5  1  0.62371000  0.14009000  0.49000000  1.0 -0.7290232739
O  O6  1  0.14009000  0.62371000  0.01000000  1.0 -0.7290232739
O  O7  1  0.37629000  0.85991000  0.51000000  1.0 -0.7290232739
O  O8  1  0.85991000  0.37629000  0.99000000  1.0 -0.7290232739
O  O9  1  0.62743000  0.25857000  0.73820000  1.0 -0.7594483159
O  O10  1  0.25857000  0.62743000  0.76180000  1.0 -0.7594483159
O  O11  1  0.37257000  0.74143000  0.26180000  1.0 -0.7594483159
O  O12  1  0.74143000  0.37257000  0.23820000  1.0 -0.7594483159
O  O13  1  0.19305000  0.85155000  0.14750000  1.0 -0.7886752448
O  O14  1  0.85155000  0.19305000  0.35250000  1.0 -0.7886752448
O  O15  1  0.80695000  0.14845000  0.85250000  1.0 -0.7886752448
O  O16  1  0.14845000  0.80695000  0.64750000  1.0 -0.7886752448
O  O17  1  0.08152000  0.96148000  0.07090000  1.0 -0.8592814765
O  O18  1  0.96148000  0.08152000  0.42910000  1.0 -0.8592814765
O  O19  1  0.91848000  0.03852000  0.92910000  1.0 -0.8592814765
O  O20  1  0.03852000  0.91848000  0.57090000  1.0 -0.8592814765
O  O21  1  0.26941000  0.03399000  0.93690000  1.0 -0.7147920093
O  O22  1  0.03399000  0.26941000  0.56310000  1.0 -0.7157161794
O  O23  1  0.73059000  0.96601000  0.06310000  1.0 -0.7157161794
O  O24  1  0.96601000  0.73059000  0.43690000  1.0 -0.7157161794
O  O25  1  0.47320000  0.20040000  0.05540000  1.0 -0.0637879482
O  O26  1  0.20040000  0.47320000  0.44460000  1.0 -0.0762766859
O  O27  1  0.52680000  0.79960000  0.94460000  1.0 -0.0762766859
O  O28  1  0.79960000  0.52680000  0.55540000  1.0 -0.0762766859
O  O29  1  0.70540000  0.70940000  0.05500000  1.0 -0.3462265096
O  O30  1  0.70940000  0.70540000  0.44500000  1.0 -0.3462265096
O  O31  1  0.29460000  0.29060000  0.94500000  1.0 -0.3440760038
O  O32  1  0.29060000  0.29460000  0.55500000  1.0 -0.3440760038
