# DDEC6 charges by PACMAN v1.1 (https://github.com/mtap-research/PACMAN-charge/)
data_CEDTUD_ASR_pacman
_symmetry_space_group_name_H-M   'P 1'
_cell_length_a   11.88200000
_cell_length_b   13.13000000
_cell_length_c   18.48150000
_cell_angle_alpha   90.00000000
_cell_angle_beta   126.02700000
_cell_angle_gamma   90.00000000
_symmetry_Int_Tables_number   1
_chemical_formula_structural   CdH13C18N4O3
_chemical_formula_sum   'Cd4 H52 C72 N16 O12'
_cell_volume   2331.84870998
_cell_formula_units_Z   4
loop_
 _symmetry_equiv_pos_site_id
 _symmetry_equiv_pos_as_xyz
  1  'x, y, z'
loop_
 _atom_site_type_symbol
 _atom_site_label
 _atom_site_symmetry_multiplicity
 _atom_site_fract_x
 _atom_site_fract_y
 _atom_site_fract_z
 _atom_site_occupancy
 _atom_site_charge
Cd  Cd1  1  0.65275000  0.43451000  0.57846000  1.0 0.7895279131
Cd  Cd2  1  0.34725000  0.93451000  0.92154000  1.0 0.7895279131
Cd  Cd3  1  0.34725000  0.56549000  0.42154000  1.0 0.7895279131
Cd  Cd4  1  0.65275000  0.06549000  0.07846000  1.0 0.7895279131
H  H1  1  0.20350000  0.73520000  0.65620000  1.0 0.3125908054
H  H2  1  0.41290000  0.27380000  0.52980000  1.0 0.102414602
H  H3  1  0.36010000  0.10230000  0.51430000  1.0 0.1312614321
H  H4  1  0.67710000  0.05170000  0.49510000  1.0 0.1373392023
H  H5  1  0.71670000  0.22520000  0.50780000  1.0 0.1086075521
H  H6  1  0.97560000  0.18180000  0.66990000  1.0 0.1373392023
H  H7  1  0.14210000  0.05590000  0.73960000  1.0 0.1086075521
H  H8  1  0.20430000  0.11180000  0.96870000  1.0 0.1086075521
H  H9  1  0.03440000  0.23600000  0.90450000  1.0 0.1373392023
H  H10  1  0.67870000  0.40860000  0.80920000  1.0 0.102414602
H  H11  1  0.55830000  0.53120000  0.82890000  1.0 0.102414602
H  H12  1  0.38840000  0.65130000  0.78160000  1.0 0.1230423204
H  H13  1  0.26390000  0.60840000  0.52770000  1.0 0.1373392023
H  H14  1  0.79650000  0.23520000  0.84380000  1.0 0.3125908054
H  H15  1  0.58710000  0.77380000  0.97020000  1.0 0.102414602
H  H16  1  0.63990000  0.60230000  0.98570000  1.0 0.1312614321
H  H17  1  0.32290000  0.55170000  0.00490000  1.0 0.1373392023
H  H18  1  0.28330000  0.72520000  0.99220000  1.0 0.1086075521
H  H19  1  0.02440000  0.68180000  0.83010000  1.0 0.1373392023
H  H20  1  0.85790000  0.55590000  0.76040000  1.0 0.1086075521
H  H21  1  0.79570000  0.61180000  0.53130000  1.0 0.1086075521
H  H22  1  0.96560000  0.73600000  0.59550000  1.0 0.1373392023
H  H23  1  0.32130000  0.90860000  0.69080000  1.0 0.102414602
H  H24  1  0.44170000  0.03120000  0.67110000  1.0 0.102414602
H  H25  1  0.61160000  0.15130000  0.71840000  1.0 0.1230423204
H  H26  1  0.73610000  0.10840000  0.97230000  1.0 0.1373392023
H  H27  1  0.79650000  0.26480000  0.34380000  1.0 0.3125908054
H  H28  1  0.58710000  0.72620000  0.47020000  1.0 0.102414602
H  H29  1  0.63990000  0.89770000  0.48570000  1.0 0.1312614321
H  H30  1  0.32290000  0.94830000  0.50490000  1.0 0.1373392023
H  H31  1  0.28330000  0.77480000  0.49220000  1.0 0.1086075521
H  H32  1  0.02440000  0.81820000  0.33010000  1.0 0.1373392023
H  H33  1  0.85790000  0.94410000  0.26040000  1.0 0.1086075521
H  H34  1  0.79570000  0.88820000  0.03130000  1.0 0.1086075521
H  H35  1  0.96560000  0.76400000  0.09550000  1.0 0.1373392023
H  H36  1  0.32130000  0.59140000  0.19080000  1.0 0.102414602
H  H37  1  0.44170000  0.46880000  0.17110000  1.0 0.102414602
H  H38  1  0.61160000  0.34870000  0.21840000  1.0 0.1230423204
H  H39  1  0.73610000  0.39160000  0.47230000  1.0 0.1373392023
H  H40  1  0.20350000  0.76480000  0.15620000  1.0 0.3125908054
H  H41  1  0.41290000  0.22620000  0.02980000  1.0 0.102414602
H  H42  1  0.36010000  0.39770000  0.01430000  1.0 0.1312614321
H  H43  1  0.67710000  0.44830000  0.99510000  1.0 0.1373392023
H  H44  1  0.71670000  0.27480000  0.00780000  1.0 0.1086075521
H  H45  1  0.97560000  0.31820000  0.16990000  1.0 0.1373392023
H  H46  1  0.14210000  0.44410000  0.23960000  1.0 0.1086075521
H  H47  1  0.20430000  0.38820000  0.46870000  1.0 0.1086075521
H  H48  1  0.03440000  0.26400000  0.40450000  1.0 0.1373392023
H  H49  1  0.67870000  0.09140000  0.30920000  1.0 0.102414602
H  H50  1  0.55830000  0.96880000  0.32890000  1.0 0.102414602
H  H51  1  0.38840000  0.84870000  0.28160000  1.0 0.1230423204
H  H52  1  0.26390000  0.89160000  0.02770000  1.0 0.1373392023
C  C1  1  0.46710000  0.22800000  0.52220000  1.0 0.0867688056
C  C2  1  0.43520000  0.12530000  0.51360000  1.0 -0.2003435143
C  C3  1  0.51400000  0.05610000  0.50390000  1.0 0.1086075521
C  C4  1  0.62050000  0.09580000  0.50190000  1.0 -0.1941535272
C  C5  1  0.64390000  0.19970000  0.50990000  1.0 0.0867688056
C  C6  1  0.02000000  0.16790000  0.73150000  1.0 -0.1641557389
C  C7  1  0.12120000  0.09400000  0.77400000  1.0 0.0772982403
C  C8  1  0.15670000  0.12590000  0.90680000  1.0 0.0772982403
C  C9  1  0.05500000  0.20010000  0.86900000  1.0 -0.181794098
C  C10  1  0.98330000  0.22160000  0.77860000  1.0 0.0561431251
C  C11  1  0.87220000  0.30200000  0.73100000  1.0 0.4010078363
C  C12  1  0.64000000  0.42940000  0.74960000  1.0 0.0295459358
C  C13  1  0.43720000  0.52780000  0.61710000  1.0 0.3197040982
C  C14  1  0.52650000  0.50130000  0.70970000  1.0 -0.0846346714
C  C15  1  0.50080000  0.54910000  0.76730000  1.0 -0.1264194124
C  C16  1  0.39880000  0.61910000  0.73980000  1.0 -0.2768111922
C  C17  1  0.30970000  0.64280000  0.64890000  1.0 0.3428676627
C  C18  1  0.32860000  0.59480000  0.58990000  1.0 -0.3991414704
C  C19  1  0.53290000  0.72800000  0.97780000  1.0 0.0867688056
C  C20  1  0.56480000  0.62530000  0.98640000  1.0 -0.2003435143
C  C21  1  0.48600000  0.55610000  0.99610000  1.0 0.1086075521
C  C22  1  0.37950000  0.59580000  0.99810000  1.0 -0.1941535272
C  C23  1  0.35610000  0.69970000  0.99010000  1.0 0.0867688056
C  C24  1  0.98000000  0.66790000  0.76850000  1.0 -0.1641557389
C  C25  1  0.87880000  0.59400000  0.72600000  1.0 0.0772982403
C  C26  1  0.84330000  0.62590000  0.59320000  1.0 0.0772982403
C  C27  1  0.94500000  0.70010000  0.63100000  1.0 -0.181794098
C  C28  1  0.01670000  0.72160000  0.72140000  1.0 0.0561431251
C  C29  1  0.12780000  0.80200000  0.76900000  1.0 0.4010078363
C  C30  1  0.36000000  0.92940000  0.75040000  1.0 0.0295459358
C  C31  1  0.56280000  0.02780000  0.88290000  1.0 0.3197040982
C  C32  1  0.47350000  0.00130000  0.79030000  1.0 -0.0846346714
C  C33  1  0.49920000  0.04910000  0.73270000  1.0 -0.1264194124
C  C34  1  0.60120000  0.11910000  0.76020000  1.0 -0.2768111922
C  C35  1  0.69030000  0.14280000  0.85110000  1.0 0.3428676627
C  C36  1  0.67140000  0.09480000  0.91010000  1.0 -0.3991414704
C  C37  1  0.53290000  0.77200000  0.47780000  1.0 0.0867688056
C  C38  1  0.56480000  0.87470000  0.48640000  1.0 -0.2003435143
C  C39  1  0.48600000  0.94390000  0.49610000  1.0 0.1086075521
C  C40  1  0.37950000  0.90420000  0.49810000  1.0 -0.1941535272
C  C41  1  0.35610000  0.80030000  0.49010000  1.0 0.0867688056
C  C42  1  0.98000000  0.83210000  0.26850000  1.0 -0.1641557389
C  C43  1  0.87880000  0.90600000  0.22600000  1.0 0.0772982403
C  C44  1  0.84330000  0.87410000  0.09320000  1.0 0.0772982403
C  C45  1  0.94500000  0.79990000  0.13100000  1.0 -0.181794098
C  C46  1  0.01670000  0.77840000  0.22140000  1.0 0.0561431251
C  C47  1  0.12780000  0.69800000  0.26900000  1.0 0.4010078363
C  C48  1  0.36000000  0.57060000  0.25040000  1.0 0.0295459358
C  C49  1  0.56280000  0.47220000  0.38290000  1.0 0.3197040982
C  C50  1  0.47350000  0.49870000  0.29030000  1.0 -0.0846346714
C  C51  1  0.49920000  0.45090000  0.23270000  1.0 -0.1264194124
C  C52  1  0.60120000  0.38090000  0.26020000  1.0 -0.2768111922
C  C53  1  0.69030000  0.35720000  0.35110000  1.0 0.3428676627
C  C54  1  0.67140000  0.40520000  0.41010000  1.0 -0.3991414704
C  C55  1  0.46710000  0.27200000  0.02220000  1.0 0.0867688056
C  C56  1  0.43520000  0.37470000  0.01360000  1.0 -0.2003435143
C  C57  1  0.51400000  0.44390000  0.00390000  1.0 0.1086075521
C  C58  1  0.62050000  0.40420000  0.00190000  1.0 -0.1941535272
C  C59  1  0.64390000  0.30030000  0.00990000  1.0 0.0867688056
C  C60  1  0.02000000  0.33210000  0.23150000  1.0 -0.1641557389
C  C61  1  0.12120000  0.40600000  0.27400000  1.0 0.0772982403
C  C62  1  0.15670000  0.37410000  0.40680000  1.0 0.0772982403
C  C63  1  0.05500000  0.29990000  0.36900000  1.0 -0.181794098
C  C64  1  0.98330000  0.27840000  0.27860000  1.0 0.0561431251
C  C65  1  0.87220000  0.19800000  0.23100000  1.0 0.4010078363
C  C66  1  0.64000000  0.07060000  0.24960000  1.0 0.0295459358
C  C67  1  0.43720000  0.97220000  0.11710000  1.0 0.3197040982
C  C68  1  0.52650000  0.99870000  0.20970000  1.0 -0.0846346714
C  C69  1  0.50080000  0.95090000  0.26730000  1.0 -0.1264194124
C  C70  1  0.39880000  0.88090000  0.23980000  1.0 -0.2768111922
C  C71  1  0.30970000  0.85720000  0.14890000  1.0 0.3428676627
C  C72  1  0.32860000  0.90520000  0.08990000  1.0 -0.3991414704
N  N1  1  0.56900000  0.26600000  0.52050000  1.0 -0.222562401
N  N2  1  0.69395000  0.39070000  0.71275000  1.0 -0.1529954322
N  N3  1  0.80258000  0.32080000  0.76448000  1.0 -0.373371201
N  N4  1  0.19160000  0.07300000  0.86110000  1.0 -0.211289803
N  N5  1  0.43100000  0.76600000  0.97950000  1.0 -0.222562401
N  N6  1  0.30605000  0.89070000  0.78725000  1.0 -0.1529954322
N  N7  1  0.19742000  0.82080000  0.73552000  1.0 -0.373371201
N  N8  1  0.80840000  0.57300000  0.63890000  1.0 -0.211289803
N  N9  1  0.43100000  0.73400000  0.47950000  1.0 -0.222562401
N  N10  1  0.30605000  0.60930000  0.28725000  1.0 -0.1529954322
N  N11  1  0.19742000  0.67920000  0.23552000  1.0 -0.373371201
N  N12  1  0.80840000  0.92700000  0.13890000  1.0 -0.211289803
N  N13  1  0.56900000  0.23400000  0.02050000  1.0 -0.222562401
N  N14  1  0.69395000  0.10930000  0.21275000  1.0 -0.1529954322
N  N15  1  0.80258000  0.17920000  0.26448000  1.0 -0.373371201
N  N16  1  0.19160000  0.42700000  0.36110000  1.0 -0.211289803
O  O1  1  0.85537000  0.34203000  0.66231000  1.0 -0.5209799953
O  O2  1  0.45279000  0.49015000  0.55662000  1.0 -0.5689946212
O  O3  1  0.20528000  0.71100000  0.61478000  1.0 -0.4472089656
O  O4  1  0.14463000  0.84203000  0.83769000  1.0 -0.5209799953
O  O5  1  0.54721000  0.99015000  0.94338000  1.0 -0.5689946212
O  O6  1  0.79472000  0.21100000  0.88522000  1.0 -0.4472089656
O  O7  1  0.14463000  0.65797000  0.33769000  1.0 -0.5209799953
O  O8  1  0.54721000  0.50985000  0.44338000  1.0 -0.5689946212
O  O9  1  0.79472000  0.28900000  0.38522000  1.0 -0.4472089656
O  O10  1  0.85537000  0.15797000  0.16231000  1.0 -0.5209799953
O  O11  1  0.45279000  0.00985000  0.05662000  1.0 -0.5689946212
O  O12  1  0.20528000  0.78900000  0.11478000  1.0 -0.4472089656
