# DDEC6 charges by PACMAN v1.1 (https://github.com/mtap-research/PACMAN-charge/)
data_CEFLEF_ASR_pacman
_symmetry_space_group_name_H-M   'P 1'
_cell_length_a   15.27700000
_cell_length_b   15.27700000
_cell_length_c   15.77600000
_cell_angle_alpha   90.00000000
_cell_angle_beta   90.00000000
_cell_angle_gamma   120.00000000
_symmetry_Int_Tables_number   1
_chemical_formula_structural   Dy2Mn3H18C42(NO4)6
_chemical_formula_sum   'Dy4 Mn6 H36 C84 N12 O48'
_cell_volume   3188.62676021
_cell_formula_units_Z   2
loop_
 _symmetry_equiv_pos_site_id
 _symmetry_equiv_pos_as_xyz
  1  'x, y, z'
loop_
 _atom_site_type_symbol
 _atom_site_label
 _atom_site_symmetry_multiplicity
 _atom_site_fract_x
 _atom_site_fract_y
 _atom_site_fract_z
 _atom_site_occupancy
 _atom_site_charge
Dy  Dy1  1  0.66666667  0.33333333  0.25000000  1.0 1.8059473715
Dy  Dy2  1  0.33333333  0.66666667  0.25000000  1.0 1.8059473715
Dy  Dy3  1  0.33333333  0.66666667  0.75000000  1.0 1.8059473715
Dy  Dy4  1  0.66666667  0.33333333  0.75000000  1.0 1.8059473715
Mn  Mn1  1  0.50000000  0.50000000  0.00000000  1.0 1.0669364215
Mn  Mn2  1  0.50000000  0.00000000  0.00000000  1.0 1.0669364215
Mn  Mn3  1  0.00000000  0.50000000  0.00000000  1.0 1.0669364215
Mn  Mn4  1  0.50000000  0.50000000  0.50000000  1.0 1.0669364215
Mn  Mn5  1  0.00000000  0.50000000  0.50000000  1.0 1.0669364215
Mn  Mn6  1  0.50000000  0.00000000  0.50000000  1.0 1.0669364215
H  H1  1  0.28920000  0.23300000  0.15560000  1.0 0.1345864913
H  H2  1  0.76700000  0.05620000  0.15560000  1.0 0.1345864913
H  H3  1  0.94380000  0.71080000  0.15560000  1.0 0.1345864913
H  H4  1  0.23300000  0.94380000  0.15560000  1.0 0.1345864913
H  H5  1  0.05620000  0.28920000  0.15560000  1.0 0.1345864913
H  H6  1  0.23300000  0.28920000  0.34440000  1.0 0.1345864913
H  H7  1  0.94380000  0.23300000  0.34440000  1.0 0.1345864913
H  H8  1  0.28920000  0.05620000  0.34440000  1.0 0.1345864913
H  H9  1  0.71080000  0.76700000  0.15560000  1.0 0.1345864913
H  H10  1  0.05620000  0.76700000  0.34440000  1.0 0.1345864913
H  H11  1  0.71080000  0.94380000  0.34440000  1.0 0.1345864913
H  H12  1  0.76700000  0.71080000  0.34440000  1.0 0.1345864913
H  H13  1  0.71080000  0.76700000  0.84440000  1.0 0.1345864913
H  H14  1  0.23300000  0.94380000  0.84440000  1.0 0.1345864913
H  H15  1  0.05620000  0.28920000  0.84440000  1.0 0.1345864913
H  H16  1  0.76700000  0.05620000  0.84440000  1.0 0.1345864913
H  H17  1  0.94380000  0.71080000  0.84440000  1.0 0.1345864913
H  H18  1  0.76700000  0.71080000  0.65560000  1.0 0.1345864913
H  H19  1  0.05620000  0.76700000  0.65560000  1.0 0.1345864913
H  H20  1  0.71080000  0.94380000  0.65560000  1.0 0.1345864913
H  H21  1  0.28920000  0.23300000  0.84440000  1.0 0.1345864913
H  H22  1  0.94380000  0.23300000  0.65560000  1.0 0.1345864913
H  H23  1  0.28920000  0.05620000  0.65560000  1.0 0.1345864913
H  H24  1  0.23300000  0.28920000  0.65560000  1.0 0.1345864913
H  H25  1  0.20010000  0.10005000  0.25000000  1.0 0.1031215458
H  H26  1  0.89995000  0.10005000  0.25000000  1.0 0.1031215458
H  H27  1  0.89995000  0.79990000  0.25000000  1.0 0.1031215458
H  H28  1  0.10005000  0.89995000  0.25000000  1.0 0.1031215458
H  H29  1  0.10005000  0.20010000  0.25000000  1.0 0.1031215458
H  H30  1  0.79990000  0.89995000  0.25000000  1.0 0.1031215458
H  H31  1  0.79990000  0.89995000  0.75000000  1.0 0.1031215458
H  H32  1  0.10005000  0.89995000  0.75000000  1.0 0.1031215458
H  H33  1  0.10005000  0.20010000  0.75000000  1.0 0.1031215458
H  H34  1  0.89995000  0.10005000  0.75000000  1.0 0.1031215458
H  H35  1  0.89995000  0.79990000  0.75000000  1.0 0.1031215458
H  H36  1  0.20010000  0.10005000  0.75000000  1.0 0.1031215458
C  C1  1  0.49423000  0.35668000  0.14103000  1.0 0.5635805707
C  C2  1  0.64332000  0.13755000  0.14103000  1.0 0.5635805707
C  C3  1  0.86245000  0.50577000  0.14103000  1.0 0.5635805707
C  C4  1  0.35668000  0.86245000  0.14103000  1.0 0.5635805707
C  C5  1  0.13755000  0.49423000  0.14103000  1.0 0.5635805707
C  C6  1  0.35668000  0.49423000  0.35897000  1.0 0.5635805707
C  C7  1  0.86245000  0.35668000  0.35897000  1.0 0.5635805707
C  C8  1  0.49423000  0.13755000  0.35897000  1.0 0.5635805707
C  C9  1  0.50577000  0.64332000  0.14103000  1.0 0.5635805707
C  C10  1  0.13755000  0.64332000  0.35897000  1.0 0.5635805707
C  C11  1  0.50577000  0.86245000  0.35897000  1.0 0.5635805707
C  C12  1  0.64332000  0.50577000  0.35897000  1.0 0.5635805707
C  C13  1  0.50577000  0.64332000  0.85897000  1.0 0.5635805707
C  C14  1  0.35668000  0.86245000  0.85897000  1.0 0.5635805707
C  C15  1  0.13755000  0.49423000  0.85897000  1.0 0.5635805707
C  C16  1  0.64332000  0.13755000  0.85897000  1.0 0.5635805707
C  C17  1  0.86245000  0.50577000  0.85897000  1.0 0.5635805707
C  C18  1  0.64332000  0.50577000  0.64103000  1.0 0.5635805707
C  C19  1  0.13755000  0.64332000  0.64103000  1.0 0.5635805707
C  C20  1  0.50577000  0.86245000  0.64103000  1.0 0.5635805707
C  C21  1  0.49423000  0.35668000  0.85897000  1.0 0.5635805707
C  C22  1  0.86245000  0.35668000  0.64103000  1.0 0.5635805707
C  C23  1  0.49423000  0.13755000  0.64103000  1.0 0.5635805707
C  C24  1  0.35668000  0.49423000  0.64103000  1.0 0.5635805707
C  C25  1  0.42823000  0.26688000  0.19723000  1.0 0.1345864913
C  C26  1  0.73312000  0.16135000  0.19723000  1.0 0.1345864913
C  C27  1  0.83865000  0.57177000  0.19723000  1.0 0.1345864913
C  C28  1  0.26688000  0.83865000  0.19723000  1.0 0.1345864913
C  C29  1  0.16135000  0.42823000  0.19723000  1.0 0.1345864913
C  C30  1  0.26688000  0.42823000  0.30277000  1.0 0.1345864913
C  C31  1  0.83865000  0.26688000  0.30277000  1.0 0.1345864913
C  C32  1  0.42823000  0.16135000  0.30277000  1.0 0.1345864913
C  C33  1  0.57177000  0.73312000  0.19723000  1.0 0.1345864913
C  C34  1  0.16135000  0.73312000  0.30277000  1.0 0.1345864913
C  C35  1  0.57177000  0.83865000  0.30277000  1.0 0.1345864913
C  C36  1  0.73312000  0.57177000  0.30277000  1.0 0.1345864913
C  C37  1  0.57177000  0.73312000  0.80277000  1.0 0.1345864913
C  C38  1  0.26688000  0.83865000  0.80277000  1.0 0.1345864913
C  C39  1  0.16135000  0.42823000  0.80277000  1.0 0.1345864913
C  C40  1  0.73312000  0.16135000  0.80277000  1.0 0.1345864913
C  C41  1  0.83865000  0.57177000  0.80277000  1.0 0.1345864913
C  C42  1  0.73312000  0.57177000  0.69723000  1.0 0.1345864913
C  C43  1  0.16135000  0.73312000  0.69723000  1.0 0.1345864913
C  C44  1  0.57177000  0.83865000  0.69723000  1.0 0.1345864913
C  C45  1  0.42823000  0.26688000  0.80277000  1.0 0.1345864913
C  C46  1  0.83865000  0.26688000  0.69723000  1.0 0.1345864913
C  C47  1  0.42823000  0.16135000  0.69723000  1.0 0.1345864913
C  C48  1  0.26688000  0.42823000  0.69723000  1.0 0.1345864913
C  C49  1  0.32330000  0.21483000  0.19424000  1.0 -0.138998858
C  C50  1  0.78517000  0.10847000  0.19424000  1.0 -0.138998858
C  C51  1  0.89153000  0.67670000  0.19424000  1.0 -0.138998858
C  C52  1  0.21483000  0.89153000  0.19424000  1.0 -0.138998858
C  C53  1  0.10847000  0.32330000  0.19424000  1.0 -0.138998858
C  C54  1  0.21483000  0.32330000  0.30576000  1.0 -0.138998858
C  C55  1  0.89153000  0.21483000  0.30576000  1.0 -0.138998858
C  C56  1  0.32330000  0.10847000  0.30576000  1.0 -0.138998858
C  C57  1  0.67670000  0.78517000  0.19424000  1.0 -0.138998858
C  C58  1  0.10847000  0.78517000  0.30576000  1.0 -0.138998858
C  C59  1  0.67670000  0.89153000  0.30576000  1.0 -0.138998858
C  C60  1  0.78517000  0.67670000  0.30576000  1.0 -0.138998858
C  C61  1  0.67670000  0.78517000  0.80576000  1.0 -0.138998858
C  C62  1  0.21483000  0.89153000  0.80576000  1.0 -0.138998858
C  C63  1  0.10847000  0.32330000  0.80576000  1.0 -0.138998858
C  C64  1  0.78517000  0.10847000  0.80576000  1.0 -0.138998858
C  C65  1  0.89153000  0.67670000  0.80576000  1.0 -0.138998858
C  C66  1  0.78517000  0.67670000  0.69424000  1.0 -0.138998858
C  C67  1  0.10847000  0.78517000  0.69424000  1.0 -0.138998858
C  C68  1  0.67670000  0.89153000  0.69424000  1.0 -0.138998858
C  C69  1  0.32330000  0.21483000  0.80576000  1.0 -0.138998858
C  C70  1  0.89153000  0.21483000  0.69424000  1.0 -0.138998858
C  C71  1  0.32330000  0.10847000  0.69424000  1.0 -0.138998858
C  C72  1  0.21483000  0.32330000  0.69424000  1.0 -0.138998858
C  C73  1  0.27043000  0.13522000  0.25000000  1.0 -0.0591001703
C  C74  1  0.86479000  0.13522000  0.25000000  1.0 -0.0591001703
C  C75  1  0.86479000  0.72957000  0.25000000  1.0 -0.0591001703
C  C76  1  0.13522000  0.86479000  0.25000000  1.0 -0.0591001703
C  C77  1  0.13522000  0.27043000  0.25000000  1.0 -0.0591001703
C  C78  1  0.72957000  0.86479000  0.25000000  1.0 -0.0591001703
C  C79  1  0.72957000  0.86479000  0.75000000  1.0 -0.0591001703
C  C80  1  0.13522000  0.86479000  0.75000000  1.0 -0.0591001703
C  C81  1  0.13522000  0.27043000  0.75000000  1.0 -0.0591001703
C  C82  1  0.86479000  0.13522000  0.75000000  1.0 -0.0591001703
C  C83  1  0.86479000  0.72957000  0.75000000  1.0 -0.0591001703
C  C84  1  0.27043000  0.13522000  0.75000000  1.0 -0.0591001703
N  N1  1  0.48003000  0.24002000  0.25000000  1.0 -0.3440167823
N  N2  1  0.75999000  0.24002000  0.25000000  1.0 -0.3440167823
N  N3  1  0.75999000  0.51997000  0.25000000  1.0 -0.3440167823
N  N4  1  0.24002000  0.75999000  0.25000000  1.0 -0.3440167823
N  N5  1  0.24002000  0.48003000  0.25000000  1.0 -0.3450230875
N  N6  1  0.51997000  0.75999000  0.25000000  1.0 -0.3440167823
N  N7  1  0.51997000  0.75999000  0.75000000  1.0 -0.3440167823
N  N8  1  0.24002000  0.75999000  0.75000000  1.0 -0.3440167823
N  N9  1  0.24002000  0.48003000  0.75000000  1.0 -0.3450230875
N  N10  1  0.75999000  0.24002000  0.75000000  1.0 -0.3440167823
N  N11  1  0.75999000  0.51997000  0.75000000  1.0 -0.3440167823
N  N12  1  0.48003000  0.24002000  0.75000000  1.0 -0.3440167823
O  O1  1  0.45027000  0.38595000  0.09375000  1.0 -0.5413627047
O  O2  1  0.61405000  0.06432000  0.09375000  1.0 -0.5413627047
O  O3  1  0.93568000  0.54973000  0.09375000  1.0 -0.5413627047
O  O4  1  0.38595000  0.93568000  0.09375000  1.0 -0.5413627047
O  O5  1  0.06432000  0.45027000  0.09375000  1.0 -0.5413627047
O  O6  1  0.38595000  0.45027000  0.40625000  1.0 -0.5413627047
O  O7  1  0.93568000  0.38595000  0.40625000  1.0 -0.5413627047
O  O8  1  0.45027000  0.06432000  0.40625000  1.0 -0.5413627047
O  O9  1  0.54973000  0.61405000  0.09375000  1.0 -0.5413627047
O  O10  1  0.06432000  0.61405000  0.40625000  1.0 -0.5413627047
O  O11  1  0.54973000  0.93568000  0.40625000  1.0 -0.5413627047
O  O12  1  0.61405000  0.54973000  0.40625000  1.0 -0.5413627047
O  O13  1  0.54973000  0.61405000  0.90625000  1.0 -0.5413627047
O  O14  1  0.38595000  0.93568000  0.90625000  1.0 -0.5413627047
O  O15  1  0.06432000  0.45027000  0.90625000  1.0 -0.5413627047
O  O16  1  0.61405000  0.06432000  0.90625000  1.0 -0.5413627047
O  O17  1  0.93568000  0.54973000  0.90625000  1.0 -0.5413627047
O  O18  1  0.61405000  0.54973000  0.59375000  1.0 -0.5413627047
O  O19  1  0.06432000  0.61405000  0.59375000  1.0 -0.5413627047
O  O20  1  0.54973000  0.93568000  0.59375000  1.0 -0.5413627047
O  O21  1  0.45027000  0.38595000  0.90625000  1.0 -0.5413627047
O  O22  1  0.93568000  0.38595000  0.59375000  1.0 -0.5413627047
O  O23  1  0.45027000  0.06432000  0.59375000  1.0 -0.5413627047
O  O24  1  0.38595000  0.45027000  0.59375000  1.0 -0.5413627047
O  O25  1  0.58649000  0.38788000  0.14548000  1.0 -0.5700357625
O  O26  1  0.61212000  0.19861000  0.14548000  1.0 -0.5700357625
O  O27  1  0.80139000  0.41351000  0.14548000  1.0 -0.5700357625
O  O28  1  0.38788000  0.80139000  0.14548000  1.0 -0.5700357625
O  O29  1  0.19861000  0.58649000  0.14548000  1.0 -0.5700357625
O  O30  1  0.38788000  0.58649000  0.35452000  1.0 -0.5700357625
O  O31  1  0.80139000  0.38788000  0.35452000  1.0 -0.5700357625
O  O32  1  0.58649000  0.19861000  0.35452000  1.0 -0.5700357625
O  O33  1  0.41351000  0.61212000  0.14548000  1.0 -0.5700357625
O  O34  1  0.19861000  0.61212000  0.35452000  1.0 -0.5700357625
O  O35  1  0.41351000  0.80139000  0.35452000  1.0 -0.5700357625
O  O36  1  0.61212000  0.41351000  0.35452000  1.0 -0.5700357625
O  O37  1  0.41351000  0.61212000  0.85452000  1.0 -0.5700357625
O  O38  1  0.38788000  0.80139000  0.85452000  1.0 -0.5700357625
O  O39  1  0.19861000  0.58649000  0.85452000  1.0 -0.5700357625
O  O40  1  0.61212000  0.19861000  0.85452000  1.0 -0.5700357625
O  O41  1  0.80139000  0.41351000  0.85452000  1.0 -0.5700357625
O  O42  1  0.61212000  0.41351000  0.64548000  1.0 -0.5700357625
O  O43  1  0.19861000  0.61212000  0.64548000  1.0 -0.5700357625
O  O44  1  0.41351000  0.80139000  0.64548000  1.0 -0.5700357625
O  O45  1  0.58649000  0.38788000  0.85452000  1.0 -0.5700357625
O  O46  1  0.80139000  0.38788000  0.64548000  1.0 -0.5700357625
O  O47  1  0.58649000  0.19861000  0.64548000  1.0 -0.5700357625
O  O48  1  0.38788000  0.58649000  0.64548000  1.0 -0.5700357625
