# DDEC6 charges by PACMAN v1.1 (https://github.com/mtap-research/PACMAN-charge/)
data_CEGDUO_FSR_pacman
_symmetry_space_group_name_H-M   'P 1'
_cell_length_a   10.43070000
_cell_length_b   12.78670000
_cell_length_c   19.62280000
_cell_angle_alpha   90.00000000
_cell_angle_beta   90.00000000
_cell_angle_gamma   90.00000000
_symmetry_Int_Tables_number   1
_chemical_formula_structural   AgH5(C2N)2
_chemical_formula_sum   'Ag16 H80 C64 N32'
_cell_volume   2617.17587361
_cell_formula_units_Z   16
loop_
 _symmetry_equiv_pos_site_id
 _symmetry_equiv_pos_as_xyz
  1  'x, y, z'
loop_
 _atom_site_type_symbol
 _atom_site_label
 _atom_site_symmetry_multiplicity
 _atom_site_fract_x
 _atom_site_fract_y
 _atom_site_fract_z
 _atom_site_occupancy
 _atom_site_charge
Ag  Ag1  1  0.75000000  0.75000000  0.66634000  1.0 0.2659724868
Ag  Ag2  1  0.25000000  0.75000000  0.83366000  1.0 0.2659724868
Ag  Ag3  1  0.25000000  0.25000000  0.33366000  1.0 0.2659724868
Ag  Ag4  1  0.75000000  0.25000000  0.16634000  1.0 0.2659724868
Ag  Ag5  1  0.85755000  0.32698000  0.53521000  1.0 0.2625581614
Ag  Ag6  1  0.14245000  0.32698000  0.96479000  1.0 0.2625581614
Ag  Ag7  1  0.35755000  0.17302000  0.96479000  1.0 0.2625581614
Ag  Ag8  1  0.64245000  0.17302000  0.53521000  1.0 0.2625581614
Ag  Ag9  1  0.14245000  0.67302000  0.46479000  1.0 0.2625581614
Ag  Ag10  1  0.85755000  0.67302000  0.03521000  1.0 0.2625581614
Ag  Ag11  1  0.64245000  0.82698000  0.03521000  1.0 0.2625581614
Ag  Ag12  1  0.35755000  0.82698000  0.46479000  1.0 0.2625581614
Ag  Ag13  1  0.00000000  0.17042000  0.25000000  1.0 0.2625581614
Ag  Ag14  1  0.50000000  0.32958000  0.25000000  1.0 0.2625581614
Ag  Ag15  1  0.00000000  0.82958000  0.75000000  1.0 0.2625581614
Ag  Ag16  1  0.50000000  0.67042000  0.75000000  1.0 0.2625581614
H  H1  1  0.78280000  0.35220000  0.69980000  1.0 0.1183529637
H  H2  1  0.21720000  0.35220000  0.80020000  1.0 0.1183529637
H  H3  1  0.28280000  0.14780000  0.80020000  1.0 0.1183529637
H  H4  1  0.71720000  0.14780000  0.69980000  1.0 0.1183529637
H  H5  1  0.21720000  0.64780000  0.30020000  1.0 0.1183529637
H  H6  1  0.78280000  0.64780000  0.19980000  1.0 0.1183529637
H  H7  1  0.71720000  0.85220000  0.19980000  1.0 0.1183529637
H  H8  1  0.28280000  0.85220000  0.30020000  1.0 0.1183529637
H  H9  1  0.75040000  0.52370000  0.75510000  1.0 0.1127814866
H  H10  1  0.24960000  0.52370000  0.74490000  1.0 0.1127814866
H  H11  1  0.25040000  0.97630000  0.74490000  1.0 0.1127814866
H  H12  1  0.74960000  0.97630000  0.75510000  1.0 0.1127814866
H  H13  1  0.24960000  0.47630000  0.24490000  1.0 0.1127814866
H  H14  1  0.75040000  0.47630000  0.25510000  1.0 0.1127814866
H  H15  1  0.74960000  0.02370000  0.25510000  1.0 0.1127814866
H  H16  1  0.25040000  0.02370000  0.24490000  1.0 0.1127814866
H  H17  1  0.80870000  0.66580000  0.53870000  1.0 0.1500788397
H  H18  1  0.19130000  0.66580000  0.96130000  1.0 0.1500788397
H  H19  1  0.30870000  0.83420000  0.96130000  1.0 0.1500788397
H  H20  1  0.69130000  0.83420000  0.53870000  1.0 0.1500788397
H  H21  1  0.19130000  0.33420000  0.46130000  1.0 0.1500788397
H  H22  1  0.80870000  0.33420000  0.03870000  1.0 0.1500788397
H  H23  1  0.69130000  0.16580000  0.03870000  1.0 0.1500788397
H  H24  1  0.30870000  0.16580000  0.46130000  1.0 0.1500788397
H  H25  1  0.74730000  0.56530000  0.50280000  1.0 0.1500788397
H  H26  1  0.25270000  0.56530000  0.99720000  1.0 0.1500788397
H  H27  1  0.24730000  0.93470000  0.99720000  1.0 0.1500788397
H  H28  1  0.75270000  0.93470000  0.50280000  1.0 0.1500788397
H  H29  1  0.25270000  0.43470000  0.49720000  1.0 0.1500788397
H  H30  1  0.74730000  0.43470000  0.00280000  1.0 0.1500788397
H  H31  1  0.75270000  0.06530000  0.00280000  1.0 0.1500788397
H  H32  1  0.24730000  0.06530000  0.49720000  1.0 0.1500788397
H  H33  1  0.89910000  0.57250000  0.51340000  1.0 0.1391566164
H  H34  1  0.10090000  0.57250000  0.98660000  1.0 0.1391566164
H  H35  1  0.39910000  0.92750000  0.98660000  1.0 0.1391566164
H  H36  1  0.60090000  0.92750000  0.51340000  1.0 0.1391566164
H  H37  1  0.10090000  0.42750000  0.48660000  1.0 0.1391566164
H  H38  1  0.89910000  0.42750000  0.01340000  1.0 0.1391566164
H  H39  1  0.60090000  0.07250000  0.01340000  1.0 0.1391566164
H  H40  1  0.39910000  0.07250000  0.48660000  1.0 0.1391566164
H  H41  1  0.01150000  0.02140000  0.38740000  1.0 0.1183529637
H  H42  1  0.98850000  0.02140000  0.11260000  1.0 0.1183529637
H  H43  1  0.51150000  0.47860000  0.11260000  1.0 0.1183529637
H  H44  1  0.48850000  0.47860000  0.38740000  1.0 0.1183529637
H  H45  1  0.98850000  0.97860000  0.61260000  1.0 0.1183529637
H  H46  1  0.01150000  0.97860000  0.88740000  1.0 0.1183529637
H  H47  1  0.48850000  0.52140000  0.88740000  1.0 0.1183529637
H  H48  1  0.51150000  0.52140000  0.61260000  1.0 0.1183529637
H  H49  1  0.95890000  0.08420000  0.50310000  1.0 0.1127814866
H  H50  1  0.04110000  0.08420000  0.99690000  1.0 0.1127814866
H  H51  1  0.45890000  0.41580000  0.99690000  1.0 0.1127814866
H  H52  1  0.54110000  0.41580000  0.50310000  1.0 0.1127814866
H  H53  1  0.04110000  0.91580000  0.49690000  1.0 0.1127814866
H  H54  1  0.95890000  0.91580000  0.00310000  1.0 0.1127814866
H  H55  1  0.54110000  0.58420000  0.00310000  1.0 0.1127814866
H  H56  1  0.45890000  0.58420000  0.49690000  1.0 0.1127814866
H  H57  1  0.89700000  0.35470000  0.31330000  1.0 0.1391566164
H  H58  1  0.10300000  0.35470000  0.18670000  1.0 0.1391566164
H  H59  1  0.39700000  0.14530000  0.18670000  1.0 0.1391566164
H  H60  1  0.60300000  0.14530000  0.31330000  1.0 0.1391566164
H  H61  1  0.10300000  0.64530000  0.68670000  1.0 0.1391566164
H  H62  1  0.89700000  0.64530000  0.81330000  1.0 0.1391566164
H  H63  1  0.60300000  0.85470000  0.81330000  1.0 0.1391566164
H  H64  1  0.39700000  0.85470000  0.68670000  1.0 0.1391566164
H  H65  1  0.93910000  0.40920000  0.38320000  1.0 0.1580171353
H  H66  1  0.06090000  0.40920000  0.11680000  1.0 0.1580171353
H  H67  1  0.43910000  0.09080000  0.11680000  1.0 0.1580171353
H  H68  1  0.56090000  0.09080000  0.38320000  1.0 0.1580171353
H  H69  1  0.06090000  0.59080000  0.61680000  1.0 0.1580171353
H  H70  1  0.93910000  0.59080000  0.88320000  1.0 0.1580171353
H  H71  1  0.56090000  0.90920000  0.88320000  1.0 0.1580171353
H  H72  1  0.43910000  0.90920000  0.61680000  1.0 0.1580171353
H  H73  1  0.79460000  0.36990000  0.37320000  1.0 0.1580171353
H  H74  1  0.20540000  0.36990000  0.12680000  1.0 0.1580171353
H  H75  1  0.29460000  0.13010000  0.12680000  1.0 0.1580171353
H  H76  1  0.70540000  0.13010000  0.37320000  1.0 0.1580171353
H  H77  1  0.20540000  0.63010000  0.62680000  1.0 0.1580171353
H  H78  1  0.79460000  0.63010000  0.87320000  1.0 0.1580171353
H  H79  1  0.70540000  0.86990000  0.87320000  1.0 0.1580171353
H  H80  1  0.29460000  0.86990000  0.62680000  1.0 0.1580171353
C  C1  1  0.80230000  0.53820000  0.60075000  1.0 0.3615918133
C  C2  1  0.19770000  0.53820000  0.89925000  1.0 0.3615918133
C  C3  1  0.30230000  0.96180000  0.89925000  1.0 0.3615918133
C  C4  1  0.69770000  0.96180000  0.60075000  1.0 0.3615918133
C  C5  1  0.19770000  0.46180000  0.39925000  1.0 0.3615918133
C  C6  1  0.80230000  0.46180000  0.10075000  1.0 0.3615918133
C  C7  1  0.69770000  0.03820000  0.10075000  1.0 0.3615918133
C  C8  1  0.30230000  0.03820000  0.39925000  1.0 0.3615918133
C  C9  1  0.78540000  0.41830000  0.67773000  1.0 -0.0814489484
C  C10  1  0.21460000  0.41830000  0.82227000  1.0 -0.0814489484
C  C11  1  0.28540000  0.08170000  0.82227000  1.0 -0.0814489484
C  C12  1  0.71460000  0.08170000  0.67773000  1.0 -0.0814489484
C  C13  1  0.21460000  0.58170000  0.32227000  1.0 -0.0814489484
C  C14  1  0.78540000  0.58170000  0.17773000  1.0 -0.0814489484
C  C15  1  0.71460000  0.91830000  0.17773000  1.0 -0.0814489484
C  C16  1  0.28540000  0.91830000  0.32227000  1.0 -0.0814489484
C  C17  1  0.76740000  0.51260000  0.70814000  1.0 -0.0685749081
C  C18  1  0.23260000  0.51260000  0.79186000  1.0 -0.0685749081
C  C19  1  0.26740000  0.98740000  0.79186000  1.0 -0.0685749081
C  C20  1  0.73260000  0.98740000  0.70814000  1.0 -0.0685749081
C  C21  1  0.23260000  0.48740000  0.29186000  1.0 -0.0685749081
C  C22  1  0.76740000  0.48740000  0.20814000  1.0 -0.0685749081
C  C23  1  0.73260000  0.01260000  0.20814000  1.0 -0.0685749081
C  C24  1  0.26740000  0.01260000  0.29186000  1.0 -0.0685749081
C  C25  1  0.81550000  0.58990000  0.53315000  1.0 -0.5309152984
C  C26  1  0.18450000  0.58990000  0.96685000  1.0 -0.5309152984
C  C27  1  0.31550000  0.91010000  0.96685000  1.0 -0.5309152984
C  C28  1  0.68450000  0.91010000  0.53315000  1.0 -0.5309152984
C  C29  1  0.18450000  0.41010000  0.46685000  1.0 -0.5309152984
C  C30  1  0.81550000  0.41010000  0.03315000  1.0 -0.5309152984
C  C31  1  0.68450000  0.08990000  0.03315000  1.0 -0.5309152984
C  C32  1  0.31550000  0.08990000  0.46685000  1.0 -0.5309152984
C  C33  1  0.92030000  0.25077000  0.39134000  1.0 0.3615918133
C  C34  1  0.07970000  0.25077000  0.10866000  1.0 0.3615918133
C  C35  1  0.42030000  0.24923000  0.10866000  1.0 0.3615918133
C  C36  1  0.57970000  0.24923000  0.39134000  1.0 0.3615918133
C  C37  1  0.07970000  0.74923000  0.60866000  1.0 0.3615918133
C  C38  1  0.92030000  0.74923000  0.89134000  1.0 0.3615918133
C  C39  1  0.57970000  0.75077000  0.89134000  1.0 0.3615918133
C  C40  1  0.42030000  0.75077000  0.60866000  1.0 0.3615918133
C  C41  1  0.98170000  0.08940000  0.39879000  1.0 -0.0685749081
C  C42  1  0.01830000  0.08940000  0.10121000  1.0 -0.0685749081
C  C43  1  0.48170000  0.41060000  0.10121000  1.0 -0.0685749081
C  C44  1  0.51830000  0.41060000  0.39879000  1.0 -0.0685749081
C  C45  1  0.01830000  0.91060000  0.60121000  1.0 -0.0685749081
C  C46  1  0.98170000  0.91060000  0.89879000  1.0 -0.0685749081
C  C47  1  0.51830000  0.58940000  0.89879000  1.0 -0.0685749081
C  C48  1  0.48170000  0.58940000  0.60121000  1.0 -0.0685749081
C  C49  1  0.95320000  0.12410000  0.46232000  1.0 -0.0814489484
C  C50  1  0.04680000  0.12410000  0.03768000  1.0 -0.0814489484
C  C51  1  0.45320000  0.37590000  0.03768000  1.0 -0.0814489484
C  C52  1  0.54680000  0.37590000  0.46232000  1.0 -0.0814489484
C  C53  1  0.04680000  0.87590000  0.53768000  1.0 -0.0814489484
C  C54  1  0.95320000  0.87590000  0.96232000  1.0 -0.0814489484
C  C55  1  0.54680000  0.62410000  0.96232000  1.0 -0.0814489484
C  C56  1  0.45320000  0.62410000  0.53768000  1.0 -0.0814489484
C  C57  1  0.88470000  0.35510000  0.36284000  1.0 -0.5309152984
C  C58  1  0.11530000  0.35510000  0.13716000  1.0 -0.5309152984
C  C59  1  0.38470000  0.14490000  0.13716000  1.0 -0.5309152984
C  C60  1  0.61530000  0.14490000  0.36284000  1.0 -0.5309152984
C  C61  1  0.11530000  0.64490000  0.63716000  1.0 -0.5309152984
C  C62  1  0.88470000  0.64490000  0.86284000  1.0 -0.5309152984
C  C63  1  0.61530000  0.85510000  0.86284000  1.0 -0.5309152984
C  C64  1  0.38470000  0.85510000  0.63716000  1.0 -0.5309152984
N  N1  1  0.77810000  0.58920000  0.65927000  1.0 -0.3098284796
N  N2  1  0.22190000  0.58920000  0.84073000  1.0 -0.3098284796
N  N3  1  0.27810000  0.91080000  0.84073000  1.0 -0.3098284796
N  N4  1  0.72190000  0.91080000  0.65927000  1.0 -0.3098284796
N  N5  1  0.22190000  0.41080000  0.34073000  1.0 -0.3098284796
N  N6  1  0.77810000  0.41080000  0.15927000  1.0 -0.3098284796
N  N7  1  0.72190000  0.08920000  0.15927000  1.0 -0.3098284796
N  N8  1  0.27810000  0.08920000  0.34073000  1.0 -0.3098284796
N  N9  1  0.80800000  0.43457000  0.60954000  1.0 -0.3098284796
N  N10  1  0.19200000  0.43457000  0.89046000  1.0 -0.3098284796
N  N11  1  0.30800000  0.06543000  0.89046000  1.0 -0.3098284796
N  N12  1  0.69200000  0.06543000  0.60954000  1.0 -0.3098284796
N  N13  1  0.19200000  0.56543000  0.39046000  1.0 -0.3098284796
N  N14  1  0.80800000  0.56543000  0.10954000  1.0 -0.3098284796
N  N15  1  0.69200000  0.93457000  0.10954000  1.0 -0.3098284796
N  N16  1  0.30800000  0.93457000  0.39046000  1.0 -0.3098284796
N  N17  1  0.91440000  0.22680000  0.45772000  1.0 -0.3098284796
N  N18  1  0.08560000  0.22680000  0.04228000  1.0 -0.3098284796
N  N19  1  0.41440000  0.27320000  0.04228000  1.0 -0.3098284796
N  N20  1  0.58560000  0.27320000  0.45772000  1.0 -0.3098284796
N  N21  1  0.08560000  0.77320000  0.54228000  1.0 -0.3098284796
N  N22  1  0.91440000  0.77320000  0.95772000  1.0 -0.3098284796
N  N23  1  0.58560000  0.72680000  0.95772000  1.0 -0.3098284796
N  N24  1  0.41440000  0.72680000  0.54228000  1.0 -0.3098284796
N  N25  1  0.96010000  0.17021000  0.35339000  1.0 -0.315417447
N  N26  1  0.03990000  0.17021000  0.14661000  1.0 -0.315417447
N  N27  1  0.46010000  0.32979000  0.14661000  1.0 -0.315417447
N  N28  1  0.53990000  0.32979000  0.35339000  1.0 -0.315417447
N  N29  1  0.03990000  0.82979000  0.64661000  1.0 -0.315417447
N  N30  1  0.96010000  0.82979000  0.85339000  1.0 -0.315417447
N  N31  1  0.53990000  0.67021000  0.85339000  1.0 -0.315417447
N  N32  1  0.46010000  0.67021000  0.64661000  1.0 -0.315417447
