# DDEC6 charges by PACMAN v1.1 (https://github.com/mtap-research/PACMAN-charge/)
data_CEJBEA_FSR_pacman
_symmetry_space_group_name_H-M   'P 1'
_cell_length_a   10.28600000
_cell_length_b   19.16100000
_cell_length_c   19.78700000
_cell_angle_alpha   77.52000000
_cell_angle_beta   76.72000000
_cell_angle_gamma   81.02000000
_symmetry_Int_Tables_number   1
_chemical_formula_structural   Dy3H40C68N7O19
_chemical_formula_sum   'Dy6 H80 C136 N14 O38'
_cell_volume   3682.52790356
_cell_formula_units_Z   2
loop_
 _symmetry_equiv_pos_site_id
 _symmetry_equiv_pos_as_xyz
  1  'x, y, z'
loop_
 _atom_site_type_symbol
 _atom_site_label
 _atom_site_symmetry_multiplicity
 _atom_site_fract_x
 _atom_site_fract_y
 _atom_site_fract_z
 _atom_site_occupancy
 _atom_site_charge
Dy  Dy1  1  0.63300000  0.05833000  0.42843000  1.0 1.9345348234
Dy  Dy2  1  0.36700000  0.94167000  0.57157000  1.0 1.9352823848
Dy  Dy3  1  0.18392000  0.51936000  0.43239000  1.0 1.9020815248
Dy  Dy4  1  0.81608000  0.48064000  0.56761000  1.0 1.9020815248
Dy  Dy5  1  0.14844000  0.41997000  0.03859000  1.0 1.95801202
Dy  Dy6  1  0.85156000  0.58003000  0.96141000  1.0 1.95801202
H  H1  1  0.11580000  0.99650000  0.42960000  1.0 0.1375498741
H  H2  1  0.88420000  0.00350000  0.57040000  1.0 0.1375498741
H  H3  1  0.40990000  0.99970000  0.25700000  1.0 0.1202078109
H  H4  1  0.59010000  0.00030000  0.74300000  1.0 0.1202078109
H  H5  1  0.25400000  0.00340000  0.18910000  1.0 0.1202078109
H  H6  1  0.74600000  0.99660000  0.81090000  1.0 0.1202078109
H  H7  1  0.02760000  0.00790000  0.23990000  1.0 0.128860472
H  H8  1  0.97240000  0.99210000  0.76010000  1.0 0.128860472
H  H9  1  0.29340000  0.26740000  0.47110000  1.0 0.128860472
H  H10  1  0.70660000  0.73260000  0.52890000  1.0 0.128860472
H  H11  1  0.99500000  0.28450000  0.63870000  1.0 0.1088234496
H  H12  1  0.00500000  0.71550000  0.36130000  1.0 0.1088234496
H  H13  1  0.04380000  0.16430000  0.68470000  1.0 0.1088234496
H  H14  1  0.95620000  0.83570000  0.31530000  1.0 0.1088234496
H  H15  1  0.22140000  0.09570000  0.62630000  1.0 0.1202078109
H  H16  1  0.77860000  0.90430000  0.37370000  1.0 0.1202078109
H  H17  1  0.01660000  0.51430000  0.74700000  1.0 0.1202078109
H  H18  1  0.98340000  0.48570000  0.25300000  1.0 0.1202078109
H  H19  1  0.34110000  0.41930000  0.82210000  1.0 0.1202078109
H  H20  1  0.65890000  0.58070000  0.17790000  1.0 0.1202078109
H  H21  1  0.44950000  0.40140000  0.70940000  1.0 0.1088234496
H  H22  1  0.55050000  0.59860000  0.29060000  1.0 0.1088234496
H  H23  1  0.34070000  0.44150000  0.61570000  1.0 0.128860472
H  H24  1  0.65930000  0.55850000  0.38430000  1.0 0.128860472
H  H25  1  0.38850000  0.58230000  0.99690000  1.0 0.128860472
H  H26  1  0.61150000  0.41770000  0.00310000  1.0 0.128860472
H  H27  1  0.47300000  0.77550000  0.00760000  1.0 0.128860472
H  H28  1  0.52700000  0.22450000  0.99240000  1.0 0.128860472
H  H29  1  0.25140000  0.82300000  0.00380000  1.0 0.1088234496
H  H30  1  0.74860000  0.17700000  0.99620000  1.0 0.1088234496
H  H31  1  0.09910000  0.74920000  0.99610000  1.0 0.1202078109
H  H32  1  0.90090000  0.25080000  0.00390000  1.0 0.1202078109
H  H33  1  0.84080000  0.12740000  0.50070000  1.0 0.1027749299
H  H34  1  0.15920000  0.87260000  0.49930000  1.0 0.1027749299
H  H35  1  0.96420000  0.22330000  0.49000000  1.0 0.128860472
H  H36  1  0.03580000  0.77670000  0.51000000  1.0 0.128860472
H  H37  1  0.96130000  0.31510000  0.39540000  1.0 0.128860472
H  H38  1  0.03870000  0.68490000  0.60460000  1.0 0.128860472
H  H39  1  0.87270000  0.37370000  0.27390000  1.0 0.128860472
H  H40  1  0.12730000  0.62630000  0.72610000  1.0 0.128860472
H  H41  1  0.78080000  0.36160000  0.19580000  1.0 0.1375498741
H  H42  1  0.21920000  0.63840000  0.80420000  1.0 0.1375498741
H  H43  1  0.64030000  0.28780000  0.14770000  1.0 0.1202078109
H  H44  1  0.35970000  0.71220000  0.85230000  1.0 0.1202078109
H  H45  1  0.53630000  0.18960000  0.16420000  1.0 0.128860472
H  H46  1  0.46370000  0.81040000  0.83580000  1.0 0.128860472
H  H47  1  0.52510000  0.10780000  0.26970000  1.0 0.1088234496
H  H48  1  0.47490000  0.89220000  0.73030000  1.0 0.1088234496
H  H49  1  0.35050000  0.59780000  0.52020000  1.0 0.1027749299
H  H50  1  0.64950000  0.40220000  0.47980000  1.0 0.1027749299
H  H51  1  0.45030000  0.69820000  0.51970000  1.0 0.1375498741
H  H52  1  0.54970000  0.30180000  0.48030000  1.0 0.1375498741
H  H53  1  0.44540000  0.79390000  0.42760000  1.0 0.128860472
H  H54  1  0.55460000  0.20610000  0.57240000  1.0 0.128860472
H  H55  1  0.38130000  0.84600000  0.30690000  1.0 0.128860472
H  H56  1  0.61870000  0.15400000  0.69310000  1.0 0.128860472
H  H57  1  0.31240000  0.83080000  0.21370000  1.0 0.128860472
H  H58  1  0.68760000  0.16920000  0.78630000  1.0 0.128860472
H  H59  1  0.23460000  0.74930000  0.15320000  1.0 0.1202078109
H  H60  1  0.76540000  0.25070000  0.84680000  1.0 0.1202078109
H  H61  1  0.17050000  0.63940000  0.15490000  1.0 0.1375498741
H  H62  1  0.82950000  0.36060000  0.84510000  1.0 0.1375498741
H  H63  1  0.16240000  0.55160000  0.25760000  1.0 0.1088234496
H  H64  1  0.83760000  0.44840000  0.74240000  1.0 0.1088234496
H  H65  1  0.00640000  0.25770000  0.11470000  1.0 0.1088234496
H  H66  1  0.99360000  0.74230000  0.88530000  1.0 0.1088234496
H  H67  1  0.99650000  0.16070000  0.20740000  1.0 0.128860472
H  H68  1  0.00350000  0.83930000  0.79260000  1.0 0.128860472
H  H69  1  0.11480000  0.15450000  0.29450000  1.0 0.1202078109
H  H70  1  0.88520000  0.84550000  0.70550000  1.0 0.1202078109
H  H71  1  0.26120000  0.21500000  0.34790000  1.0 0.128860472
H  H72  1  0.73880000  0.78500000  0.65210000  1.0 0.128860472
H  H73  1  0.39740000  0.30020000  0.33370000  1.0 0.1375498741
H  H74  1  0.60260000  0.69980000  0.66630000  1.0 0.1375498741
H  H75  1  0.50660000  0.40710000  0.25620000  1.0 0.1202078109
H  H76  1  0.49340000  0.59290000  0.74380000  1.0 0.1202078109
H  H77  1  0.51860000  0.49390000  0.15670000  1.0 0.1375498741
H  H78  1  0.48140000  0.50610000  0.84330000  1.0 0.1375498741
H  H79  1  0.36960000  0.50110000  0.08360000  1.0 0.1027749299
H  H80  1  0.63040000  0.49890000  0.91640000  1.0 0.1027749299
C  C1  1  0.04890000  0.00614000  0.33941000  1.0 -0.020584614
C  C2  1  0.95110000  0.99386000  0.66059000  1.0 -0.020584614
C  C3  1  0.14350000  0.99917000  0.38103000  1.0 -0.1191047967
C  C4  1  0.85650000  0.00083000  0.61897000  1.0 -0.1191047967
C  C5  1  0.28000000  0.99610000  0.35027000  1.0 -0.028578999
C  C6  1  0.72000000  0.00390000  0.64973000  1.0 -0.028578999
C  C7  1  0.31930000  0.99960000  0.27819000  1.0 -0.1300939252
C  C8  1  0.68070000  0.00040000  0.72181000  1.0 -0.1300939252
C  C9  1  0.22580000  0.00310000  0.23726000  1.0 -0.1110881385
C  C10  1  0.77420000  0.99690000  0.76274000  1.0 -0.1110881385
C  C11  1  0.09050000  0.00600000  0.26754000  1.0 -0.1300939252
C  C12  1  0.90950000  0.99400000  0.73246000  1.0 -0.1300939252
C  C13  1  0.90200000  0.01490000  0.37275000  1.0 0.544737255
C  C14  1  0.09800000  0.98510000  0.62725000  1.0 0.544737255
C  C15  1  0.38090000  0.98651000  0.39719000  1.0 0.6295299584
C  C16  1  0.61910000  0.01349000  0.60281000  1.0 0.6295299584
C  C17  1  0.27380000  0.17406000  0.54128000  1.0 -0.028578999
C  C18  1  0.72620000  0.82594000  0.45872000  1.0 -0.028578999
C  C19  1  0.24320000  0.24651000  0.51411000  1.0 -0.1191047967
C  C20  1  0.75680000  0.75349000  0.48589000  1.0 -0.1191047967
C  C21  1  0.13970000  0.28778000  0.54990000  1.0 -0.0385604297
C  C22  1  0.86030000  0.71222000  0.45010000  1.0 -0.0385604297
C  C23  1  0.06500000  0.25680000  0.61420000  1.0 -0.1110881385
C  C24  1  0.93500000  0.74320000  0.38580000  1.0 -0.1110881385
C  C25  1  0.09480000  0.18500000  0.64190000  1.0 -0.0988786166
C  C26  1  0.90520000  0.81500000  0.35810000  1.0 -0.0988786166
C  C27  1  0.19990000  0.14360000  0.60660000  1.0 -0.0923461591
C  C28  1  0.80010000  0.85640000  0.39340000  1.0 -0.0923461591
C  C29  1  0.38280000  0.12935000  0.50161000  1.0 0.6047054881
C  C30  1  0.61720000  0.87065000  0.49839000  1.0 0.6050261015
C  C31  1  0.10490000  0.36532000  0.52120000  1.0 0.6386482372
C  C32  1  0.89510000  0.63468000  0.47880000  1.0 0.6386482372
C  C33  1  0.16530000  0.48024000  0.67237000  1.0 -0.028578999
C  C34  1  0.83470000  0.51976000  0.32763000  1.0 -0.028578999
C  C35  1  0.10400000  0.49159000  0.73941000  1.0 -0.1415723458
C  C36  1  0.89600000  0.50841000  0.26059000  1.0 -0.1415723458
C  C37  1  0.16910000  0.47004000  0.79600000  1.0 -0.0385604297
C  C38  1  0.83090000  0.52996000  0.20400000  1.0 -0.0385604297
C  C39  1  0.29720000  0.43550000  0.78450000  1.0 -0.0988786166
C  C40  1  0.70280000  0.56450000  0.21550000  1.0 -0.0988786166
C  C41  1  0.36230000  0.42440000  0.71690000  1.0 -0.0923461591
C  C42  1  0.63770000  0.57560000  0.28310000  1.0 -0.0923461591
C  C43  1  0.29670000  0.44770000  0.66103000  1.0 -0.0923461591
C  C44  1  0.70330000  0.55230000  0.33897000  1.0 -0.0923461591
C  C45  1  0.09230000  0.50234000  0.61227000  1.0 0.6386482372
C  C46  1  0.90770000  0.49766000  0.38773000  1.0 0.6386482372
C  C47  1  0.10420000  0.48496000  0.86803000  1.0 0.6386482372
C  C48  1  0.89580000  0.51504000  0.13197000  1.0 0.6386482372
C  C49  1  0.22780000  0.65788000  0.99667000  1.0 -0.0385604297
C  C50  1  0.77220000  0.34212000  0.00333000  1.0 -0.0385604297
C  C51  1  0.36040000  0.63055000  0.99856000  1.0 -0.1300939252
C  C52  1  0.63960000  0.36945000  0.00144000  1.0 -0.1300939252
C  C53  1  0.45060000  0.67492000  0.00292000  1.0 -0.020584614
C  C54  1  0.54940000  0.32508000  0.99708000  1.0 -0.020584614
C  C55  1  0.41130000  0.74610000  0.00480000  1.0 -0.1110881385
C  C56  1  0.58870000  0.25390000  0.99520000  1.0 -0.1191047967
C  C57  1  0.27850000  0.77460000  0.00240000  1.0 -0.1191047967
C  C58  1  0.72150000  0.22540000  0.99760000  1.0 -0.1191047967
C  C59  1  0.18750000  0.73040000  0.99810000  1.0 -0.1191047967
C  C60  1  0.81250000  0.26960000  0.00190000  1.0 -0.1191047967
C  C61  1  0.13000000  0.60875000  0.99360000  1.0 0.6295299584
C  C62  1  0.87000000  0.39125000  0.00640000  1.0 0.6295299584
C  C63  1  0.59270000  0.64200000  0.00429000  1.0 0.5559727604
C  C64  1  0.40730000  0.35800000  0.99571000  1.0 0.5559727604
C  C65  1  0.83990000  0.16510000  0.46220000  1.0 0.1088234496
C  C66  1  0.16010000  0.83490000  0.53780000  1.0 0.1088234496
C  C67  1  0.91480000  0.22270000  0.45630000  1.0 -0.1300939252
C  C68  1  0.08520000  0.77730000  0.54370000  1.0 -0.1300939252
C  C69  1  0.91230000  0.27680000  0.40010000  1.0 -0.0988786166
C  C70  1  0.08770000  0.72320000  0.59990000  1.0 -0.0988786166
C  C71  1  0.84030000  0.27730000  0.34970000  1.0 0.0398235427
C  C72  1  0.15970000  0.72270000  0.65030000  1.0 0.0398235427
C  C73  1  0.76790000  0.21700000  0.35870000  1.0 0.128860472
C  C74  1  0.23210000  0.78300000  0.64130000  1.0 0.128860472
C  C75  1  0.83190000  0.33200000  0.28100000  1.0 -0.1110881385
C  C76  1  0.16810000  0.66800000  0.71900000  1.0 -0.1110881385
C  C77  1  0.77670000  0.32510000  0.23560000  1.0 -0.1191047967
C  C78  1  0.22330000  0.67490000  0.76440000  1.0 -0.1191047967
C  C79  1  0.70360000  0.26460000  0.23750000  1.0 0.0398235427
C  C80  1  0.29640000  0.73540000  0.76250000  1.0 0.0398235427
C  C81  1  0.63990000  0.25390000  0.18920000  1.0 -0.0923461591
C  C82  1  0.36010000  0.74610000  0.81080000  1.0 -0.0923461591
C  C83  1  0.57710000  0.19700000  0.19910000  1.0 -0.1415723458
C  C84  1  0.42290000  0.80300000  0.80090000  1.0 -0.1415723458
C  C85  1  0.57200000  0.14740000  0.26290000  1.0 0.1088234496
C  C86  1  0.42800000  0.85260000  0.73710000  1.0 0.1088234496
C  C87  1  0.69860000  0.21200000  0.30490000  1.0 0.128860472
C  C88  1  0.30140000  0.78800000  0.69510000  1.0 0.128860472
C  C89  1  0.35390000  0.63500000  0.48110000  1.0 0.1202078109
C  C90  1  0.64610000  0.36500000  0.51890000  1.0 0.1202078109
C  C91  1  0.41210000  0.69610000  0.48200000  1.0 -0.1191047967
C  C92  1  0.58790000  0.30390000  0.51800000  1.0 -0.1191047967
C  C93  1  0.41130000  0.75190000  0.42700000  1.0 -0.0818600079
C  C94  1  0.58870000  0.24810000  0.57300000  1.0 -0.0818600079
C  C95  1  0.36040000  0.74660000  0.37020000  1.0 0.0398235427
C  C96  1  0.63960000  0.25340000  0.62980000  1.0 0.0398235427
C  C97  1  0.31040000  0.68143000  0.37130000  1.0 0.128860472
C  C98  1  0.68960000  0.31857000  0.62870000  1.0 0.128860472
C  C99  1  0.35430000  0.80160000  0.30780000  1.0 -0.1415723458
C  C100  1  0.64570000  0.19840000  0.69220000  1.0 -0.1415723458
C  C101  1  0.31320000  0.79320000  0.25230000  1.0 -0.1415723458
C  C102  1  0.68680000  0.20680000  0.74770000  1.0 -0.1415723458
C  C103  1  0.27020000  0.72700000  0.25070000  1.0 0.0398235427
C  C104  1  0.72980000  0.27300000  0.74930000  1.0 0.0398235427
C  C105  1  0.23310000  0.71370000  0.19350000  1.0 -0.0923461591
C  C106  1  0.76690000  0.28630000  0.80650000  1.0 -0.0923461591
C  C107  1  0.19370000  0.64890000  0.19450000  1.0 -0.1415723458
C  C108  1  0.80630000  0.35110000  0.80550000  1.0 -0.1415723458
C  C109  1  0.18880000  0.59600000  0.25690000  1.0 0.1202078109
C  C110  1  0.81120000  0.40400000  0.74310000  1.0 0.1202078109
C  C111  1  0.26390000  0.67140000  0.31110000  1.0 0.1202078109
C  C112  1  0.73610000  0.32860000  0.68890000  1.0 0.1202078109
C  C113  1  0.05340000  0.25640000  0.15000000  1.0 0.1088234496
C  C114  1  0.94660000  0.74360000  0.85000000  1.0 0.1088234496
C  C115  1  0.04740000  0.19740000  0.20570000  1.0 -0.1415723458
C  C116  1  0.95260000  0.80260000  0.79430000  1.0 -0.1415723458
C  C117  1  0.11700000  0.19400000  0.25750000  1.0 -0.0988786166
C  C118  1  0.88300000  0.80600000  0.74250000  1.0 -0.0988786166
C  C119  1  0.19160000  0.24980000  0.25510000  1.0 0.0398235427
C  C120  1  0.80840000  0.75020000  0.74490000  1.0 0.0398235427
C  C121  1  0.19410000  0.30730000  0.19641000  1.0 0.128860472
C  C122  1  0.80590000  0.69270000  0.80359000  1.0 0.128860472
C  C123  1  0.26780000  0.25080000  0.30760000  1.0 -0.1455324536
C  C124  1  0.73220000  0.74920000  0.69240000  1.0 -0.1455324536
C  C125  1  0.34750000  0.30180000  0.29960000  1.0 -0.1191047967
C  C126  1  0.65250000  0.69820000  0.70040000  1.0 -0.1191047967
C  C127  1  0.35730000  0.35920000  0.23925000  1.0 0.045022873
C  C128  1  0.64270000  0.64080000  0.76075000  1.0 0.045022873
C  C129  1  0.44990000  0.40940000  0.22520000  1.0 -0.0818600079
C  C130  1  0.55010000  0.59060000  0.77480000  1.0 -0.0818600079
C  C131  1  0.45650000  0.46070000  0.16700000  1.0 -0.1300939252
C  C132  1  0.54350000  0.53930000  0.83300000  1.0 -0.1300939252
C  C133  1  0.36860000  0.46340000  0.12220000  1.0 0.1088234496
C  C134  1  0.63140000  0.53660000  0.87780000  1.0 0.1027749299
C  C135  1  0.27800000  0.36280000  0.18952000  1.0 0.1375498741
C  C136  1  0.72200000  0.63720000  0.81048000  1.0 0.1375498741
N  N1  1  0.22040000  0.60777000  0.31417000  1.0 -0.3489582187
N  N2  1  0.77960000  0.39223000  0.68583000  1.0 -0.3489582187
N  N3  1  0.30400000  0.62726000  0.42822000  1.0 -0.3716571575
N  N4  1  0.69600000  0.37274000  0.57178000  1.0 -0.3716571575
N  N5  1  0.76810000  0.16252000  0.41506000  1.0 -0.3643476015
N  N6  1  0.23190000  0.83748000  0.58494000  1.0 -0.3643476015
N  N7  1  0.63030000  0.15360000  0.31423000  1.0 -0.3391113972
N  N8  1  0.36970000  0.84640000  0.68577000  1.0 -0.3391113972
N  N9  1  0.12340000  0.31100000  0.14498000  1.0 -0.3489582187
N  N10  1  0.87660000  0.68900000  0.85502000  1.0 -0.3489582187
N  N11  1  0.28300000  0.41482000  0.13146000  1.0 -0.380114386
N  N12  1  0.71700000  0.58518000  0.86854000  1.0 -0.380114386
N  N13  1  0.44450000  0.44810000  0.39099000  1.0 0.6930077428
N  N14  1  0.55550000  0.55190000  0.60901000  1.0 0.6930077428
O  O1  1  0.86600000  0.01045000  0.43766000  1.0 -0.5783872848
O  O2  1  0.13400000  0.98955000  0.56234000  1.0 -0.5783872848
O  O3  1  0.81500000  0.02828000  0.33312000  1.0 -0.64011159
O  O4  1  0.18500000  0.97172000  0.66688000  1.0 -0.64011159
O  O5  1  0.48220000  0.02109000  0.37390000  1.0 -0.6614846682
O  O6  1  0.51780000  0.97891000  0.62610000  1.0 -0.6614846682
O  O7  1  0.35440000  0.94564000  0.45540000  1.0 -0.6299078112
O  O8  1  0.64560000  0.05436000  0.54460000  1.0 -0.6299078112
O  O9  1  0.46990000  0.15893000  0.45440000  1.0 -0.6046146994
O  O10  1  0.53010000  0.84107000  0.54560000  1.0 -0.6046146994
O  O11  1  0.38700000  0.06112000  0.51761000  1.0 -0.702957744
O  O12  1  0.61300000  0.93888000  0.48239000  1.0 -0.702957744
O  O13  1  0.18810000  0.39499000  0.47162000  1.0 -0.6200471764
O  O14  1  0.81190000  0.60501000  0.52838000  1.0 -0.6200471764
O  O15  1  0.99460000  0.39669000  0.54867000  1.0 -0.6936982518
O  O16  1  0.00540000  0.60331000  0.45133000  1.0 -0.6936982518
O  O17  1  0.16360000  0.51193000  0.55120000  1.0 -0.6614846682
O  O18  1  0.83640000  0.48807000  0.44880000  1.0 -0.6614846682
O  O19  1  0.96670000  0.50952000  0.62635000  1.0 -0.64011159
O  O20  1  0.03330000  0.49048000  0.37365000  1.0 -0.64011159
O  O21  1  0.14620000  0.44473000  0.91954000  1.0 -0.6465803032
O  O22  1  0.85380000  0.55527000  0.08046000  1.0 -0.6465803032
O  O23  1  0.01260000  0.53643000  0.87232000  1.0 -0.6657031422
O  O24  1  0.98740000  0.46357000  0.12768000  1.0 -0.6657031422
O  O25  1  0.15940000  0.54237000  0.01203000  1.0 -0.6614846682
O  O26  1  0.84060000  0.45763000  0.98797000  1.0 -0.6614846682
O  O27  1  0.02390000  0.63720000  0.97212000  1.0 -0.6614846682
O  O28  1  0.97610000  0.36280000  0.02788000  1.0 -0.6614846682
O  O29  1  0.68630000  0.68164000  0.98776000  1.0 -0.6090477353
O  O30  1  0.31370000  0.31836000  0.01224000  1.0 -0.6090477353
O  O31  1  0.61770000  0.57403000  0.01789000  1.0 -0.6200471764
O  O32  1  0.38230000  0.42597000  0.98211000  1.0 -0.6200471764
O  O33  1  0.41710000  0.47037000  0.44751000  1.0 -0.4385578876
O  O34  1  0.58290000  0.52963000  0.55249000  1.0 -0.4385578876
O  O35  1  0.36000000  0.46790000  0.35107000  1.0 -0.4930328524
O  O36  1  0.64000000  0.53210000  0.64893000  1.0 -0.4930328524
O  O37  1  0.54570000  0.40680000  0.37390000  1.0 -0.387154246
O  O38  1  0.45430000  0.59320000  0.62610000  1.0 -0.387154246
