# DDEC6 charges by PACMAN v1.1 (https://github.com/mtap-research/PACMAN-charge/)
data_CELZIE_FSR_pacman
_symmetry_space_group_name_H-M   'P 1'
_cell_length_a   16.00230000
_cell_length_b   16.00230000
_cell_length_c   16.00230000
_cell_angle_alpha   96.26180000
_cell_angle_beta   96.26180000
_cell_angle_gamma   141.43100000
_symmetry_Int_Tables_number   1
_chemical_formula_structural   Al(C3O2)3
_chemical_formula_sum   'Al8 C72 O48'
_cell_volume   2411.43056751
_cell_formula_units_Z   8
loop_
 _symmetry_equiv_pos_site_id
 _symmetry_equiv_pos_as_xyz
  1  'x, y, z'
loop_
 _atom_site_type_symbol
 _atom_site_label
 _atom_site_symmetry_multiplicity
 _atom_site_fract_x
 _atom_site_fract_y
 _atom_site_fract_z
 _atom_site_occupancy
 _atom_site_charge
Al  Al1  1  0.16964000  0.24578000  0.55736000  1.0 1.6290053348
Al  Al2  1  0.68842000  0.61228000  0.44264000  1.0 1.6290053348
Al  Al3  1  0.86228000  0.91964000  0.42386000  1.0 1.6290053348
Al  Al4  1  0.49578000  0.43842000  0.57614000  1.0 1.6290053348
Al  Al5  1  0.08036000  0.50422000  0.94264000  1.0 1.6290053348
Al  Al6  1  0.56158000  0.13772000  0.05736000  1.0 1.6290053348
Al  Al7  1  0.38772000  0.83036000  0.07614000  1.0 1.6290053348
Al  Al8  1  0.75422000  0.31158000  0.92386000  1.0 1.6290053348
C  C1  1  0.36999000  0.12233000  0.84106000  1.0 -0.1096999817
C  C2  1  0.28127000  0.52893000  0.15894000  1.0 -0.1096999817
C  C3  1  0.77893000  0.11999000  0.74766000  1.0 -0.1096999817
C  C4  1  0.37233000  0.03127000  0.25234000  1.0 -0.1096999817
C  C5  1  0.88001000  0.62767000  0.65894000  1.0 -0.1096999817
C  C6  1  0.96873000  0.22107000  0.34106000  1.0 -0.1096999817
C  C7  1  0.47107000  0.63001000  0.75234000  1.0 -0.1096999817
C  C8  1  0.87767000  0.71873000  0.24766000  1.0 -0.1096999817
C  C9  1  0.17087000  0.07107000  0.74238000  1.0 -0.0540674387
C  C10  1  0.32869000  0.42849000  0.25762000  1.0 -0.0540674387
C  C11  1  0.67849000  0.92087000  0.59980000  1.0 -0.0540674387
C  C12  1  0.32107000  0.07869000  0.40020000  1.0 -0.0540674387
C  C13  1  0.07913000  0.67893000  0.75762000  1.0 -0.0555201252
C  C14  1  0.92131000  0.32151000  0.24238000  1.0 -0.0540674387
C  C15  1  0.57151000  0.82913000  0.90020000  1.0 -0.0540674387
C  C16  1  0.92893000  0.67131000  0.09980000  1.0 -0.0540674387
C  C17  1  0.48200000  0.16156000  0.90190000  1.0 0.6562695871
C  C18  1  0.25966000  0.58010000  0.09810000  1.0 0.6562695871
C  C19  1  0.83010000  0.23200000  0.82044000  1.0 0.6562695871
C  C20  1  0.41156000  0.00966000  0.17956000  1.0 0.6562695871
C  C21  1  0.76800000  0.58844000  0.59810000  1.0 0.6562695871
C  C22  1  0.99034000  0.16990000  0.40190000  1.0 0.6562695871
C  C23  1  0.41990000  0.51800000  0.67956000  1.0 0.6562695871
C  C24  1  0.83844000  0.74034000  0.32044000  1.0 0.6562695871
C  C25  1  0.96273000  0.81525000  0.86618000  1.0 0.1723673443
C  C26  1  0.94907000  0.09655000  0.13382000  1.0 0.1751996796
C  C27  1  0.34655000  0.71273000  0.64748000  1.0 0.1723673443
C  C28  1  0.06525000  0.69907000  0.35252000  1.0 0.1723673443
C  C29  1  0.28727000  0.93475000  0.63382000  1.0 0.1723673443
C  C30  1  0.30093000  0.65345000  0.36618000  1.0 0.1751996796
C  C31  1  0.90345000  0.03727000  0.85252000  1.0 0.1723673443
C  C32  1  0.18475000  0.05093000  0.14748000  1.0 0.1751996796
C  C33  1  0.23881000  0.02353000  0.84988000  1.0 -0.0665495624
C  C34  1  0.17365000  0.38893000  0.15012000  1.0 -0.0665495624
C  C35  1  0.63893000  0.98881000  0.71528000  1.0 -0.0665495624
C  C36  1  0.27353000  0.92365000  0.28472000  1.0 -0.0665495624
C  C37  1  0.01119000  0.72647000  0.65012000  1.0 -0.0665495624
C  C38  1  0.07635000  0.36107000  0.34988000  1.0 -0.0665495624
C  C39  1  0.61107000  0.76119000  0.78472000  1.0 -0.0665495624
C  C40  1  0.97647000  0.82635000  0.21528000  1.0 -0.0665495624
C  C41  1  0.41314000  0.20483000  0.78177000  1.0 0.0716518774
C  C42  1  0.42306000  0.63137000  0.21823000  1.0 0.0716518774
C  C43  1  0.88137000  0.16314000  0.70831000  1.0 0.0716518774
C  C44  1  0.45483000  0.17306000  0.29169000  1.0 0.0716518774
C  C45  1  0.83686000  0.54517000  0.71823000  1.0 0.0716518774
C  C46  1  0.82694000  0.11863000  0.28177000  1.0 0.0716518774
C  C47  1  0.36863000  0.58686000  0.79169000  1.0 0.0716518774
C  C48  1  0.79517000  0.57694000  0.20831000  1.0 0.0716518774
C  C49  1  0.32466000  0.24460000  0.66918000  1.0 0.6498711179
C  C50  1  0.57542000  0.65548000  0.33082000  1.0 0.6498711179
C  C51  1  0.90548000  0.07466000  0.58006000  1.0 0.6498711179
C  C52  1  0.49460000  0.32542000  0.41994000  1.0 0.6498711179
C  C53  1  0.92534000  0.50540000  0.83082000  1.0 0.6498711179
C  C54  1  0.67458000  0.09452000  0.16918000  1.0 0.6498711179
C  C55  1  0.34452000  0.67534000  0.91994000  1.0 0.6498711179
C  C56  1  0.75540000  0.42458000  0.08006000  1.0 0.6498711179
C  C57  1  0.31075000  0.17342000  0.73765000  1.0 -0.0969133102
C  C58  1  0.43577000  0.57310000  0.26235000  1.0 -0.0969133102
C  C59  1  0.82310000  0.06075000  0.63733000  1.0 -0.0969133102
C  C60  1  0.42342000  0.18577000  0.36267000  1.0 -0.0969133102
C  C61  1  0.93925000  0.57658000  0.76235000  1.0 -0.0969133102
C  C62  1  0.81423000  0.17690000  0.23765000  1.0 -0.0969133102
C  C63  1  0.42690000  0.68925000  0.86267000  1.0 -0.0969133102
C  C64  1  0.82658000  0.56423000  0.13733000  1.0 -0.0969133102
C  C65  1  0.13443000  0.99234000  0.79753000  1.0 0.2062620274
C  C66  1  0.19481000  0.33690000  0.20247000  1.0 0.2062620274
C  C67  1  0.58690000  0.88443000  0.64209000  1.0 0.2062620274
C  C68  1  0.24234000  0.94481000  0.35791000  1.0 0.2062620274
C  C69  1  0.11557000  0.75766000  0.70247000  1.0 0.2062620274
C  C70  1  0.05519000  0.41310000  0.29753000  1.0 0.2062620274
C  C71  1  0.66310000  0.86557000  0.85791000  1.0 0.2062620274
C  C72  1  0.00766000  0.80519000  0.14209000  1.0 0.2062620274
O  O1  1  0.46045000  0.11986000  0.96845000  1.0 -0.5423925375
O  O2  1  0.15141000  0.49200000  0.03155000  1.0 -0.5423925375
O  O3  1  0.74200000  0.21045000  0.84059000  1.0 -0.5423925375
O  O4  1  0.36986000  0.90141000  0.15941000  1.0 -0.5423925375
O  O5  1  0.78955000  0.63014000  0.53155000  1.0 -0.5423925375
O  O6  1  0.09859000  0.25800000  0.46845000  1.0 -0.5423925375
O  O7  1  0.50800000  0.53955000  0.65941000  1.0 -0.5423925375
O  O8  1  0.88014000  0.84859000  0.34059000  1.0 -0.5423925375
O  O9  1  0.23589000  0.23144000  0.64529000  1.0 -0.5606233184
O  O10  1  0.58615000  0.59060000  0.35471000  1.0 -0.5606233184
O  O11  1  0.84060000  0.98589000  0.50445000  1.0 -0.5606233184
O  O12  1  0.48144000  0.33615000  0.49555000  1.0 -0.5606233184
O  O13  1  0.01411000  0.51856000  0.85471000  1.0 -0.5606233184
O  O14  1  0.66385000  0.15940000  0.14529000  1.0 -0.5606233184
O  O15  1  0.40940000  0.76411000  0.99555000  1.0 -0.5606233184
O  O16  1  0.76856000  0.41385000  0.00445000  1.0 -0.5606233184
O  O17  1  0.43035000  0.30818000  0.64373000  1.0 -0.5297057559
O  O18  1  0.66445000  0.78662000  0.35627000  1.0 -0.5297057559
O  O19  1  0.03662000  0.18035000  0.62217000  1.0 -0.5297057559
O  O20  1  0.55818000  0.41445000  0.37783000  1.0 -0.5297057559
O  O21  1  0.81965000  0.44182000  0.85627000  1.0 -0.5297057559
O  O22  1  0.58555000  0.96338000  0.14373000  1.0 -0.5297057559
O  O23  1  0.21338000  0.56965000  0.87783000  1.0 -0.5297057559
O  O24  1  0.69182000  0.33555000  0.12217000  1.0 -0.5297057559
O  O25  1  0.56836000  0.20225000  0.86343000  1.0 -0.5195150902
O  O26  1  0.33882000  0.70493000  0.13657000  1.0 -0.5195150902
O  O27  1  0.95493000  0.31836000  0.86611000  1.0 -0.5195150902
O  O28  1  0.45225000  0.08882000  0.13389000  1.0 -0.5195150902
O  O29  1  0.68164000  0.54775000  0.63657000  1.0 -0.5195150902
O  O30  1  0.91118000  0.04507000  0.36343000  1.0 -0.5195150902
O  O31  1  0.29507000  0.43164000  0.63389000  1.0 -0.5195150902
O  O32  1  0.79775000  0.66118000  0.36611000  1.0 -0.5195150902
O  O33  1  0.31177000  0.32310000  0.51285000  1.0 -0.7272040476
O  O34  1  0.81025000  0.79892000  0.48715000  1.0 -0.7234578361
O  O35  1  0.04892000  0.06177000  0.48867000  1.0 -0.7234578361
O  O36  1  0.57310000  0.56025000  0.51133000  1.0 -0.7234578361
O  O37  1  0.93823000  0.42690000  0.98715000  1.0 -0.7234578361
O  O38  1  0.43975000  0.95108000  0.01285000  1.0 -0.7234578361
O  O39  1  0.20108000  0.68823000  0.01133000  1.0 -0.7272040476
O  O40  1  0.67690000  0.18975000  0.98867000  1.0 -0.7234578361
O  O41  1  0.00222000  0.90117000  0.81367000  1.0 -0.1824464449
O  O42  1  0.08750000  0.18855000  0.18633000  1.0 -0.1824464449
O  O43  1  0.43855000  0.75222000  0.60105000  1.0 -0.1824464449
O  O44  1  0.15117000  0.83750000  0.39895000  1.0 -0.1824464449
O  O45  1  0.24778000  0.84883000  0.68633000  1.0 -0.1824464449
O  O46  1  0.16250000  0.56145000  0.31367000  1.0 -0.1824464449
O  O47  1  0.81145000  0.99778000  0.89895000  1.0 -0.1824464449
O  O48  1  0.09883000  0.91250000  0.10105000  1.0 -0.1824464449
