# DDEC6 charges by PACMAN v1.1 (https://github.com/mtap-research/PACMAN-charge/)
data_CEMKOV_FSR_pacman
_symmetry_space_group_name_H-M   'P 1'
_cell_length_a   9.93400000
_cell_length_b   18.56700000
_cell_length_c   30.76400000
_cell_angle_alpha   90.00000000
_cell_angle_beta   90.00000000
_cell_angle_gamma   90.00000000
_symmetry_Int_Tables_number   1
_chemical_formula_structural   CuH38C40N8O7
_chemical_formula_sum   'Cu4 H152 C160 N32 O28'
_cell_volume   5674.25299759
_cell_formula_units_Z   4
loop_
 _symmetry_equiv_pos_site_id
 _symmetry_equiv_pos_as_xyz
  1  'x, y, z'
loop_
 _atom_site_type_symbol
 _atom_site_label
 _atom_site_symmetry_multiplicity
 _atom_site_fract_x
 _atom_site_fract_y
 _atom_site_fract_z
 _atom_site_occupancy
 _atom_site_charge
Cu  Cu1  1  0.67876000  0.00000000  0.25000000  1.0 0.5644825178
Cu  Cu2  1  0.82124000  0.50000000  0.75000000  1.0 0.5644825178
Cu  Cu3  1  0.32124000  0.00000000  0.75000000  1.0 0.5644825178
Cu  Cu4  1  0.17876000  0.50000000  0.25000000  1.0 0.5644825178
H  H1  1  0.84140000  0.75300000  0.09460000  1.0 0.2681024748
H  H2  1  0.65860000  0.74700000  0.59460000  1.0 0.2681024748
H  H3  1  0.84140000  0.24700000  0.40540000  1.0 0.2681024748
H  H4  1  0.65860000  0.25300000  0.90540000  1.0 0.2681024748
H  H5  1  0.15860000  0.24700000  0.90540000  1.0 0.2681024748
H  H6  1  0.34140000  0.25300000  0.40540000  1.0 0.2681024748
H  H7  1  0.15860000  0.75300000  0.59460000  1.0 0.2681024748
H  H8  1  0.34140000  0.74700000  0.09460000  1.0 0.2681024748
H  H9  1  0.72840000  0.72750000  0.83670000  1.0 0.1005456079
H  H10  1  0.77160000  0.77250000  0.33670000  1.0 0.1005456079
H  H11  1  0.72840000  0.27250000  0.66330000  1.0 0.1005456079
H  H12  1  0.77160000  0.22750000  0.16330000  1.0 0.1005456079
H  H13  1  0.27160000  0.27250000  0.16330000  1.0 0.1005456079
H  H14  1  0.22840000  0.22750000  0.66330000  1.0 0.1005456079
H  H15  1  0.27160000  0.72750000  0.33670000  1.0 0.1005456079
H  H16  1  0.22840000  0.77250000  0.83670000  1.0 0.1005456079
H  H17  1  0.04930000  0.61110000  0.87340000  1.0 0.1005456079
H  H18  1  0.45070000  0.88890000  0.37340000  1.0 0.1005456079
H  H19  1  0.04930000  0.38890000  0.62660000  1.0 0.1005456079
H  H20  1  0.45070000  0.11110000  0.12660000  1.0 0.1005456079
H  H21  1  0.95070000  0.38890000  0.12660000  1.0 0.1005456079
H  H22  1  0.54930000  0.11110000  0.62660000  1.0 0.1005456079
H  H23  1  0.95070000  0.61110000  0.37340000  1.0 0.1005456079
H  H24  1  0.54930000  0.88890000  0.87340000  1.0 0.1005456079
H  H25  1  0.68750000  0.63170000  0.77180000  1.0 0.1005456079
H  H26  1  0.81250000  0.86830000  0.27180000  1.0 0.1005456079
H  H27  1  0.68750000  0.36830000  0.72820000  1.0 0.1005456079
H  H28  1  0.81250000  0.13170000  0.22820000  1.0 0.1005456079
H  H29  1  0.31250000  0.36830000  0.22820000  1.0 0.1005456079
H  H30  1  0.18750000  0.13170000  0.72820000  1.0 0.1005456079
H  H31  1  0.31250000  0.63170000  0.27180000  1.0 0.1005456079
H  H32  1  0.18750000  0.86830000  0.77180000  1.0 0.1005456079
H  H33  1  0.99440000  0.54400000  0.82890000  1.0 0.1089211369
H  H34  1  0.50560000  0.95600000  0.32890000  1.0 0.1089211369
H  H35  1  0.99440000  0.45600000  0.67110000  1.0 0.1089211369
H  H36  1  0.50560000  0.04400000  0.17110000  1.0 0.1089211369
H  H37  1  0.00560000  0.45600000  0.17110000  1.0 0.1089211369
H  H38  1  0.49440000  0.04400000  0.67110000  1.0 0.1089211369
H  H39  1  0.00560000  0.54400000  0.32890000  1.0 0.1089211369
H  H40  1  0.49440000  0.95600000  0.82890000  1.0 0.1089211369
H  H41  1  0.83980000  0.85720000  0.12380000  1.0 0.1338376741
H  H42  1  0.66020000  0.64280000  0.62380000  1.0 0.1338376741
H  H43  1  0.83980000  0.14280000  0.37620000  1.0 0.1338376741
H  H44  1  0.66020000  0.35720000  0.87620000  1.0 0.1338376741
H  H45  1  0.16020000  0.14280000  0.87620000  1.0 0.1338376741
H  H46  1  0.33980000  0.35720000  0.37620000  1.0 0.1338376741
H  H47  1  0.16020000  0.85720000  0.62380000  1.0 0.1338376741
H  H48  1  0.33980000  0.64280000  0.12380000  1.0 0.1338376741
H  H49  1  0.83900000  0.94800000  0.17340000  1.0 0.1089211369
H  H50  1  0.66100000  0.55200000  0.67340000  1.0 0.1089211369
H  H51  1  0.83900000  0.05200000  0.32660000  1.0 0.1089211369
H  H52  1  0.66100000  0.44800000  0.82660000  1.0 0.1089211369
H  H53  1  0.16100000  0.05200000  0.82660000  1.0 0.1089211369
H  H54  1  0.33900000  0.44800000  0.32660000  1.0 0.1089211369
H  H55  1  0.16100000  0.94800000  0.67340000  1.0 0.1089211369
H  H56  1  0.33900000  0.55200000  0.17340000  1.0 0.1089211369
H  H57  1  0.50710000  0.87370000  0.22440000  1.0 0.1005456079
H  H58  1  0.99290000  0.62630000  0.72440000  1.0 0.1005456079
H  H59  1  0.50710000  0.12630000  0.27560000  1.0 0.1005456079
H  H60  1  0.99290000  0.37370000  0.77560000  1.0 0.1005456079
H  H61  1  0.49290000  0.12630000  0.77560000  1.0 0.1005456079
H  H62  1  0.00710000  0.37370000  0.27560000  1.0 0.1005456079
H  H63  1  0.49290000  0.87370000  0.72440000  1.0 0.1005456079
H  H64  1  0.00710000  0.62630000  0.22440000  1.0 0.1005456079
H  H65  1  0.49410000  0.78620000  0.17310000  1.0 0.1338376741
H  H66  1  0.00590000  0.71380000  0.67310000  1.0 0.1338376741
H  H67  1  0.49410000  0.21380000  0.32690000  1.0 0.1338376741
H  H68  1  0.00590000  0.28620000  0.82690000  1.0 0.1338376741
H  H69  1  0.50590000  0.21380000  0.82690000  1.0 0.1338376741
H  H70  1  0.99410000  0.28620000  0.32690000  1.0 0.1338376741
H  H71  1  0.50590000  0.78620000  0.67310000  1.0 0.1338376741
H  H72  1  0.99410000  0.71380000  0.17310000  1.0 0.1338376741
H  H73  1  0.95160000  0.82180000  0.96070000  1.0 0.1089211369
H  H74  1  0.54840000  0.67820000  0.46070000  1.0 0.1089211369
H  H75  1  0.95160000  0.17820000  0.53930000  1.0 0.1089211369
H  H76  1  0.54840000  0.32180000  0.03930000  1.0 0.1089211369
H  H77  1  0.04840000  0.17820000  0.03930000  1.0 0.1089211369
H  H78  1  0.45160000  0.32180000  0.53930000  1.0 0.1089211369
H  H79  1  0.04840000  0.82180000  0.46070000  1.0 0.1089211369
H  H80  1  0.45160000  0.67820000  0.96070000  1.0 0.1089211369
H  H81  1  0.81780000  0.85810000  0.94460000  1.0 0.1089211369
H  H82  1  0.68220000  0.64190000  0.44460000  1.0 0.1089211369
H  H83  1  0.81780000  0.14190000  0.55540000  1.0 0.1089211369
H  H84  1  0.68220000  0.35810000  0.05540000  1.0 0.1089211369
H  H85  1  0.18220000  0.14190000  0.05540000  1.0 0.1089211369
H  H86  1  0.31780000  0.35810000  0.55540000  1.0 0.1089211369
H  H87  1  0.18220000  0.85810000  0.44460000  1.0 0.1089211369
H  H88  1  0.31780000  0.64190000  0.94460000  1.0 0.1089211369
H  H89  1  0.69220000  0.76960000  0.98440000  1.0 0.0920402559
H  H90  1  0.80780000  0.73040000  0.48440000  1.0 0.0920402559
H  H91  1  0.69220000  0.23040000  0.51560000  1.0 0.0920402559
H  H92  1  0.80780000  0.26960000  0.01560000  1.0 0.0920402559
H  H93  1  0.30780000  0.23040000  0.01560000  1.0 0.0920402559
H  H94  1  0.19220000  0.26960000  0.51560000  1.0 0.0920402559
H  H95  1  0.30780000  0.76960000  0.48440000  1.0 0.0920402559
H  H96  1  0.19220000  0.73040000  0.98440000  1.0 0.0920402559
H  H97  1  0.77800000  0.81890000  0.01510000  1.0 0.1089211369
H  H98  1  0.72200000  0.68110000  0.51510000  1.0 0.1089211369
H  H99  1  0.77800000  0.18110000  0.48490000  1.0 0.1089211369
H  H100  1  0.72200000  0.31890000  0.98490000  1.0 0.1089211369
H  H101  1  0.22200000  0.18110000  0.98490000  1.0 0.1089211369
H  H102  1  0.27800000  0.31890000  0.48490000  1.0 0.1089211369
H  H103  1  0.22200000  0.81890000  0.51510000  1.0 0.1089211369
H  H104  1  0.27800000  0.68110000  0.01510000  1.0 0.1089211369
H  H105  1  0.86120000  0.67900000  0.99010000  1.0 0.0920402559
H  H106  1  0.63880000  0.82100000  0.49010000  1.0 0.0920402559
H  H107  1  0.86120000  0.32100000  0.50990000  1.0 0.0920402559
H  H108  1  0.63880000  0.17900000  0.00990000  1.0 0.0920402559
H  H109  1  0.13880000  0.32100000  0.00990000  1.0 0.0920402559
H  H110  1  0.36120000  0.17900000  0.50990000  1.0 0.0920402559
H  H111  1  0.13880000  0.67900000  0.49010000  1.0 0.0920402559
H  H112  1  0.36120000  0.82100000  0.99010000  1.0 0.0920402559
H  H113  1  0.93820000  0.72790000  0.02350000  1.0 0.1089211369
H  H114  1  0.56180000  0.77210000  0.52350000  1.0 0.1089211369
H  H115  1  0.93820000  0.27210000  0.47650000  1.0 0.1089211369
H  H116  1  0.56180000  0.22790000  0.97650000  1.0 0.1089211369
H  H117  1  0.06180000  0.27210000  0.97650000  1.0 0.1089211369
H  H118  1  0.43820000  0.22790000  0.47650000  1.0 0.1089211369
H  H119  1  0.06180000  0.72790000  0.52350000  1.0 0.1089211369
H  H120  1  0.43820000  0.77210000  0.02350000  1.0 0.1089211369
H  H121  1  0.79230000  0.63890000  0.05830000  1.0 0.1005456079
H  H122  1  0.70770000  0.86110000  0.55830000  1.0 0.1005456079
H  H123  1  0.79230000  0.36110000  0.44170000  1.0 0.1005456079
H  H124  1  0.70770000  0.13890000  0.94170000  1.0 0.1005456079
H  H125  1  0.20770000  0.36110000  0.94170000  1.0 0.1005456079
H  H126  1  0.29230000  0.13890000  0.44170000  1.0 0.1005456079
H  H127  1  0.20770000  0.63890000  0.55830000  1.0 0.1005456079
H  H128  1  0.29230000  0.86110000  0.05830000  1.0 0.1005456079
H  H129  1  0.66840000  0.68110000  0.03940000  1.0 0.1005456079
H  H130  1  0.83160000  0.81890000  0.53940000  1.0 0.1005456079
H  H131  1  0.66840000  0.31890000  0.46060000  1.0 0.1005456079
H  H132  1  0.83160000  0.18110000  0.96060000  1.0 0.1005456079
H  H133  1  0.33160000  0.31890000  0.96060000  1.0 0.1005456079
H  H134  1  0.16840000  0.18110000  0.46060000  1.0 0.1005456079
H  H135  1  0.33160000  0.68110000  0.53940000  1.0 0.1005456079
H  H136  1  0.16840000  0.81890000  0.03940000  1.0 0.1005456079
H  H137  1  0.63760000  0.72050000  0.81750000  1.0 0.0920402559
H  H138  1  0.86240000  0.77950000  0.31750000  1.0 0.0920402559
H  H139  1  0.63760000  0.27950000  0.68250000  1.0 0.0920402559
H  H140  1  0.86240000  0.22050000  0.18250000  1.0 0.0920402559
H  H141  1  0.36240000  0.27950000  0.18250000  1.0 0.0920402559
H  H142  1  0.13760000  0.22050000  0.68250000  1.0 0.0920402559
H  H143  1  0.36240000  0.72050000  0.31750000  1.0 0.0920402559
H  H144  1  0.13760000  0.77950000  0.81750000  1.0 0.0920402559
H  H145  1  0.93870000  0.63670000  0.88700000  1.0 0.0920402559
H  H146  1  0.56130000  0.86330000  0.38700000  1.0 0.0920402559
H  H147  1  0.93870000  0.36330000  0.61300000  1.0 0.0920402559
H  H148  1  0.56130000  0.13670000  0.11300000  1.0 0.0920402559
H  H149  1  0.06130000  0.36330000  0.11300000  1.0 0.0920402559
H  H150  1  0.43870000  0.13670000  0.61300000  1.0 0.0920402559
H  H151  1  0.06130000  0.63670000  0.38700000  1.0 0.0920402559
H  H152  1  0.43870000  0.86330000  0.88700000  1.0 0.0920402559
C  C1  1  0.89450000  0.68070000  0.86250000  1.0 -0.0407566531
C  C2  1  0.60550000  0.81930000  0.36250000  1.0 -0.0407566531
C  C3  1  0.89450000  0.31930000  0.63750000  1.0 -0.0407566531
C  C4  1  0.60550000  0.18070000  0.13750000  1.0 -0.0407566531
C  C5  1  0.10550000  0.31930000  0.13750000  1.0 -0.0407566531
C  C6  1  0.39450000  0.18070000  0.63750000  1.0 -0.0407566531
C  C7  1  0.10550000  0.68070000  0.36250000  1.0 -0.0407566531
C  C8  1  0.39450000  0.81930000  0.86250000  1.0 -0.0407566531
C  C9  1  0.78240000  0.68700000  0.83340000  1.0 0.0192349404
C  C10  1  0.71760000  0.81300000  0.33340000  1.0 0.0192349404
C  C11  1  0.78240000  0.31300000  0.66666667  1.0 0.0192349404
C  C12  1  0.71760000  0.18700000  0.16660000  1.0 0.0192349404
C  C13  1  0.21760000  0.31300000  0.16660000  1.0 0.0192349404
C  C14  1  0.28240000  0.18700000  0.66666667  1.0 0.0192349404
C  C15  1  0.21760000  0.68700000  0.33340000  1.0 0.0192349404
C  C16  1  0.28240000  0.81300000  0.83340000  1.0 0.0192349404
C  C17  1  0.97140000  0.62020000  0.85760000  1.0 -0.1511453444
C  C18  1  0.52860000  0.87980000  0.35760000  1.0 -0.1511453444
C  C19  1  0.97140000  0.37980000  0.64240000  1.0 -0.1511453444
C  C20  1  0.52860000  0.12020000  0.14240000  1.0 -0.1511453444
C  C21  1  0.02860000  0.37980000  0.14240000  1.0 -0.1511453444
C  C22  1  0.47140000  0.12020000  0.64240000  1.0 -0.1511453444
C  C23  1  0.02860000  0.62020000  0.35760000  1.0 -0.1511453444
C  C24  1  0.47140000  0.87980000  0.85760000  1.0 -0.1511453444
C  C25  1  0.92300000  0.73240000  0.89760000  1.0 0.1879103894
C  C26  1  0.57700000  0.76760000  0.39760000  1.0 0.1879103894
C  C27  1  0.92300000  0.26760000  0.60240000  1.0 0.1879103894
C  C28  1  0.57700000  0.23240000  0.10240000  1.0 0.1879103894
C  C29  1  0.07700000  0.26760000  0.10240000  1.0 0.1879103894
C  C30  1  0.42300000  0.23240000  0.60240000  1.0 0.1879103894
C  C31  1  0.07700000  0.73240000  0.39760000  1.0 0.1879103894
C  C32  1  0.42300000  0.76760000  0.89760000  1.0 0.1879103894
C  C33  1  0.74080000  0.63280000  0.79660000  1.0 0.0564009503
C  C34  1  0.75920000  0.86720000  0.29660000  1.0 0.0564009503
C  C35  1  0.74080000  0.36720000  0.70340000  1.0 0.0564009503
C  C36  1  0.75920000  0.13280000  0.20340000  1.0 0.0564009503
C  C37  1  0.25920000  0.36720000  0.20340000  1.0 0.0564009503
C  C38  1  0.24080000  0.13280000  0.70340000  1.0 0.0564009503
C  C39  1  0.25920000  0.63280000  0.29660000  1.0 0.0564009503
C  C40  1  0.24080000  0.86720000  0.79660000  1.0 0.0564009503
C  C41  1  0.92240000  0.57600000  0.82760000  1.0 0.051265057
C  C42  1  0.57760000  0.92400000  0.32760000  1.0 0.051265057
C  C43  1  0.92240000  0.42400000  0.67240000  1.0 0.051265057
C  C44  1  0.57760000  0.07600000  0.17240000  1.0 0.051265057
C  C45  1  0.07760000  0.42400000  0.17240000  1.0 0.051265057
C  C46  1  0.42240000  0.07600000  0.67240000  1.0 0.051265057
C  C47  1  0.07760000  0.57600000  0.32760000  1.0 0.051265057
C  C48  1  0.42240000  0.92400000  0.82760000  1.0 0.051265057
C  C49  1  0.66620000  0.81200000  0.14186000  1.0 0.0192349404
C  C50  1  0.83380000  0.68800000  0.64186000  1.0 0.0192349404
C  C51  1  0.66620000  0.18800000  0.35814000  1.0 0.0192349404
C  C52  1  0.83380000  0.31200000  0.85814000  1.0 0.0192349404
C  C53  1  0.33380000  0.18800000  0.85814000  1.0 0.0192349404
C  C54  1  0.16620000  0.31200000  0.35814000  1.0 0.0192349404
C  C55  1  0.33380000  0.81200000  0.64186000  1.0 0.0192349404
C  C56  1  0.16620000  0.68800000  0.14186000  1.0 0.0192349404
C  C57  1  0.76920000  0.86060000  0.14353000  1.0 -0.1812488503
C  C58  1  0.73080000  0.63940000  0.64353000  1.0 -0.1812488503
C  C59  1  0.76920000  0.13940000  0.35647000  1.0 -0.1812488503
C  C60  1  0.73080000  0.36060000  0.85647000  1.0 -0.1812488503
C  C61  1  0.23080000  0.13940000  0.85647000  1.0 -0.1812488503
C  C62  1  0.26920000  0.36060000  0.35647000  1.0 -0.1812488503
C  C63  1  0.23080000  0.86060000  0.64353000  1.0 -0.1812488503
C  C64  1  0.26920000  0.63940000  0.14353000  1.0 -0.1812488503
C  C65  1  0.76940000  0.91450000  0.17392000  1.0 0.0821045938
C  C66  1  0.73060000  0.58550000  0.67392000  1.0 0.0821045938
C  C67  1  0.76940000  0.08550000  0.32608000  1.0 0.0821045938
C  C68  1  0.73060000  0.41450000  0.82608000  1.0 0.0821045938
C  C69  1  0.23060000  0.08550000  0.82608000  1.0 0.0821045938
C  C70  1  0.26940000  0.41450000  0.32608000  1.0 0.0821045938
C  C71  1  0.23060000  0.91450000  0.67392000  1.0 0.0821045938
C  C72  1  0.26940000  0.58550000  0.17392000  1.0 0.0821045938
C  C73  1  0.57380000  0.87120000  0.20320000  1.0 0.0192349404
C  C74  1  0.92620000  0.62880000  0.70320000  1.0 0.0192349404
C  C75  1  0.57380000  0.12880000  0.29680000  1.0 0.0192349404
C  C76  1  0.92620000  0.37120000  0.79680000  1.0 0.0192349404
C  C77  1  0.42620000  0.12880000  0.79680000  1.0 0.0192349404
C  C78  1  0.07380000  0.37120000  0.29680000  1.0 0.0192349404
C  C79  1  0.42620000  0.87120000  0.70320000  1.0 0.0192349404
C  C80  1  0.07380000  0.62880000  0.20320000  1.0 0.0192349404
C  C81  1  0.56610000  0.81820000  0.17296000  1.0 -0.1698363197
C  C82  1  0.93390000  0.68180000  0.67296000  1.0 -0.1698363197
C  C83  1  0.56610000  0.18180000  0.32704000  1.0 -0.1698363197
C  C84  1  0.93390000  0.31820000  0.82704000  1.0 -0.1698363197
C  C85  1  0.43390000  0.18180000  0.82704000  1.0 -0.1698363197
C  C86  1  0.06610000  0.31820000  0.32704000  1.0 -0.1698363197
C  C87  1  0.43390000  0.81820000  0.67296000  1.0 -0.1698363197
C  C88  1  0.06610000  0.68180000  0.17296000  1.0 -0.1698363197
C  C89  1  0.65390000  0.75420000  0.10748000  1.0 0.4342538195
C  C90  1  0.84610000  0.74580000  0.60748000  1.0 0.4342538195
C  C91  1  0.65390000  0.24580000  0.39252000  1.0 0.4342538195
C  C92  1  0.84610000  0.25420000  0.89252000  1.0 0.4342538195
C  C93  1  0.34610000  0.24580000  0.89252000  1.0 0.4342538195
C  C94  1  0.15390000  0.25420000  0.39252000  1.0 0.4342538195
C  C95  1  0.34610000  0.75420000  0.60748000  1.0 0.4342538195
C  C96  1  0.15390000  0.74580000  0.10748000  1.0 0.4342538195
C  C97  1  0.85850000  0.81260000  0.95300000  1.0 -0.1969425844
C  C98  1  0.64150000  0.68740000  0.45300000  1.0 -0.1969425844
C  C99  1  0.85850000  0.18740000  0.54700000  1.0 -0.1969425844
C  C100  1  0.64150000  0.31260000  0.04700000  1.0 -0.1969425844
C  C101  1  0.14150000  0.18740000  0.04700000  1.0 -0.1969425844
C  C102  1  0.35850000  0.31260000  0.54700000  1.0 -0.1969425844
C  C103  1  0.14150000  0.81260000  0.45300000  1.0 -0.1969425844
C  C104  1  0.35850000  0.68740000  0.95300000  1.0 -0.1969425844
C  C105  1  0.78340000  0.78180000  0.99290000  1.0 -0.1812488503
C  C106  1  0.71660000  0.71820000  0.49290000  1.0 -0.1812488503
C  C107  1  0.78340000  0.21820000  0.50710000  1.0 -0.1812488503
C  C108  1  0.71660000  0.28180000  0.00710000  1.0 -0.1812488503
C  C109  1  0.21660000  0.21820000  0.00710000  1.0 -0.1812488503
C  C110  1  0.28340000  0.28180000  0.50710000  1.0 -0.1812488503
C  C111  1  0.21660000  0.78180000  0.49290000  1.0 -0.1812488503
C  C112  1  0.28340000  0.71820000  0.99290000  1.0 -0.1812488503
C  C113  1  0.85000000  0.71550000  0.01230000  1.0 -0.2084821479
C  C114  1  0.65000000  0.78450000  0.51230000  1.0 -0.2084821479
C  C115  1  0.85000000  0.28450000  0.48770000  1.0 -0.2084821479
C  C116  1  0.65000000  0.21550000  0.98770000  1.0 -0.2084821479
C  C117  1  0.15000000  0.28450000  0.98770000  1.0 -0.2084821479
C  C118  1  0.35000000  0.21550000  0.48770000  1.0 -0.2084821479
C  C119  1  0.15000000  0.71550000  0.51230000  1.0 -0.2084821479
C  C120  1  0.35000000  0.78450000  0.01230000  1.0 -0.2084821479
C  C121  1  0.76040000  0.68600000  0.04950000  1.0 -0.0407566531
C  C122  1  0.73960000  0.81400000  0.54950000  1.0 -0.0407566531
C  C123  1  0.76040000  0.31400000  0.45050000  1.0 -0.0407566531
C  C124  1  0.73960000  0.18600000  0.95050000  1.0 -0.0407566531
C  C125  1  0.23960000  0.31400000  0.95050000  1.0 -0.0407566531
C  C126  1  0.26040000  0.18600000  0.45050000  1.0 -0.0407566531
C  C127  1  0.23960000  0.68600000  0.54950000  1.0 -0.0407566531
C  C128  1  0.26040000  0.81400000  0.04950000  1.0 -0.0407566531
C  C129  1  0.79660000  0.68930000  0.85760000  1.0 -0.0347267931
C  C130  1  0.70340000  0.81070000  0.35760000  1.0 -0.0347267931
C  C131  1  0.79660000  0.31070000  0.64240000  1.0 -0.0407566531
C  C132  1  0.70340000  0.18930000  0.14240000  1.0 -0.0347267931
C  C133  1  0.20340000  0.31070000  0.14240000  1.0 -0.0347267931
C  C134  1  0.29660000  0.18930000  0.64240000  1.0 -0.0407566531
C  C135  1  0.20340000  0.68930000  0.35760000  1.0 -0.0347267931
C  C136  1  0.29660000  0.81070000  0.85760000  1.0 -0.0407566531
C  C137  1  0.70760000  0.68820000  0.82230000  1.0 -0.1812488503
C  C138  1  0.79240000  0.81180000  0.32230000  1.0 -0.1812488503
C  C139  1  0.70760000  0.31180000  0.67770000  1.0 -0.1812488503
C  C140  1  0.79240000  0.18820000  0.17770000  1.0 -0.1812488503
C  C141  1  0.29240000  0.31180000  0.17770000  1.0 -0.1812488503
C  C142  1  0.20760000  0.18820000  0.67770000  1.0 -0.1812488503
C  C143  1  0.29240000  0.68820000  0.32230000  1.0 -0.1812488503
C  C144  1  0.20760000  0.81180000  0.82230000  1.0 -0.1812488503
C  C145  1  0.88900000  0.63700000  0.86150000  1.0 -0.0007507305
C  C146  1  0.61100000  0.86300000  0.36150000  1.0 0.0001836254
C  C147  1  0.88900000  0.36300000  0.63850000  1.0 -0.0007507305
C  C148  1  0.61100000  0.13700000  0.13850000  1.0 0.0001836254
C  C149  1  0.11100000  0.36300000  0.13850000  1.0 0.0001836254
C  C150  1  0.38900000  0.13700000  0.63850000  1.0 -0.0007507305
C  C151  1  0.11100000  0.63700000  0.36150000  1.0 0.0001836254
C  C152  1  0.38900000  0.86300000  0.86150000  1.0 -0.0007507305
C  C153  1  0.77320000  0.74430000  0.89320000  1.0 0.1808632782
C  C154  1  0.72680000  0.75570000  0.39320000  1.0 0.1808632782
C  C155  1  0.77320000  0.25570000  0.60680000  1.0 0.1808632782
C  C156  1  0.72680000  0.24430000  0.10680000  1.0 0.1808632782
C  C157  1  0.22680000  0.25570000  0.10680000  1.0 0.1808632782
C  C158  1  0.27320000  0.24430000  0.60680000  1.0 0.1808632782
C  C159  1  0.22680000  0.74430000  0.39320000  1.0 0.1808632782
C  C160  1  0.27320000  0.75570000  0.89320000  1.0 0.1808632782
N  N1  1  0.67490000  0.92100000  0.20413000  1.0 -0.2301263496
N  N2  1  0.82510000  0.57900000  0.70413000  1.0 -0.2301263496
N  N3  1  0.67490000  0.07900000  0.29587000  1.0 -0.2301263496
N  N4  1  0.82510000  0.42100000  0.79587000  1.0 -0.2301263496
N  N5  1  0.32510000  0.07900000  0.79587000  1.0 -0.2301263496
N  N6  1  0.17490000  0.42100000  0.29587000  1.0 -0.2301263496
N  N7  1  0.32510000  0.92100000  0.70413000  1.0 -0.2301263496
N  N8  1  0.17490000  0.57900000  0.20413000  1.0 -0.2301263496
N  N9  1  0.85360000  0.76300000  0.91640000  1.0 0.0082406483
N  N10  1  0.64640000  0.73700000  0.41640000  1.0 0.0082406483
N  N11  1  0.85360000  0.23700000  0.58360000  1.0 0.0082406483
N  N12  1  0.64640000  0.26300000  0.08360000  1.0 0.0082406483
N  N13  1  0.14640000  0.23700000  0.08360000  1.0 0.0082406483
N  N14  1  0.35360000  0.26300000  0.58360000  1.0 0.0082406483
N  N15  1  0.14640000  0.76300000  0.41640000  1.0 0.0082406483
N  N16  1  0.35360000  0.73700000  0.91640000  1.0 0.0082406483
N  N17  1  0.76530000  0.73560000  0.08641000  1.0 -0.3458294493
N  N18  1  0.73470000  0.76440000  0.58641000  1.0 -0.3458294493
N  N19  1  0.76530000  0.26440000  0.41359000  1.0 -0.3458294493
N  N20  1  0.73470000  0.23560000  0.91359000  1.0 -0.3458294493
N  N21  1  0.23470000  0.26440000  0.91359000  1.0 -0.3458294493
N  N22  1  0.26530000  0.23560000  0.41359000  1.0 -0.3458294493
N  N23  1  0.23470000  0.73560000  0.58641000  1.0 -0.3458294493
N  N24  1  0.26530000  0.76440000  0.08641000  1.0 -0.3458294493
N  N25  1  0.82910000  0.57860000  0.79684000  1.0 -0.3185271767
N  N26  1  0.67090000  0.92140000  0.29684000  1.0 -0.3185271767
N  N27  1  0.82910000  0.42140000  0.70316000  1.0 -0.3185271767
N  N28  1  0.67090000  0.07860000  0.20316000  1.0 -0.3185271767
N  N29  1  0.17090000  0.42140000  0.20316000  1.0 -0.3185271767
N  N30  1  0.32910000  0.07860000  0.70316000  1.0 -0.3185271767
N  N31  1  0.17090000  0.57860000  0.29684000  1.0 -0.3185271767
N  N32  1  0.32910000  0.92140000  0.79684000  1.0 -0.3185271767
O  O1  1  0.92290000  0.00000000  0.25000000  1.0 -0.4670585168
O  O2  1  0.57710000  0.50000000  0.75000000  1.0 -0.4670585168
O  O3  1  0.07710000  0.00000000  0.75000000  1.0 -0.4670585168
O  O4  1  0.42290000  0.50000000  0.25000000  1.0 -0.4670585168
O  O5  1  0.54230000  0.72780000  0.09917000  1.0 -0.5245214028
O  O6  1  0.95770000  0.77220000  0.59917000  1.0 -0.5245214028
O  O7  1  0.54230000  0.27220000  0.40083000  1.0 -0.5245214028
O  O8  1  0.95770000  0.22780000  0.90083000  1.0 -0.5245214028
O  O9  1  0.45770000  0.27220000  0.90083000  1.0 -0.5245214028
O  O10  1  0.04230000  0.22780000  0.40083000  1.0 -0.5245214028
O  O11  1  0.45770000  0.72780000  0.59917000  1.0 -0.5245214028
O  O12  1  0.04230000  0.77220000  0.09917000  1.0 -0.5245214028
O  O13  1  0.03850000  0.74180000  0.90790000  1.0 -0.2301263496
O  O14  1  0.46150000  0.75820000  0.40790000  1.0 -0.2301263496
O  O15  1  0.03850000  0.25820000  0.59210000  1.0 -0.2301263496
O  O16  1  0.46150000  0.24180000  0.09210000  1.0 -0.2301263496
O  O17  1  0.96150000  0.25820000  0.09210000  1.0 -0.2301263496
O  O18  1  0.53850000  0.24180000  0.59210000  1.0 -0.2301263496
O  O19  1  0.96150000  0.74180000  0.40790000  1.0 -0.2301263496
O  O20  1  0.53850000  0.75820000  0.90790000  1.0 -0.2301263496
O  O21  1  0.66490000  0.77370000  0.89890000  1.0 -0.2301263496
O  O22  1  0.83510000  0.72630000  0.39890000  1.0 -0.2301263496
O  O23  1  0.66490000  0.22630000  0.60110000  1.0 -0.2301263496
O  O24  1  0.83510000  0.27370000  0.10110000  1.0 -0.2301263496
O  O25  1  0.33510000  0.22630000  0.10110000  1.0 -0.2301263496
O  O26  1  0.16490000  0.27370000  0.60110000  1.0 -0.2301263496
O  O27  1  0.33510000  0.77370000  0.39890000  1.0 -0.2301263496
O  O28  1  0.16490000  0.72630000  0.89890000  1.0 -0.2301263496
