# DDEC6 charges by PACMAN v1.1 (https://github.com/mtap-research/PACMAN-charge/)
data_CEMYUQ_ASR_pacman
_symmetry_space_group_name_H-M   'P 1'
_cell_length_a   7.14070000
_cell_length_b   7.14070000
_cell_length_c   20.48900000
_cell_angle_alpha   90.00000000
_cell_angle_beta   90.00000000
_cell_angle_gamma   90.00000000
_symmetry_Int_Tables_number   1
_chemical_formula_structural   FeH12Pt(C4N)6
_chemical_formula_sum   'Fe1 H12 Pt1 C24 N6'
_cell_volume   1044.72584248
_cell_formula_units_Z   1
loop_
 _symmetry_equiv_pos_site_id
 _symmetry_equiv_pos_as_xyz
  1  'x, y, z'
loop_
 _atom_site_type_symbol
 _atom_site_label
 _atom_site_symmetry_multiplicity
 _atom_site_fract_x
 _atom_site_fract_y
 _atom_site_fract_z
 _atom_site_occupancy
 _atom_site_charge
Fe  Fe1  1  0.50000000  0.49982000  0.50003000  1.0 0.5831471632
H  H1  1  0.50000000  0.78859000  0.59995000  1.0 0.1025232298
H  H2  1  0.50000000  0.79866000  0.72779000  1.0 0.1165760408
H  H3  1  0.50000000  0.20970000  0.60031000  1.0 0.1025232298
H  H4  1  0.50000000  0.20124000  0.72786000  1.0 0.1165760408
H  H5  1  0.50000000  0.78928000  0.39980000  1.0 0.1025232298
H  H6  1  0.50000000  0.80007000  0.27236000  1.0 0.1165760408
H  H7  1  0.50000000  0.20916000  0.39936000  1.0 0.1025232298
H  H8  1  0.50000000  0.20360000  0.27134000  1.0 0.1165760408
H  H9  1  0.50000000  0.80362000  0.06268000  1.0 0.1025232298
H  H10  1  0.50000000  0.20342000  0.06592000  1.0 0.1025232298
H  H11  1  0.50000000  0.79759000  0.93397000  1.0 0.1025232298
H  H12  1  0.50000000  0.20206000  0.93419000  1.0 0.1025232298
Pt  Pt1  1  0.00000000  0.99999000  0.50000000  1.0 0.0698348309
C  C1  1  0.50000000  0.49979000  0.73320000  1.0 0.1578743185
C  C2  1  0.50000000  0.49905000  0.93104000  1.0 0.1417090992
C  C3  1  0.50000000  0.49949000  0.86179000  1.0 -0.0977290173
C  C4  1  0.50000000  0.49983000  0.80241000  1.0 -0.0841691096
C  C5  1  0.50000000  0.50115000  0.26673000  1.0 0.1578743185
C  C6  1  0.50000000  0.50198000  0.06864000  1.0 0.1417090992
C  C7  1  0.50000000  0.50105000  0.13801000  1.0 -0.0977290173
C  C8  1  0.50000000  0.50027000  0.19744000  1.0 -0.0841691096
C  C9  1  0.80418000  0.80367000  0.50000000  1.0 0.0385088424
C  C10  1  0.19580000  0.19632000  0.50000000  1.0 0.0385088424
C  C11  1  0.19582000  0.80367000  0.50000000  1.0 0.0385088424
C  C12  1  0.80420000  0.19632000  0.50000000  1.0 0.0385088424
C  C13  1  0.50000000  0.66435000  0.63110000  1.0 0.0887835163
C  C14  1  0.50000000  0.67044000  0.69868000  1.0 -0.1771704604
C  C15  1  0.50000000  0.67206000  0.96505000  1.0 -0.1279869688
C  C16  1  0.50000000  0.33436000  0.63123000  1.0 0.0887835163
C  C17  1  0.50000000  0.32909000  0.69878000  1.0 -0.1771704604
C  C18  1  0.50000000  0.32700000  0.96572000  1.0 -0.1279869688
C  C19  1  0.50000000  0.66482000  0.36897000  1.0 0.0887835163
C  C20  1  0.50000000  0.67175000  0.30143000  1.0 -0.1771704604
C  C21  1  0.50000000  0.67414000  0.03361000  1.0 -0.1279869688
C  C22  1  0.50000000  0.33480000  0.36869000  1.0 0.0887835163
C  C23  1  0.50000000  0.33034000  0.30109000  1.0 -0.1771704604
C  C24  1  0.50000000  0.32849000  0.03448000  1.0 -0.1279869688
N  N1  1  0.50000000  0.49928000  0.59750000  1.0 -0.1279869688
N  N2  1  0.50000000  0.49971000  0.40271000  1.0 -0.1279869688
N  N3  1  0.68839000  0.68813000  0.50001000  1.0 -0.3018520896
N  N4  1  0.31158000  0.31185000  0.49999000  1.0 -0.3018520896
N  N5  1  0.31161000  0.68813000  0.50001000  1.0 -0.3018520896
N  N6  1  0.68842000  0.31185000  0.49999000  1.0 -0.3018520896
