# DDEC6 charges by PACMAN v1.1 (https://github.com/mtap-research/PACMAN-charge/)
data_CENPUI_ASR_pacman
_symmetry_space_group_name_H-M   'P 1'
_cell_length_a   8.43190000
_cell_length_b   12.82510000
_cell_length_c   20.92400000
_cell_angle_alpha   73.46200000
_cell_angle_beta   84.69200000
_cell_angle_gamma   78.30700000
_symmetry_Int_Tables_number   1
_chemical_formula_structural   Mg3H48C78(NO6)2
_chemical_formula_sum   'Mg3 H48 C78 N2 O12'
_cell_volume   2122.63831127
_cell_formula_units_Z   1
loop_
 _symmetry_equiv_pos_site_id
 _symmetry_equiv_pos_as_xyz
  1  'x, y, z'
loop_
 _atom_site_type_symbol
 _atom_site_label
 _atom_site_symmetry_multiplicity
 _atom_site_fract_x
 _atom_site_fract_y
 _atom_site_fract_z
 _atom_site_occupancy
 _atom_site_charge
Mg  Mg1  1  0.56603000  0.17006000  0.99947000  1.0 1.3802221106
Mg  Mg2  1  0.43397000  0.82994000  0.00053000  1.0 1.3802221106
Mg  Mg3  1  0.00000000  0.00000000  0.00000000  1.0 1.3936813162
H  H1  1  0.41570000  0.95300000  0.81230000  1.0 0.1199105127
H  H2  1  0.58430000  0.04700000  0.18770000  1.0 0.1199105127
H  H3  1  0.64510000  0.25370000  0.69490000  1.0 0.1199105127
H  H4  1  0.35490000  0.74630000  0.30510000  1.0 0.1199105127
H  H5  1  0.64890000  0.19850000  0.80930000  1.0 0.1199105127
H  H6  1  0.35110000  0.80150000  0.19070000  1.0 0.1268061684
H  H7  1  0.84000000  0.29400000  0.25800000  1.0 0.1108967574
H  H8  1  0.16000000  0.70600000  0.74200000  1.0 0.1108967574
H  H9  1  0.06920000  0.47130000  0.24990000  1.0 0.1108967574
H  H10  1  0.93080000  0.52870000  0.75010000  1.0 0.1108967574
H  H11  1  0.39300000  0.01590000  0.69920000  1.0 0.1108967574
H  H12  1  0.60700000  0.98410000  0.30080000  1.0 0.1108967574
H  H13  1  0.98460000  0.20720000  0.37100000  1.0 0.1199105127
H  H14  1  0.01540000  0.79280000  0.62900000  1.0 0.1199105127
H  H15  1  0.34930000  0.19670000  0.23230000  1.0 0.1199105127
H  H16  1  0.65070000  0.80330000  0.76770000  1.0 0.1199105127
H  H17  1  0.86600000  0.83980000  0.14630000  1.0 0.1199105127
H  H18  1  0.13400000  0.16020000  0.85370000  1.0 0.1199105127
H  H19  1  0.51150000  0.25180000  0.29500000  1.0 0.1199105127
H  H20  1  0.48850000  0.74820000  0.70500000  1.0 0.1199105127
H  H21  1  0.55140000  0.58520000  0.22860000  1.0 0.1199105127
H  H22  1  0.44860000  0.41480000  0.77140000  1.0 0.1199105127
H  H23  1  0.69170000  0.27430000  0.17560000  1.0 0.1199105127
H  H24  1  0.30830000  0.72570000  0.82440000  1.0 0.1199105127
H  H25  1  0.04840000  0.03100000  0.14140000  1.0 0.1268061684
H  H26  1  0.95160000  0.96900000  0.85860000  1.0 0.1268061684
H  H27  1  0.37830000  0.47860000  0.29500000  1.0 0.1268061684
H  H28  1  0.62170000  0.52140000  0.70500000  1.0 0.1268061684
H  H29  1  0.90030000  0.44490000  0.36190000  1.0 0.1199105127
H  H30  1  0.09970000  0.55510000  0.63810000  1.0 0.1199105127
H  H31  1  0.69930000  0.73420000  0.21890000  1.0 0.1039512293
H  H32  1  0.30070000  0.26580000  0.78110000  1.0 0.1039512293
H  H33  1  0.72910000  0.33430000  0.42710000  1.0 0.1199105127
H  H34  1  0.27090000  0.66570000  0.57290000  1.0 0.1199105127
H  H35  1  0.42570000  0.42270000  0.49510000  1.0 0.1268061684
H  H36  1  0.57430000  0.57730000  0.50490000  1.0 0.1268061684
H  H37  1  0.20150000  0.05380000  0.22110000  1.0 0.1108967574
H  H38  1  0.79850000  0.94620000  0.77890000  1.0 0.1108967574
H  H39  1  0.23330000  0.57540000  0.17420000  1.0 0.1199105127
H  H40  1  0.76670000  0.42460000  0.82580000  1.0 0.1199105127
H  H41  1  0.47150000  0.11300000  0.47670000  1.0 0.1199105127
H  H42  1  0.52850000  0.88700000  0.52330000  1.0 0.1268061684
H  H43  1  0.14440000  0.26620000  0.43320000  1.0 0.1268061684
H  H44  1  0.85560000  0.73380000  0.56680000  1.0 0.1268061684
H  H45  1  0.50390000  0.04220000  0.59030000  1.0 0.1108967574
H  H46  1  0.49610000  0.95780000  0.40970000  1.0 0.1108967574
H  H47  1  0.46620000  0.35130000  0.60720000  1.0 0.1108967574
H  H48  1  0.53380000  0.64870000  0.39280000  1.0 0.1108967574
C  C1  1  0.45750000  0.01550000  0.78880000  1.0 -0.0976330279
C  C2  1  0.54250000  0.98450000  0.21120000  1.0 -0.0976330279
C  C3  1  0.53210000  0.07010000  0.82350000  1.0 -0.0299289277
C  C4  1  0.46790000  0.92990000  0.17650000  1.0 -0.0299289277
C  C5  1  0.59370000  0.19590000  0.71870000  1.0 -0.1516134902
C  C6  1  0.40630000  0.80410000  0.28130000  1.0 -0.1516134902
C  C7  1  0.59950000  0.16100000  0.78710000  1.0 -0.0976330279
C  C8  1  0.40050000  0.83900000  0.21290000  1.0 -0.0976330279
C  C9  1  0.16440000  0.78620000  0.09640000  1.0 0.623505144
C  C10  1  0.83560000  0.21380000  0.90360000  1.0 0.623505144
C  C11  1  0.51070000  0.14510000  0.68430000  1.0 0.0684939163
C  C12  1  0.48930000  0.85490000  0.31570000  1.0 0.0684939163
C  C13  1  0.88330000  0.24360000  0.23380000  1.0 -0.1629404514
C  C14  1  0.11670000  0.75640000  0.76620000  1.0 -0.1629404514
C  C15  1  0.03940000  0.17880000  0.24730000  1.0 0.0684939163
C  C16  1  0.96060000  0.82120000  0.75270000  1.0 0.0684939163
C  C17  1  0.74940000  0.52480000  0.28630000  1.0 0.0521281795
C  C18  1  0.25060000  0.47520000  0.71370000  1.0 0.0521281795
C  C19  1  0.02780000  0.54450000  0.22800000  1.0 -0.1629404514
C  C20  1  0.97220000  0.45550000  0.77200000  1.0 -0.1629404514
C  C21  1  0.06510000  0.71790000  0.14970000  1.0 -0.0299289277
C  C22  1  0.93490000  0.28210000  0.85030000  1.0 -0.0352140753
C  C23  1  0.76580000  0.15370000  0.08930000  1.0 0.5881698714
C  C24  1  0.23420000  0.84630000  0.91070000  1.0 0.5881698714
C  C25  1  0.14570000  0.20120000  0.29260000  1.0 0.0561238589
C  C26  1  0.85430000  0.79880000  0.70740000  1.0 0.0561238589
C  C27  1  0.53470000  0.03320000  0.89800000  1.0 0.6440542029
C  C28  1  0.46530000  0.96680000  0.10200000  1.0 0.6440542029
C  C29  1  0.85980000  0.15610000  0.14700000  1.0 -0.0299289277
C  C30  1  0.14020000  0.84390000  0.85300000  1.0 -0.0299289277
C  C31  1  0.53680000  0.39060000  0.36670000  1.0 0.1786791917
C  C32  1  0.46320000  0.60940000  0.63330000  1.0 0.1786791917
C  C33  1  0.44510000  0.05240000  0.72110000  1.0 -0.1388939632
C  C34  1  0.55490000  0.94760000  0.27890000  1.0 -0.1388939632
C  C35  1  0.08780000  0.21900000  0.35490000  1.0 -0.1388939632
C  C36  1  0.91220000  0.78100000  0.64510000  1.0 -0.1388939632
C  C37  1  0.30730000  0.21240000  0.27190000  1.0 -0.1271812706
C  C38  1  0.69270000  0.78760000  0.72810000  1.0 -0.1271812706
C  C39  1  0.86320000  0.59090000  0.24160000  1.0 0.0684939163
C  C40  1  0.13680000  0.40910000  0.75840000  1.0 0.0684939163
C  C41  1  0.90500000  0.76520000  0.16580000  1.0 -0.0885973363
C  C42  1  0.09500000  0.23480000  0.83420000  1.0 -0.0885973363
C  C43  1  0.40490000  0.24610000  0.30910000  1.0 -0.1913943006
C  C44  1  0.59510000  0.75390000  0.69090000  1.0 -0.1913943006
C  C45  1  0.58820000  0.53420000  0.26820000  1.0 -0.1271812706
C  C46  1  0.41180000  0.46580000  0.73180000  1.0 -0.1271812706
C  C47  1  0.79470000  0.23190000  0.18420000  1.0 -0.1125352713
C  C48  1  0.20530000  0.76810000  0.81580000  1.0 -0.1125352713
C  C49  1  0.00990000  0.08570000  0.16310000  1.0 -0.0885973363
C  C50  1  0.99010000  0.91430000  0.83690000  1.0 -0.0885973363
C  C51  1  0.44680000  0.27510000  0.47340000  1.0 0.1786791917
C  C52  1  0.55320000  0.72490000  0.52660000  1.0 0.1786791917
C  C53  1  0.48410000  0.46950000  0.30770000  1.0 -0.1804865513
C  C54  1  0.51590000  0.53050000  0.69230000  1.0 -0.1804865513
C  C55  1  0.79730000  0.45020000  0.34730000  1.0 -0.1388939632
C  C56  1  0.20270000  0.54980000  0.65270000  1.0 -0.1388939632
C  C57  1  0.34080000  0.27160000  0.36860000  1.0 0.1786791917
C  C58  1  0.65920000  0.72840000  0.63140000  1.0 0.1786791917
C  C59  1  0.80530000  0.70220000  0.21010000  1.0 -0.1388939632
C  C60  1  0.19470000  0.29780000  0.78990000  1.0 -0.1388939632
C  C61  1  0.69380000  0.38380000  0.38690000  1.0 -0.1913943006
C  C62  1  0.30620000  0.61620000  0.61310000  1.0 -0.1913943006
C  C63  1  0.44340000  0.34650000  0.51390000  1.0 -0.1913943006
C  C64  1  0.55660000  0.65350000  0.48610000  1.0 -0.1913943006
C  C65  1  0.10010000  0.09830000  0.21160000  1.0 -0.1388939632
C  C66  1  0.89990000  0.90170000  0.78840000  1.0 -0.1388939632
C  C67  1  0.12680000  0.60680000  0.18270000  1.0 -0.1125352713
C  C68  1  0.87320000  0.39320000  0.81730000  1.0 -0.1125352713
C  C69  1  0.48960000  0.18900000  0.61140000  1.0 0.0521281795
C  C70  1  0.51040000  0.81100000  0.38860000  1.0 0.0521281795
C  C71  1  0.46980000  0.16080000  0.50300000  1.0 -0.1913943006
C  C72  1  0.53020000  0.83920000  0.49700000  1.0 -0.1913943006
C  C73  1  0.18400000  0.25420000  0.39240000  1.0 -0.1981278671
C  C74  1  0.81600000  0.74580000  0.60760000  1.0 -0.1981278671
C  C75  1  0.49000000  0.11830000  0.57120000  1.0 -0.1271812706
C  C76  1  0.51000000  0.88170000  0.42880000  1.0 -0.1271812706
C  C77  1  0.46620000  0.30350000  0.58110000  1.0 -0.1271812706
C  C78  1  0.53380000  0.69650000  0.41890000  1.0 -0.1271812706
N  N1  1  0.43370000  0.31770000  0.40354000  1.0 -0.1804865513
N  N2  1  0.56630000  0.68230000  0.59646000  1.0 -0.1741000874
O  O1  1  0.64060000  0.22870000  0.07325000  1.0 -0.6324431612
O  O2  1  0.35940000  0.77130000  0.92675000  1.0 -0.6324431612
O  O3  1  0.81090000  0.07790000  0.05880000  1.0 -0.692155601
O  O4  1  0.18910000  0.92210000  0.94120000  1.0 -0.692155601
O  O5  1  0.29310000  0.73780000  0.07313000  1.0 -0.6460524513
O  O6  1  0.70690000  0.26220000  0.92687000  1.0 -0.6460524513
O  O7  1  0.10920000  0.89110000  0.07919000  1.0 -0.7157987071
O  O8  1  0.89080000  0.10890000  0.92081000  1.0 -0.7157987071
O  O9  1  0.55820000  0.93000000  0.92550000  1.0 -0.6403899504
O  O10  1  0.44180000  0.07000000  0.07450000  1.0 -0.6403899504
O  O11  1  0.51470000  0.10840000  0.92766000  1.0 -0.6580055668
O  O12  1  0.48530000  0.89160000  0.07234000  1.0 -0.6580055668
