# DDEC6 charges by PACMAN v1.1 (https://github.com/mtap-research/PACMAN-charge/)
data_CEPCUY_ASR_pacman
_symmetry_space_group_name_H-M   'P 1'
_cell_length_a   12.49260000
_cell_length_b   12.70170000
_cell_length_c   17.97520000
_cell_angle_alpha   97.84400000
_cell_angle_beta   92.73900000
_cell_angle_gamma   114.67700000
_symmetry_Int_Tables_number   1
_chemical_formula_structural   Co3H52C59(N3O4)3
_chemical_formula_sum   'Co6 H104 C118 N18 O24'
_cell_volume   2550.07715492
_cell_formula_units_Z   2
loop_
 _symmetry_equiv_pos_site_id
 _symmetry_equiv_pos_as_xyz
  1  'x, y, z'
loop_
 _atom_site_type_symbol
 _atom_site_label
 _atom_site_symmetry_multiplicity
 _atom_site_fract_x
 _atom_site_fract_y
 _atom_site_fract_z
 _atom_site_occupancy
 _atom_site_charge
Co  Co1  1  0.70023000  0.14617000  0.27214000  1.0 0.8552865311
Co  Co2  1  0.58986000  0.23820000  0.10856000  1.0 0.9022641702
Co  Co3  1  0.70541000  0.97450000  0.42163000  1.0 0.8486963832
Co  Co4  1  0.29977000  0.85383000  0.72786000  1.0 0.8486963832
Co  Co5  1  0.41014000  0.76180000  0.89144000  1.0 0.9022641702
Co  Co6  1  0.29459000  0.02550000  0.57837000  1.0 0.8486963832
H  H1  1  0.76816000  0.96324000  0.16163000  1.0 0.1362122222
H  H2  1  0.64677000  0.05344000  0.98834000  1.0 0.128453416
H  H3  1  0.70407000  0.87996000  0.95607000  1.0 0.128453416
H  H4  1  0.72073000  0.82123000  0.02452000  1.0 0.1200392759
H  H5  1  0.62957000  0.32865000  0.38190000  1.0 0.1111119868
H  H6  1  0.60008000  0.13500000  0.53812000  1.0 0.128453416
H  H7  1  0.50046000  0.27571000  0.55983000  1.0 0.1200392759
H  H8  1  0.47474000  0.32089000  0.48722000  1.0 0.1111119868
H  H9  1  0.80925000  0.85241000  0.63417000  1.0 0.0999529004
H  H10  1  0.81684000  0.81519000  0.71313000  1.0 0.1111119868
H  H11  1  0.00838000  0.94688000  0.58095000  1.0 0.128453416
H  H12  1  0.00936000  0.76324000  0.73901000  1.0 0.128453416
H  H13  1  0.93076000  0.47379000  0.35973000  1.0 0.1200392759
H  H14  1  0.91844000  0.77854000  0.43916000  1.0 0.1200392759
H  H15  1  0.70131000  0.56853000  0.25579000  1.0 0.1200392759
H  H16  1  0.09466000  0.74256000  0.47726000  1.0 0.128453416
H  H17  1  0.08885000  0.61690000  0.45240000  1.0 0.1200392759
H  H18  1  0.01280000  0.63738000  0.51482000  1.0 0.1200392759
H  H19  1  0.50485000  0.85995000  0.14950000  1.0 0.1200392759
H  H20  1  0.41907000  0.09055000  0.34455000  1.0 0.1200392759
H  H21  1  0.89486000  0.80141000  0.99369000  1.0 0.1200392759
H  H22  1  0.90279000  0.11798000  0.01348000  1.0 0.1111119868
H  H23  1  0.74074000  0.47685000  0.49335000  1.0 0.1111119868
H  H24  1  0.85409000  0.66962000  0.55030000  1.0 0.1111119868
H  H25  1  0.63203000  0.64203000  0.69899000  1.0 0.1200392759
H  H26  1  0.51557000  0.44745000  0.64262000  1.0 0.1200392759
H  H27  1  0.33714000  0.70607000  0.31870000  1.0 0.0698230411
H  H28  1  0.19172000  0.57205000  0.10207000  1.0 0.0698230411
H  H29  1  0.16561000  0.47013000  0.25603000  1.0 0.0605650879
H  H30  1  0.07750000  0.49571000  0.20453000  1.0 0.0901523693
H  H31  1  0.12054000  0.56363000  0.28781000  1.0 0.0803975382
H  H32  1  0.09276000  0.83491000  0.32827000  1.0 0.0901523693
H  H33  1  0.24435000  0.91787000  0.14155000  1.0 0.0698230411
H  H34  1  0.97239000  0.77965000  0.18218000  1.0 0.0901523693
H  H35  1  0.02010000  0.68926000  0.20167000  1.0 0.0698230411
H  H36  1  0.05460000  0.74728000  0.12956000  1.0 0.0901523693
H  H37  1  0.63003000  0.51487000  0.45963000  1.0 0.0999529004
H  H38  1  0.74588000  0.70669000  0.51597000  1.0 0.1200392759
H  H39  1  0.76974000  0.59956000  0.71183000  1.0 0.0999529004
H  H40  1  0.64462000  0.41035000  0.65639000  1.0 0.1111119868
H  H41  1  0.30607000  0.75996000  0.31562000  1.0 0.0803975382
H  H42  1  0.16574000  0.63879000  0.10204000  1.0 0.0698230411
H  H43  1  0.10193000  0.54019000  0.25571000  1.0 0.0803975382
H  H44  1  0.03999000  0.58833000  0.20017000  1.0 0.0698230411
H  H45  1  0.09039000  0.65732000  0.28264000  1.0 0.0803975382
H  H46  1  0.06721000  0.88682000  0.33090000  1.0 0.0803975382
H  H47  1  0.21806000  0.98486000  0.14415000  1.0 0.0605650879
H  H48  1  0.02001000  0.79883000  0.13618000  1.0 0.0803975382
H  H49  1  0.97585000  0.89516000  0.16263000  1.0 0.0537605517
H  H50  1  0.95293000  0.79238000  0.20815000  1.0 0.0901523693
H  H51  1  0.92148000  0.87765000  0.08553000  1.0 0.0901523693
H  H52  1  0.87386000  0.01322000  0.90768000  1.0 0.0901523693
H  H53  1  0.23184000  0.03676000  0.83837000  1.0 0.1362122222
H  H54  1  0.35323000  0.94656000  0.01166000  1.0 0.128453416
H  H55  1  0.29593000  0.12004000  0.04393000  1.0 0.128453416
H  H56  1  0.27927000  0.17877000  0.97548000  1.0 0.1200392759
H  H57  1  0.37043000  0.67135000  0.61810000  1.0 0.1111119868
H  H58  1  0.39992000  0.86500000  0.46188000  1.0 0.128453416
H  H59  1  0.49954000  0.72429000  0.44017000  1.0 0.1200392759
H  H60  1  0.52526000  0.67911000  0.51278000  1.0 0.1111119868
H  H61  1  0.19075000  0.14759000  0.36583000  1.0 0.0999529004
H  H62  1  0.18316000  0.18481000  0.28687000  1.0 0.1111119868
H  H63  1  0.99162000  0.05312000  0.41905000  1.0 0.128453416
H  H64  1  0.99064000  0.23676000  0.26099000  1.0 0.128453416
H  H65  1  0.06924000  0.52621000  0.64027000  1.0 0.1200392759
H  H66  1  0.08156000  0.22146000  0.56084000  1.0 0.1200392759
H  H67  1  0.29869000  0.43147000  0.74421000  1.0 0.1200392759
H  H68  1  0.90534000  0.25744000  0.52274000  1.0 0.128453416
H  H69  1  0.91115000  0.38310000  0.54760000  1.0 0.1200392759
H  H70  1  0.98720000  0.36262000  0.48518000  1.0 0.1200392759
H  H71  1  0.49515000  0.14005000  0.85050000  1.0 0.1200392759
H  H72  1  0.58093000  0.90945000  0.65545000  1.0 0.1200392759
H  H73  1  0.10514000  0.19859000  0.00631000  1.0 0.1200392759
H  H74  1  0.09721000  0.88202000  0.98652000  1.0 0.1111119868
H  H75  1  0.25926000  0.52315000  0.50665000  1.0 0.1111119868
H  H76  1  0.14591000  0.33038000  0.44970000  1.0 0.1111119868
H  H77  1  0.36797000  0.35797000  0.30101000  1.0 0.1200392759
H  H78  1  0.48443000  0.55255000  0.35738000  1.0 0.1200392759
H  H79  1  0.66286000  0.29393000  0.68130000  1.0 0.0698230411
H  H80  1  0.80828000  0.42795000  0.89793000  1.0 0.0698230411
H  H81  1  0.83439000  0.52987000  0.74397000  1.0 0.0605650879
H  H82  1  0.92250000  0.50429000  0.79547000  1.0 0.0901523693
H  H83  1  0.87946000  0.43637000  0.71219000  1.0 0.0803975382
H  H84  1  0.90724000  0.16509000  0.67173000  1.0 0.0901523693
H  H85  1  0.75565000  0.08213000  0.85845000  1.0 0.0698230411
H  H86  1  0.02761000  0.22035000  0.81782000  1.0 0.0901523693
H  H87  1  0.97990000  0.31074000  0.79833000  1.0 0.0698230411
H  H88  1  0.94540000  0.25272000  0.87044000  1.0 0.0901523693
H  H89  1  0.36997000  0.48513000  0.54037000  1.0 0.0999529004
H  H90  1  0.25412000  0.29331000  0.48403000  1.0 0.1200392759
H  H91  1  0.23026000  0.40044000  0.28817000  1.0 0.0999529004
H  H92  1  0.35538000  0.58965000  0.34361000  1.0 0.1111119868
H  H93  1  0.69393000  0.24004000  0.68438000  1.0 0.0803975382
H  H94  1  0.83426000  0.36121000  0.89796000  1.0 0.0698230411
H  H95  1  0.89807000  0.45981000  0.74429000  1.0 0.0803975382
H  H96  1  0.96001000  0.41167000  0.79983000  1.0 0.0698230411
H  H97  1  0.90961000  0.34268000  0.71736000  1.0 0.0803975382
H  H98  1  0.93279000  0.11318000  0.66910000  1.0 0.0803975382
H  H99  1  0.78194000  0.01514000  0.85585000  1.0 0.0605650879
H  H100  1  0.97999000  0.20117000  0.86382000  1.0 0.0803975382
H  H101  1  0.02415000  0.10484000  0.83737000  1.0 0.0537605517
H  H102  1  0.04707000  0.20762000  0.79185000  1.0 0.0901523693
H  H103  1  0.07852000  0.12235000  0.91447000  1.0 0.0901523693
H  H104  1  0.12614000  0.98678000  0.09232000  1.0 0.0901523693
C  C1  1  0.73710000  0.00130000  0.13248000  1.0 0.0999529004
C  C2  1  0.67080000  0.05070000  0.03753000  1.0 0.0999529004
C  C3  1  0.74520000  0.89540000  0.00630000  1.0 -0.2142508502
C  C4  1  0.87710000  0.94890000  0.00296000  1.0 0.0698230411
C  C5  1  0.63300000  0.27180000  0.40827000  1.0 0.0999529004
C  C6  1  0.61740000  0.16610000  0.49393000  1.0 0.0999529004
C  C7  1  0.53730000  0.31950000  0.52060000  1.0 -0.2485923992
C  C8  1  0.61860000  0.44310000  0.55660000  1.0 0.0537605517
C  C9  1  0.75950000  0.67520000  0.62580000  1.0 0.0605650879
C  C10  1  0.83320000  0.80330000  0.66120000  1.0 -0.2594517098
C  C11  1  0.03330000  0.91270000  0.61660000  1.0 0.0901523693
C  C12  1  0.03370000  0.81210000  0.70310000  1.0 0.0385531409
C  C13  1  0.76450000  0.39170000  0.24259000  1.0 0.5753577276
C  C14  1  0.81080000  0.50460000  0.29919000  1.0 -0.0093733775
C  C15  1  0.89980000  0.52830000  0.35636000  1.0 -0.2403679193
C  C16  1  0.94410000  0.63220000  0.40914000  1.0 0.1200392759
C  C17  1  0.89110000  0.70920000  0.40422000  1.0 -0.2403679193
C  C18  1  0.79960000  0.68490000  0.34899000  1.0 -0.0270612874
C  C19  1  0.76030000  0.58360000  0.29464000  1.0 -0.1382460968
C  C20  1  0.04400000  0.65970000  0.46870000  1.0 -0.4793745057
C  C21  1  0.73870000  0.76610000  0.34670000  1.0 0.5531003101
C  C22  1  0.53170000  0.89020000  0.29944000  1.0 0.5531003101
C  C23  1  0.42970000  0.80790000  0.24233000  1.0 -0.0014652699
C  C24  1  0.34390000  0.72840000  0.11340000  1.0 -0.0093733775
C  C25  1  0.43660000  0.80690000  0.16587000  1.0 -0.230496511
C  C26  1  0.35120000  0.72790000  0.03020000  1.0 0.5188955589
C  C27  1  0.25540000  0.99620000  0.43446000  1.0 0.510516934
C  C28  1  0.24990000  0.97670000  0.34913000  1.0 -0.0205167761
C  C29  1  0.34160000  0.02890000  0.23647000  1.0 -0.0205167761
C  C30  1  0.34820000  0.04010000  0.31497000  1.0 -0.2485923992
C  C31  1  0.44440000  0.10250000  0.19932000  1.0 0.5418211444
C  C32  1  0.93610000  0.88220000  0.99610000  1.0 -0.0517582824
C  C33  1  0.94140000  0.06910000  0.00770000  1.0 -0.0776586795
C  C34  1  0.71450000  0.50780000  0.53470000  1.0 -0.0205167761
C  C35  1  0.78490000  0.62660000  0.57030000  1.0 -0.0205167761
C  C36  1  0.65390000  0.60850000  0.65660000  1.0 -0.0875827597
C  C37  1  0.58410000  0.49260000  0.62270000  1.0 -0.0707018438
C  C38  1  0.33650000  0.71060000  0.26750000  1.0 -0.0517582824
C  C39  1  0.24690000  0.62480000  0.21660000  1.0 0.0803975382
C  C40  1  0.24990000  0.63080000  0.13760000  1.0 -0.0389044211
C  C41  1  0.14320000  0.52990000  0.24370000  1.0 -0.2403679193
C  C42  1  0.15460000  0.88350000  0.30450000  1.0 -0.0517582824
C  C43  1  0.14740000  0.86010000  0.22750000  1.0 0.0698230411
C  C44  1  0.24470000  0.93340000  0.19370000  1.0 -0.0614177526
C  C45  1  0.03850000  0.75980000  0.18090000  1.0 -0.2594517098
C  C46  1  0.65380000  0.53330000  0.51140000  1.0 -0.0707018438
C  C47  1  0.72260000  0.64720000  0.54490000  1.0 -0.0517582824
C  C48  1  0.73620000  0.58530000  0.66210000  1.0 -0.0517582824
C  C49  1  0.66280000  0.47000000  0.62780000  1.0 -0.0517582824
C  C50  1  0.31610000  0.74980000  0.26460000  1.0 -0.0614177526
C  C51  1  0.22040000  0.67910000  0.21350000  1.0 0.0698230411
C  C52  1  0.23270000  0.67610000  0.13750000  1.0 -0.0707018438
C  C53  1  0.10240000  0.60990000  0.24050000  1.0 -0.2403679193
C  C54  1  0.13450000  0.92060000  0.30670000  1.0 -0.0517582824
C  C55  1  0.12400000  0.91710000  0.22790000  1.0 0.0698230411
C  C56  1  0.22550000  0.97750000  0.19470000  1.0 -0.0517582824
C  C57  1  0.00770000  0.84430000  0.17930000  1.0 -0.2485923992
C  C58  1  0.95270000  0.93020000  0.05240000  1.0 -0.0517582824
C  C59  1  0.92390000  0.01060000  0.94660000  1.0 -0.0988167525
C  C60  1  0.26290000  0.99870000  0.86752000  1.0 0.0999529004
C  C61  1  0.32920000  0.94930000  0.96247000  1.0 0.0999529004
C  C62  1  0.25480000  0.10460000  0.99370000  1.0 -0.220666739
C  C63  1  0.12290000  0.05110000  0.99704000  1.0 0.0698230411
C  C64  1  0.36700000  0.72820000  0.59173000  1.0 0.0999529004
C  C65  1  0.38260000  0.83390000  0.50607000  1.0 0.0999529004
C  C66  1  0.46270000  0.68050000  0.47940000  1.0 -0.2485923992
C  C67  1  0.38140000  0.55690000  0.44340000  1.0 0.0537605517
C  C68  1  0.24050000  0.32480000  0.37420000  1.0 0.0605650879
C  C69  1  0.16680000  0.19670000  0.33880000  1.0 -0.2594517098
C  C70  1  0.96670000  0.08730000  0.38340000  1.0 0.0901523693
C  C71  1  0.96630000  0.18790000  0.29690000  1.0 0.0385531409
C  C72  1  0.23550000  0.60830000  0.75741000  1.0 0.5753577276
C  C73  1  0.18920000  0.49540000  0.70081000  1.0 -0.0093733775
C  C74  1  0.10020000  0.47170000  0.64364000  1.0 -0.2403679193
C  C75  1  0.05590000  0.36780000  0.59086000  1.0 0.1200392759
C  C76  1  0.10890000  0.29080000  0.59578000  1.0 -0.2403679193
C  C77  1  0.20040000  0.31510000  0.65101000  1.0 -0.0270612874
C  C78  1  0.23970000  0.41640000  0.70536000  1.0 -0.1382460968
C  C79  1  0.95600000  0.34030000  0.53130000  1.0 -0.4793745057
C  C80  1  0.26130000  0.23390000  0.65330000  1.0 0.5531003101
C  C81  1  0.46830000  0.10980000  0.70056000  1.0 0.5531003101
C  C82  1  0.57030000  0.19210000  0.75767000  1.0 -0.0014652699
C  C83  1  0.65610000  0.27160000  0.88660000  1.0 -0.0093733775
C  C84  1  0.56340000  0.19310000  0.83413000  1.0 -0.230496511
C  C85  1  0.64880000  0.27210000  0.96980000  1.0 0.5188955589
C  C86  1  0.74460000  0.00380000  0.56554000  1.0 0.510516934
C  C87  1  0.75010000  0.02330000  0.65087000  1.0 -0.0205167761
C  C88  1  0.65840000  0.97110000  0.76353000  1.0 -0.0205167761
C  C89  1  0.65180000  0.95990000  0.68503000  1.0 -0.2485923992
C  C90  1  0.55560000  0.89750000  0.80068000  1.0 0.5418211444
C  C91  1  0.06390000  0.11780000  0.00390000  1.0 -0.0614177526
C  C92  1  0.05860000  0.93090000  0.99230000  1.0 -0.0776586795
C  C93  1  0.28550000  0.49220000  0.46530000  1.0 -0.0205167761
C  C94  1  0.21510000  0.37340000  0.42970000  1.0 -0.0205167761
C  C95  1  0.34610000  0.39150000  0.34340000  1.0 -0.0875827597
C  C96  1  0.41590000  0.50740000  0.37730000  1.0 -0.0707018438
C  C97  1  0.66350000  0.28940000  0.73250000  1.0 -0.0517582824
C  C98  1  0.75310000  0.37520000  0.78340000  1.0 0.0803975382
C  C99  1  0.75010000  0.36920000  0.86240000  1.0 -0.0389044211
C  C100  1  0.85680000  0.47010000  0.75630000  1.0 -0.2403679193
C  C101  1  0.84540000  0.11650000  0.69550000  1.0 -0.0517582824
C  C102  1  0.85260000  0.13990000  0.77250000  1.0 0.0698230411
C  C103  1  0.75530000  0.06660000  0.80630000  1.0 -0.0614177526
C  C104  1  0.96150000  0.24020000  0.81910000  1.0 -0.2594517098
C  C105  1  0.34620000  0.46670000  0.48860000  1.0 -0.0707018438
C  C106  1  0.27740000  0.35280000  0.45510000  1.0 -0.0517582824
C  C107  1  0.26380000  0.41470000  0.33790000  1.0 -0.0517582824
C  C108  1  0.33720000  0.53000000  0.37220000  1.0 -0.0517582824
C  C109  1  0.68390000  0.25020000  0.73540000  1.0 -0.0614177526
C  C110  1  0.77960000  0.32090000  0.78650000  1.0 0.0698230411
C  C111  1  0.76730000  0.32390000  0.86250000  1.0 -0.0707018438
C  C112  1  0.89760000  0.39010000  0.75950000  1.0 -0.2403679193
C  C113  1  0.86550000  0.07940000  0.69330000  1.0 -0.0517582824
C  C114  1  0.87600000  0.08290000  0.77210000  1.0 0.0698230411
C  C115  1  0.77450000  0.02250000  0.80530000  1.0 -0.0517582824
C  C116  1  0.99230000  0.15570000  0.82070000  1.0 -0.2485923992
C  C117  1  0.04730000  0.06980000  0.94760000  1.0 -0.0517582824
C  C118  1  0.07610000  0.98940000  0.05340000  1.0 -0.0988167525
N  N1  1  0.71000000  0.08660000  0.15934000  1.0 -0.1986005083
N  N2  1  0.66770000  0.11930000  0.09880000  1.0 -0.2142508502
N  N3  1  0.71400000  0.97630000  0.05715000  1.0 0.0244355257
N  N4  1  0.67280000  0.19560000  0.38364000  1.0 -0.1986005083
N  N5  1  0.66460000  0.12780000  0.43898000  1.0 -0.220666739
N  N6  1  0.59760000  0.25740000  0.47695000  1.0 0.0114260687
N  N7  1  0.14270000  0.92710000  0.63140000  1.0 -0.1986005083
N  N8  1  0.14280000  0.86260000  0.68676000  1.0 -0.230496511
N  N9  1  0.96140000  0.84100000  0.66043000  1.0 -0.0093733775
N  N10  1  0.29000000  0.91340000  0.84066000  1.0 -0.1986005083
N  N11  1  0.33230000  0.88070000  0.90120000  1.0 -0.2142508502
N  N12  1  0.28600000  0.02370000  0.94285000  1.0 0.0244355257
N  N13  1  0.32720000  0.80440000  0.61636000  1.0 -0.1986005083
N  N14  1  0.33540000  0.87220000  0.56102000  1.0 -0.220666739
N  N15  1  0.40240000  0.74260000  0.52305000  1.0 0.0114260687
N  N16  1  0.85730000  0.07290000  0.36860000  1.0 -0.1986005083
N  N17  1  0.85720000  0.13740000  0.31324000  1.0 -0.230496511
N  N18  1  0.03860000  0.15900000  0.33957000  1.0 -0.0093733775
O  O1  1  0.79780000  0.31522000  0.25789000  1.0 -0.5770269112
O  O2  1  0.69740000  0.38163000  0.18545000  1.0 -0.5504711048
O  O3  1  0.75420000  0.83756000  0.40710000  1.0 -0.5770269112
O  O4  1  0.67940000  0.75840000  0.28722000  1.0 -0.5504711048
O  O5  1  0.61350000  0.97163000  0.27723000  1.0 -0.5306194004
O  O6  1  0.53290000  0.87411000  0.36674000  1.0 -0.512643762
O  O7  1  0.44790000  0.79360000  0.00887000  1.0 -0.5504711048
O  O8  1  0.26530000  0.66330000  0.98293000  1.0 -0.5198037104
O  O9  1  0.16130000  0.95630000  0.46487000  1.0 -0.5306194004
O  O10  1  0.35480000  0.05150000  0.47268000  1.0 -0.4860845582
O  O11  1  0.54210000  0.16420000  0.23851000  1.0 -0.5504711048
O  O12  1  0.43060000  0.10530000  0.13014000  1.0 -0.5306194004
O  O13  1  0.20220000  0.68478000  0.74211000  1.0 -0.5770269112
O  O14  1  0.30260000  0.61837000  0.81455000  1.0 -0.5504711048
O  O15  1  0.24580000  0.16244000  0.59290000  1.0 -0.5770269112
O  O16  1  0.32060000  0.24160000  0.71278000  1.0 -0.5504711048
O  O17  1  0.38650000  0.02837000  0.72277000  1.0 -0.5306194004
O  O18  1  0.46710000  0.12589000  0.63326000  1.0 -0.512643762
O  O19  1  0.55210000  0.20640000  0.99113000  1.0 -0.5504711048
O  O20  1  0.73470000  0.33670000  0.01707000  1.0 -0.5198037104
O  O21  1  0.83870000  0.04370000  0.53513000  1.0 -0.5306194004
O  O22  1  0.64520000  0.94850000  0.52732000  1.0 -0.4860845582
O  O23  1  0.45790000  0.83580000  0.76149000  1.0 -0.5504711048
O  O24  1  0.56940000  0.89470000  0.86986000  1.0 -0.5306194004
