# DDEC6 charges by PACMAN v1.1 (https://github.com/mtap-research/PACMAN-charge/)
data_CEPDIN_ASR_pacman
_symmetry_space_group_name_H-M   'P 1'
_cell_length_a   10.38170000
_cell_length_b   20.65400000
_cell_length_c   13.41700000
_cell_angle_alpha   90.00000000
_cell_angle_beta   128.73000000
_cell_angle_gamma   90.00000000
_symmetry_Int_Tables_number   1
_chemical_formula_structural   Zn2H10C15N3O8
_chemical_formula_sum   'Zn8 H40 C60 N12 O32'
_cell_volume   2244.29516148
_cell_formula_units_Z   4
loop_
 _symmetry_equiv_pos_site_id
 _symmetry_equiv_pos_as_xyz
  1  'x, y, z'
loop_
 _atom_site_type_symbol
 _atom_site_label
 _atom_site_symmetry_multiplicity
 _atom_site_fract_x
 _atom_site_fract_y
 _atom_site_fract_z
 _atom_site_occupancy
 _atom_site_charge
Zn  Zn1  1  0.70988000  0.61497000  0.14288000  1.0 0.8682224997
Zn  Zn2  1  0.35515000  0.55161000  0.93679000  1.0 0.9125133999
Zn  Zn3  1  0.29012000  0.11497000  0.35712000  1.0 0.8682224997
Zn  Zn4  1  0.64485000  0.05161000  0.56321000  1.0 0.9125133999
Zn  Zn5  1  0.29012000  0.38503000  0.85712000  1.0 0.8682224997
Zn  Zn6  1  0.64485000  0.44839000  0.06321000  1.0 0.9125133999
Zn  Zn7  1  0.70988000  0.88503000  0.64288000  1.0 0.8682224997
Zn  Zn8  1  0.35515000  0.94839000  0.43679000  1.0 0.9125133999
H  H1  1  0.85387000  0.58421000  0.44907000  1.0 0.1290871121
H  H2  1  0.71877000  0.40457000  0.34099000  1.0 0.1290871121
H  H3  1  0.84876000  0.43254000  0.58209000  1.0 0.1219657403
H  H4  1  0.89758000  0.50529000  0.62313000  1.0 0.1219657403
H  H5  1  0.57926000  0.39580000  0.50220000  1.0 0.1219657403
H  H6  1  0.32694000  0.41516000  0.45175000  1.0 0.1290871121
H  H7  1  0.55334000  0.76618000  0.82923000  1.0 0.1290871121
H  H8  1  0.20083000  0.90226000  0.64008000  1.0 0.1219657403
H  H9  1  0.15679000  0.75760000  0.81608000  1.0 0.1290871121
H  H10  1  0.61700000  0.54860000  0.95700000  1.0 0.3745644339
H  H11  1  0.14613000  0.08421000  0.05093000  1.0 0.1290871121
H  H12  1  0.28123000  0.90457000  0.15901000  1.0 0.1290871121
H  H13  1  0.15124000  0.93254000  0.91791000  1.0 0.1219657403
H  H14  1  0.10242000  0.00529000  0.87687000  1.0 0.1219657403
H  H15  1  0.42074000  0.89580000  0.99780000  1.0 0.1219657403
H  H16  1  0.67306000  0.91516000  0.04825000  1.0 0.1290871121
H  H17  1  0.44666000  0.26618000  0.67077000  1.0 0.1290871121
H  H18  1  0.79917000  0.40226000  0.85992000  1.0 0.1219657403
H  H19  1  0.84321000  0.25760000  0.68392000  1.0 0.1290871121
H  H20  1  0.38300000  0.04860000  0.54300000  1.0 0.3745644339
H  H21  1  0.14613000  0.41579000  0.55093000  1.0 0.1290871121
H  H22  1  0.28123000  0.59543000  0.65901000  1.0 0.1290871121
H  H23  1  0.15124000  0.56746000  0.41791000  1.0 0.1219657403
H  H24  1  0.10242000  0.49471000  0.37687000  1.0 0.1219657403
H  H25  1  0.42074000  0.60420000  0.49780000  1.0 0.1219657403
H  H26  1  0.67306000  0.58484000  0.54825000  1.0 0.1290871121
H  H27  1  0.44666000  0.23382000  0.17077000  1.0 0.1290871121
H  H28  1  0.79917000  0.09774000  0.35992000  1.0 0.1219657403
H  H29  1  0.84321000  0.24240000  0.18392000  1.0 0.1290871121
H  H30  1  0.38300000  0.45140000  0.04300000  1.0 0.3745644339
H  H31  1  0.85387000  0.91579000  0.94907000  1.0 0.1290871121
H  H32  1  0.71877000  0.09543000  0.84099000  1.0 0.1290871121
H  H33  1  0.84876000  0.06746000  0.08209000  1.0 0.1219657403
H  H34  1  0.89758000  0.99471000  0.12313000  1.0 0.1219657403
H  H35  1  0.57926000  0.10420000  0.00220000  1.0 0.1219657403
H  H36  1  0.32694000  0.08484000  0.95175000  1.0 0.1290871121
H  H37  1  0.55334000  0.73382000  0.32923000  1.0 0.1290871121
H  H38  1  0.20083000  0.59774000  0.14008000  1.0 0.1219657403
H  H39  1  0.15679000  0.74240000  0.31608000  1.0 0.1290871121
H  H40  1  0.61700000  0.95140000  0.45700000  1.0 0.3745644339
C  C1  1  0.81880000  0.54623000  0.40150000  1.0 0.0771301709
C  C2  1  0.74470000  0.44781000  0.34230000  1.0 0.0879932152
C  C3  1  0.81400000  0.47700000  0.55470000  1.0 -0.1816190756
C  C4  1  0.65070000  0.48860000  0.52740000  1.0 0.0879932152
C  C5  1  0.54730000  0.43810000  0.50070000  1.0 -0.1499550692
C  C6  1  0.39720000  0.44960000  0.47200000  1.0 -0.1499550692
C  C7  1  0.42900000  0.69004000  0.90820000  1.0 0.5843168743
C  C8  1  0.36430000  0.75194000  0.83360000  1.0 -0.0192927304
C  C9  1  0.45210000  0.78278000  0.80060000  1.0 -0.1284066937
C  C10  1  0.38970000  0.83810000  0.72530000  1.0 -0.0114781692
C  C11  1  0.24210000  0.86465000  0.68890000  1.0 -0.1499550692
C  C12  1  0.15640000  0.83548000  0.72470000  1.0 -0.0604926697
C  C13  1  0.21630000  0.77830000  0.79490000  1.0 -0.1186127223
C  C14  1  0.47600000  0.86816000  0.67920000  1.0 0.5742870815
C  C15  1  0.99850000  0.86606000  0.68280000  1.0 0.4349318393
C  C16  1  0.18120000  0.04623000  0.09850000  1.0 0.0771301709
C  C17  1  0.25530000  0.94781000  0.15770000  1.0 0.0879932152
C  C18  1  0.18600000  0.97700000  0.94530000  1.0 -0.1816190756
C  C19  1  0.34930000  0.98860000  0.97260000  1.0 0.0879932152
C  C20  1  0.45270000  0.93810000  0.99930000  1.0 -0.1499550692
C  C21  1  0.60280000  0.94960000  0.02800000  1.0 -0.1499550692
C  C22  1  0.57100000  0.19004000  0.59180000  1.0 0.5843168743
C  C23  1  0.63570000  0.25194000  0.66640000  1.0 -0.0192927304
C  C24  1  0.54790000  0.28278000  0.69940000  1.0 -0.1284066937
C  C25  1  0.61030000  0.33810000  0.77470000  1.0 -0.0114781692
C  C26  1  0.75790000  0.36465000  0.81110000  1.0 -0.1499550692
C  C27  1  0.84360000  0.33548000  0.77530000  1.0 -0.0604926697
C  C28  1  0.78370000  0.27830000  0.70510000  1.0 -0.1186127223
C  C29  1  0.52400000  0.36816000  0.82080000  1.0 0.5742870815
C  C30  1  0.00150000  0.36606000  0.81720000  1.0 0.4355463632
C  C31  1  0.18120000  0.45377000  0.59850000  1.0 0.0771301709
C  C32  1  0.25530000  0.55219000  0.65770000  1.0 0.0879932152
C  C33  1  0.18600000  0.52300000  0.44530000  1.0 -0.1816190756
C  C34  1  0.34930000  0.51140000  0.47260000  1.0 0.0879932152
C  C35  1  0.45270000  0.56190000  0.49930000  1.0 -0.1499550692
C  C36  1  0.60280000  0.55040000  0.52800000  1.0 -0.1499550692
C  C37  1  0.57100000  0.30996000  0.09180000  1.0 0.5843168743
C  C38  1  0.63570000  0.24806000  0.16640000  1.0 -0.0192927304
C  C39  1  0.54790000  0.21722000  0.19940000  1.0 -0.1284066937
C  C40  1  0.61030000  0.16190000  0.27470000  1.0 -0.0114781692
C  C41  1  0.75790000  0.13535000  0.31110000  1.0 -0.1499550692
C  C42  1  0.84360000  0.16452000  0.27530000  1.0 -0.0604926697
C  C43  1  0.78370000  0.22170000  0.20510000  1.0 -0.1186127223
C  C44  1  0.52400000  0.13184000  0.32080000  1.0 0.5742870815
C  C45  1  0.00150000  0.13394000  0.31720000  1.0 0.4355463632
C  C46  1  0.81880000  0.95377000  0.90150000  1.0 0.0771301709
C  C47  1  0.74470000  0.05219000  0.84230000  1.0 0.0879932152
C  C48  1  0.81400000  0.02300000  0.05470000  1.0 -0.1816190756
C  C49  1  0.65070000  0.01140000  0.02740000  1.0 0.0879932152
C  C50  1  0.54730000  0.06190000  0.00070000  1.0 -0.1499550692
C  C51  1  0.39720000  0.05040000  0.97200000  1.0 -0.1499550692
C  C52  1  0.42900000  0.80996000  0.40820000  1.0 0.5843168743
C  C53  1  0.36430000  0.74806000  0.33360000  1.0 -0.0192927304
C  C54  1  0.45210000  0.71722000  0.30060000  1.0 -0.1284066937
C  C55  1  0.38970000  0.66190000  0.22530000  1.0 -0.0114781692
C  C56  1  0.24210000  0.63535000  0.18890000  1.0 -0.1499550692
C  C57  1  0.15640000  0.66452000  0.22470000  1.0 -0.0604926697
C  C58  1  0.21630000  0.72170000  0.29490000  1.0 -0.1186127223
C  C59  1  0.47600000  0.63184000  0.17920000  1.0 0.5742870815
C  C60  1  0.99850000  0.63394000  0.18280000  1.0 0.4349318393
N  N1  1  0.78330000  0.54075000  0.28870000  1.0 -0.2064996339
N  N2  1  0.73590000  0.47701000  0.25150000  1.0 -0.2064996339
N  N3  1  0.79710000  0.48966000  0.43800000  1.0 0.0137089812
N  N4  1  0.21670000  0.04075000  0.21130000  1.0 -0.2064996339
N  N5  1  0.26410000  0.97701000  0.24850000  1.0 -0.2064996339
N  N6  1  0.20290000  0.98966000  0.06200000  1.0 0.0137089812
N  N7  1  0.21670000  0.45925000  0.71130000  1.0 -0.2064996339
N  N8  1  0.26410000  0.52299000  0.74850000  1.0 -0.2064996339
N  N9  1  0.20290000  0.51034000  0.56200000  1.0 0.0137089812
N  N10  1  0.78330000  0.95925000  0.78870000  1.0 -0.2064996339
N  N11  1  0.73590000  0.02299000  0.75150000  1.0 -0.2064996339
N  N12  1  0.79710000  0.01034000  0.93800000  1.0 0.0137089812
O  O1  1  0.58360000  0.68404000  0.98950000  1.0 -0.550395479
O  O2  1  0.32360000  0.64818000  0.88170000  1.0 -0.5781449131
O  O3  1  0.41890000  0.91959000  0.61680000  1.0 -0.5781449131
O  O4  1  0.60190000  0.83902000  0.70680000  1.0 -0.5316515319
O  O5  1  0.92910000  0.84365000  0.72670000  1.0 -0.5213978789
O  O6  1  0.92930000  0.90590000  0.59200000  1.0 -0.0522824
O  O7  1  0.60334000  0.54532000  0.01400000  1.0 -0.8402311407
O  O8  1  0.96070000  0.92000000  0.63100000  1.0 -0.1186127223
O  O9  1  0.41640000  0.18404000  0.51050000  1.0 -0.550395479
O  O10  1  0.67640000  0.14818000  0.61830000  1.0 -0.5781449131
O  O11  1  0.58110000  0.41959000  0.88320000  1.0 -0.5781449131
O  O12  1  0.39810000  0.33902000  0.79320000  1.0 -0.5316515319
O  O13  1  0.07090000  0.34365000  0.77330000  1.0 -0.5213978789
O  O14  1  0.07070000  0.40590000  0.90800000  1.0 -0.0522824
O  O15  1  0.39666000  0.04532000  0.48600000  1.0 -0.8402311407
O  O16  1  0.03930000  0.42000000  0.86900000  1.0 -0.1127993616
O  O17  1  0.41640000  0.31596000  0.01050000  1.0 -0.550395479
O  O18  1  0.67640000  0.35182000  0.11830000  1.0 -0.5781449131
O  O19  1  0.58110000  0.08041000  0.38320000  1.0 -0.5781449131
O  O20  1  0.39810000  0.16098000  0.29320000  1.0 -0.5316515319
O  O21  1  0.07090000  0.15635000  0.27330000  1.0 -0.5213978789
O  O22  1  0.07070000  0.09410000  0.40800000  1.0 -0.0522824
O  O23  1  0.39666000  0.45468000  0.98600000  1.0 -0.8402311407
O  O24  1  0.03930000  0.08000000  0.36900000  1.0 -0.1127993616
O  O25  1  0.58360000  0.81596000  0.48950000  1.0 -0.550395479
O  O26  1  0.32360000  0.85182000  0.38170000  1.0 -0.5781449131
O  O27  1  0.41890000  0.58041000  0.11680000  1.0 -0.5781449131
O  O28  1  0.60190000  0.66098000  0.20680000  1.0 -0.5316515319
O  O29  1  0.92910000  0.65635000  0.22670000  1.0 -0.5213978789
O  O30  1  0.92930000  0.59410000  0.09200000  1.0 -0.0522824
O  O31  1  0.60334000  0.95468000  0.51400000  1.0 -0.8402311407
O  O32  1  0.96070000  0.58000000  0.13100000  1.0 -0.1127993616
