# DDEC6 charges by PACMAN v1.1 (https://github.com/mtap-research/PACMAN-charge/)
data_CEPYIJ_FSR_pacman
_symmetry_space_group_name_H-M   'P 1'
_cell_length_a   12.40300000
_cell_length_b   19.15300000
_cell_length_c   20.73400000
_cell_angle_alpha   85.91300000
_cell_angle_beta   77.44100000
_cell_angle_gamma   72.70900000
_symmetry_Int_Tables_number   1
_chemical_formula_structural   Cd2H83C84(N2O9)2
_chemical_formula_sum   'Cd4 H166 C168 N8 O36'
_cell_volume   4590.22070988
_cell_formula_units_Z   2
loop_
 _symmetry_equiv_pos_site_id
 _symmetry_equiv_pos_as_xyz
  1  'x, y, z'
loop_
 _atom_site_type_symbol
 _atom_site_label
 _atom_site_symmetry_multiplicity
 _atom_site_fract_x
 _atom_site_fract_y
 _atom_site_fract_z
 _atom_site_occupancy
 _atom_site_charge
Cd  Cd1  1  0.44632000  0.00467000  0.26519000  1.0 0.9238001797
Cd  Cd2  1  0.37388000  0.21173000  0.26209000  1.0 1.0211649034
Cd  Cd3  1  0.55368000  0.99533000  0.73481000  1.0 0.9238001797
Cd  Cd4  1  0.62612000  0.78827000  0.73791000  1.0 1.0211649034
H  H1  1  0.25780000  0.42310000  0.45830000  1.0 0.1301014179
H  H2  1  0.13500000  0.45390000  0.44150000  1.0 0.1207736923
H  H3  1  0.19450000  0.36940000  0.44100000  1.0 0.1301014179
H  H4  1  0.99750000  0.39140000  0.45530000  1.0 0.1301014179
H  H5  1  0.84370000  0.38030000  0.67830000  1.0 0.1207736923
H  H6  1  0.89490000  0.36290000  0.39010000  1.0 0.1207736923
H  H7  1  0.80090000  0.43820000  0.40990000  1.0 0.1207736923
H  H8  1  0.84620000  0.31670000  0.30010000  1.0 0.1207736923
H  H9  1  0.72320000  0.27300000  0.25740000  1.0 0.1113852589
H  H10  1  0.46710000  0.36430000  0.40520000  1.0 0.1207736923
H  H11  1  0.59170000  0.40330000  0.44890000  1.0 0.1384939443
H  H12  1  0.13490000  0.37620000  0.64290000  1.0 0.1004930738
H  H13  1  0.04390000  0.50560000  0.63700000  1.0 0.0803396748
H  H14  1  0.96480000  0.49960000  0.70600000  1.0 0.0881757578
H  H15  1  0.11880000  0.53900000  0.72020000  1.0 0.1113852589
H  H16  1  0.20700000  0.46880000  0.68500000  1.0 0.1207736923
H  H17  1  0.12820000  0.46210000  0.75400000  1.0 0.1207736923
H  H18  1  0.07130000  0.18210000  0.77370000  1.0 0.1301014179
H  H19  1  0.95080000  0.43260000  0.79320000  1.0 0.1207736923
H  H20  1  0.97270000  0.13100000  0.93460000  1.0 0.1301014179
H  H21  1  0.06960000  0.12690000  0.87110000  1.0 0.1207736923
H  H22  1  0.94110000  0.14160000  0.86460000  1.0 0.1113852589
H  H23  1  0.99460000  0.23260000  0.62870000  1.0 0.1113852589
H  H24  1  0.05870000  0.16330000  0.66560000  1.0 0.1004930738
H  H25  1  0.19320000  0.26030000  0.53500000  1.0 0.1113852589
H  H26  1  0.29230000  0.21250000  0.43200000  1.0 0.1301014179
H  H27  1  0.22070000  0.02440000  0.48240000  1.0 0.1207736923
H  H28  1  0.12100000  0.07190000  0.58500000  1.0 0.1113852589
H  H29  1  0.94000000  0.33760000  0.94500000  1.0 0.1004930738
H  H30  1  0.90290000  0.47910000  0.88970000  1.0 0.0803396748
H  H31  1  0.88060000  0.46540000  0.96630000  1.0 0.0881757578
H  H32  1  0.06390000  0.48170000  0.92990000  1.0 0.1207736923
H  H33  1  0.09950000  0.41550000  0.88160000  1.0 0.1207736923
H  H34  1  0.07710000  0.40220000  0.95820000  1.0 0.1301014179
H  H35  1  0.73810000  0.38170000  0.84280000  1.0 0.1207736923
H  H36  1  0.57110000  0.39140000  0.06480000  1.0 0.1301014179
H  H37  1  0.28710000  0.41060000  0.06140000  1.0 0.1301014179
H  H38  1  0.37350000  0.45120000  0.07340000  1.0 0.1207736923
H  H39  1  0.40220000  0.36620000  0.08270000  1.0 0.1301014179
H  H40  1  0.77480000  0.28410000  0.08250000  1.0 0.1207736923
H  H41  1  0.71160000  0.35090000  0.12990000  1.0 0.1207736923
H  H42  1  0.88890000  0.20910000  0.15370000  1.0 0.1207736923
H  H43  1  0.04710000  0.18230000  0.20360000  1.0 0.1207736923
H  H44  1  0.07470000  0.38280000  0.15790000  1.0 0.1207736923
H  H45  1  0.91480000  0.40880000  0.11120000  1.0 0.1301014179
H  H46  1  0.45470000  0.36650000  0.87850000  1.0 0.1004930738
H  H47  1  0.42090000  0.49530000  0.88250000  1.0 0.0881757578
H  H48  1  0.50730000  0.49090000  0.81450000  1.0 0.0881757578
H  H49  1  0.31840000  0.52870000  0.79760000  1.0 0.1207736923
H  H50  1  0.29560000  0.45730000  0.83190000  1.0 0.1207736923
H  H51  1  0.38220000  0.45270000  0.76380000  1.0 0.1207736923
H  H52  1  0.70410000  0.17240000  0.75400000  1.0 0.1301014179
H  H53  1  0.58590000  0.42200000  0.72800000  1.0 0.1207736923
H  H54  1  0.84180000  0.11340000  0.59760000  1.0 0.1301014179
H  H55  1  0.73490000  0.11820000  0.65550000  1.0 0.1384939443
H  H56  1  0.85140000  0.12220000  0.67060000  1.0 0.1113852589
H  H57  1  0.73730000  0.18190000  0.87780000  1.0 0.1113852589
H  H58  1  0.67140000  0.13610000  0.85040000  1.0 0.1113852589
H  H59  1  0.62450000  0.05200000  0.92540000  1.0 0.1301014179
H  H60  1  0.57420000  0.00810000  0.02940000  1.0 0.1207736923
H  H61  1  0.55000000  0.19910000  0.10400000  1.0 0.1301014179
H  H62  1  0.61130000  0.24040000  0.99980000  1.0 0.1207736923
H  H63  1  0.69040000  0.32580000  0.57780000  1.0 0.1004930738
H  H64  1  0.59080000  0.46870000  0.63070000  1.0 0.0881757578
H  H65  1  0.62020000  0.45320000  0.55480000  1.0 0.0803396748
H  H66  1  0.42470000  0.46960000  0.59640000  1.0 0.1113852589
H  H67  1  0.45360000  0.40420000  0.64590000  1.0 0.1207736923
H  H68  1  0.48250000  0.38970000  0.56970000  1.0 0.1207736923
H  H69  1  0.71040000  0.89140000  0.30130000  1.0 0.1113852589
H  H70  1  0.62270000  0.10090000  0.27600000  1.0 0.1301014179
H  H71  1  0.75120000  0.08330000  0.14520000  1.0 0.1207736923
H  H72  1  0.81230000  0.05180000  0.03630000  1.0 0.1113852589
H  H73  1  0.13420000  0.98900000  0.05950000  1.0 0.1113852589
H  H74  1  0.07250000  0.02130000  0.17000000  1.0 0.1301014179
H  H75  1  0.57910000  0.86280000  0.18110000  1.0 0.1113852589
H  H76  1  0.73660000  0.68200000  0.18260000  1.0 0.1384939443
H  H77  1  0.75910000  0.75460000  0.15120000  1.0 0.1384939443
H  H78  1  0.65400000  0.73140000  0.13920000  1.0 0.1384939443
H  H79  1  0.66430000  0.68460000  0.28450000  1.0 0.1301014179
H  H80  1  0.53690000  0.73450000  0.30500000  1.0 0.1384939443
H  H81  1  0.63830000  0.75790000  0.32210000  1.0 0.1384939443
H  H82  1  0.92750000  0.05150000  0.26540000  1.0 0.1384939443
H  H83  1  0.82840000  0.11960000  0.24990000  1.0 0.1301014179
H  H84  1  0.74220000  0.57690000  0.54170000  1.0 0.1301014179
H  H85  1  0.86500000  0.54610000  0.55850000  1.0 0.1207736923
H  H86  1  0.80550000  0.63060000  0.55900000  1.0 0.1301014179
H  H87  1  0.00250000  0.60860000  0.54470000  1.0 0.1301014179
H  H88  1  0.15630000  0.61970000  0.32170000  1.0 0.1207736923
H  H89  1  0.10510000  0.63710000  0.60990000  1.0 0.1207736923
H  H90  1  0.19910000  0.56180000  0.59010000  1.0 0.1207736923
H  H91  1  0.15380000  0.68330000  0.69990000  1.0 0.1207736923
H  H92  1  0.27680000  0.72700000  0.74260000  1.0 0.1113852589
H  H93  1  0.53290000  0.63570000  0.59480000  1.0 0.1207736923
H  H94  1  0.40830000  0.59670000  0.55110000  1.0 0.1384939443
H  H95  1  0.86510000  0.62380000  0.35710000  1.0 0.1004930738
H  H96  1  0.95610000  0.49440000  0.36300000  1.0 0.0803396748
H  H97  1  0.03520000  0.50040000  0.29400000  1.0 0.0881757578
H  H98  1  0.88120000  0.46100000  0.27980000  1.0 0.1113852589
H  H99  1  0.79300000  0.53120000  0.31500000  1.0 0.1207736923
H  H100  1  0.87180000  0.53790000  0.24600000  1.0 0.1207736923
H  H101  1  0.92870000  0.81790000  0.22630000  1.0 0.1301014179
H  H102  1  0.04920000  0.56740000  0.20680000  1.0 0.1207736923
H  H103  1  0.02730000  0.86900000  0.06540000  1.0 0.1301014179
H  H104  1  0.93040000  0.87310000  0.12890000  1.0 0.1207736923
H  H105  1  0.05890000  0.85840000  0.13540000  1.0 0.1113852589
H  H106  1  0.00540000  0.76740000  0.37130000  1.0 0.1113852589
H  H107  1  0.94130000  0.83670000  0.33440000  1.0 0.1004930738
H  H108  1  0.80680000  0.73970000  0.46500000  1.0 0.1113852589
H  H109  1  0.70770000  0.78750000  0.56800000  1.0 0.1301014179
H  H110  1  0.77930000  0.97560000  0.51760000  1.0 0.1207736923
H  H111  1  0.87900000  0.92810000  0.41500000  1.0 0.1207736923
H  H112  1  0.06000000  0.66240000  0.05500000  1.0 0.1004930738
H  H113  1  0.09710000  0.52090000  0.11030000  1.0 0.0803396748
H  H114  1  0.11940000  0.53460000  0.03370000  1.0 0.0881757578
H  H115  1  0.93610000  0.51830000  0.07010000  1.0 0.1207736923
H  H116  1  0.90050000  0.58450000  0.11840000  1.0 0.1207736923
H  H117  1  0.92290000  0.59780000  0.04180000  1.0 0.1207736923
H  H118  1  0.26190000  0.61830000  0.15720000  1.0 0.1207736923
H  H119  1  0.42890000  0.60860000  0.93520000  1.0 0.1301014179
H  H120  1  0.71290000  0.58940000  0.93860000  1.0 0.1301014179
H  H121  1  0.62650000  0.54880000  0.92660000  1.0 0.1207736923
H  H122  1  0.59780000  0.63380000  0.91730000  1.0 0.1301014179
H  H123  1  0.22520000  0.71590000  0.91750000  1.0 0.1207736923
H  H124  1  0.28840000  0.64910000  0.87010000  1.0 0.1207736923
H  H125  1  0.11110000  0.79090000  0.84630000  1.0 0.1207736923
H  H126  1  0.95290000  0.81770000  0.79640000  1.0 0.1207736923
H  H127  1  0.92530000  0.61720000  0.84210000  1.0 0.1207736923
H  H128  1  0.08520000  0.59120000  0.88880000  1.0 0.1301014179
H  H129  1  0.54530000  0.63350000  0.12150000  1.0 0.1004930738
H  H130  1  0.57910000  0.50470000  0.11750000  1.0 0.0881757578
H  H131  1  0.49270000  0.50910000  0.18550000  1.0 0.0881757578
H  H132  1  0.68160000  0.47130000  0.20240000  1.0 0.1207736923
H  H133  1  0.70440000  0.54270000  0.16810000  1.0 0.1207736923
H  H134  1  0.61780000  0.54730000  0.23620000  1.0 0.1207736923
H  H135  1  0.29590000  0.82760000  0.24600000  1.0 0.1301014179
H  H136  1  0.41410000  0.57800000  0.27200000  1.0 0.1207736923
H  H137  1  0.15820000  0.88660000  0.40240000  1.0 0.1301014179
H  H138  1  0.26510000  0.88180000  0.34450000  1.0 0.1384939443
H  H139  1  0.14860000  0.87780000  0.32940000  1.0 0.1113852589
H  H140  1  0.26270000  0.81810000  0.12220000  1.0 0.1113852589
H  H141  1  0.32860000  0.86390000  0.14960000  1.0 0.1113852589
H  H142  1  0.37550000  0.94800000  0.07460000  1.0 0.1301014179
H  H143  1  0.42580000  0.99190000  0.97060000  1.0 0.1207736923
H  H144  1  0.45000000  0.80090000  0.89600000  1.0 0.1301014179
H  H145  1  0.38870000  0.75960000  0.00020000  1.0 0.1207736923
H  H146  1  0.30960000  0.67420000  0.42220000  1.0 0.1004930738
H  H147  1  0.40920000  0.53130000  0.36930000  1.0 0.0881757578
H  H148  1  0.37980000  0.54680000  0.44520000  1.0 0.0803396748
H  H149  1  0.57530000  0.53040000  0.40360000  1.0 0.1113852589
H  H150  1  0.54640000  0.59580000  0.35410000  1.0 0.1207736923
H  H151  1  0.51750000  0.61030000  0.43030000  1.0 0.1301014179
H  H152  1  0.28960000  0.10860000  0.69870000  1.0 0.1113852589
H  H153  1  0.37730000  0.89910000  0.72400000  1.0 0.1301014179
H  H154  1  0.24880000  0.91670000  0.85480000  1.0 0.1207736923
H  H155  1  0.18770000  0.94820000  0.96370000  1.0 0.1113852589
H  H156  1  0.86580000  0.01100000  0.94050000  1.0 0.1113852589
H  H157  1  0.92750000  0.97870000  0.83000000  1.0 0.1301014179
H  H158  1  0.42090000  0.13720000  0.81890000  1.0 0.1113852589
H  H159  1  0.26340000  0.31800000  0.81740000  1.0 0.1384939443
H  H160  1  0.24090000  0.24540000  0.84880000  1.0 0.1384939443
H  H161  1  0.34600000  0.26860000  0.86080000  1.0 0.1384939443
H  H162  1  0.33570000  0.31540000  0.71550000  1.0 0.1301014179
H  H163  1  0.46310000  0.26550000  0.69500000  1.0 0.1384939443
H  H164  1  0.36170000  0.24210000  0.67790000  1.0 0.1384939443
H  H165  1  0.07250000  0.94850000  0.73460000  1.0 0.1384939443
H  H166  1  0.17160000  0.88040000  0.75010000  1.0 0.1301014179
C  C1  1  0.18420000  0.41450000  0.46220000  1.0 -0.2274343328
C  C2  1  0.02700000  0.39820000  0.54660000  1.0 0.2011865172
C  C3  1  0.96660000  0.38900000  0.50020000  1.0 -0.3795088168
C  C4  1  0.86050000  0.37630000  0.52130000  1.0 0.2070219386
C  C5  1  0.81080000  0.37330000  0.58880000  1.0 -0.0277850278
C  C6  1  0.87520000  0.38190000  0.63340000  1.0 -0.1903468104
C  C7  1  0.98300000  0.39270000  0.61490000  1.0 -0.0277850278
C  C8  1  0.81590000  0.38550000  0.41260000  1.0 -0.0581492828
C  C9  1  0.73260000  0.36230000  0.38120000  1.0 0.0881757578
C  C10  1  0.77000000  0.32480000  0.32250000  1.0 -0.1606086614
C  C11  1  0.69590000  0.29910000  0.29670000  1.0 -0.1089533636
C  C12  1  0.58410000  0.31090000  0.32740000  1.0 -0.0209868862
C  C13  1  0.54460000  0.35260000  0.38450000  1.0 -0.1027191548
C  C14  1  0.61930000  0.37640000  0.41010000  1.0 -0.1402763974
C  C15  1  0.50440000  0.27900000  0.30250000  1.0 0.5452309642
C  C16  1  0.05390000  0.39770000  0.66420000  1.0 -0.0581492828
C  C17  1  0.04030000  0.47860000  0.67840000  1.0 -0.1512424307
C  C18  1  0.13210000  0.48800000  0.71260000  1.0 -0.3880502339
C  C19  1  0.03120000  0.35250000  0.72670000  1.0 -0.0209868862
C  C20  1  0.06550000  0.27660000  0.72230000  1.0 0.1913332734
C  C21  1  0.04730000  0.23270000  0.77760000  1.0 -0.3795088168
C  C22  1  0.99320000  0.26500000  0.83840000  1.0 0.1913332734
C  C23  1  0.95820000  0.34030000  0.84510000  1.0 -0.0209868862
C  C24  1  0.97640000  0.38200000  0.78920000  1.0 -0.1903468104
C  C25  1  0.99060000  0.15040000  0.89100000  1.0 -0.2140911427
C  C26  1  0.06970000  0.20260000  0.63500000  1.0 -0.0581492828
C  C27  1  0.14250000  0.17090000  0.56980000  1.0 0.0881757578
C  C28  1  0.19700000  0.21310000  0.52440000  1.0 -0.1402763974
C  C29  1  0.25730000  0.18390000  0.46280000  1.0 -0.1027191548
C  C30  1  0.26630000  0.11410000  0.44640000  1.0 -0.0209868862
C  C31  1  0.21490000  0.07220000  0.49240000  1.0 -0.0937716645
C  C32  1  0.15420000  0.10110000  0.55400000  1.0 -0.1606086614
C  C33  1  0.33120000  0.08250000  0.37970000  1.0 0.5833991859
C  C34  1  0.90290000  0.37280000  0.91400000  1.0 -0.0581492828
C  C35  1  0.92670000  0.44470000  0.92430000  1.0 -0.1606086614
C  C36  1  0.05350000  0.43520000  0.92340000  1.0 -0.3795088168
C  C37  1  0.77390000  0.37850000  0.93360000  1.0 -0.0209868862
C  C38  1  0.70470000  0.38260000  0.88760000  1.0 -0.2007047366
C  C39  1  0.58800000  0.38790000  0.90630000  1.0 -0.0209868862
C  C40  1  0.53790000  0.39170000  0.97390000  1.0 0.2011865172
C  C41  1  0.60450000  0.38870000  0.02000000  1.0 -0.3795088168
C  C42  1  0.72040000  0.38150000  0.99930000  1.0 0.1776478383
C  C43  1  0.36710000  0.40720000  0.05730000  1.0 -0.2192683984
C  C44  1  0.78100000  0.32930000  0.09740000  1.0 -0.0435107928
C  C45  1  0.88460000  0.31360000  0.12860000  1.0 0.0724301059
C  C46  1  0.92540000  0.24460000  0.15550000  1.0 -0.1685709537
C  C47  1  0.02050000  0.22830000  0.18530000  1.0 -0.0937716645
C  C48  1  0.07500000  0.28130000  0.18730000  1.0 -0.0209868862
C  C49  1  0.03650000  0.34760000  0.15850000  1.0 -0.1089533636
C  C50  1  0.94070000  0.36290000  0.12990000  1.0 -0.1402763974
C  C51  1  0.18160000  0.26310000  0.21550000  1.0 0.5405190084
C  C52  1  0.51460000  0.38910000  0.85660000  1.0 -0.0581492828
C  C53  1  0.45150000  0.46870000  0.84130000  1.0 -0.1512424307
C  C54  1  0.35270000  0.47770000  0.80530000  1.0 -0.3795088168
C  C55  1  0.58140000  0.34290000  0.79640000  1.0 -0.0209868862
C  C56  1  0.61930000  0.26680000  0.80250000  1.0 0.1913332734
C  C57  1  0.68020000  0.22290000  0.74870000  1.0 -0.3731663134
C  C58  1  0.70540000  0.25370000  0.68730000  1.0 0.1913332734
C  C59  1  0.66910000  0.32890000  0.67770000  1.0 -0.0209868862
C  C60  1  0.60900000  0.37140000  0.73330000  1.0 -0.2007047366
C  C61  1  0.80130000  0.13540000  0.63960000  1.0 -0.2192683984
C  C62  1  0.66240000  0.17420000  0.88130000  1.0 -0.0435107928
C  C63  1  0.62260000  0.14880000  0.95050000  1.0 0.0803396748
C  C64  1  0.61090000  0.08200000  0.96140000  1.0 -0.1512424307
C  C65  1  0.57940000  0.05570000  0.02370000  1.0 -0.1027191548
C  C66  1  0.55550000  0.09950000  0.07780000  1.0 -0.0209868862
C  C67  1  0.56650000  0.16870000  0.06790000  1.0 -0.1089533636
C  C68  1  0.60150000  0.19400000  0.00570000  1.0 -0.1606086614
C  C69  1  0.51890000  0.07000000  0.14640000  1.0 0.5559772346
C  C70  1  0.69210000  0.36180000  0.60860000  1.0 -0.0581492828
C  C71  1  0.59660000  0.43320000  0.59810000  1.0 -0.1606086614
C  C72  1  0.47860000  0.42330000  0.60300000  1.0 -0.3880502339
C  C73  1  0.71500000  0.93890000  0.29300000  1.0 0.1384939443
C  C74  1  0.66520000  0.05230000  0.27940000  1.0 0.1113852589
C  C75  1  0.90620000  0.05140000  0.16830000  1.0 0.0881757578
C  C76  1  0.82940000  0.06260000  0.12820000  1.0 -0.1512424307
C  C77  1  0.86660000  0.04360000  0.06280000  1.0 -0.1512424307
C  C78  1  0.97950000  0.01340000  0.03530000  1.0 0.0534741375
C  C79  1  0.05550000  0.00690000  0.07670000  1.0 -0.1606086614
C  C80  1  0.01910000  0.02610000  0.14350000  1.0 -0.1402763974
C  C81  1  0.57040000  0.84150000  0.22290000  1.0 0.2654036675
C  C82  1  0.70070000  0.73140000  0.17060000  1.0 -0.350807881
C  C83  1  0.61590000  0.73420000  0.29000000  1.0 -0.3045958188
C  C84  1  0.86310000  0.06740000  0.24310000  1.0 -0.1808157768
C  C85  1  0.81580000  0.58550000  0.53780000  1.0 -0.2274343328
C  C86  1  0.97300000  0.60180000  0.45340000  1.0 0.2011865172
C  C87  1  0.03340000  0.61100000  0.49980000  1.0 -0.3795088168
C  C88  1  0.13950000  0.62370000  0.47870000  1.0 0.2070219386
C  C89  1  0.18920000  0.62670000  0.41120000  1.0 -0.0277850278
C  C90  1  0.12480000  0.61810000  0.36660000  1.0 -0.1903468104
C  C91  1  0.01700000  0.60730000  0.38510000  1.0 -0.0277850278
C  C92  1  0.18410000  0.61450000  0.58740000  1.0 -0.0581492828
C  C93  1  0.26740000  0.63770000  0.61880000  1.0 0.0881757578
C  C94  1  0.23000000  0.67520000  0.67750000  1.0 -0.1606086614
C  C95  1  0.30410000  0.70090000  0.70330000  1.0 -0.1089533636
C  C96  1  0.41590000  0.68910000  0.67260000  1.0 -0.0209868862
C  C97  1  0.45540000  0.64740000  0.61550000  1.0 -0.1027191548
C  C98  1  0.38070000  0.62360000  0.58990000  1.0 -0.1402763974
C  C99  1  0.49560000  0.72100000  0.69750000  1.0 0.5452309642
C  C100  1  0.94610000  0.60230000  0.33580000  1.0 -0.0581492828
C  C101  1  0.95970000  0.52140000  0.32160000  1.0 -0.1512424307
C  C102  1  0.86790000  0.51200000  0.28740000  1.0 -0.3880502339
C  C103  1  0.96880000  0.64750000  0.27330000  1.0 -0.0209868862
C  C104  1  0.93450000  0.72340000  0.27770000  1.0 0.1913332734
C  C105  1  0.95270000  0.76730000  0.22240000  1.0 -0.3795088168
C  C106  1  0.00680000  0.73500000  0.16160000  1.0 0.1913332734
C  C107  1  0.04180000  0.65970000  0.15490000  1.0 -0.0209868862
C  C108  1  0.02360000  0.61800000  0.21080000  1.0 -0.1903468104
C  C109  1  0.00940000  0.84960000  0.10900000  1.0 -0.2192683984
C  C110  1  0.93030000  0.79740000  0.36500000  1.0 -0.0581492828
C  C111  1  0.85750000  0.82910000  0.43020000  1.0 0.0881757578
C  C112  1  0.80300000  0.78690000  0.47560000  1.0 -0.1402763974
C  C113  1  0.74270000  0.81610000  0.53720000  1.0 -0.1027191548
C  C114  1  0.73370000  0.88590000  0.55360000  1.0 -0.0209868862
C  C115  1  0.78510000  0.92780000  0.50760000  1.0 -0.0937716645
C  C116  1  0.84580000  0.89890000  0.44600000  1.0 -0.1606086614
C  C117  1  0.66880000  0.91750000  0.62030000  1.0 0.5833991859
C  C118  1  0.09710000  0.62720000  0.08600000  1.0 -0.0581492828
C  C119  1  0.07330000  0.55530000  0.07570000  1.0 -0.1606086614
C  C120  1  0.94650000  0.56480000  0.07660000  1.0 -0.3795088168
C  C121  1  0.22610000  0.62150000  0.06640000  1.0 -0.0209868862
C  C122  1  0.29530000  0.61740000  0.11240000  1.0 -0.2007047366
C  C123  1  0.41200000  0.61210000  0.09370000  1.0 -0.0209868862
C  C124  1  0.46210000  0.60830000  0.02610000  1.0 0.2011865172
C  C125  1  0.39550000  0.61130000  0.98000000  1.0 -0.3795088168
C  C126  1  0.27960000  0.61850000  0.00070000  1.0 0.1776478383
C  C127  1  0.63290000  0.59280000  0.94270000  1.0 -0.2192683984
C  C128  1  0.21900000  0.67070000  0.90260000  1.0 -0.0435107928
C  C129  1  0.11540000  0.68640000  0.87140000  1.0 0.0724301059
C  C130  1  0.07460000  0.75540000  0.84450000  1.0 -0.1685709537
C  C131  1  0.97950000  0.77170000  0.81470000  1.0 -0.0937716645
C  C132  1  0.92500000  0.71870000  0.81270000  1.0 -0.0209868862
C  C133  1  0.96350000  0.65240000  0.84150000  1.0 -0.1089533636
C  C134  1  0.05930000  0.63710000  0.87010000  1.0 -0.1402763974
C  C135  1  0.81840000  0.73690000  0.78450000  1.0 0.5405190084
C  C136  1  0.48540000  0.61090000  0.14340000  1.0 -0.0581492828
C  C137  1  0.54850000  0.53130000  0.15870000  1.0 -0.1512424307
C  C138  1  0.64730000  0.52230000  0.19470000  1.0 -0.3795088168
C  C139  1  0.41860000  0.65710000  0.20360000  1.0 -0.0209868862
C  C140  1  0.38070000  0.73320000  0.19750000  1.0 0.1913332734
C  C141  1  0.31980000  0.77710000  0.25130000  1.0 -0.3731663134
C  C142  1  0.29460000  0.74630000  0.31270000  1.0 0.1913332734
C  C143  1  0.33090000  0.67110000  0.32230000  1.0 -0.0209868862
C  C144  1  0.39100000  0.62860000  0.26670000  1.0 -0.2007047366
C  C145  1  0.19870000  0.86460000  0.36040000  1.0 -0.2274343328
C  C146  1  0.33760000  0.82580000  0.11870000  1.0 -0.0435107928
C  C147  1  0.37740000  0.85120000  0.04950000  1.0 0.0803396748
C  C148  1  0.38910000  0.91800000  0.03860000  1.0 -0.1512424307
C  C149  1  0.42060000  0.94430000  0.97630000  1.0 -0.1027191548
C  C150  1  0.44450000  0.90050000  0.92220000  1.0 -0.0209868862
C  C151  1  0.43350000  0.83130000  0.93210000  1.0 -0.1089533636
C  C152  1  0.39850000  0.80600000  0.99430000  1.0 -0.1606086614
C  C153  1  0.48110000  0.93000000  0.85360000  1.0 0.5559772346
C  C154  1  0.30790000  0.63820000  0.39140000  1.0 -0.0581492828
C  C155  1  0.40340000  0.56680000  0.40190000  1.0 -0.1606086614
C  C156  1  0.52140000  0.57670000  0.39700000  1.0 -0.3880502339
C  C157  1  0.28500000  0.06110000  0.70700000  1.0 0.1456197593
C  C158  1  0.33480000  0.94770000  0.72060000  1.0 0.1113852589
C  C159  1  0.09380000  0.94860000  0.83170000  1.0 0.0881757578
C  C160  1  0.17060000  0.93740000  0.87180000  1.0 -0.1512424307
C  C161  1  0.13340000  0.95640000  0.93720000  1.0 -0.1512424307
C  C162  1  0.02050000  0.98660000  0.96470000  1.0 0.0534741375
C  C163  1  0.94450000  0.99310000  0.92330000  1.0 -0.1606086614
C  C164  1  0.98090000  0.97390000  0.85650000  1.0 -0.1402763974
C  C165  1  0.42960000  0.15850000  0.77710000  1.0 0.2654036675
C  C166  1  0.29930000  0.26860000  0.82940000  1.0 -0.350807881
C  C167  1  0.38410000  0.26580000  0.71000000  1.0 -0.3045958188
C  C168  1  0.13690000  0.93260000  0.75690000  1.0 -0.1808157768
N  N1  1  0.77930000  0.02900000  0.26990000  1.0 0.1586088929
N  N2  1  0.62020000  0.99790000  0.29420000  1.0 -0.3235544767
N  N3  1  0.81290000  0.95500000  0.27920000  1.0 -0.2755487468
N  N4  1  0.62810000  0.77150000  0.22960000  1.0 0.0254929531
N  N5  1  0.22070000  0.97100000  0.73010000  1.0 0.1586088929
N  N6  1  0.37980000  0.00210000  0.70580000  1.0 -0.3235544767
N  N7  1  0.18710000  0.04500000  0.72080000  1.0 -0.2755487468
N  N8  1  0.37190000  0.22850000  0.77040000  1.0 0.0254929531
O  O1  1  0.13310000  0.41030000  0.52990000  1.0 -0.1606086614
O  O2  1  0.79820000  0.36220000  0.47930000  1.0 -0.1685709537
O  O3  1  0.29050000  0.00420000  0.22500000  1.0 -0.5317389872
O  O4  1  0.54680000  0.23570000  0.25330000  1.0 -0.5821840074
O  O5  1  0.40160000  0.29140000  0.33190000  1.0 -0.5415168908
O  O6  1  0.97360000  0.22530000  0.89460000  1.0 -0.1322645154
O  O7  1  0.12510000  0.24550000  0.66140000  1.0 -0.1903468104
O  O8  1  0.37860000  0.12020000  0.33790000  1.0 -0.5821840074
O  O9  1  0.33690000  0.01800000  0.36900000  1.0 -0.5082806256
O  O10  1  0.42320000  0.39780000  0.99070000  1.0 -0.1402763974
O  O11  1  0.79040000  0.37620000  0.04510000  1.0 -0.1685709537
O  O12  1  0.25740000  0.29270000  0.19530000  1.0 -0.5317389872
O  O13  1  0.19520000  0.21200000  0.25800000  1.0 -0.5173508432
O  O14  1  0.76530000  0.21290000  0.63210000  1.0 -0.1512424307
O  O15  1  0.58780000  0.23730000  0.86400000  1.0 -0.1606086614
O  O16  1  0.46970000  0.11290000  0.19240000  1.0 -0.5462853816
O  O17  1  0.53690000  0.00280000  0.15370000  1.0 -0.5317389872
O  O18  1  0.50600000  0.87910000  0.26950000  1.0 -0.457016414
O  O19  1  0.86690000  0.58970000  0.47010000  1.0 -0.1606086614
O  O20  1  0.20180000  0.63780000  0.52070000  1.0 -0.1685709537
O  O21  1  0.70950000  0.99580000  0.77500000  1.0 -0.5317389872
O  O22  1  0.45320000  0.76430000  0.74670000  1.0 -0.5821840074
O  O23  1  0.59840000  0.70860000  0.66810000  1.0 -0.5415168908
O  O24  1  0.02640000  0.77470000  0.10540000  1.0 -0.1322645154
O  O25  1  0.87490000  0.75450000  0.33860000  1.0 -0.1903468104
O  O26  1  0.62140000  0.87980000  0.66210000  1.0 -0.5821840074
O  O27  1  0.66310000  0.98200000  0.63100000  1.0 -0.5082806256
O  O28  1  0.57680000  0.60220000  0.00930000  1.0 -0.1402763974
O  O29  1  0.20960000  0.62380000  0.95490000  1.0 -0.1685709537
O  O30  1  0.74260000  0.70730000  0.80470000  1.0 -0.5317389872
O  O31  1  0.80480000  0.78800000  0.74200000  1.0 -0.5173508432
O  O32  1  0.23470000  0.78710000  0.36790000  1.0 -0.1512424307
O  O33  1  0.41220000  0.76270000  0.13600000  1.0 -0.1606086614
O  O34  1  0.53030000  0.88710000  0.80760000  1.0 -0.5462853816
O  O35  1  0.46310000  0.99720000  0.84630000  1.0 -0.5317389872
O  O36  1  0.49400000  0.12090000  0.73050000  1.0 -0.457016414
