# DDEC6 charges by PACMAN v1.1 (https://github.com/mtap-research/PACMAN-charge/)
data_CEPYII_ASR_pacman
_symmetry_space_group_name_H-M   'P 1'
_cell_length_a   12.37410000
_cell_length_b   26.13100000
_cell_length_c   26.13100000
_cell_angle_alpha   90.00000000
_cell_angle_beta   90.00000000
_cell_angle_gamma   90.00000000
_symmetry_Int_Tables_number   1
_chemical_formula_structural   Zn4H20C37O20
_chemical_formula_sum   'Zn16 H80 C148 O80'
_cell_volume   8449.39632113
_cell_formula_units_Z   4
loop_
 _symmetry_equiv_pos_site_id
 _symmetry_equiv_pos_as_xyz
  1  'x, y, z'
loop_
 _atom_site_type_symbol
 _atom_site_label
 _atom_site_symmetry_multiplicity
 _atom_site_fract_x
 _atom_site_fract_y
 _atom_site_fract_z
 _atom_site_occupancy
 _atom_site_charge
Zn  Zn1  1  0.41816000  0.99289000  0.45905000  1.0 0.9610252958
Zn  Zn2  1  0.58184000  0.00711000  0.95905000  1.0 0.9610252958
Zn  Zn3  1  0.58184000  0.49289000  0.04095000  1.0 0.9610252958
Zn  Zn4  1  0.41816000  0.50711000  0.54095000  1.0 0.9610252958
Zn  Zn5  1  0.58184000  0.00711000  0.54095000  1.0 0.9610252958
Zn  Zn6  1  0.41816000  0.99289000  0.04095000  1.0 0.9610252958
Zn  Zn7  1  0.41816000  0.50711000  0.95905000  1.0 0.9610252958
Zn  Zn8  1  0.58184000  0.49289000  0.45905000  1.0 0.9610252958
Zn  Zn9  1  0.49036000  0.80402000  0.25000000  1.0 0.9610252958
Zn  Zn10  1  0.65761000  0.72199000  0.25000000  1.0 0.9610252958
Zn  Zn11  1  0.50964000  0.19598000  0.75000000  1.0 0.9610252958
Zn  Zn12  1  0.34239000  0.27801000  0.75000000  1.0 0.9610252958
Zn  Zn13  1  0.50964000  0.30402000  0.25000000  1.0 0.9610252958
Zn  Zn14  1  0.34239000  0.22199000  0.25000000  1.0 0.9610252958
Zn  Zn15  1  0.49036000  0.69598000  0.75000000  1.0 0.9610252958
Zn  Zn16  1  0.65761000  0.77801000  0.75000000  1.0 0.9610252958
H  H1  1  0.60390000  0.88630000  0.37380000  1.0 0.1388458181
H  H2  1  0.84130000  0.78170000  0.38240000  1.0 0.1282337997
H  H3  1  0.80410000  0.88510000  0.49480000  1.0 0.1460679322
H  H4  1  0.02050000  0.77730000  0.42600000  1.0 0.1034182967
H  H5  1  0.92660000  0.74120000  0.44490000  1.0 0.1034182967
H  H6  1  0.17030000  0.80280000  0.48910000  1.0 0.1034182967
H  H7  1  0.07650000  0.82440000  0.52380000  1.0 0.1034182967
H  H8  1  0.25670000  0.86720000  0.52940000  1.0 0.1282337997
H  H9  1  0.29170000  0.75450000  0.63270000  1.0 0.1460679322
H  H10  1  0.49990000  0.87250000  0.63110000  1.0 0.1388458181
H  H11  1  0.39610000  0.11370000  0.87380000  1.0 0.1388458181
H  H12  1  0.15870000  0.21830000  0.88240000  1.0 0.1282337997
H  H13  1  0.19590000  0.11490000  0.99480000  1.0 0.1460679322
H  H14  1  0.97950000  0.22270000  0.92600000  1.0 0.1034182967
H  H15  1  0.07340000  0.25880000  0.94490000  1.0 0.1034182967
H  H16  1  0.82970000  0.19720000  0.98910000  1.0 0.1034182967
H  H17  1  0.92350000  0.17560000  0.02380000  1.0 0.1034182967
H  H18  1  0.74330000  0.13280000  0.02940000  1.0 0.1282337997
H  H19  1  0.70830000  0.24550000  0.13270000  1.0 0.1460679322
H  H20  1  0.50010000  0.12750000  0.13110000  1.0 0.1388458181
H  H21  1  0.39610000  0.38630000  0.12620000  1.0 0.1388458181
H  H22  1  0.15870000  0.28170000  0.11760000  1.0 0.1282337997
H  H23  1  0.19590000  0.38510000  0.00520000  1.0 0.1460679322
H  H24  1  0.97950000  0.27730000  0.07400000  1.0 0.1034182967
H  H25  1  0.07340000  0.24120000  0.05510000  1.0 0.1034182967
H  H26  1  0.82970000  0.30280000  0.01090000  1.0 0.1034182967
H  H27  1  0.92350000  0.32440000  0.97620000  1.0 0.1034182967
H  H28  1  0.74330000  0.36720000  0.97060000  1.0 0.1282337997
H  H29  1  0.70830000  0.25450000  0.86730000  1.0 0.1460679322
H  H30  1  0.50010000  0.37250000  0.86890000  1.0 0.1388458181
H  H31  1  0.60390000  0.61370000  0.62620000  1.0 0.1388458181
H  H32  1  0.84130000  0.71830000  0.61760000  1.0 0.1282337997
H  H33  1  0.80410000  0.61490000  0.50520000  1.0 0.1460679322
H  H34  1  0.02050000  0.72270000  0.57400000  1.0 0.1034182967
H  H35  1  0.92660000  0.75880000  0.55510000  1.0 0.1034182967
H  H36  1  0.17030000  0.69720000  0.51090000  1.0 0.1034182967
H  H37  1  0.07650000  0.67560000  0.47620000  1.0 0.1034182967
H  H38  1  0.25670000  0.63280000  0.47060000  1.0 0.1282337997
H  H39  1  0.29170000  0.74550000  0.36730000  1.0 0.1460679322
H  H40  1  0.49990000  0.62750000  0.36890000  1.0 0.1388458181
H  H41  1  0.39610000  0.11370000  0.62620000  1.0 0.1388458181
H  H42  1  0.15870000  0.21830000  0.61760000  1.0 0.1282337997
H  H43  1  0.19590000  0.11490000  0.50520000  1.0 0.1460679322
H  H44  1  0.97950000  0.22270000  0.57400000  1.0 0.1034182967
H  H45  1  0.07340000  0.25880000  0.55510000  1.0 0.1034182967
H  H46  1  0.82970000  0.19720000  0.51090000  1.0 0.1034182967
H  H47  1  0.92350000  0.17560000  0.47620000  1.0 0.1034182967
H  H48  1  0.74330000  0.13280000  0.47060000  1.0 0.1282337997
H  H49  1  0.70830000  0.24550000  0.36730000  1.0 0.1460679322
H  H50  1  0.50010000  0.12750000  0.36890000  1.0 0.1388458181
H  H51  1  0.60390000  0.88630000  0.12620000  1.0 0.1388458181
H  H52  1  0.84130000  0.78170000  0.11760000  1.0 0.1282337997
H  H53  1  0.80410000  0.88510000  0.00520000  1.0 0.1460679322
H  H54  1  0.02050000  0.77730000  0.07400000  1.0 0.1034182967
H  H55  1  0.92660000  0.74120000  0.05510000  1.0 0.1034182967
H  H56  1  0.17030000  0.80280000  0.01090000  1.0 0.1034182967
H  H57  1  0.07650000  0.82440000  0.97620000  1.0 0.1034182967
H  H58  1  0.25670000  0.86720000  0.97060000  1.0 0.1282337997
H  H59  1  0.29170000  0.75450000  0.86730000  1.0 0.1460679322
H  H60  1  0.49990000  0.87250000  0.86890000  1.0 0.1388458181
H  H61  1  0.60390000  0.61370000  0.87380000  1.0 0.1388458181
H  H62  1  0.84130000  0.71830000  0.88240000  1.0 0.1282337997
H  H63  1  0.80410000  0.61490000  0.99480000  1.0 0.1460679322
H  H64  1  0.02050000  0.72270000  0.92600000  1.0 0.1034182967
H  H65  1  0.92660000  0.75880000  0.94490000  1.0 0.1034182967
H  H66  1  0.17030000  0.69720000  0.98910000  1.0 0.1034182967
H  H67  1  0.07650000  0.67560000  0.02380000  1.0 0.1034182967
H  H68  1  0.25670000  0.63280000  0.02940000  1.0 0.1282337997
H  H69  1  0.29170000  0.74550000  0.13270000  1.0 0.1460679322
H  H70  1  0.49990000  0.62750000  0.13110000  1.0 0.1388458181
H  H71  1  0.39610000  0.38630000  0.37380000  1.0 0.1388458181
H  H72  1  0.15870000  0.28170000  0.38240000  1.0 0.1282337997
H  H73  1  0.19590000  0.38510000  0.49480000  1.0 0.1460679322
H  H74  1  0.97950000  0.27730000  0.42600000  1.0 0.1034182967
H  H75  1  0.07340000  0.24120000  0.44490000  1.0 0.1034182967
H  H76  1  0.82970000  0.30280000  0.48910000  1.0 0.1034182967
H  H77  1  0.92350000  0.32440000  0.52380000  1.0 0.1034182967
H  H78  1  0.74330000  0.36720000  0.52940000  1.0 0.1282337997
H  H79  1  0.70830000  0.25450000  0.63270000  1.0 0.1460679322
H  H80  1  0.50010000  0.37250000  0.63110000  1.0 0.1388458181
C  C1  1  0.67419000  0.80742000  0.32247000  1.0 0.5987483151
C  C2  1  0.71718000  0.83063000  0.37036000  1.0 -0.0159947435
C  C3  1  0.66235000  0.87215000  0.39112000  1.0 -0.1193427239
C  C4  1  0.80460000  0.80951000  0.39625000  1.0 -0.2337416066
C  C5  1  0.69493000  0.89256000  0.43776000  1.0 -0.0106280095
C  C6  1  0.83718000  0.82991000  0.44288000  1.0 0.2519008461
C  C7  1  0.78234000  0.87144000  0.46364000  1.0 -0.2096579131
C  C8  1  0.63064000  0.93490000  0.46178000  1.0 0.5987483151
C  C9  1  0.97609000  0.76811000  0.45517000  1.0 -0.0750716385
C  C10  1  0.11975000  0.79433000  0.51624000  1.0 -0.0909318589
C  C11  1  0.25925000  0.80677000  0.57774000  1.0 0.2652642969
C  C12  1  0.29385000  0.85284000  0.55678000  1.0 -0.2337416066
C  C13  1  0.31480000  0.78534000  0.61871000  1.0 -0.2153820302
C  C14  1  0.38399000  0.87747000  0.57679000  1.0 -0.0300039388
C  C15  1  0.40495000  0.80998000  0.63872000  1.0 -0.0044977688
C  C16  1  0.43954000  0.85604000  0.61776000  1.0 -0.1143829766
C  C17  1  0.42522000  0.92367000  0.55181000  1.0 0.5987483151
C  C18  1  0.46762000  0.78235000  0.68039000  1.0 0.5987483151
C  C19  1  0.32581000  0.19258000  0.82247000  1.0 0.5987483151
C  C20  1  0.28282000  0.16937000  0.87036000  1.0 -0.0159947435
C  C21  1  0.33765000  0.12785000  0.89112000  1.0 -0.1193427239
C  C22  1  0.19540000  0.19049000  0.89625000  1.0 -0.2337416066
C  C23  1  0.30507000  0.10744000  0.93776000  1.0 -0.0106280095
C  C24  1  0.16282000  0.17009000  0.94288000  1.0 0.2519008461
C  C25  1  0.21766000  0.12856000  0.96364000  1.0 -0.2096579131
C  C26  1  0.36936000  0.06510000  0.96178000  1.0 0.5987483151
C  C27  1  0.02391000  0.23189000  0.95517000  1.0 -0.0750716385
C  C28  1  0.88025000  0.20567000  0.01624000  1.0 -0.0909318589
C  C29  1  0.74075000  0.19323000  0.07774000  1.0 0.2652642969
C  C30  1  0.70615000  0.14716000  0.05678000  1.0 -0.2337416066
C  C31  1  0.68520000  0.21466000  0.11871000  1.0 -0.2153820302
C  C32  1  0.61601000  0.12253000  0.07679000  1.0 -0.0300039388
C  C33  1  0.59505000  0.19002000  0.13872000  1.0 -0.0044977688
C  C34  1  0.56046000  0.14396000  0.11776000  1.0 -0.1143829766
C  C35  1  0.57478000  0.07633000  0.05181000  1.0 0.5987483151
C  C36  1  0.53238000  0.21765000  0.18039000  1.0 0.5987483151
C  C37  1  0.32581000  0.30742000  0.17753000  1.0 0.5987483151
C  C38  1  0.28282000  0.33063000  0.12964000  1.0 -0.0159947435
C  C39  1  0.33765000  0.37215000  0.10888000  1.0 -0.1193427239
C  C40  1  0.19540000  0.30951000  0.10375000  1.0 -0.2337416066
C  C41  1  0.30507000  0.39256000  0.06224000  1.0 -0.0106280095
C  C42  1  0.16282000  0.32991000  0.05712000  1.0 0.2519008461
C  C43  1  0.21766000  0.37144000  0.03636000  1.0 -0.2096579131
C  C44  1  0.36936000  0.43490000  0.03822000  1.0 0.5987483151
C  C45  1  0.02391000  0.26811000  0.04483000  1.0 -0.0750716385
C  C46  1  0.88025000  0.29433000  0.98376000  1.0 -0.0909318589
C  C47  1  0.74075000  0.30677000  0.92226000  1.0 0.2652642969
C  C48  1  0.70615000  0.35284000  0.94322000  1.0 -0.2337416066
C  C49  1  0.68520000  0.28534000  0.88129000  1.0 -0.2153820302
C  C50  1  0.61601000  0.37747000  0.92321000  1.0 -0.0300039388
C  C51  1  0.59505000  0.30998000  0.86128000  1.0 -0.0044977688
C  C52  1  0.56046000  0.35604000  0.88224000  1.0 -0.1143829766
C  C53  1  0.57478000  0.42367000  0.94819000  1.0 0.5987483151
C  C54  1  0.53238000  0.28235000  0.81961000  1.0 0.5987483151
C  C55  1  0.67419000  0.69258000  0.67753000  1.0 0.5987483151
C  C56  1  0.71718000  0.66937000  0.62964000  1.0 -0.0159947435
C  C57  1  0.66235000  0.62785000  0.60888000  1.0 -0.1193427239
C  C58  1  0.80460000  0.69049000  0.60375000  1.0 -0.2337416066
C  C59  1  0.69493000  0.60744000  0.56224000  1.0 -0.0106280095
C  C60  1  0.83718000  0.67009000  0.55712000  1.0 0.2519008461
C  C61  1  0.78234000  0.62856000  0.53636000  1.0 -0.2096579131
C  C62  1  0.63064000  0.56510000  0.53822000  1.0 0.5987483151
C  C63  1  0.97609000  0.73189000  0.54483000  1.0 -0.0750716385
C  C64  1  0.11975000  0.70567000  0.48376000  1.0 -0.0909318589
C  C65  1  0.25925000  0.69323000  0.42226000  1.0 0.2652642969
C  C66  1  0.29385000  0.64716000  0.44322000  1.0 -0.2337416066
C  C67  1  0.31480000  0.71466000  0.38129000  1.0 -0.2153820302
C  C68  1  0.38399000  0.62253000  0.42321000  1.0 -0.0300039388
C  C69  1  0.40495000  0.69002000  0.36128000  1.0 -0.0044977688
C  C70  1  0.43954000  0.64396000  0.38224000  1.0 -0.1143829766
C  C71  1  0.42522000  0.57633000  0.44819000  1.0 0.5987483151
C  C72  1  0.46762000  0.71765000  0.31961000  1.0 0.5987483151
C  C73  1  0.32581000  0.19258000  0.67753000  1.0 0.5987483151
C  C74  1  0.28282000  0.16937000  0.62964000  1.0 -0.0159947435
C  C75  1  0.33765000  0.12785000  0.60888000  1.0 -0.1193427239
C  C76  1  0.19540000  0.19049000  0.60375000  1.0 -0.2337416066
C  C77  1  0.30507000  0.10744000  0.56224000  1.0 -0.0106280095
C  C78  1  0.16282000  0.17009000  0.55712000  1.0 0.2519008461
C  C79  1  0.21766000  0.12856000  0.53636000  1.0 -0.2096579131
C  C80  1  0.36936000  0.06510000  0.53822000  1.0 0.5987483151
C  C81  1  0.02391000  0.23189000  0.54483000  1.0 -0.0750716385
C  C82  1  0.88025000  0.20567000  0.48376000  1.0 -0.0909318589
C  C83  1  0.74075000  0.19323000  0.42226000  1.0 0.2652642969
C  C84  1  0.70615000  0.14716000  0.44322000  1.0 -0.2337416066
C  C85  1  0.68520000  0.21466000  0.38129000  1.0 -0.2153820302
C  C86  1  0.61601000  0.12253000  0.42321000  1.0 -0.0300039388
C  C87  1  0.59505000  0.19002000  0.36128000  1.0 -0.0044977688
C  C88  1  0.56046000  0.14396000  0.38224000  1.0 -0.1143829766
C  C89  1  0.57478000  0.07633000  0.44819000  1.0 0.5987483151
C  C90  1  0.53238000  0.21765000  0.31961000  1.0 0.5987483151
C  C91  1  0.67419000  0.80742000  0.17753000  1.0 0.5987483151
C  C92  1  0.71718000  0.83063000  0.12964000  1.0 -0.0159947435
C  C93  1  0.66235000  0.87215000  0.10888000  1.0 -0.1193427239
C  C94  1  0.80460000  0.80951000  0.10375000  1.0 -0.2337416066
C  C95  1  0.69493000  0.89256000  0.06224000  1.0 -0.0106280095
C  C96  1  0.83718000  0.82991000  0.05712000  1.0 0.2519008461
C  C97  1  0.78234000  0.87144000  0.03636000  1.0 -0.2096579131
C  C98  1  0.63064000  0.93490000  0.03822000  1.0 0.5987483151
C  C99  1  0.97609000  0.76811000  0.04483000  1.0 -0.0750716385
C  C100  1  0.11975000  0.79433000  0.98376000  1.0 -0.0909318589
C  C101  1  0.25925000  0.80677000  0.92226000  1.0 0.2652642969
C  C102  1  0.29385000  0.85284000  0.94322000  1.0 -0.2337416066
C  C103  1  0.31480000  0.78534000  0.88129000  1.0 -0.2153820302
C  C104  1  0.38399000  0.87747000  0.92321000  1.0 -0.0300039388
C  C105  1  0.40495000  0.80998000  0.86128000  1.0 -0.0044977688
C  C106  1  0.43954000  0.85604000  0.88224000  1.0 -0.1143829766
C  C107  1  0.42522000  0.92367000  0.94819000  1.0 0.5987483151
C  C108  1  0.46762000  0.78235000  0.81961000  1.0 0.5987483151
C  C109  1  0.67419000  0.69258000  0.82247000  1.0 0.5987483151
C  C110  1  0.71718000  0.66937000  0.87036000  1.0 -0.0159947435
C  C111  1  0.66235000  0.62785000  0.89112000  1.0 -0.1193427239
C  C112  1  0.80460000  0.69049000  0.89625000  1.0 -0.2337416066
C  C113  1  0.69493000  0.60744000  0.93776000  1.0 -0.0106280095
C  C114  1  0.83718000  0.67009000  0.94288000  1.0 0.2519008461
C  C115  1  0.78234000  0.62856000  0.96364000  1.0 -0.2096579131
C  C116  1  0.63064000  0.56510000  0.96178000  1.0 0.5987483151
C  C117  1  0.97609000  0.73189000  0.95517000  1.0 -0.0750716385
C  C118  1  0.11975000  0.70567000  0.01624000  1.0 -0.0909318589
C  C119  1  0.25925000  0.69323000  0.07774000  1.0 0.2652642969
C  C120  1  0.29385000  0.64716000  0.05678000  1.0 -0.2337416066
C  C121  1  0.31480000  0.71466000  0.11871000  1.0 -0.2153820302
C  C122  1  0.38399000  0.62253000  0.07679000  1.0 -0.0300039388
C  C123  1  0.40495000  0.69002000  0.13872000  1.0 -0.0044977688
C  C124  1  0.43954000  0.64396000  0.11776000  1.0 -0.1143829766
C  C125  1  0.42522000  0.57633000  0.05181000  1.0 0.5987483151
C  C126  1  0.46762000  0.71765000  0.18039000  1.0 0.5987483151
C  C127  1  0.32581000  0.30742000  0.32247000  1.0 0.5987483151
C  C128  1  0.28282000  0.33063000  0.37036000  1.0 -0.0159947435
C  C129  1  0.33765000  0.37215000  0.39112000  1.0 -0.1193427239
C  C130  1  0.19540000  0.30951000  0.39625000  1.0 -0.2337416066
C  C131  1  0.30507000  0.39256000  0.43776000  1.0 -0.0106280095
C  C132  1  0.16282000  0.32991000  0.44288000  1.0 0.2519008461
C  C133  1  0.21766000  0.37144000  0.46364000  1.0 -0.2096579131
C  C134  1  0.36936000  0.43490000  0.46178000  1.0 0.5987483151
C  C135  1  0.02391000  0.26811000  0.45517000  1.0 -0.0750716385
C  C136  1  0.88025000  0.29433000  0.51624000  1.0 -0.0909318589
C  C137  1  0.74075000  0.30677000  0.57774000  1.0 0.2652642969
C  C138  1  0.70615000  0.35284000  0.55678000  1.0 -0.2337416066
C  C139  1  0.68520000  0.28534000  0.61871000  1.0 -0.2153820302
C  C140  1  0.61601000  0.37747000  0.57679000  1.0 -0.0300039388
C  C141  1  0.59505000  0.30998000  0.63872000  1.0 -0.0044977688
C  C142  1  0.56046000  0.35604000  0.61776000  1.0 -0.1143829766
C  C143  1  0.57478000  0.42367000  0.55181000  1.0 0.5987483151
C  C144  1  0.53238000  0.28235000  0.68039000  1.0 0.5987483151
C  C145  1  0.04750000  0.75000000  0.50000000  1.0 0.0309546413
C  C146  1  0.95250000  0.25000000  0.00000000  1.0 0.0309546413
C  C147  1  0.95250000  0.25000000  0.50000000  1.0 0.0309546413
C  C148  1  0.04750000  0.75000000  0.00000000  1.0 0.0309546413
O  O1  1  0.59434000  0.82821000  0.30317000  1.0 -0.5243677255
O  O2  1  0.42749000  0.74267000  0.69744000  1.0 -0.53392387
O  O3  1  0.72060000  0.76711000  0.30593000  1.0 -0.5484031892
O  O4  1  0.55247000  0.80418000  0.69585000  1.0 -0.5484031892
O  O5  1  0.91862000  0.81090000  0.47302000  1.0 -0.1978765829
O  O6  1  0.54645000  0.94800000  0.43949000  1.0 -0.53392387
O  O7  1  0.66907000  0.95538000  0.50216000  1.0 -0.5484031892
O  O8  1  0.50451000  0.94746000  0.57302000  1.0 -0.5420560562
O  O9  1  0.37716000  0.93846000  0.51153000  1.0 -0.5600270089
O  O10  1  0.17714000  0.77780000  0.56141000  1.0 -0.1978765829
O  O11  1  0.40566000  0.17179000  0.80317000  1.0 -0.5243677255
O  O12  1  0.57251000  0.25733000  0.19744000  1.0 -0.53392387
O  O13  1  0.27940000  0.23289000  0.80593000  1.0 -0.5484031892
O  O14  1  0.44753000  0.19582000  0.19585000  1.0 -0.5484031892
O  O15  1  0.08138000  0.18910000  0.97302000  1.0 -0.1978765829
O  O16  1  0.45355000  0.05200000  0.93949000  1.0 -0.5420560562
O  O17  1  0.33093000  0.04462000  0.00216000  1.0 -0.5484031892
O  O18  1  0.49549000  0.05254000  0.07302000  1.0 -0.5420560562
O  O19  1  0.62284000  0.06154000  0.01153000  1.0 -0.5600270089
O  O20  1  0.82286000  0.22220000  0.06141000  1.0 -0.1978765829
O  O21  1  0.40566000  0.32821000  0.19683000  1.0 -0.5243677255
O  O22  1  0.57251000  0.24267000  0.80256000  1.0 -0.53392387
O  O23  1  0.27940000  0.26711000  0.19407000  1.0 -0.5484031892
O  O24  1  0.44753000  0.30418000  0.80415000  1.0 -0.5484031892
O  O25  1  0.08138000  0.31090000  0.02698000  1.0 -0.1978765829
O  O26  1  0.45355000  0.44800000  0.06051000  1.0 -0.53392387
O  O27  1  0.33093000  0.45538000  0.99784000  1.0 -0.5484031892
O  O28  1  0.49549000  0.44746000  0.92698000  1.0 -0.5420560562
O  O29  1  0.62284000  0.43846000  0.98847000  1.0 -0.5600270089
O  O30  1  0.82286000  0.27780000  0.93859000  1.0 -0.1978765829
O  O31  1  0.59434000  0.67179000  0.69683000  1.0 -0.5243677255
O  O32  1  0.42749000  0.75733000  0.30256000  1.0 -0.53392387
O  O33  1  0.72060000  0.73289000  0.69407000  1.0 -0.5484031892
O  O34  1  0.55247000  0.69582000  0.30415000  1.0 -0.5484031892
O  O35  1  0.91862000  0.68910000  0.52698000  1.0 -0.1978765829
O  O36  1  0.54645000  0.55200000  0.56051000  1.0 -0.53392387
O  O37  1  0.66907000  0.54462000  0.49784000  1.0 -0.5484031892
O  O38  1  0.50451000  0.55254000  0.42698000  1.0 -0.5420560562
O  O39  1  0.37716000  0.56154000  0.48847000  1.0 -0.5600270089
O  O40  1  0.17714000  0.72220000  0.43859000  1.0 -0.1978765829
O  O41  1  0.40566000  0.17179000  0.69683000  1.0 -0.5243677255
O  O42  1  0.57251000  0.25733000  0.30256000  1.0 -0.53392387
O  O43  1  0.27940000  0.23289000  0.69407000  1.0 -0.5484031892
O  O44  1  0.44753000  0.19582000  0.30415000  1.0 -0.5484031892
O  O45  1  0.08138000  0.18910000  0.52698000  1.0 -0.1978765829
O  O46  1  0.45355000  0.05200000  0.56051000  1.0 -0.53392387
O  O47  1  0.33093000  0.04462000  0.49784000  1.0 -0.5484031892
O  O48  1  0.49549000  0.05254000  0.42698000  1.0 -0.5420560562
O  O49  1  0.62284000  0.06154000  0.48847000  1.0 -0.5600270089
O  O50  1  0.82286000  0.22220000  0.43859000  1.0 -0.1978765829
O  O51  1  0.59434000  0.82821000  0.19683000  1.0 -0.5243677255
O  O52  1  0.42749000  0.74267000  0.80256000  1.0 -0.53392387
O  O53  1  0.72060000  0.76711000  0.19407000  1.0 -0.5484031892
O  O54  1  0.55247000  0.80418000  0.80415000  1.0 -0.5484031892
O  O55  1  0.91862000  0.81090000  0.02698000  1.0 -0.1978765829
O  O56  1  0.54645000  0.94800000  0.06051000  1.0 -0.53392387
O  O57  1  0.66907000  0.95538000  0.99784000  1.0 -0.5484031892
O  O58  1  0.50451000  0.94746000  0.92698000  1.0 -0.5420560562
O  O59  1  0.37716000  0.93846000  0.98847000  1.0 -0.5600270089
O  O60  1  0.17714000  0.77780000  0.93859000  1.0 -0.1978765829
O  O61  1  0.59434000  0.67179000  0.80317000  1.0 -0.5243677255
O  O62  1  0.42749000  0.75733000  0.19744000  1.0 -0.53392387
O  O63  1  0.72060000  0.73289000  0.80593000  1.0 -0.5484031892
O  O64  1  0.55247000  0.69582000  0.19585000  1.0 -0.5484031892
O  O65  1  0.91862000  0.68910000  0.97302000  1.0 -0.1978765829
O  O66  1  0.54645000  0.55200000  0.93949000  1.0 -0.53392387
O  O67  1  0.66907000  0.54462000  0.00216000  1.0 -0.5484031892
O  O68  1  0.50451000  0.55254000  0.07302000  1.0 -0.5420560562
O  O69  1  0.37716000  0.56154000  0.01153000  1.0 -0.5600270089
O  O70  1  0.17714000  0.72220000  0.06141000  1.0 -0.1978765829
O  O71  1  0.40566000  0.32821000  0.30317000  1.0 -0.5243677255
O  O72  1  0.57251000  0.24267000  0.69744000  1.0 -0.53392387
O  O73  1  0.27940000  0.26711000  0.30593000  1.0 -0.5484031892
O  O74  1  0.44753000  0.30418000  0.69585000  1.0 -0.5484031892
O  O75  1  0.08138000  0.31090000  0.47302000  1.0 -0.1978765829
O  O76  1  0.45355000  0.44800000  0.43949000  1.0 -0.53392387
O  O77  1  0.33093000  0.45538000  0.50216000  1.0 -0.5484031892
O  O78  1  0.49549000  0.44746000  0.57302000  1.0 -0.5420560562
O  O79  1  0.62284000  0.43846000  0.51153000  1.0 -0.5600270089
O  O80  1  0.82286000  0.27780000  0.56141000  1.0 -0.1978765829
