# DDEC6 charges by PACMAN v1.1 (https://github.com/mtap-research/PACMAN-charge/)
data_CEQPOG_ASR_pacman
_symmetry_space_group_name_H-M   'P 1'
_cell_length_a   16.01260000
_cell_length_b   16.01260000
_cell_length_c   20.67700000
_cell_angle_alpha   49.83890000
_cell_angle_beta   130.16100000
_cell_angle_gamma   136.30400000
_symmetry_Int_Tables_number   1
_chemical_formula_structural   Zn3H3C13(NO6)2
_chemical_formula_sum   'Zn12 H12 C52 N8 O48'
_cell_volume   2633.95450594
_cell_formula_units_Z   4
loop_
 _symmetry_equiv_pos_site_id
 _symmetry_equiv_pos_as_xyz
  1  'x, y, z'
loop_
 _atom_site_type_symbol
 _atom_site_label
 _atom_site_symmetry_multiplicity
 _atom_site_fract_x
 _atom_site_fract_y
 _atom_site_fract_z
 _atom_site_occupancy
 _atom_site_charge
Zn  Zn1  1  0.50690000  0.96832000  0.43927000  1.0 0.8911109527
Zn  Zn2  1  0.08654000  0.93700000  0.05588000  1.0 0.8813211878
Zn  Zn3  1  0.96832000  0.50690000  0.06073000  1.0 0.8911109527
Zn  Zn4  1  0.93700000  0.08654000  0.44412000  1.0 0.8813211878
Zn  Zn5  1  0.49310000  0.03168000  0.56073000  1.0 0.8911109527
Zn  Zn6  1  0.91346000  0.06300000  0.94412000  1.0 0.8813211878
Zn  Zn7  1  0.03168000  0.49310000  0.93927000  1.0 0.8911109527
Zn  Zn8  1  0.06300000  0.91346000  0.55588000  1.0 0.8813211878
Zn  Zn9  1  0.14090000  0.14090000  0.25000000  1.0 0.4199752172
Zn  Zn10  1  0.19760000  0.19760000  0.25000000  1.0 0.4287899843
Zn  Zn11  1  0.85910000  0.85910000  0.75000000  1.0 0.4199752172
Zn  Zn12  1  0.80240000  0.80240000  0.75000000  1.0 0.4287899843
H  H1  1  0.20780000  0.79240000  0.16460000  1.0 0.1088738601
H  H2  1  0.55790000  0.00950000  0.30890000  1.0 0.1088738601
H  H3  1  0.50980000  0.80220000  0.23020000  1.0 0.1164085379
H  H4  1  0.79240000  0.20780000  0.33540000  1.0 0.1088738601
H  H5  1  0.00950000  0.55790000  0.19110000  1.0 0.1088738601
H  H6  1  0.80220000  0.50980000  0.26980000  1.0 0.1164085379
H  H7  1  0.79220000  0.20760000  0.83540000  1.0 0.1088738601
H  H8  1  0.44210000  0.99050000  0.69110000  1.0 0.1088738601
H  H9  1  0.49020000  0.19780000  0.76980000  1.0 0.1164085379
H  H10  1  0.20760000  0.79220000  0.66460000  1.0 0.1088738601
H  H11  1  0.99050000  0.44210000  0.80890000  1.0 0.1088738601
H  H12  1  0.19780000  0.49020000  0.73020000  1.0 0.1164085379
C  C1  1  0.30300000  0.02220000  0.28800000  1.0 -0.0191165557
C  C2  1  0.21520000  0.02200000  0.20170000  1.0 -0.0191165557
C  C3  1  0.32480000  0.95460000  0.24010000  1.0 0.3327060303
C  C4  1  0.37490000  0.91030000  0.23630000  1.0 -0.0108949302
C  C5  1  0.29560000  0.82440000  0.19180000  1.0 -0.1320813198
C  C6  1  0.50420000  0.95160000  0.27960000  1.0 -0.1320813198
C  C7  1  0.55570000  0.90910000  0.28040000  1.0 -0.0191165557
C  C8  1  0.34660000  0.78620000  0.18780000  1.0 -0.0108949302
C  C9  1  0.47580000  0.82860000  0.23240000  1.0 -0.0970695058
C  C10  1  0.25670000  0.69450000  0.13680000  1.0 0.5527739188
C  C11  1  0.69440000  0.95120000  0.33180000  1.0 0.5527739188
C  C12  1  0.32650000  0.04390000  0.35940000  1.0 0.6056176087
C  C13  1  0.12200000  0.06300000  0.13660000  1.0 0.5812690815
C  C14  1  0.02220000  0.30300000  0.21200000  1.0 -0.0191165557
C  C15  1  0.02200000  0.21520000  0.29830000  1.0 -0.0191165557
C  C16  1  0.95460000  0.32480000  0.25990000  1.0 0.3327060303
C  C17  1  0.91030000  0.37490000  0.26370000  1.0 -0.0108949302
C  C18  1  0.82440000  0.29560000  0.30820000  1.0 -0.1320813198
C  C19  1  0.95160000  0.50420000  0.22040000  1.0 -0.1320813198
C  C20  1  0.90910000  0.55570000  0.21960000  1.0 -0.0191165557
C  C21  1  0.78620000  0.34660000  0.31220000  1.0 -0.0191165557
C  C22  1  0.82860000  0.47580000  0.26760000  1.0 -0.0970695058
C  C23  1  0.69450000  0.25670000  0.36320000  1.0 0.5527739188
C  C24  1  0.95120000  0.69440000  0.16820000  1.0 0.5527739188
C  C25  1  0.04390000  0.32650000  0.14060000  1.0 0.6056176087
C  C26  1  0.06300000  0.12200000  0.36340000  1.0 0.5812690815
C  C27  1  0.69700000  0.97780000  0.71200000  1.0 -0.0191165557
C  C28  1  0.78480000  0.97800000  0.79830000  1.0 -0.0191165557
C  C29  1  0.67520000  0.04540000  0.75990000  1.0 0.3327060303
C  C30  1  0.62510000  0.08970000  0.76370000  1.0 -0.0108949302
C  C31  1  0.70440000  0.17560000  0.80820000  1.0 -0.1320813198
C  C32  1  0.49580000  0.04840000  0.72040000  1.0 -0.1320813198
C  C33  1  0.44430000  0.09090000  0.71960000  1.0 -0.0191165557
C  C34  1  0.65340000  0.21380000  0.81220000  1.0 -0.0108949302
C  C35  1  0.52420000  0.17140000  0.76760000  1.0 -0.0970695058
C  C36  1  0.74330000  0.30550000  0.86320000  1.0 0.5527739188
C  C37  1  0.30560000  0.04880000  0.66820000  1.0 0.5527739188
C  C38  1  0.67350000  0.95610000  0.64060000  1.0 0.6056176087
C  C39  1  0.87800000  0.93700000  0.86340000  1.0 0.5812690815
C  C40  1  0.97780000  0.69700000  0.78800000  1.0 -0.0191165557
C  C41  1  0.97800000  0.78480000  0.70170000  1.0 -0.0191165557
C  C42  1  0.04540000  0.67520000  0.74010000  1.0 0.3327060303
C  C43  1  0.08970000  0.62510000  0.73630000  1.0 -0.0108949302
C  C44  1  0.17560000  0.70440000  0.69180000  1.0 -0.1320813198
C  C45  1  0.04840000  0.49580000  0.77960000  1.0 -0.1320813198
C  C46  1  0.09090000  0.44430000  0.78040000  1.0 -0.0191165557
C  C47  1  0.21380000  0.65340000  0.68780000  1.0 -0.0191165557
C  C48  1  0.17140000  0.52420000  0.73240000  1.0 -0.0970695058
C  C49  1  0.30550000  0.74330000  0.63680000  1.0 0.5527739188
C  C50  1  0.04880000  0.30560000  0.83180000  1.0 0.5527739188
C  C51  1  0.95610000  0.67350000  0.85940000  1.0 0.6056176087
C  C52  1  0.93700000  0.87800000  0.63660000  1.0 0.5812690815
N  N1  1  0.23080000  0.97880000  0.17260000  1.0 -0.3517952228
N  N2  1  0.37180000  0.98100000  0.31080000  1.0 -0.3708262632
N  N3  1  0.97880000  0.23080000  0.32740000  1.0 -0.3517952228
N  N4  1  0.98100000  0.37180000  0.18920000  1.0 -0.3708262632
N  N5  1  0.76920000  0.02120000  0.82740000  1.0 -0.3517952228
N  N6  1  0.62820000  0.01900000  0.68920000  1.0 -0.3708262632
N  N7  1  0.02120000  0.76920000  0.67260000  1.0 -0.3517952228
N  N8  1  0.01900000  0.62820000  0.81080000  1.0 -0.3708262632
O  O1  1  0.09940000  0.10640000  0.14930000  1.0 -0.3433485964
O  O2  1  0.30760000  0.66700000  0.13260000  1.0 -0.5343955198
O  O3  1  0.74870000  0.94270000  0.31570000  1.0 -0.5192604849
O  O4  1  0.05824000  0.04156000  0.06330000  1.0 -0.4797512444
O  O5  1  0.26260000  0.07220000  0.34890000  1.0 -0.4797512444
O  O6  1  0.41160000  0.02520000  0.43240000  1.0 -0.5192604849
O  O7  1  0.74850000  0.99290000  0.39390000  1.0 -0.5741180966
O  O8  1  0.14320000  0.65920000  0.10240000  1.0 -0.5469797293
O  O9  1  0.12820000  0.13600000  0.15320000  1.0 -0.4257976527
O  O10  1  0.00700000  0.02900000  0.25600000  1.0 0.2237441948
O  O11  1  0.35900000  0.37300000  0.22600000  1.0 0.0950728988
O  O12  1  0.10640000  0.09940000  0.35070000  1.0 -0.3433485964
O  O13  1  0.66700000  0.30760000  0.36740000  1.0 -0.5343955198
O  O14  1  0.94270000  0.74870000  0.18430000  1.0 -0.5192604849
O  O15  1  0.04156000  0.05824000  0.43670000  1.0 -0.4797512444
O  O16  1  0.07220000  0.26260000  0.15110000  1.0 -0.4797512444
O  O17  1  0.02520000  0.41160000  0.06760000  1.0 -0.5192604849
O  O18  1  0.99290000  0.74850000  0.10610000  1.0 -0.5741180966
O  O19  1  0.65920000  0.14320000  0.39760000  1.0 -0.5469797293
O  O20  1  0.13600000  0.12820000  0.34680000  1.0 -0.4257976527
O  O21  1  0.02900000  0.00700000  0.24400000  1.0 0.2237441948
O  O22  1  0.37300000  0.35900000  0.27400000  1.0 0.0950728988
O  O23  1  0.90060000  0.89360000  0.85070000  1.0 -0.3433485964
O  O24  1  0.69240000  0.33300000  0.86740000  1.0 -0.5343955198
O  O25  1  0.25130000  0.05730000  0.68430000  1.0 -0.5192604849
O  O26  1  0.94176000  0.95844000  0.93670000  1.0 -0.4797512444
O  O27  1  0.73740000  0.92780000  0.65110000  1.0 -0.4797512444
O  O28  1  0.58840000  0.97480000  0.56760000  1.0 -0.5192604849
O  O29  1  0.25150000  0.00710000  0.60610000  1.0 -0.5741180966
O  O30  1  0.85680000  0.34080000  0.89760000  1.0 -0.5469797293
O  O31  1  0.87180000  0.86400000  0.84680000  1.0 -0.4257976527
O  O32  1  0.99300000  0.97100000  0.74400000  1.0 0.2147194108
O  O33  1  0.64100000  0.62700000  0.77400000  1.0 0.0950728988
O  O34  1  0.89360000  0.90060000  0.64930000  1.0 -0.3433485964
O  O35  1  0.33300000  0.69240000  0.63260000  1.0 -0.5343955198
O  O36  1  0.05730000  0.25130000  0.81570000  1.0 -0.5192604849
O  O37  1  0.95844000  0.94176000  0.56330000  1.0 -0.4797512444
O  O38  1  0.92780000  0.73740000  0.84890000  1.0 -0.4797512444
O  O39  1  0.97480000  0.58840000  0.93240000  1.0 -0.5192604849
O  O40  1  0.00710000  0.25150000  0.89390000  1.0 -0.5741180966
O  O41  1  0.34080000  0.85680000  0.60240000  1.0 -0.5469797293
O  O42  1  0.86400000  0.87180000  0.65320000  1.0 -0.4257976527
O  O43  1  0.97100000  0.99300000  0.75600000  1.0 0.2147194108
O  O44  1  0.62700000  0.64100000  0.72600000  1.0 0.0950728988
O  O45  1  0.95840000  0.95840000  0.25000000  1.0 0.1088738601
O  O46  1  0.31270000  0.31270000  0.25000000  1.0 0.1260603329
O  O47  1  0.04160000  0.04160000  0.75000000  1.0 0.1164085379
O  O48  1  0.68730000  0.68730000  0.75000000  1.0 0.1260603329
