# DDEC6 charges by PACMAN v1.1 (https://github.com/mtap-research/PACMAN-charge/)
data_CEQPIA_ASR_pacman
_symmetry_space_group_name_H-M   'P 1'
_cell_length_a   20.76120000
_cell_length_b   16.21600000
_cell_length_c   15.41150000
_cell_angle_alpha   82.01350000
_cell_angle_beta   50.66890000
_cell_angle_gamma   47.31750000
_symmetry_Int_Tables_number   1
_chemical_formula_structural   Co5H6C26(NO5)4
_chemical_formula_sum   'Co10 H12 C52 N8 O40'
_cell_volume   2535.43847311
_cell_formula_units_Z   2
loop_
 _symmetry_equiv_pos_site_id
 _symmetry_equiv_pos_as_xyz
  1  'x, y, z'
loop_
 _atom_site_type_symbol
 _atom_site_label
 _atom_site_symmetry_multiplicity
 _atom_site_fract_x
 _atom_site_fract_y
 _atom_site_fract_z
 _atom_site_occupancy
 _atom_site_charge
Co  Co1  1  0.15336000  0.55316000  0.99154000  1.0 0.8332517576
Co  Co2  1  0.26730000  0.54880000  0.07528000  1.0 0.8411842715
Co  Co3  1  0.30194000  0.99154000  0.55316000  1.0 0.8332517576
Co  Co4  1  0.10862000  0.07528000  0.54880000  1.0 0.8411842715
Co  Co5  1  0.69684000  0.09664000  0.94806000  1.0 0.8332517576
Co  Co6  1  0.70120000  0.98270000  0.14138000  1.0 0.8411842715
Co  Co7  1  0.25846000  0.94806000  0.09664000  1.0 0.8332517576
Co  Co8  1  0.17472000  0.14138000  0.98270000  1.0 0.8411842715
Co  Co9  1  0.01430000  0.98570000  0.98570000  1.0 1.0464236569
Co  Co10  1  0.26430000  0.23570000  0.23570000  1.0 1.0464236569
H  H1  1  0.45930000  0.47850000  0.04390000  1.0 0.1064544832
H  H2  1  0.24450000  0.83430000  0.26330000  1.0 0.1064544832
H  H3  1  0.46910000  0.53170000  0.28090000  1.0 0.0899595544
H  H4  1  0.01830000  0.04390000  0.47850000  1.0 0.1064544832
H  H5  1  0.65790000  0.26330000  0.83430000  1.0 0.1064544832
H  H6  1  0.71830000  0.28090000  0.53170000  1.0 0.0899595544
H  H7  1  0.77150000  0.79070000  0.23170000  1.0 0.1064544832
H  H8  1  0.41570000  0.00550000  0.59210000  1.0 0.1064544832
H  H9  1  0.71830000  0.78090000  0.53170000  1.0 0.0899595544
H  H10  1  0.20610000  0.23170000  0.79070000  1.0 0.1064544832
H  H11  1  0.98670000  0.59210000  0.00550000  1.0 0.1064544832
H  H12  1  0.96910000  0.53170000  0.78090000  1.0 0.0899595544
C  C1  1  0.21243000  0.75809000  0.02811000  1.0 -0.0038465581
C  C2  1  0.17360000  0.73406000  0.99054000  1.0 0.5859924983
C  C3  1  0.28978000  0.72058000  0.09522000  1.0 0.3384589832
C  C4  1  0.43037000  0.53357000  0.10643000  1.0 -0.1469394583
C  C5  1  0.35190000  0.69590000  0.28470000  1.0 -0.0331472908
C  C6  1  0.30400000  0.74580000  0.23540000  1.0 -0.1428462136
C  C7  1  0.47400000  0.48380000  0.15960000  1.0 -0.0362776895
C  C8  1  0.43690000  0.56510000  0.24770000  1.0 -0.1968002673
C  C9  1  0.34346000  0.66546000  0.14534000  1.0 0.0115866268
C  C10  1  0.31320000  0.78320000  0.37760000  1.0 0.4418776285
C  C11  1  0.56150000  0.34190000  0.12270000  1.0 0.4418776285
C  C12  1  0.20850000  0.84690000  0.03390000  1.0 -0.0495664719
C  C13  1  0.17005000  0.95005000  0.00395000  1.0 0.5783581119
C  C14  1  0.00137000  0.02811000  0.75809000  1.0 -0.0038465581
C  C15  1  0.10180000  0.99054000  0.73406000  1.0 0.5859924983
C  C16  1  0.89442000  0.09522000  0.72058000  1.0 0.3384589832
C  C17  1  0.92963000  0.10643000  0.53357000  1.0 -0.1469394583
C  C18  1  0.66750000  0.28470000  0.69590000  1.0 -0.0331472908
C  C19  1  0.71480000  0.23540000  0.74580000  1.0 -0.1428462136
C  C20  1  0.88260000  0.15960000  0.48380000  1.0 -0.0362776895
C  C21  1  0.75030000  0.24770000  0.56510000  1.0 -0.1968002673
C  C22  1  0.84574000  0.14534000  0.66546000  1.0 0.0115866268
C  C23  1  0.52600000  0.37760000  0.78320000  1.0 0.4418776285
C  C24  1  0.97390000  0.12270000  0.34190000  1.0 0.4468463988
C  C25  1  0.91070000  0.03390000  0.84690000  1.0 -0.0495664719
C  C26  1  0.87595000  0.00395000  0.95005000  1.0 0.5783581119
C  C27  1  0.49191000  0.03757000  0.24863000  1.0 -0.005051245
C  C28  1  0.51594000  0.07640000  0.14820000  1.0 0.5859924983
C  C29  1  0.52942000  0.96022000  0.35558000  1.0 0.3384589832
C  C30  1  0.71643000  0.81963000  0.32037000  1.0 -0.1469394583
C  C31  1  0.55410000  0.89810000  0.58250000  1.0 -0.0331472908
C  C32  1  0.50420000  0.94600000  0.53520000  1.0 -0.1428462136
C  C33  1  0.76620000  0.77600000  0.36740000  1.0 -0.0362776895
C  C34  1  0.68490000  0.81310000  0.49970000  1.0 -0.1968002673
C  C35  1  0.58454000  0.90654000  0.40426000  1.0 0.0115866268
C  C36  1  0.46680000  0.93680000  0.72400000  1.0 0.4418776285
C  C37  1  0.90810000  0.68850000  0.27610000  1.0 0.4468463988
C  C38  1  0.40310000  0.04150000  0.33930000  1.0 -0.0495664719
C  C39  1  0.29995000  0.07995000  0.37405000  1.0 0.5783581119
C  C40  1  0.22189000  0.24863000  0.03757000  1.0 -0.0038465581
C  C41  1  0.25946000  0.14820000  0.07640000  1.0 0.5859924983
C  C42  1  0.15478000  0.35558000  0.96022000  1.0 0.3384589832
C  C43  1  0.14357000  0.32037000  0.81963000  1.0 -0.1469394583
C  C44  1  0.96530000  0.58250000  0.89810000  1.0 -0.0331472908
C  C45  1  0.01460000  0.53520000  0.94600000  1.0 -0.1428462136
C  C46  1  0.09040000  0.36740000  0.77600000  1.0 -0.0362776895
C  C47  1  0.00230000  0.49970000  0.81310000  1.0 -0.1968002673
C  C48  1  0.10466000  0.40426000  0.90654000  1.0 0.0115866268
C  C49  1  0.87240000  0.72400000  0.93680000  1.0 0.4418776285
C  C50  1  0.12730000  0.27610000  0.68850000  1.0 0.4468463988
C  C51  1  0.21610000  0.33930000  0.04150000  1.0 -0.0495664719
C  C52  1  0.24605000  0.37405000  0.07995000  1.0 0.5783581119
N  N1  1  0.26359000  0.68031000  0.06669000  1.0 -0.4202324916
N  N2  1  0.25815000  0.82129000  0.07731000  1.0 -0.43069526
N  N3  1  0.98941000  0.06669000  0.68031000  1.0 -0.4202324916
N  N4  1  0.84325000  0.07731000  0.82129000  1.0 -0.43069526
N  N5  1  0.56969000  0.98641000  0.26059000  1.0 -0.4202324916
N  N6  1  0.42871000  0.99185000  0.40675000  1.0 -0.43069526
N  N7  1  0.18331000  0.26059000  0.98641000  1.0 -0.4202324916
N  N8  1  0.17269000  0.40675000  0.99185000  1.0 -0.43069526
O  O1  1  0.18554000  0.64704000  0.00796000  1.0 -0.6278245915
O  O2  1  0.13311000  0.79337000  0.94623000  1.0 -0.5190866012
O  O3  1  0.31190000  0.75970000  0.46150000  1.0 0.0115866268
O  O4  1  0.24761000  0.89813000  0.39247000  1.0 -0.5879551787
O  O5  1  0.63840000  0.28040000  0.13040000  1.0 0.0115866268
O  O6  1  0.55841000  0.28827000  0.07473000  1.0 -0.5692237038
O  O7  1  0.19608000  0.99814000  0.01226000  1.0 -0.6084085871
O  O8  1  0.11658000  0.98968000  0.96972000  1.0 -0.5755894054
O  O9  1  0.36640000  0.73000000  0.41280000  1.0 0.0115866268
O  O10  1  0.58440000  0.31220000  0.18880000  1.0 0.0115866268
O  O11  1  0.15946000  0.00796000  0.64704000  1.0 -0.6278245915
O  O12  1  0.12729000  0.94623000  0.79337000  1.0 -0.5190866012
O  O13  1  0.46690000  0.46150000  0.75970000  1.0 0.0115866268
O  O14  1  0.46179000  0.39247000  0.89813000  1.0 -0.5879551787
O  O15  1  0.95080000  0.13040000  0.28040000  1.0 0.0115866268
O  O16  1  0.07859000  0.07473000  0.28827000  1.0 -0.5692237038
O  O17  1  0.79352000  0.01226000  0.99814000  1.0 -0.6084085871
O  O18  1  0.92402000  0.96972000  0.98968000  1.0 -0.5755894054
O  O19  1  0.49080000  0.41280000  0.73000000  1.0 0.0115866268
O  O20  1  0.91460000  0.18880000  0.31220000  1.0 0.0115866268
O  O21  1  0.60296000  0.06446000  0.09054000  1.0 -0.6278245915
O  O22  1  0.45663000  0.11689000  0.12271000  1.0 -0.5190866012
O  O23  1  0.49030000  0.93810000  0.78310000  1.0 0.0115866268
O  O24  1  0.35187000  0.00239000  0.78821000  1.0 -0.5879551787
O  O25  1  0.96960000  0.61160000  0.29920000  1.0 0.0115866268
O  O26  1  0.96173000  0.69159000  0.17141000  1.0 -0.5692237038
O  O27  1  0.25186000  0.05392000  0.45648000  1.0 -0.6084085871
O  O28  1  0.26032000  0.13342000  0.32598000  1.0 -0.5755894054
O  O29  1  0.52000000  0.88360000  0.75920000  1.0 0.0115866268
O  O30  1  0.93780000  0.66560000  0.33540000  1.0 0.0115866268
O  O31  1  0.24204000  0.09054000  0.06446000  1.0 -0.6278245915
O  O32  1  0.30377000  0.12271000  0.11689000  1.0 -0.5190866012
O  O33  1  0.78850000  0.78310000  0.93810000  1.0 0.0115866268
O  O34  1  0.85753000  0.78821000  0.00239000  1.0 -0.5879551787
O  O35  1  0.11960000  0.29920000  0.61160000  1.0 0.0115866268
O  O36  1  0.17527000  0.17141000  0.69159000  1.0 -0.5692237038
O  O37  1  0.23774000  0.45648000  0.05392000  1.0 -0.6084085871
O  O38  1  0.28028000  0.32598000  0.13342000  1.0 -0.5755894054
O  O39  1  0.83720000  0.75920000  0.88360000  1.0 0.0115866268
O  O40  1  0.06120000  0.33540000  0.66560000  1.0 0.0115866268
