# DDEC6 charges by PACMAN v1.1 (https://github.com/mtap-research/PACMAN-charge/)
data_CESFIQ_ASR_pacman
_symmetry_space_group_name_H-M   'P 1'
_cell_length_a   20.44330000
_cell_length_b   20.44330000
_cell_length_c   20.44330000
_cell_angle_alpha   53.59570000
_cell_angle_beta   53.59570000
_cell_angle_gamma   53.59570000
_symmetry_Int_Tables_number   1
_chemical_formula_structural   CuH11(C9O2)2
_chemical_formula_sum   'Cu6 H66 C108 O24'
_cell_volume   5136.36595240
_cell_formula_units_Z   6
loop_
 _symmetry_equiv_pos_site_id
 _symmetry_equiv_pos_as_xyz
  1  'x, y, z'
loop_
 _atom_site_type_symbol
 _atom_site_label
 _atom_site_symmetry_multiplicity
 _atom_site_fract_x
 _atom_site_fract_y
 _atom_site_fract_z
 _atom_site_occupancy
 _atom_site_charge
Cu  Cu1  1  0.56960000  0.99601000  0.99601000  1.0 0.8699852751
Cu  Cu2  1  0.99601000  0.99601000  0.56960000  1.0 0.8699852751
Cu  Cu3  1  0.99601000  0.56960000  0.99601000  1.0 0.8699852751
Cu  Cu4  1  0.43040000  0.00399000  0.00399000  1.0 0.8699852751
Cu  Cu5  1  0.00399000  0.43040000  0.00399000  1.0 0.8699852751
Cu  Cu6  1  0.00399000  0.00399000  0.43040000  1.0 0.8699852751
H  H1  1  0.56160000  0.03260000  0.35540000  1.0 0.0857204946
H  H2  1  0.03260000  0.35540000  0.56160000  1.0 0.0857204946
H  H3  1  0.35540000  0.56160000  0.03260000  1.0 0.0857204946
H  H4  1  0.43840000  0.64460000  0.96740000  1.0 0.0857204946
H  H5  1  0.96740000  0.43840000  0.64460000  1.0 0.0857204946
H  H6  1  0.64460000  0.96740000  0.43840000  1.0 0.0857204946
H  H7  1  0.43840000  0.96740000  0.64460000  1.0 0.0857204946
H  H8  1  0.96740000  0.64460000  0.43840000  1.0 0.0857204946
H  H9  1  0.64460000  0.43840000  0.96740000  1.0 0.0857204946
H  H10  1  0.56160000  0.35540000  0.03260000  1.0 0.0857204946
H  H11  1  0.03260000  0.56160000  0.35540000  1.0 0.0857204946
H  H12  1  0.35540000  0.03260000  0.56160000  1.0 0.0857204946
H  H13  1  0.48630000  0.04420000  0.29790000  1.0 0.0999340752
H  H14  1  0.04420000  0.29790000  0.48630000  1.0 0.0999340752
H  H15  1  0.29790000  0.48630000  0.04420000  1.0 0.0999340752
H  H16  1  0.51370000  0.70210000  0.95580000  1.0 0.0999340752
H  H17  1  0.95580000  0.51370000  0.70210000  1.0 0.0999340752
H  H18  1  0.70210000  0.95580000  0.51370000  1.0 0.0999340752
H  H19  1  0.51370000  0.95580000  0.70210000  1.0 0.0999340752
H  H20  1  0.95580000  0.70210000  0.51370000  1.0 0.0999340752
H  H21  1  0.70210000  0.51370000  0.95580000  1.0 0.0999340752
H  H22  1  0.48630000  0.29790000  0.04420000  1.0 0.0999340752
H  H23  1  0.04420000  0.48630000  0.29790000  1.0 0.0999340752
H  H24  1  0.29790000  0.04420000  0.48630000  1.0 0.0999340752
H  H25  1  0.35490000  0.91050000  0.53570000  1.0 0.0999340752
H  H26  1  0.91050000  0.53570000  0.35490000  1.0 0.0999340752
H  H27  1  0.53570000  0.35490000  0.91050000  1.0 0.0999340752
H  H28  1  0.64510000  0.46430000  0.08950000  1.0 0.0999340752
H  H29  1  0.08950000  0.64510000  0.46430000  1.0 0.0999340752
H  H30  1  0.46430000  0.08950000  0.64510000  1.0 0.0999340752
H  H31  1  0.64510000  0.08950000  0.46430000  1.0 0.0999340752
H  H32  1  0.08950000  0.46430000  0.64510000  1.0 0.0999340752
H  H33  1  0.46430000  0.64510000  0.08950000  1.0 0.0999340752
H  H34  1  0.35490000  0.53570000  0.91050000  1.0 0.0999340752
H  H35  1  0.91050000  0.35490000  0.53570000  1.0 0.0999340752
H  H36  1  0.53570000  0.91050000  0.35490000  1.0 0.0999340752
H  H37  1  0.58990000  0.90820000  0.43080000  1.0 0.0848585816
H  H38  1  0.90820000  0.43080000  0.58990000  1.0 0.0848585816
H  H39  1  0.43080000  0.58990000  0.90820000  1.0 0.0848585816
H  H40  1  0.41010000  0.56920000  0.09180000  1.0 0.0848585816
H  H41  1  0.09180000  0.41010000  0.56920000  1.0 0.0848585816
H  H42  1  0.56920000  0.09180000  0.41010000  1.0 0.0848585816
H  H43  1  0.41010000  0.09180000  0.56920000  1.0 0.0848585816
H  H44  1  0.09180000  0.56920000  0.41010000  1.0 0.0848585816
H  H45  1  0.56920000  0.41010000  0.09180000  1.0 0.0848585816
H  H46  1  0.58990000  0.43080000  0.90820000  1.0 0.0848585816
H  H47  1  0.90820000  0.58990000  0.43080000  1.0 0.0848585816
H  H48  1  0.43080000  0.90820000  0.58990000  1.0 0.0848585816
H  H49  1  0.47810000  0.96620000  0.25930000  1.0 0.1168279202
H  H50  1  0.96620000  0.25930000  0.47810000  1.0 0.1168279202
H  H51  1  0.25930000  0.47810000  0.96620000  1.0 0.1168279202
H  H52  1  0.52190000  0.74070000  0.03380000  1.0 0.1168279202
H  H53  1  0.03380000  0.52190000  0.74070000  1.0 0.1168279202
H  H54  1  0.74070000  0.03380000  0.52190000  1.0 0.1168279202
H  H55  1  0.52190000  0.03380000  0.74070000  1.0 0.1168279202
H  H56  1  0.03380000  0.74070000  0.52190000  1.0 0.1168279202
H  H57  1  0.74070000  0.52190000  0.03380000  1.0 0.1168279202
H  H58  1  0.47810000  0.25930000  0.96620000  1.0 0.1168279202
H  H59  1  0.96620000  0.47810000  0.25930000  1.0 0.1168279202
H  H60  1  0.25930000  0.96620000  0.47810000  1.0 0.1168279202
H  H61  1  0.27300000  0.96590000  0.27300000  1.0 0.1397194194
H  H62  1  0.96590000  0.27300000  0.27300000  1.0 0.1397194194
H  H63  1  0.27300000  0.27300000  0.96590000  1.0 0.1397194194
H  H64  1  0.72700000  0.72700000  0.03410000  1.0 0.1397194194
H  H65  1  0.03410000  0.72700000  0.72700000  1.0 0.1397194194
H  H66  1  0.72700000  0.03410000  0.72700000  1.0 0.1397194194
C  C1  1  0.48275000  0.99250000  0.48275000  1.0 -0.0342527328
C  C2  1  0.99250000  0.48275000  0.48275000  1.0 -0.0342527328
C  C3  1  0.48275000  0.48275000  0.99250000  1.0 -0.0405258393
C  C4  1  0.51725000  0.51725000  0.00750000  1.0 -0.0405258393
C  C5  1  0.00750000  0.51725000  0.51725000  1.0 -0.0405258393
C  C6  1  0.51725000  0.00750000  0.51725000  1.0 -0.0405258393
C  C7  1  0.51232000  0.01462000  0.39452000  1.0 -0.0829682299
C  C8  1  0.01462000  0.39452000  0.51232000  1.0 -0.0829682299
C  C9  1  0.39452000  0.51232000  0.01462000  1.0 -0.0829682299
C  C10  1  0.48768000  0.60548000  0.98538000  1.0 -0.0829682299
C  C11  1  0.98538000  0.48768000  0.60548000  1.0 -0.0829682299
C  C12  1  0.60548000  0.98538000  0.48768000  1.0 -0.0829682299
C  C13  1  0.48768000  0.98538000  0.60548000  1.0 -0.0829682299
C  C14  1  0.98538000  0.60548000  0.48768000  1.0 -0.0829682299
C  C15  1  0.60548000  0.48768000  0.98538000  1.0 -0.0829682299
C  C16  1  0.51232000  0.39452000  0.01462000  1.0 -0.0829682299
C  C17  1  0.01462000  0.51232000  0.39452000  1.0 -0.0829682299
C  C18  1  0.39452000  0.01462000  0.51232000  1.0 -0.0829682299
C  C19  1  0.47307000  0.01547000  0.35927000  1.0 -0.1122782303
C  C20  1  0.01547000  0.35927000  0.47307000  1.0 -0.1122782303
C  C21  1  0.35927000  0.47307000  0.01547000  1.0 -0.1122782303
C  C22  1  0.52693000  0.64073000  0.98453000  1.0 -0.1122782303
C  C23  1  0.98453000  0.52693000  0.64073000  1.0 -0.1122782303
C  C24  1  0.64073000  0.98453000  0.52693000  1.0 -0.1122782303
C  C25  1  0.52693000  0.98453000  0.64073000  1.0 -0.1122782303
C  C26  1  0.98453000  0.64073000  0.52693000  1.0 -0.1122782303
C  C27  1  0.64073000  0.52693000  0.98453000  1.0 -0.1122782303
C  C28  1  0.47307000  0.35927000  0.01547000  1.0 -0.1122782303
C  C29  1  0.01547000  0.47307000  0.35927000  1.0 -0.1122782303
C  C30  1  0.35927000  0.01547000  0.47307000  1.0 -0.1122782303
C  C31  1  0.41282000  0.97436000  0.41282000  1.0 -0.0029366997
C  C32  1  0.97436000  0.41282000  0.41282000  1.0 -0.0029366997
C  C33  1  0.41282000  0.41282000  0.97436000  1.0 -0.0029366997
C  C34  1  0.58718000  0.58718000  0.02564000  1.0 -0.0029366997
C  C35  1  0.02564000  0.58718000  0.58718000  1.0 -0.0029366997
C  C36  1  0.58718000  0.02564000  0.58718000  1.0 -0.0029366997
C  C37  1  0.39539000  0.93899000  0.49669000  1.0 -0.0553095861
C  C38  1  0.93899000  0.49669000  0.39539000  1.0 -0.0553095861
C  C39  1  0.49669000  0.39539000  0.93899000  1.0 -0.0553095861
C  C40  1  0.60461000  0.50331000  0.06101000  1.0 -0.0553095861
C  C41  1  0.06101000  0.60461000  0.50331000  1.0 -0.0553095861
C  C42  1  0.50331000  0.06101000  0.60461000  1.0 -0.0553095861
C  C43  1  0.60461000  0.06101000  0.50331000  1.0 -0.0553095861
C  C44  1  0.06101000  0.50331000  0.60461000  1.0 -0.0553095861
C  C45  1  0.50331000  0.60461000  0.06101000  1.0 -0.0553095861
C  C46  1  0.39539000  0.49669000  0.93899000  1.0 -0.0553095861
C  C47  1  0.93899000  0.39539000  0.49669000  1.0 -0.0553095861
C  C48  1  0.49669000  0.93899000  0.39539000  1.0 -0.0553095861
C  C49  1  0.53030000  0.94300000  0.43670000  1.0 -0.0405258393
C  C50  1  0.94300000  0.43670000  0.53030000  1.0 -0.0405258393
C  C51  1  0.43670000  0.53030000  0.94300000  1.0 -0.0405258393
C  C52  1  0.46970000  0.56330000  0.05700000  1.0 -0.0405258393
C  C53  1  0.05700000  0.46970000  0.56330000  1.0 -0.0405258393
C  C54  1  0.56330000  0.05700000  0.46970000  1.0 -0.0405258393
C  C55  1  0.46970000  0.05700000  0.56330000  1.0 -0.0405258393
C  C56  1  0.05700000  0.56330000  0.46970000  1.0 -0.0405258393
C  C57  1  0.56330000  0.46970000  0.05700000  1.0 -0.0405258393
C  C58  1  0.53030000  0.43670000  0.94300000  1.0 -0.0405258393
C  C59  1  0.94300000  0.53030000  0.43670000  1.0 -0.0405258393
C  C60  1  0.43670000  0.94300000  0.53030000  1.0 -0.0405258393
C  C61  1  0.37418000  0.96812000  0.37418000  1.0 0.0737139361
C  C62  1  0.96812000  0.37418000  0.37418000  1.0 0.0737139361
C  C63  1  0.37418000  0.37418000  0.96812000  1.0 0.0737139361
C  C64  1  0.62582000  0.62582000  0.03188000  1.0 0.0737139361
C  C65  1  0.03188000  0.62582000  0.62582000  1.0 0.0737139361
C  C66  1  0.62582000  0.03188000  0.62582000  1.0 0.0737139361
C  C67  1  0.42024000  0.96644000  0.29070000  1.0 -0.1631229146
C  C68  1  0.96644000  0.29070000  0.42024000  1.0 -0.1631229146
C  C69  1  0.29070000  0.42024000  0.96644000  1.0 -0.1631229146
C  C70  1  0.57976000  0.70930000  0.03356000  1.0 -0.1631229146
C  C71  1  0.03356000  0.57976000  0.70930000  1.0 -0.1631229146
C  C72  1  0.70930000  0.03356000  0.57976000  1.0 -0.1631229146
C  C73  1  0.57976000  0.03356000  0.70930000  1.0 -0.1631229146
C  C74  1  0.03356000  0.70930000  0.57976000  1.0 -0.1631229146
C  C75  1  0.70930000  0.57976000  0.03356000  1.0 -0.1631229146
C  C76  1  0.42024000  0.29070000  0.96644000  1.0 -0.1631229146
C  C77  1  0.96644000  0.42024000  0.29070000  1.0 -0.1631229146
C  C78  1  0.29070000  0.96644000  0.42024000  1.0 -0.1631229146
C  C79  1  0.38347000  0.96513000  0.25219000  1.0 -0.0342527328
C  C80  1  0.96513000  0.25219000  0.38347000  1.0 -0.0342527328
C  C81  1  0.25219000  0.38347000  0.96513000  1.0 -0.0342527328
C  C82  1  0.61653000  0.74781000  0.03487000  1.0 -0.0342527328
C  C83  1  0.03487000  0.61653000  0.74781000  1.0 -0.0342527328
C  C84  1  0.74781000  0.03487000  0.61653000  1.0 -0.0342527328
C  C85  1  0.61653000  0.03487000  0.74781000  1.0 -0.0342527328
C  C86  1  0.03487000  0.74781000  0.61653000  1.0 -0.0342527328
C  C87  1  0.74781000  0.61653000  0.03487000  1.0 -0.0342527328
C  C88  1  0.38347000  0.25219000  0.96513000  1.0 -0.0342527328
C  C89  1  0.96513000  0.38347000  0.25219000  1.0 -0.0342527328
C  C90  1  0.25219000  0.96513000  0.38347000  1.0 -0.0342527328
C  C91  1  0.29914000  0.96538000  0.29914000  1.0 -0.1035865171
C  C92  1  0.96538000  0.29914000  0.29914000  1.0 -0.1035865171
C  C93  1  0.29914000  0.29914000  0.96538000  1.0 -0.1035865171
C  C94  1  0.70086000  0.70086000  0.03462000  1.0 -0.1035865171
C  C95  1  0.03462000  0.70086000  0.70086000  1.0 -0.1035865171
C  C96  1  0.70086000  0.03462000  0.70086000  1.0 -0.1035865171
C  C97  1  0.42887000  0.97251000  0.16068000  1.0 0.575895183
C  C98  1  0.97251000  0.16068000  0.42887000  1.0 0.575895183
C  C99  1  0.16068000  0.42887000  0.97251000  1.0 0.575895183
C  C100  1  0.57113000  0.83932000  0.02749000  1.0 0.575895183
C  C101  1  0.02749000  0.57113000  0.83932000  1.0 0.575895183
C  C102  1  0.83932000  0.02749000  0.57113000  1.0 0.575895183
C  C103  1  0.57113000  0.02749000  0.83932000  1.0 0.575895183
C  C104  1  0.02749000  0.83932000  0.57113000  1.0 0.575895183
C  C105  1  0.83932000  0.57113000  0.02749000  1.0 0.575895183
C  C106  1  0.42887000  0.16068000  0.97251000  1.0 0.575895183
C  C107  1  0.97251000  0.42887000  0.16068000  1.0 0.575895183
C  C108  1  0.16068000  0.97251000  0.42887000  1.0 0.575895183
O  O1  1  0.50489000  0.97326000  0.12108000  1.0 -0.5219715509
O  O2  1  0.97326000  0.12108000  0.50489000  1.0 -0.5219715509
O  O3  1  0.12108000  0.50489000  0.97326000  1.0 -0.5219715509
O  O4  1  0.49511000  0.87892000  0.02674000  1.0 -0.5219715509
O  O5  1  0.02674000  0.49511000  0.87892000  1.0 -0.5219715509
O  O6  1  0.87892000  0.02674000  0.49511000  1.0 -0.5219715509
O  O7  1  0.49511000  0.02674000  0.87892000  1.0 -0.5219715509
O  O8  1  0.02674000  0.87892000  0.49511000  1.0 -0.5219715509
O  O9  1  0.87892000  0.49511000  0.02674000  1.0 -0.5219715509
O  O10  1  0.50489000  0.12108000  0.97326000  1.0 -0.5219715509
O  O11  1  0.97326000  0.50489000  0.12108000  1.0 -0.5219715509
O  O12  1  0.12108000  0.97326000  0.50489000  1.0 -0.5219715509
O  O13  1  0.38791000  0.97950000  0.12769000  1.0 -0.5219715509
O  O14  1  0.97950000  0.12769000  0.38791000  1.0 -0.5219715509
O  O15  1  0.12769000  0.38791000  0.97950000  1.0 -0.5219715509
O  O16  1  0.61209000  0.87231000  0.02050000  1.0 -0.5219715509
O  O17  1  0.02050000  0.61209000  0.87231000  1.0 -0.5219715509
O  O18  1  0.87231000  0.02050000  0.61209000  1.0 -0.5219715509
O  O19  1  0.61209000  0.02050000  0.87231000  1.0 -0.5219715509
O  O20  1  0.02050000  0.87231000  0.61209000  1.0 -0.5219715509
O  O21  1  0.87231000  0.61209000  0.02050000  1.0 -0.5219715509
O  O22  1  0.38791000  0.12769000  0.97950000  1.0 -0.5219715509
O  O23  1  0.97950000  0.38791000  0.12769000  1.0 -0.5219715509
O  O24  1  0.12769000  0.97950000  0.38791000  1.0 -0.5219715509
