# DDEC6 charges by PACMAN v1.1 (https://github.com/mtap-research/PACMAN-charge/)
data_CESFOW_ASR_pacman
_symmetry_space_group_name_H-M   'P 1'
_cell_length_a   16.74260000
_cell_length_b   16.74260000
_cell_length_c   16.74260000
_cell_angle_alpha   67.60840000
_cell_angle_beta   67.60840000
_cell_angle_gamma   67.60840000
_symmetry_Int_Tables_number   1
_chemical_formula_structural   CuH7C13O4
_chemical_formula_sum   'Cu6 H42 C78 O24'
_cell_volume   3856.48782799
_cell_formula_units_Z   6
loop_
 _symmetry_equiv_pos_site_id
 _symmetry_equiv_pos_as_xyz
  1  'x, y, z'
loop_
 _atom_site_type_symbol
 _atom_site_label
 _atom_site_symmetry_multiplicity
 _atom_site_fract_x
 _atom_site_fract_y
 _atom_site_fract_z
 _atom_site_occupancy
 _atom_site_charge
Cu  Cu1  1  0.50482000  0.50482000  0.07543000  1.0 0.8669923812
Cu  Cu2  1  0.50482000  0.07543000  0.50482000  1.0 0.8669923812
Cu  Cu3  1  0.07543000  0.50482000  0.50482000  1.0 0.8669923812
Cu  Cu4  1  0.49518000  0.92457000  0.49518000  1.0 0.8669923812
Cu  Cu5  1  0.49518000  0.49518000  0.92457000  1.0 0.8669923812
Cu  Cu6  1  0.92457000  0.49518000  0.49518000  1.0 0.8669923812
H  H1  1  0.02310000  0.57220000  0.84750000  1.0 0.0961552542
H  H2  1  0.57220000  0.84750000  0.02310000  1.0 0.0961552542
H  H3  1  0.84750000  0.02310000  0.57220000  1.0 0.0961552542
H  H4  1  0.97690000  0.15250000  0.42780000  1.0 0.0961552542
H  H5  1  0.42780000  0.97690000  0.15250000  1.0 0.0961552542
H  H6  1  0.15250000  0.42780000  0.97690000  1.0 0.0961552542
H  H7  1  0.97690000  0.42780000  0.15250000  1.0 0.0961552542
H  H8  1  0.42780000  0.15250000  0.97690000  1.0 0.0961552542
H  H9  1  0.15250000  0.97690000  0.42780000  1.0 0.0961552542
H  H10  1  0.02310000  0.84750000  0.57220000  1.0 0.0961552542
H  H11  1  0.57220000  0.02310000  0.84750000  1.0 0.0961552542
H  H12  1  0.84750000  0.57220000  0.02310000  1.0 0.0961552542
H  H13  1  0.09480000  0.59290000  0.92820000  1.0 0.0899398731
H  H14  1  0.59290000  0.92820000  0.09480000  1.0 0.0899398731
H  H15  1  0.92820000  0.09480000  0.59290000  1.0 0.0899398731
H  H16  1  0.90520000  0.07180000  0.40710000  1.0 0.0899398731
H  H17  1  0.40710000  0.90520000  0.07180000  1.0 0.0899398731
H  H18  1  0.07180000  0.40710000  0.90520000  1.0 0.0899398731
H  H19  1  0.90520000  0.40710000  0.07180000  1.0 0.0899398731
H  H20  1  0.40710000  0.07180000  0.90520000  1.0 0.0899398731
H  H21  1  0.07180000  0.90520000  0.40710000  1.0 0.0899398731
H  H22  1  0.09480000  0.92820000  0.59290000  1.0 0.0899398731
H  H23  1  0.59290000  0.09480000  0.92820000  1.0 0.0899398731
H  H24  1  0.92820000  0.59290000  0.09480000  1.0 0.0899398731
H  H25  1  0.78420000  0.48220000  0.00150000  1.0 0.1249033207
H  H26  1  0.48220000  0.00150000  0.78420000  1.0 0.1249033207
H  H27  1  0.00150000  0.78420000  0.48220000  1.0 0.1249033207
H  H28  1  0.21580000  0.99850000  0.51780000  1.0 0.1249033207
H  H29  1  0.51780000  0.21580000  0.99850000  1.0 0.1249033207
H  H30  1  0.99850000  0.51780000  0.21580000  1.0 0.1249033207
H  H31  1  0.21580000  0.51780000  0.99850000  1.0 0.1249033207
H  H32  1  0.51780000  0.99850000  0.21580000  1.0 0.1249033207
H  H33  1  0.99850000  0.21580000  0.51780000  1.0 0.1249033207
H  H34  1  0.78420000  0.00150000  0.48220000  1.0 0.1249033207
H  H35  1  0.48220000  0.78420000  0.00150000  1.0 0.1249033207
H  H36  1  0.00150000  0.48220000  0.78420000  1.0 0.1249033207
H  H37  1  0.76995000  0.47060000  0.76995000  1.0 0.1429680009
H  H38  1  0.47060000  0.76995000  0.76995000  1.0 0.1429680009
H  H39  1  0.76995000  0.76995000  0.47060000  1.0 0.1429680009
H  H40  1  0.23005000  0.23005000  0.52940000  1.0 0.1429680009
H  H41  1  0.52940000  0.23005000  0.23005000  1.0 0.1429680009
H  H42  1  0.23005000  0.52940000  0.23005000  1.0 0.1429680009
C  C1  1  0.01261000  0.54341000  0.91021000  1.0 -0.083128847
C  C2  1  0.54341000  0.91021000  0.01261000  1.0 -0.083128847
C  C3  1  0.91021000  0.01261000  0.54341000  1.0 -0.083128847
C  C4  1  0.98739000  0.08979000  0.45659000  1.0 -0.0893008422
C  C5  1  0.45659000  0.98739000  0.08979000  1.0 -0.083128847
C  C6  1  0.08979000  0.45659000  0.98739000  1.0 -0.083128847
C  C7  1  0.98739000  0.45659000  0.08979000  1.0 -0.0893008422
C  C8  1  0.45659000  0.08979000  0.98739000  1.0 -0.0893008422
C  C9  1  0.08979000  0.98739000  0.45659000  1.0 -0.0893008422
C  C10  1  0.01261000  0.91021000  0.54341000  1.0 -0.083128847
C  C11  1  0.54341000  0.01261000  0.91021000  1.0 -0.0893008422
C  C12  1  0.91021000  0.54341000  0.01261000  1.0 -0.0893008422
C  C13  1  0.05693000  0.55393000  0.95773000  1.0 -0.083128847
C  C14  1  0.55393000  0.95773000  0.05693000  1.0 -0.083128847
C  C15  1  0.95773000  0.05693000  0.55393000  1.0 -0.0893008422
C  C16  1  0.94307000  0.04227000  0.44607000  1.0 -0.0893008422
C  C17  1  0.44607000  0.94307000  0.04227000  1.0 -0.0893008422
C  C18  1  0.04227000  0.44607000  0.94307000  1.0 -0.0893008422
C  C19  1  0.94307000  0.44607000  0.04227000  1.0 -0.083128847
C  C20  1  0.44607000  0.04227000  0.94307000  1.0 -0.0893008422
C  C21  1  0.04227000  0.94307000  0.44607000  1.0 -0.0893008422
C  C22  1  0.05693000  0.95773000  0.55393000  1.0 -0.0893008422
C  C23  1  0.55393000  0.05693000  0.95773000  1.0 -0.0893008422
C  C24  1  0.95773000  0.55393000  0.05693000  1.0 -0.083128847
C  C25  1  0.95235000  0.49077000  0.95235000  1.0 0.0434163915
C  C26  1  0.49077000  0.95235000  0.95235000  1.0 0.0434163915
C  C27  1  0.95235000  0.95235000  0.49077000  1.0 0.0434163915
C  C28  1  0.04765000  0.04765000  0.50923000  1.0 0.0466705816
C  C29  1  0.50923000  0.04765000  0.04765000  1.0 0.0466705816
C  C30  1  0.04765000  0.50923000  0.04765000  1.0 0.0466705816
C  C31  1  0.90137000  0.48292000  0.90137000  1.0 0.0761975696
C  C32  1  0.48292000  0.90137000  0.90137000  1.0 0.0761975696
C  C33  1  0.90137000  0.90137000  0.48292000  1.0 0.0761975696
C  C34  1  0.09863000  0.09863000  0.51708000  1.0 0.0761975696
C  C35  1  0.51708000  0.09863000  0.09863000  1.0 0.0735291721
C  C36  1  0.09863000  0.51708000  0.09863000  1.0 0.0735291721
C  C37  1  0.81210000  0.48052000  0.94084000  1.0 -0.1630827194
C  C38  1  0.48052000  0.94084000  0.81210000  1.0 -0.1630827194
C  C39  1  0.94084000  0.81210000  0.48052000  1.0 -0.1630827194
C  C40  1  0.18790000  0.05916000  0.51948000  1.0 -0.1630827194
C  C41  1  0.51948000  0.18790000  0.05916000  1.0 -0.1630827194
C  C42  1  0.05916000  0.51948000  0.18790000  1.0 -0.1630827194
C  C43  1  0.18790000  0.51948000  0.05916000  1.0 -0.1630827194
C  C44  1  0.51948000  0.05916000  0.18790000  1.0 -0.1630827194
C  C45  1  0.05916000  0.18790000  0.51948000  1.0 -0.1630827194
C  C46  1  0.81210000  0.94084000  0.48052000  1.0 -0.1630827194
C  C47  1  0.48052000  0.81210000  0.94084000  1.0 -0.1630827194
C  C48  1  0.94084000  0.48052000  0.81210000  1.0 -0.1630827194
C  C49  1  0.76335000  0.47569000  0.89215000  1.0 -0.0216363845
C  C50  1  0.47569000  0.89215000  0.76335000  1.0 -0.0216363845
C  C51  1  0.89215000  0.76335000  0.47569000  1.0 -0.0216363845
C  C52  1  0.23665000  0.10785000  0.52431000  1.0 -0.0216363845
C  C53  1  0.52431000  0.23665000  0.10785000  1.0 -0.0216363845
C  C54  1  0.10785000  0.52431000  0.23665000  1.0 -0.0216363845
C  C55  1  0.23665000  0.52431000  0.10785000  1.0 -0.0216363845
C  C56  1  0.52431000  0.10785000  0.23665000  1.0 -0.0216363845
C  C57  1  0.10785000  0.23665000  0.52431000  1.0 -0.0216363845
C  C58  1  0.76335000  0.89215000  0.47569000  1.0 -0.0216363845
C  C59  1  0.47569000  0.76335000  0.89215000  1.0 -0.0216363845
C  C60  1  0.89215000  0.47569000  0.76335000  1.0 -0.0216363845
C  C61  1  0.80328000  0.47352000  0.80328000  1.0 -0.1161779891
C  C62  1  0.47352000  0.80328000  0.80328000  1.0 -0.1161779891
C  C63  1  0.80328000  0.80328000  0.47352000  1.0 -0.1161779891
C  C64  1  0.19672000  0.19672000  0.52648000  1.0 -0.1161779891
C  C65  1  0.52648000  0.19672000  0.19672000  1.0 -0.1161779891
C  C66  1  0.19672000  0.52648000  0.19672000  1.0 -0.1161779891
C  C67  1  0.66638000  0.47963000  0.93379000  1.0 0.5831994682
C  C68  1  0.47963000  0.93379000  0.66638000  1.0 0.5831994682
C  C69  1  0.93379000  0.66638000  0.47963000  1.0 0.5831994682
C  C70  1  0.33362000  0.06621000  0.52037000  1.0 0.5831994682
C  C71  1  0.52037000  0.33362000  0.06621000  1.0 0.5831994682
C  C72  1  0.06621000  0.52037000  0.33362000  1.0 0.5831994682
C  C73  1  0.33362000  0.52037000  0.06621000  1.0 0.5831994682
C  C74  1  0.52037000  0.06621000  0.33362000  1.0 0.5831994682
C  C75  1  0.06621000  0.33362000  0.52037000  1.0 0.5831994682
C  C76  1  0.66638000  0.93379000  0.47963000  1.0 0.5831994682
C  C77  1  0.47963000  0.66638000  0.93379000  1.0 0.5831994682
C  C78  1  0.93379000  0.47963000  0.66638000  1.0 0.5831994682
O  O1  1  0.63272000  0.48621000  0.01277000  1.0 -0.5215437244
O  O2  1  0.48621000  0.01277000  0.63272000  1.0 -0.5215437244
O  O3  1  0.01277000  0.63272000  0.48621000  1.0 -0.5215437244
O  O4  1  0.36728000  0.98723000  0.51379000  1.0 -0.5215437244
O  O5  1  0.51379000  0.36728000  0.98723000  1.0 -0.5215437244
O  O6  1  0.98723000  0.51379000  0.36728000  1.0 -0.5215437244
O  O7  1  0.36728000  0.51379000  0.98723000  1.0 -0.5215437244
O  O8  1  0.51379000  0.98723000  0.36728000  1.0 -0.5215437244
O  O9  1  0.98723000  0.36728000  0.51379000  1.0 -0.5215437244
O  O10  1  0.63272000  0.01277000  0.48621000  1.0 -0.5215437244
O  O11  1  0.48621000  0.63272000  0.01277000  1.0 -0.5215437244
O  O12  1  0.01277000  0.48621000  0.63272000  1.0 -0.5215437244
O  O13  1  0.62460000  0.47858000  0.88545000  1.0 -0.5215437244
O  O14  1  0.47858000  0.88545000  0.62460000  1.0 -0.5215437244
O  O15  1  0.88545000  0.62460000  0.47858000  1.0 -0.5215437244
O  O16  1  0.37540000  0.11455000  0.52142000  1.0 -0.5215437244
O  O17  1  0.52142000  0.37540000  0.11455000  1.0 -0.5215437244
O  O18  1  0.11455000  0.52142000  0.37540000  1.0 -0.5215437244
O  O19  1  0.37540000  0.52142000  0.11455000  1.0 -0.5215437244
O  O20  1  0.52142000  0.11455000  0.37540000  1.0 -0.5215437244
O  O21  1  0.11455000  0.37540000  0.52142000  1.0 -0.5215437244
O  O22  1  0.62460000  0.88545000  0.47858000  1.0 -0.5215437244
O  O23  1  0.47858000  0.62460000  0.88545000  1.0 -0.5215437244
O  O24  1  0.88545000  0.47858000  0.62460000  1.0 -0.5215437244
