# DDEC6 charges by PACMAN v1.1 (https://github.com/mtap-research/PACMAN-charge/)
data_CESNUM_ASR_pacman
_symmetry_space_group_name_H-M   'P 1'
_cell_length_a   9.58700000
_cell_length_b   11.38200000
_cell_length_c   16.44300000
_cell_angle_alpha   88.87200000
_cell_angle_beta   100.85100000
_cell_angle_gamma   97.31600000
_symmetry_Int_Tables_number   1
_chemical_formula_structural   CdH4C6NO2
_chemical_formula_sum   'Cd10 H40 C60 N10 O20'
_cell_volume   1747.80368310
_cell_formula_units_Z   10
loop_
 _symmetry_equiv_pos_site_id
 _symmetry_equiv_pos_as_xyz
  1  'x, y, z'
loop_
 _atom_site_type_symbol
 _atom_site_label
 _atom_site_symmetry_multiplicity
 _atom_site_fract_x
 _atom_site_fract_y
 _atom_site_fract_z
 _atom_site_occupancy
 _atom_site_charge
Cd  Cd1  1  0.46800000  0.97430000  0.37745000  1.0 0.6319126454
Cd  Cd2  1  0.50743000  0.68515000  0.28209000  1.0 0.9618336526
Cd  Cd3  1  0.54394000  0.65568000  0.05859000  1.0 0.6227058736
Cd  Cd4  1  0.52340000  0.98820000  0.39220000  1.0 0.6517125037
Cd  Cd5  1  0.47160000  0.64480000  0.04760000  1.0 0.6005597678
Cd  Cd6  1  0.53200000  0.02570000  0.62255000  1.0 0.6319126454
Cd  Cd7  1  0.49257000  0.31485000  0.71791000  1.0 0.9618336526
Cd  Cd8  1  0.45606000  0.34432000  0.94141000  1.0 0.6227058736
Cd  Cd9  1  0.47660000  0.01180000  0.60780000  1.0 0.6517125037
Cd  Cd10  1  0.52840000  0.35520000  0.95240000  1.0 0.6005597678
H  H1  1  0.95580000  0.06950000  0.41820000  1.0 0.1297017713
H  H2  1  0.19930000  0.10040000  0.42060000  1.0 0.0892310011
H  H3  1  0.18860000  0.79350000  0.31710000  1.0 0.0993234326
H  H4  1  0.94820000  0.75160000  0.32300000  1.0 0.1232294072
H  H5  1  0.28140000  0.59930000  0.49140000  1.0 0.1232294072
H  H6  1  0.28610000  0.43730000  0.57710000  1.0 0.0993234326
H  H7  1  0.68410000  0.54330000  0.67620000  1.0 0.1054339972
H  H8  1  0.67990000  0.71240000  0.60040000  1.0 0.1232294072
H  H9  1  0.69760000  0.06370000  0.16320000  1.0 0.1362012443
H  H10  1  0.67500000  0.22680000  0.08050000  1.0 0.0892310011
H  H11  1  0.27800000  0.11140000  0.98920000  1.0 0.0993234326
H  H12  1  0.28510000  0.95410000  0.07560000  1.0 0.1362012443
H  H13  1  0.05370000  0.64020000  0.98570000  1.0 0.1297017713
H  H14  1  0.81500000  0.64300000  0.96130000  1.0 0.0892310011
H  H15  1  0.81970000  0.64890000  0.19900000  1.0 0.1054339972
H  H16  1  0.05780000  0.64530000  0.22560000  1.0 0.1232294072
H  H17  1  0.70800000  0.37140000  0.27190000  1.0 0.1297017713
H  H18  1  0.69290000  0.19960000  0.34550000  1.0 0.0993234326
H  H19  1  0.29510000  0.11480000  0.23820000  1.0 0.0993234326
H  H20  1  0.30660000  0.27850000  0.15650000  1.0 0.1297017713
H  H21  1  0.04420000  0.93050000  0.58180000  1.0 0.1297017713
H  H22  1  0.80070000  0.89960000  0.57940000  1.0 0.0892310011
H  H23  1  0.81140000  0.20650000  0.68290000  1.0 0.0993234326
H  H24  1  0.05180000  0.24840000  0.67700000  1.0 0.1232294072
H  H25  1  0.71860000  0.40070000  0.50860000  1.0 0.1232294072
H  H26  1  0.71390000  0.56270000  0.42290000  1.0 0.0993234326
H  H27  1  0.31590000  0.45670000  0.32380000  1.0 0.1054339972
H  H28  1  0.32010000  0.28760000  0.39960000  1.0 0.1232294072
H  H29  1  0.30240000  0.93630000  0.83680000  1.0 0.1362012443
H  H30  1  0.32500000  0.77320000  0.91950000  1.0 0.0892310011
H  H31  1  0.72200000  0.88860000  0.01080000  1.0 0.0993234326
H  H32  1  0.71490000  0.04590000  0.92440000  1.0 0.1362012443
H  H33  1  0.94630000  0.35980000  0.01430000  1.0 0.1297017713
H  H34  1  0.18500000  0.35700000  0.03870000  1.0 0.0892310011
H  H35  1  0.18030000  0.35110000  0.80100000  1.0 0.1054339972
H  H36  1  0.94220000  0.35470000  0.77440000  1.0 0.1232294072
H  H37  1  0.29200000  0.62860000  0.72810000  1.0 0.1297017713
H  H38  1  0.30710000  0.80040000  0.65450000  1.0 0.0993234326
H  H39  1  0.70490000  0.88520000  0.76180000  1.0 0.0993234326
H  H40  1  0.69340000  0.72150000  0.84350000  1.0 0.1297017713
C  C1  1  0.76780000  0.88270000  0.36620000  1.0 0.5100461212
C  C2  1  0.92500000  0.90860000  0.36860000  1.0 0.0085486844
C  C3  1  0.00100000  0.01110000  0.39840000  1.0 -0.1767555567
C  C4  1  0.14900000  0.02890000  0.39910000  1.0 0.0539527279
C  C5  1  0.14400000  0.84900000  0.34000000  1.0 0.0401026832
C  C6  1  0.99700000  0.82500000  0.34110000  1.0 -0.1627701609
C  C7  1  0.47800000  0.77450000  0.47950000  1.0 0.3700883654
C  C8  1  0.48040000  0.67220000  0.53310000  1.0 0.0010491298
C  C9  1  0.36460000  0.59010000  0.52920000  1.0 -0.1767555567
C  C10  1  0.36770000  0.49210000  0.58100000  1.0 0.0713939224
C  C11  1  0.60070000  0.55600000  0.63980000  1.0 0.0401026832
C  C12  1  0.60000000  0.65530000  0.59280000  1.0 -0.1767555567
C  C13  1  0.50410000  0.88470000  0.18550000  1.0 0.5182186333
C  C14  1  0.49580000  0.98710000  0.12940000  1.0 0.0085486844
C  C15  1  0.61020000  0.07170000  0.12910000  1.0 -0.1627701609
C  C16  1  0.59610000  0.16940000  0.07810000  1.0 0.0401026832
C  C17  1  0.36280000  0.10250000  0.02560000  1.0 0.0401026832
C  C18  1  0.36750000  0.00710000  0.07610000  1.0 -0.1627701609
C  C19  1  0.24290000  0.64070000  0.12680000  1.0 0.4743447271
C  C20  1  0.08800000  0.64600000  0.10810000  1.0 0.0010491298
C  C21  1  0.00800000  0.64300000  0.03060000  1.0 -0.1767555567
C  C22  1  0.86400000  0.64600000  0.01590000  1.0 0.0401026832
C  C23  1  0.86700000  0.64900000  0.15460000  1.0 0.0401026832
C  C24  1  0.01000000  0.64700000  0.17090000  1.0 -0.1627701609
C  C25  1  0.51740000  0.44870000  0.15170000  1.0 0.4243916241
C  C26  1  0.50920000  0.34340000  0.20580000  1.0 0.0185783138
C  C27  1  0.62370000  0.31920000  0.26320000  1.0 -0.149948034
C  C28  1  0.61310000  0.21730000  0.30790000  1.0 -0.0014573937
C  C29  1  0.38010000  0.16600000  0.24440000  1.0 0.0713939224
C  C30  1  0.38590000  0.26450000  0.19600000  1.0 -0.1767555567
C  C31  1  0.23220000  0.11730000  0.63380000  1.0 0.5100461212
C  C32  1  0.07500000  0.09140000  0.63140000  1.0 0.0085486844
C  C33  1  0.99900000  0.98890000  0.60160000  1.0 -0.1767555567
C  C34  1  0.85100000  0.97110000  0.60090000  1.0 0.0539527279
C  C35  1  0.85600000  0.15100000  0.66000000  1.0 0.0401026832
C  C36  1  0.00300000  0.17500000  0.65890000  1.0 -0.1627701609
C  C37  1  0.52200000  0.22550000  0.52050000  1.0 0.3700883654
C  C38  1  0.51960000  0.32780000  0.46690000  1.0 0.0010491298
C  C39  1  0.63540000  0.40990000  0.47080000  1.0 -0.1767555567
C  C40  1  0.63230000  0.50790000  0.41900000  1.0 0.0713939224
C  C41  1  0.39930000  0.44400000  0.36020000  1.0 0.0401026832
C  C42  1  0.40000000  0.34470000  0.40720000  1.0 -0.1767555567
C  C43  1  0.49590000  0.11530000  0.81450000  1.0 0.5182186333
C  C44  1  0.50420000  0.01290000  0.87060000  1.0 0.0085486844
C  C45  1  0.38980000  0.92830000  0.87090000  1.0 -0.1627701609
C  C46  1  0.40390000  0.83060000  0.92190000  1.0 0.0401026832
C  C47  1  0.63720000  0.89750000  0.97440000  1.0 0.0401026832
C  C48  1  0.63250000  0.99290000  0.92390000  1.0 -0.1627701609
C  C49  1  0.75710000  0.35930000  0.87320000  1.0 0.4743447271
C  C50  1  0.91200000  0.35400000  0.89190000  1.0 0.0010491298
C  C51  1  0.99200000  0.35700000  0.96940000  1.0 -0.1767555567
C  C52  1  0.13600000  0.35400000  0.98410000  1.0 0.0401026832
C  C53  1  0.13300000  0.35100000  0.84540000  1.0 0.0401026832
C  C54  1  0.99000000  0.35300000  0.82910000  1.0 -0.1627701609
C  C55  1  0.48260000  0.55130000  0.84830000  1.0 0.4243916241
C  C56  1  0.49080000  0.65660000  0.79420000  1.0 0.0185783138
C  C57  1  0.37630000  0.68080000  0.73680000  1.0 -0.149948034
C  C58  1  0.38690000  0.78270000  0.69210000  1.0 -0.0014573937
C  C59  1  0.61990000  0.83400000  0.75560000  1.0 0.0713939224
C  C60  1  0.61410000  0.73550000  0.80400000  1.0 -0.1767555567
N  N1  1  0.22340000  0.95260000  0.37200000  1.0 -0.3085321668
N  N2  1  0.48260000  0.47450000  0.63520000  1.0 -0.257440153
N  N3  1  0.47810000  0.18560000  0.02660000  1.0 -0.2992524239
N  N4  1  0.78880000  0.65110000  0.07640000  1.0 -0.2992524239
N  N5  1  0.49070000  0.14100000  0.29940000  1.0 -0.3085321668
N  N6  1  0.77660000  0.04740000  0.62800000  1.0 -0.3085321668
N  N7  1  0.51740000  0.52550000  0.36480000  1.0 -0.257440153
N  N8  1  0.52190000  0.81440000  0.97340000  1.0 -0.2992524239
N  N9  1  0.21120000  0.34890000  0.92360000  1.0 -0.2944156858
N  N10  1  0.50930000  0.85900000  0.70060000  1.0 -0.3085321668
O  O1  1  0.70210000  0.96490000  0.37570000  1.0 -0.4672073904
O  O2  1  0.71490000  0.77260000  0.35180000  1.0 -0.5882711443
O  O3  1  0.51940000  0.88080000  0.51150000  1.0 -0.559009446
O  O4  1  0.42980000  0.76390000  0.40400000  1.0 -0.5256419214
O  O5  1  0.43150000  0.87510000  0.24160000  1.0 -0.559009446
O  O6  1  0.57620000  0.80500000  0.17150000  1.0 -0.559009446
O  O7  1  0.29780000  0.61730000  0.20160000  1.0 -0.5666300389
O  O8  1  0.31160000  0.66100000  0.06790000  1.0 -0.462085742
O  O9  1  0.57670000  0.54810000  0.18730000  1.0 -0.5666300389
O  O10  1  0.47760000  0.44320000  0.07670000  1.0 -0.4902936998
O  O11  1  0.29790000  0.03510000  0.62430000  1.0 -0.4672073904
O  O12  1  0.28510000  0.22740000  0.64820000  1.0 -0.5882711443
O  O13  1  0.48060000  0.11920000  0.48850000  1.0 -0.559009446
O  O14  1  0.57020000  0.23610000  0.59600000  1.0 -0.5248554381
O  O15  1  0.56850000  0.12490000  0.75840000  1.0 -0.559009446
O  O16  1  0.42380000  0.19500000  0.82850000  1.0 -0.559009446
O  O17  1  0.70220000  0.38270000  0.79840000  1.0 -0.5666300389
O  O18  1  0.68840000  0.33900000  0.93210000  1.0 -0.462085742
O  O19  1  0.42330000  0.45190000  0.81270000  1.0 -0.5666300389
O  O20  1  0.52240000  0.55680000  0.92330000  1.0 -0.4902936998
