# DDEC6 charges by PACMAN v1.1 (https://github.com/mtap-research/PACMAN-charge/)
data_CETFOZ_FSR_pacman
_symmetry_space_group_name_H-M   'P 1'
_cell_length_a   11.38900000
_cell_length_b   13.00500000
_cell_length_c   11.83600000
_cell_angle_alpha   90.00000000
_cell_angle_beta   107.64000000
_cell_angle_gamma   90.00000000
_symmetry_Int_Tables_number   1
_chemical_formula_structural   CuH9C13N4O5
_chemical_formula_sum   'Cu4 H36 C52 N16 O20'
_cell_volume   1670.64583442
_cell_formula_units_Z   4
loop_
 _symmetry_equiv_pos_site_id
 _symmetry_equiv_pos_as_xyz
  1  'x, y, z'
loop_
 _atom_site_type_symbol
 _atom_site_label
 _atom_site_symmetry_multiplicity
 _atom_site_fract_x
 _atom_site_fract_y
 _atom_site_fract_z
 _atom_site_occupancy
 _atom_site_charge
Cu  Cu1  1  0.10192000  0.40856000  0.43807000  1.0 0.6078427858
Cu  Cu2  1  0.39808000  0.90856000  0.56193000  1.0 0.6078427858
Cu  Cu3  1  0.89808000  0.59144000  0.56193000  1.0 0.6078427858
Cu  Cu4  1  0.60192000  0.09144000  0.43807000  1.0 0.6078427858
H  H1  1  0.33055000  0.48894000  0.57130000  1.0 0.1301018713
H  H2  1  0.53508000  0.40553000  0.68827000  1.0 0.1384459289
H  H3  1  0.83651000  0.52081000  0.44329000  1.0 0.1384459289
H  H4  1  0.65531000  0.44715000  0.27571000  1.0 0.3143729098
H  H5  1  0.96741000  0.35746000  0.18951000  1.0 0.1485475578
H  H6  1  0.51733000  0.68274000  0.02303000  1.0 0.1072147392
H  H7  1  0.67295000  0.57972000  0.17931000  1.0 0.1301018713
H  H8  1  0.74464000  0.32906000  0.06551000  1.0 0.1301018713
H  H9  1  0.67871000  0.31225000  0.17835000  1.0 0.1384459289
H  H10  1  0.16945000  0.98894000  0.42870000  1.0 0.1301018713
H  H11  1  0.96492000  0.90553000  0.31173000  1.0 0.1384459289
H  H12  1  0.66349000  0.02081000  0.55671000  1.0 0.1384459289
H  H13  1  0.84469000  0.94715000  0.72429000  1.0 0.3143729098
H  H14  1  0.53259000  0.85746000  0.81049000  1.0 0.1485475578
H  H15  1  0.98267000  0.18274000  0.97697000  1.0 0.1072147392
H  H16  1  0.82705000  0.07972000  0.82069000  1.0 0.1301018713
H  H17  1  0.75536000  0.82906000  0.93449000  1.0 0.1301018713
H  H18  1  0.82129000  0.81225000  0.82165000  1.0 0.1384459289
H  H19  1  0.66945000  0.51106000  0.42870000  1.0 0.1301018713
H  H20  1  0.46492000  0.59447000  0.31173000  1.0 0.1384459289
H  H21  1  0.16349000  0.47919000  0.55671000  1.0 0.1384459289
H  H22  1  0.34469000  0.55285000  0.72429000  1.0 0.3143729098
H  H23  1  0.03259000  0.64254000  0.81049000  1.0 0.1485475578
H  H24  1  0.48267000  0.31726000  0.97697000  1.0 0.1072147392
H  H25  1  0.32705000  0.42028000  0.82069000  1.0 0.1301018713
H  H26  1  0.25536000  0.67094000  0.93449000  1.0 0.1301018713
H  H27  1  0.32129000  0.68775000  0.82165000  1.0 0.1384459289
H  H28  1  0.83055000  0.01106000  0.57130000  1.0 0.1301018713
H  H29  1  0.03508000  0.09447000  0.68827000  1.0 0.1384459289
H  H30  1  0.33651000  0.97919000  0.44329000  1.0 0.1384459289
H  H31  1  0.15531000  0.05285000  0.27571000  1.0 0.3143729098
H  H32  1  0.46741000  0.14254000  0.18951000  1.0 0.1485475578
H  H33  1  0.01733000  0.81726000  0.02303000  1.0 0.1072147392
H  H34  1  0.17295000  0.92028000  0.17931000  1.0 0.1301018713
H  H35  1  0.24464000  0.17094000  0.06551000  1.0 0.1301018713
H  H36  1  0.17871000  0.18775000  0.17835000  1.0 0.1384459289
C  C1  1  0.92129000  0.40766000  0.22528000  1.0 -0.0107538772
C  C2  1  0.24095000  0.26628000  0.52423000  1.0 0.068091502
C  C3  1  0.35265000  0.21598000  0.59013000  1.0 0.0022045299
C  C4  1  0.46375000  0.35918000  0.64813000  1.0 0.1301018713
C  C5  1  0.35415000  0.41118000  0.58253000  1.0 -0.1646803789
C  C6  1  0.16233000  0.22048000  0.45073000  1.0 0.2577093482
C  C7  1  0.34092000  0.10519000  0.58615000  1.0 0.5003335155
C  C8  1  0.50110000  0.60464000  0.01280000  1.0 -0.1102824718
C  C9  1  0.75185000  0.44599000  0.27646000  1.0 -0.0107538772
C  C10  1  0.85038000  0.47785000  0.36916000  1.0 -0.1845150463
C  C11  1  0.60697000  0.54635000  0.10855000  1.0 -0.1215597786
C  C12  1  0.60423000  0.43953000  0.07379000  1.0 0.0786235664
C  C13  1  0.71177000  0.36391000  0.13010000  1.0 -0.046445602
C  C14  1  0.57871000  0.90766000  0.77472000  1.0 -0.0190081544
C  C15  1  0.25905000  0.76628000  0.47577000  1.0 0.068091502
C  C16  1  0.14735000  0.71598000  0.40987000  1.0 0.0022045299
C  C17  1  0.03625000  0.85918000  0.35187000  1.0 0.1301018713
C  C18  1  0.14585000  0.91118000  0.41747000  1.0 -0.1646803789
C  C19  1  0.33767000  0.72048000  0.54927000  1.0 0.2577093482
C  C20  1  0.15908000  0.60519000  0.41385000  1.0 0.5003335155
C  C21  1  0.99890000  0.10464000  0.98720000  1.0 -0.1102824718
C  C22  1  0.74815000  0.94599000  0.72354000  1.0 -0.0107538772
C  C23  1  0.64962000  0.97785000  0.63084000  1.0 -0.1845150463
C  C24  1  0.89303000  0.04635000  0.89145000  1.0 -0.1215597786
C  C25  1  0.89577000  0.93953000  0.92621000  1.0 0.0786235664
C  C26  1  0.78823000  0.86391000  0.86990000  1.0 -0.046445602
C  C27  1  0.07871000  0.59234000  0.77472000  1.0 -0.0190081544
C  C28  1  0.75905000  0.73372000  0.47577000  1.0 0.068091502
C  C29  1  0.64735000  0.78402000  0.40987000  1.0 0.0022045299
C  C30  1  0.53625000  0.64082000  0.35187000  1.0 0.1301018713
C  C31  1  0.64585000  0.58882000  0.41747000  1.0 -0.1656888299
C  C32  1  0.83767000  0.77952000  0.54927000  1.0 0.2577093482
C  C33  1  0.65908000  0.89481000  0.41385000  1.0 0.5003335155
C  C34  1  0.49890000  0.39536000  0.98720000  1.0 -0.1102824718
C  C35  1  0.24815000  0.55401000  0.72354000  1.0 -0.0107538772
C  C36  1  0.14962000  0.52215000  0.63084000  1.0 -0.1845150463
C  C37  1  0.39303000  0.45365000  0.89145000  1.0 -0.1215597786
C  C38  1  0.39577000  0.56047000  0.92621000  1.0 0.0786235664
C  C39  1  0.28823000  0.63609000  0.86990000  1.0 -0.046445602
C  C40  1  0.42129000  0.09234000  0.22528000  1.0 -0.0107538772
C  C41  1  0.74095000  0.23372000  0.52423000  1.0 0.068091502
C  C42  1  0.85265000  0.28402000  0.59013000  1.0 0.0022045299
C  C43  1  0.96375000  0.14082000  0.64813000  1.0 0.1301018713
C  C44  1  0.85415000  0.08882000  0.58253000  1.0 -0.1656888299
C  C45  1  0.66233000  0.27952000  0.45073000  1.0 0.2577093482
C  C46  1  0.84092000  0.39481000  0.58615000  1.0 0.5003335155
C  C47  1  0.00110000  0.89536000  0.01280000  1.0 -0.1102824718
C  C48  1  0.25185000  0.05401000  0.27646000  1.0 -0.0107538772
C  C49  1  0.35038000  0.02215000  0.36916000  1.0 -0.1845150463
C  C50  1  0.10697000  0.95365000  0.10855000  1.0 -0.1215597786
C  C51  1  0.10423000  0.06047000  0.07379000  1.0 0.0786235664
C  C52  1  0.21177000  0.13609000  0.13010000  1.0 -0.046445602
N  N1  1  0.22597000  0.35633000  0.51901000  1.0 -0.0190081544
N  N2  1  0.46395000  0.26158000  0.65325000  1.0 -0.2465653144
N  N3  1  0.79571000  0.40825000  0.19750000  1.0 0.1039035819
N  N4  1  0.95368000  0.45947000  0.33609000  1.0 -0.1410078615
N  N5  1  0.27403000  0.85633000  0.48099000  1.0 -0.0190081544
N  N6  1  0.03605000  0.76158000  0.34675000  1.0 -0.2465653144
N  N7  1  0.70429000  0.90825000  0.80250000  1.0 0.1039035819
N  N8  1  0.54632000  0.95947000  0.66391000  1.0 -0.1410078615
N  N9  1  0.77403000  0.64367000  0.48099000  1.0 -0.0190081544
N  N10  1  0.53605000  0.73842000  0.34675000  1.0 -0.2465653144
N  N11  1  0.20429000  0.59175000  0.80250000  1.0 0.1039035819
N  N12  1  0.04632000  0.54053000  0.66391000  1.0 -0.1410078615
N  N13  1  0.72597000  0.14367000  0.51901000  1.0 -0.0190081544
N  N14  1  0.96395000  0.23842000  0.65325000  1.0 -0.2465653144
N  N15  1  0.29571000  0.09175000  0.19750000  1.0 0.1039035819
N  N16  1  0.45368000  0.04053000  0.33609000  1.0 -0.1410078615
O  O1  1  0.04920000  0.29545000  0.39113000  1.0 -0.4401216194
O  O2  1  0.08381000  0.12689000  0.42583000  1.0 -0.4401216194
O  O3  1  0.40357000  0.04226000  0.56718000  1.0 -0.2211673804
O  O4  1  0.27700000  0.07888000  0.66450000  1.0 -0.4729766719
O  O5  1  0.02757000  0.03448000  0.23265000  1.0 -0.4899982907
O  O6  1  0.45080000  0.79545000  0.60887000  1.0 -0.4401216194
O  O7  1  0.41619000  0.62689000  0.57417000  1.0 -0.4401216194
O  O8  1  0.09643000  0.54226000  0.43282000  1.0 -0.2211673804
O  O9  1  0.22300000  0.57888000  0.33550000  1.0 -0.4729766719
O  O10  1  0.47243000  0.53448000  0.76735000  1.0 -0.4899982907
O  O11  1  0.95080000  0.70455000  0.60887000  1.0 -0.4401216194
O  O12  1  0.91619000  0.87311000  0.57417000  1.0 -0.4401216194
O  O13  1  0.59643000  0.95774000  0.43282000  1.0 -0.2211673804
O  O14  1  0.72300000  0.92112000  0.33550000  1.0 -0.4729766719
O  O15  1  0.97243000  0.96552000  0.76735000  1.0 -0.4899982907
O  O16  1  0.54920000  0.20455000  0.39113000  1.0 -0.4401216194
O  O17  1  0.58381000  0.37311000  0.42583000  1.0 -0.4401216194
O  O18  1  0.90357000  0.45774000  0.56718000  1.0 -0.2211673804
O  O19  1  0.77700000  0.42112000  0.66450000  1.0 -0.4729766719
O  O20  1  0.52757000  0.46552000  0.23265000  1.0 -0.4899982907
