# DDEC6 charges by PACMAN v1.1 (https://github.com/mtap-research/PACMAN-charge/)
data_CETHEQ_ASR_pacman
_symmetry_space_group_name_H-M   'P 1'
_cell_length_a   14.83220000
_cell_length_b   14.83220000
_cell_length_c   14.83220000
_cell_angle_alpha   114.24500000
_cell_angle_beta   114.24500000
_cell_angle_gamma   114.24500000
_symmetry_Int_Tables_number   1
_chemical_formula_structural   Cu3H13C8(N3O)2
_chemical_formula_sum   'Cu9 H39 C24 N18 O6'
_cell_volume   1945.90219957
_cell_formula_units_Z   3
loop_
 _symmetry_equiv_pos_site_id
 _symmetry_equiv_pos_as_xyz
  1  'x, y, z'
loop_
 _atom_site_type_symbol
 _atom_site_label
 _atom_site_symmetry_multiplicity
 _atom_site_fract_x
 _atom_site_fract_y
 _atom_site_fract_z
 _atom_site_occupancy
 _atom_site_charge
Cu  Cu1  1  0.67009000  0.26459000  0.26459000  1.0 0.3503579211
Cu  Cu2  1  0.26459000  0.26459000  0.67009000  1.0 0.3503579211
Cu  Cu3  1  0.26459000  0.67009000  0.26459000  1.0 0.3503579211
Cu  Cu4  1  0.96939000  0.44826000  0.56279000  1.0 0.7492503237
Cu  Cu5  1  0.44826000  0.56279000  0.96939000  1.0 0.7492503237
Cu  Cu6  1  0.56279000  0.96939000  0.44826000  1.0 0.7492503237
Cu  Cu7  1  0.96939000  0.56279000  0.44826000  1.0 0.7492503237
Cu  Cu8  1  0.44826000  0.96939000  0.56279000  1.0 0.7492503237
Cu  Cu9  1  0.56279000  0.44826000  0.96939000  1.0 0.7492503237
H  H1  1  0.80960000  0.47820000  0.47820000  1.0 0.3803701213
H  H2  1  0.47820000  0.47820000  0.80960000  1.0 0.3803701213
H  H3  1  0.47820000  0.80960000  0.47820000  1.0 0.3803701213
H  H4  1  0.42510000  0.99700000  0.14030000  1.0 0.1484431735
H  H5  1  0.99700000  0.14030000  0.42510000  1.0 0.1484431735
H  H6  1  0.14030000  0.42510000  0.99700000  1.0 0.1484431735
H  H7  1  0.42510000  0.14030000  0.99700000  1.0 0.1484431735
H  H8  1  0.99700000  0.42510000  0.14030000  1.0 0.1484431735
H  H9  1  0.14030000  0.99700000  0.42510000  1.0 0.1484431735
H  H10  1  0.41280000  0.89160000  0.15360000  1.0 0.1448003661
H  H11  1  0.89160000  0.15360000  0.41280000  1.0 0.1448003661
H  H12  1  0.15360000  0.41280000  0.89160000  1.0 0.1448003661
H  H13  1  0.41280000  0.15360000  0.89160000  1.0 0.1448003661
H  H14  1  0.89160000  0.41280000  0.15360000  1.0 0.1448003661
H  H15  1  0.15360000  0.89160000  0.41280000  1.0 0.1448003661
H  H16  1  0.38870000  0.98190000  0.22390000  1.0 0.1612341638
H  H17  1  0.98190000  0.22390000  0.38870000  1.0 0.1612341638
H  H18  1  0.22390000  0.38870000  0.98190000  1.0 0.1612341638
H  H19  1  0.38870000  0.22390000  0.98190000  1.0 0.1612341638
H  H20  1  0.98190000  0.38870000  0.22390000  1.0 0.1612341638
H  H21  1  0.22390000  0.98190000  0.38870000  1.0 0.1612341638
H  H22  1  0.98060000  0.36160000  0.71630000  1.0 0.1292818721
H  H23  1  0.36160000  0.71630000  0.98060000  1.0 0.1292818721
H  H24  1  0.71630000  0.98060000  0.36160000  1.0 0.1292818721
H  H25  1  0.98060000  0.71630000  0.36160000  1.0 0.1292818721
H  H26  1  0.36160000  0.98060000  0.71630000  1.0 0.1292818721
H  H27  1  0.71630000  0.36160000  0.98060000  1.0 0.1292818721
H  H28  1  0.86832000  0.29478000  0.72110000  1.0 0.1612341638
H  H29  1  0.29478000  0.72110000  0.86832000  1.0 0.1612341638
H  H30  1  0.72110000  0.86832000  0.29478000  1.0 0.1612341638
H  H31  1  0.86832000  0.72110000  0.29478000  1.0 0.1612341638
H  H32  1  0.29478000  0.86832000  0.72110000  1.0 0.1612341638
H  H33  1  0.72110000  0.29478000  0.86832000  1.0 0.1612341638
H  H34  1  0.89750000  0.20890000  0.65450000  1.0 0.1484431735
H  H35  1  0.20890000  0.65450000  0.89750000  1.0 0.1448003661
H  H36  1  0.65450000  0.89750000  0.20890000  1.0 0.1448003661
H  H37  1  0.89750000  0.65450000  0.20890000  1.0 0.1484431735
H  H38  1  0.20890000  0.89750000  0.65450000  1.0 0.1448003661
H  H39  1  0.65450000  0.20890000  0.89750000  1.0 0.1484431735
C  C1  1  0.58750000  0.08950000  0.32640000  1.0 0.3803701213
C  C2  1  0.08950000  0.32640000  0.58750000  1.0 0.3803701213
C  C3  1  0.32640000  0.58750000  0.08950000  1.0 0.3803701213
C  C4  1  0.58750000  0.32640000  0.08950000  1.0 0.3803701213
C  C5  1  0.08950000  0.58750000  0.32640000  1.0 0.3803701213
C  C6  1  0.32640000  0.08950000  0.58750000  1.0 0.3803701213
C  C7  1  0.44160000  0.98120000  0.20080000  1.0 -0.5173249532
C  C8  1  0.98120000  0.20080000  0.44160000  1.0 -0.5173249532
C  C9  1  0.20080000  0.44160000  0.98120000  1.0 -0.5173249532
C  C10  1  0.44160000  0.20080000  0.98120000  1.0 -0.5173249532
C  C11  1  0.98120000  0.44160000  0.20080000  1.0 -0.5173249532
C  C12  1  0.20080000  0.98120000  0.44160000  1.0 -0.5173249532
C  C13  1  0.78110000  0.21760000  0.52790000  1.0 0.4015676688
C  C14  1  0.21760000  0.52790000  0.78110000  1.0 0.4015676688
C  C15  1  0.52790000  0.78110000  0.21760000  1.0 0.4015676688
C  C16  1  0.78110000  0.52790000  0.21760000  1.0 0.4015676688
C  C17  1  0.21760000  0.78110000  0.52790000  1.0 0.4015676688
C  C18  1  0.52790000  0.21760000  0.78110000  1.0 0.4015676688
C  C19  1  0.89170000  0.27580000  0.66720000  1.0 -0.5313570787
C  C20  1  0.27580000  0.66720000  0.89170000  1.0 -0.5313570787
C  C21  1  0.66720000  0.89170000  0.27580000  1.0 -0.5313570787
C  C22  1  0.89170000  0.66720000  0.27580000  1.0 -0.5313570787
C  C23  1  0.27580000  0.89170000  0.66720000  1.0 -0.5313570787
C  C24  1  0.66720000  0.27580000  0.89170000  1.0 -0.5313570787
N  N1  1  0.68100000  0.19490000  0.35490000  1.0 -0.2757849335
N  N2  1  0.19490000  0.35490000  0.68100000  1.0 -0.2757849335
N  N3  1  0.35490000  0.68100000  0.19490000  1.0 -0.2757849335
N  N4  1  0.68100000  0.35490000  0.19490000  1.0 -0.2757849335
N  N5  1  0.19490000  0.68100000  0.35490000  1.0 -0.2757849335
N  N6  1  0.35490000  0.19490000  0.68100000  1.0 -0.2757849335
N  N7  1  0.80850000  0.27900000  0.48620000  1.0 -0.303082316
N  N8  1  0.27900000  0.48620000  0.80850000  1.0 -0.303082316
N  N9  1  0.48620000  0.80850000  0.27900000  1.0 -0.303082316
N  N10  1  0.80850000  0.48620000  0.27900000  1.0 -0.303082316
N  N11  1  0.27900000  0.80850000  0.48620000  1.0 -0.303082316
N  N12  1  0.48620000  0.27900000  0.80850000  1.0 -0.303082316
N  N13  1  0.64760000  0.10020000  0.43440000  1.0 -0.4294532229
N  N14  1  0.10020000  0.43440000  0.64760000  1.0 -0.4294532229
N  N15  1  0.43440000  0.64760000  0.10020000  1.0 -0.4294532229
N  N16  1  0.64760000  0.43440000  0.10020000  1.0 -0.4294532229
N  N17  1  0.10020000  0.64760000  0.43440000  1.0 -0.4294532229
N  N18  1  0.43440000  0.10020000  0.64760000  1.0 -0.4294532229
O  O1  1  0.83800000  0.45050000  0.45050000  1.0 -0.7099681188
O  O2  1  0.45050000  0.45050000  0.83800000  1.0 -0.7099681188
O  O3  1  0.45050000  0.83800000  0.45050000  1.0 -0.7099681188
O  O4  1  0.10250000  0.61690000  0.61690000  1.0 -0.7523621608
O  O5  1  0.61690000  0.61690000  0.10250000  1.0 -0.7523621608
O  O6  1  0.61690000  0.10250000  0.61690000  1.0 -0.7523621608
