# DDEC6 charges by PACMAN v1.1 (https://github.com/mtap-research/PACMAN-charge/)
data_CETJAN_ASR_pacman
_symmetry_space_group_name_H-M   'P 1'
_cell_length_a   13.45100000
_cell_length_b   13.45100000
_cell_length_c   25.49800000
_cell_angle_alpha   90.00000000
_cell_angle_beta   90.00000000
_cell_angle_gamma   90.00000000
_symmetry_Int_Tables_number   1
_chemical_formula_structural   CoH20C31S2(N3O4)2
_chemical_formula_sum   'Co4 H80 C124 S8 N24 O32'
_cell_volume   4613.33786670
_cell_formula_units_Z   4
loop_
 _symmetry_equiv_pos_site_id
 _symmetry_equiv_pos_as_xyz
  1  'x, y, z'
loop_
 _atom_site_type_symbol
 _atom_site_label
 _atom_site_symmetry_multiplicity
 _atom_site_fract_x
 _atom_site_fract_y
 _atom_site_fract_z
 _atom_site_occupancy
 _atom_site_charge
Co  Co1  1  0.25000000  0.25000000  0.88824000  1.0 0.6840289091
Co  Co2  1  0.75000000  0.75000000  0.38824000  1.0 0.6840289091
Co  Co3  1  0.75000000  0.75000000  0.11176000  1.0 0.6840289091
Co  Co4  1  0.25000000  0.25000000  0.61176000  1.0 0.6840289091
H  H1  1  0.36713000  0.15397000  0.79235000  1.0 0.0730945974
H  H2  1  0.51442000  0.19672000  0.73502000  1.0 0.1102273867
H  H3  1  0.51481000  0.49623000  0.80876000  1.0 0.1269750451
H  H4  1  0.36644000  0.43534000  0.86479000  1.0 0.0730945974
H  H5  1  0.77087000  0.41158000  0.66801000  1.0 0.0945640733
H  H6  1  0.58897000  0.27198000  0.60982000  1.0 0.0798488074
H  H7  1  0.76790000  0.09000000  0.48948000  1.0 0.1178522683
H  H8  1  0.57087000  0.87356000  0.55923000  1.0 0.1102273867
H  H9  1  0.79793000  0.97018000  0.41522000  1.0 0.0730945974
H  H10  1  0.60518000  0.75861000  0.48524000  1.0 0.0798488074
H  H11  1  0.13287000  0.34603000  0.79235000  1.0 0.0730945974
H  H12  1  0.98558000  0.30328000  0.73502000  1.0 0.1102273867
H  H13  1  0.98519000  0.00377000  0.80876000  1.0 0.1269750451
H  H14  1  0.13356000  0.06466000  0.86479000  1.0 0.0798488074
H  H15  1  0.72913000  0.08842000  0.66801000  1.0 0.0945640733
H  H16  1  0.91103000  0.22802000  0.60982000  1.0 0.0798488074
H  H17  1  0.73210000  0.41000000  0.48948000  1.0 0.1178522683
H  H18  1  0.92913000  0.62644000  0.55923000  1.0 0.1102273867
H  H19  1  0.70207000  0.52982000  0.41522000  1.0 0.0730945974
H  H20  1  0.89482000  0.74139000  0.48524000  1.0 0.0798488074
H  H21  1  0.84603000  0.86713000  0.29235000  1.0 0.0730945974
H  H22  1  0.80328000  0.01442000  0.23502000  1.0 0.1102273867
H  H23  1  0.50377000  0.01481000  0.30876000  1.0 0.1269750451
H  H24  1  0.56466000  0.86644000  0.36479000  1.0 0.0798488074
H  H25  1  0.58842000  0.27087000  0.16801000  1.0 0.0945640733
H  H26  1  0.72802000  0.08897000  0.10982000  1.0 0.0798488074
H  H27  1  0.91000000  0.26790000  0.98948000  1.0 0.1178522683
H  H28  1  0.12644000  0.07087000  0.05923000  1.0 0.1102273867
H  H29  1  0.02982000  0.29793000  0.91522000  1.0 0.0730945974
H  H30  1  0.24139000  0.10518000  0.98524000  1.0 0.0798488074
H  H31  1  0.65397000  0.63287000  0.29235000  1.0 0.0730945974
H  H32  1  0.69672000  0.48558000  0.23502000  1.0 0.1102273867
H  H33  1  0.99623000  0.48519000  0.30876000  1.0 0.1269750451
H  H34  1  0.93534000  0.63356000  0.36479000  1.0 0.0730945974
H  H35  1  0.91158000  0.22913000  0.16801000  1.0 0.0945640733
H  H36  1  0.77198000  0.41103000  0.10982000  1.0 0.0798488074
H  H37  1  0.59000000  0.23210000  0.98948000  1.0 0.1178522683
H  H38  1  0.37356000  0.42913000  0.05923000  1.0 0.1102273867
H  H39  1  0.47018000  0.20207000  0.91522000  1.0 0.0730945974
H  H40  1  0.25861000  0.39482000  0.98524000  1.0 0.0798488074
H  H41  1  0.63287000  0.84603000  0.20765000  1.0 0.0730945974
H  H42  1  0.48558000  0.80328000  0.26498000  1.0 0.1102273867
H  H43  1  0.48519000  0.50377000  0.19124000  1.0 0.1269750451
H  H44  1  0.63356000  0.56466000  0.13521000  1.0 0.0730945974
H  H45  1  0.22913000  0.58842000  0.33199000  1.0 0.0945640733
H  H46  1  0.41103000  0.72802000  0.39018000  1.0 0.0798488074
H  H47  1  0.23210000  0.91000000  0.51052000  1.0 0.1178522683
H  H48  1  0.42913000  0.12644000  0.44077000  1.0 0.1102273867
H  H49  1  0.20207000  0.02982000  0.58478000  1.0 0.0730945974
H  H50  1  0.39482000  0.24139000  0.51476000  1.0 0.0798488074
H  H51  1  0.86713000  0.65397000  0.20765000  1.0 0.0730945974
H  H52  1  0.01442000  0.69672000  0.26498000  1.0 0.1102273867
H  H53  1  0.01481000  0.99623000  0.19124000  1.0 0.1269750451
H  H54  1  0.86644000  0.93534000  0.13521000  1.0 0.0730945974
H  H55  1  0.27087000  0.91158000  0.33199000  1.0 0.0945640733
H  H56  1  0.08897000  0.77198000  0.39018000  1.0 0.0798488074
H  H57  1  0.26790000  0.59000000  0.51052000  1.0 0.1178522683
H  H58  1  0.07087000  0.37356000  0.44077000  1.0 0.1102273867
H  H59  1  0.29793000  0.47018000  0.58478000  1.0 0.0730945974
H  H60  1  0.10518000  0.25861000  0.51476000  1.0 0.0798488074
H  H61  1  0.15397000  0.13287000  0.70765000  1.0 0.0730945974
H  H62  1  0.19672000  0.98558000  0.76498000  1.0 0.1102273867
H  H63  1  0.49623000  0.98519000  0.69124000  1.0 0.1269750451
H  H64  1  0.43534000  0.13356000  0.63521000  1.0 0.0730945974
H  H65  1  0.41158000  0.72913000  0.83199000  1.0 0.0945640733
H  H66  1  0.27198000  0.91103000  0.89018000  1.0 0.0798488074
H  H67  1  0.09000000  0.73210000  0.01052000  1.0 0.1178522683
H  H68  1  0.87356000  0.92913000  0.94077000  1.0 0.1102273867
H  H69  1  0.97018000  0.70207000  0.08478000  1.0 0.0730945974
H  H70  1  0.75861000  0.89482000  0.01476000  1.0 0.0798488074
H  H71  1  0.34603000  0.36713000  0.70765000  1.0 0.0730945974
H  H72  1  0.30328000  0.51442000  0.76498000  1.0 0.1102273867
H  H73  1  0.00377000  0.51481000  0.69124000  1.0 0.1269750451
H  H74  1  0.06466000  0.36644000  0.63521000  1.0 0.0730945974
H  H75  1  0.08842000  0.77087000  0.83199000  1.0 0.0945640733
H  H76  1  0.22802000  0.58897000  0.89018000  1.0 0.0798488074
H  H77  1  0.41000000  0.76790000  0.01052000  1.0 0.1178522683
H  H78  1  0.62644000  0.57087000  0.94077000  1.0 0.1102273867
H  H79  1  0.52982000  0.79793000  0.08478000  1.0 0.0730945974
H  H80  1  0.74139000  0.60518000  0.01476000  1.0 0.0798488074
C  C1  1  0.12650000  0.44700000  0.89320000  1.0 0.2408606564
C  C2  1  0.40330000  0.23040000  0.79540000  1.0 0.1020458867
C  C3  1  0.48430000  0.25380000  0.76400000  1.0 -0.1223903889
C  C4  1  0.52660000  0.34930000  0.76950000  1.0 -0.019452658
C  C5  1  0.48340000  0.41780000  0.80520000  1.0 -0.1278504649
C  C6  1  0.40270000  0.38420000  0.83470000  1.0 0.1102273867
C  C7  1  0.61130000  0.38270000  0.73730000  1.0 0.5194529188
C  C8  1  0.72550000  0.34040000  0.67200000  1.0 0.0358844889
C  C9  1  0.66050000  0.22780000  0.60420000  1.0 0.0080908425
C  C10  1  0.63480000  0.06200000  0.57000000  1.0 0.5194529188
C  C11  1  0.66060000  0.99420000  0.52760000  1.0 -0.019452658
C  C12  1  0.72730000  0.01560000  0.48930000  1.0 -0.1106599415
C  C13  1  0.62230000  0.89980000  0.52650000  1.0 -0.1106599415
C  C14  1  0.74760000  0.94780000  0.44920000  1.0 0.1178522683
C  C15  1  0.64380000  0.83400000  0.48670000  1.0 0.1020458867
C  C16  1  0.37350000  0.05300000  0.89320000  1.0 0.2408606564
C  C17  1  0.09670000  0.26960000  0.79540000  1.0 0.1020458867
C  C18  1  0.01570000  0.24620000  0.76400000  1.0 -0.1223903889
C  C19  1  0.97340000  0.15070000  0.76950000  1.0 -0.019452658
C  C20  1  0.01660000  0.08220000  0.80520000  1.0 -0.1278504649
C  C21  1  0.09730000  0.11580000  0.83470000  1.0 0.1102273867
C  C22  1  0.88870000  0.11730000  0.73730000  1.0 0.5194529188
C  C23  1  0.77450000  0.15960000  0.67200000  1.0 0.0358844889
C  C24  1  0.83950000  0.27220000  0.60420000  1.0 0.0080908425
C  C25  1  0.86520000  0.43800000  0.57000000  1.0 0.5194529188
C  C26  1  0.83940000  0.50580000  0.52760000  1.0 -0.019452658
C  C27  1  0.77270000  0.48440000  0.48930000  1.0 -0.1106599415
C  C28  1  0.87770000  0.60020000  0.52650000  1.0 -0.1106599415
C  C29  1  0.75240000  0.55220000  0.44920000  1.0 0.1178522683
C  C30  1  0.85620000  0.66600000  0.48670000  1.0 0.1020458867
C  C31  1  0.55300000  0.62650000  0.39320000  1.0 0.2408606564
C  C32  1  0.76960000  0.90330000  0.29540000  1.0 0.1020458867
C  C33  1  0.74620000  0.98430000  0.26400000  1.0 -0.1223903889
C  C34  1  0.65070000  0.02660000  0.26950000  1.0 -0.019452658
C  C35  1  0.58220000  0.98340000  0.30520000  1.0 -0.1278504649
C  C36  1  0.61580000  0.90270000  0.33470000  1.0 0.1102273867
C  C37  1  0.61730000  0.11130000  0.23730000  1.0 0.5194529188
C  C38  1  0.65960000  0.22550000  0.17200000  1.0 0.0358844889
C  C39  1  0.77220000  0.16050000  0.10420000  1.0 0.0080908425
C  C40  1  0.93800000  0.13480000  0.07000000  1.0 0.5194529188
C  C41  1  0.00580000  0.16060000  0.02760000  1.0 -0.019452658
C  C42  1  0.98440000  0.22730000  0.98930000  1.0 -0.1106599415
C  C43  1  0.10020000  0.12230000  0.02650000  1.0 -0.1106599415
C  C44  1  0.05220000  0.24760000  0.94920000  1.0 0.1178522683
C  C45  1  0.16600000  0.14380000  0.98670000  1.0 0.1020458867
C  C46  1  0.94700000  0.87350000  0.39320000  1.0 0.2408606564
C  C47  1  0.73040000  0.59670000  0.29540000  1.0 0.1020458867
C  C48  1  0.75380000  0.51570000  0.26400000  1.0 -0.1223903889
C  C49  1  0.84930000  0.47340000  0.26950000  1.0 -0.019452658
C  C50  1  0.91780000  0.51660000  0.30520000  1.0 -0.1278504649
C  C51  1  0.88420000  0.59730000  0.33470000  1.0 0.1102273867
C  C52  1  0.88270000  0.38870000  0.23730000  1.0 0.5194529188
C  C53  1  0.84040000  0.27450000  0.17200000  1.0 0.0358844889
C  C54  1  0.72780000  0.33950000  0.10420000  1.0 0.0080908425
C  C55  1  0.56200000  0.36520000  0.07000000  1.0 0.5194529188
C  C56  1  0.49420000  0.33940000  0.02760000  1.0 -0.019452658
C  C57  1  0.51560000  0.27270000  0.98930000  1.0 -0.1106599415
C  C58  1  0.39980000  0.37770000  0.02650000  1.0 -0.1106599415
C  C59  1  0.44780000  0.25240000  0.94920000  1.0 0.1178522683
C  C60  1  0.33400000  0.35620000  0.98670000  1.0 0.1020458867
C  C61  1  0.75000000  0.25000000  0.63770000  1.0 0.0080908425
C  C62  1  0.75000000  0.25000000  0.13770000  1.0 0.0080908425
C  C63  1  0.87350000  0.55300000  0.10680000  1.0 0.2408606564
C  C64  1  0.59670000  0.76960000  0.20460000  1.0 0.1020458867
C  C65  1  0.51570000  0.74620000  0.23600000  1.0 -0.1223903889
C  C66  1  0.47340000  0.65070000  0.23050000  1.0 -0.019452658
C  C67  1  0.51660000  0.58220000  0.19480000  1.0 -0.1278504649
C  C68  1  0.59730000  0.61580000  0.16530000  1.0 0.1102273867
C  C69  1  0.38870000  0.61730000  0.26270000  1.0 0.5194529188
C  C70  1  0.27450000  0.65960000  0.32800000  1.0 0.0358844889
C  C71  1  0.33950000  0.77220000  0.39580000  1.0 0.0080908425
C  C72  1  0.36520000  0.93800000  0.43000000  1.0 0.5194529188
C  C73  1  0.33940000  0.00580000  0.47240000  1.0 -0.019452658
C  C74  1  0.27270000  0.98440000  0.51070000  1.0 -0.1106599415
C  C75  1  0.37770000  0.10020000  0.47350000  1.0 -0.1106599415
C  C76  1  0.25240000  0.05220000  0.55080000  1.0 0.1178522683
C  C77  1  0.35620000  0.16600000  0.51330000  1.0 0.1020458867
C  C78  1  0.62650000  0.94700000  0.10680000  1.0 0.2408606564
C  C79  1  0.90330000  0.73040000  0.20460000  1.0 0.1020458867
C  C80  1  0.98430000  0.75380000  0.23600000  1.0 -0.1223903889
C  C81  1  0.02660000  0.84930000  0.23050000  1.0 -0.019452658
C  C82  1  0.98340000  0.91780000  0.19480000  1.0 -0.1278504649
C  C83  1  0.90270000  0.88420000  0.16530000  1.0 0.1102273867
C  C84  1  0.11130000  0.88270000  0.26270000  1.0 0.5194529188
C  C85  1  0.22550000  0.84040000  0.32800000  1.0 0.0358844889
C  C86  1  0.16050000  0.72780000  0.39580000  1.0 0.0080908425
C  C87  1  0.13480000  0.56200000  0.43000000  1.0 0.5194529188
C  C88  1  0.16060000  0.49420000  0.47240000  1.0 -0.019452658
C  C89  1  0.22730000  0.51560000  0.51070000  1.0 -0.1106599415
C  C90  1  0.12230000  0.39980000  0.47350000  1.0 -0.1106599415
C  C91  1  0.24760000  0.44780000  0.55080000  1.0 0.1178522683
C  C92  1  0.14380000  0.33400000  0.51330000  1.0 0.1020458867
C  C93  1  0.44700000  0.37350000  0.60680000  1.0 0.2408606564
C  C94  1  0.23040000  0.09670000  0.70460000  1.0 0.1020458867
C  C95  1  0.25380000  0.01570000  0.73600000  1.0 -0.1223903889
C  C96  1  0.34930000  0.97340000  0.73050000  1.0 -0.019452658
C  C97  1  0.41780000  0.01660000  0.69480000  1.0 -0.1278504649
C  C98  1  0.38420000  0.09730000  0.66530000  1.0 0.1102273867
C  C99  1  0.38270000  0.88870000  0.76270000  1.0 0.5194529188
C  C100  1  0.34040000  0.77450000  0.82800000  1.0 0.0358844889
C  C101  1  0.22780000  0.83950000  0.89580000  1.0 0.0080908425
C  C102  1  0.06200000  0.86520000  0.93000000  1.0 0.5194529188
C  C103  1  0.99420000  0.83940000  0.97240000  1.0 -0.019452658
C  C104  1  0.01560000  0.77270000  0.01070000  1.0 -0.1106599415
C  C105  1  0.89980000  0.87770000  0.97350000  1.0 -0.1106599415
C  C106  1  0.94780000  0.75240000  0.05080000  1.0 0.1178522683
C  C107  1  0.83400000  0.85620000  0.01330000  1.0 0.1020458867
C  C108  1  0.05300000  0.12650000  0.60680000  1.0 0.2408606564
C  C109  1  0.26960000  0.40330000  0.70460000  1.0 0.1020458867
C  C110  1  0.24620000  0.48430000  0.73600000  1.0 -0.1223903889
C  C111  1  0.15070000  0.52660000  0.73050000  1.0 -0.019452658
C  C112  1  0.08220000  0.48340000  0.69480000  1.0 -0.1278504649
C  C113  1  0.11580000  0.40270000  0.66530000  1.0 0.1102273867
C  C114  1  0.11730000  0.61130000  0.76270000  1.0 0.5194529188
C  C115  1  0.15960000  0.72550000  0.82800000  1.0 0.0358844889
C  C116  1  0.27220000  0.66050000  0.89580000  1.0 0.0080908425
C  C117  1  0.43800000  0.63480000  0.93000000  1.0 0.5194529188
C  C118  1  0.50580000  0.66060000  0.97240000  1.0 -0.019452658
C  C119  1  0.48440000  0.72730000  0.01070000  1.0 -0.1106599415
C  C120  1  0.60020000  0.62230000  0.97350000  1.0 -0.1106599415
C  C121  1  0.55220000  0.74760000  0.05080000  1.0 0.1178522683
C  C122  1  0.66600000  0.64380000  0.01330000  1.0 0.1020458867
C  C123  1  0.25000000  0.75000000  0.36230000  1.0 0.0080908425
C  C124  1  0.25000000  0.75000000  0.86230000  1.0 0.0080908425
S  S1  1  0.03520000  0.52070000  0.89790000  1.0 -0.3330842773
S  S2  1  0.46480000  0.97930000  0.89790000  1.0 -0.3330842773
S  S3  1  0.47930000  0.53520000  0.39790000  1.0 -0.3330842773
S  S4  1  0.02070000  0.96480000  0.39790000  1.0 -0.3330842773
S  S5  1  0.96480000  0.47930000  0.10210000  1.0 -0.3330842773
S  S6  1  0.53520000  0.02070000  0.10210000  1.0 -0.3330842773
S  S7  1  0.52070000  0.46480000  0.60210000  1.0 -0.3330842773
S  S8  1  0.97930000  0.03520000  0.60210000  1.0 -0.3330842773
N  N1  1  0.19130000  0.39270000  0.88680000  1.0 -0.4708807054
N  N2  1  0.36330000  0.29410000  0.83038000  1.0 -0.2519518132
N  N3  1  0.70950000  0.85830000  0.45000000  1.0 -0.2281815535
N  N4  1  0.30870000  0.10730000  0.88680000  1.0 -0.4708807054
N  N5  1  0.13670000  0.20590000  0.83038000  1.0 -0.2519518132
N  N6  1  0.79050000  0.64170000  0.45000000  1.0 -0.2281815535
N  N7  1  0.60730000  0.69130000  0.38680000  1.0 -0.4708807054
N  N8  1  0.70590000  0.86330000  0.33038000  1.0 -0.2519518132
N  N9  1  0.14170000  0.20950000  0.95000000  1.0 -0.2281815535
N  N10  1  0.89270000  0.80870000  0.38680000  1.0 -0.4708807054
N  N11  1  0.79410000  0.63670000  0.33038000  1.0 -0.2519518132
N  N12  1  0.35830000  0.29050000  0.95000000  1.0 -0.2281815535
N  N13  1  0.80870000  0.60730000  0.11320000  1.0 -0.4708807054
N  N14  1  0.63670000  0.70590000  0.16962000  1.0 -0.2519518132
N  N15  1  0.29050000  0.14170000  0.55000000  1.0 -0.2281815535
N  N16  1  0.69130000  0.89270000  0.11320000  1.0 -0.4708807054
N  N17  1  0.86330000  0.79410000  0.16962000  1.0 -0.2519518132
N  N18  1  0.20950000  0.35830000  0.55000000  1.0 -0.2281815535
N  N19  1  0.39270000  0.30870000  0.61320000  1.0 -0.4708807054
N  N20  1  0.29410000  0.13670000  0.66962000  1.0 -0.2519518132
N  N21  1  0.85830000  0.79050000  0.05000000  1.0 -0.2281815535
N  N22  1  0.10730000  0.19130000  0.61320000  1.0 -0.4708807054
N  N23  1  0.20590000  0.36330000  0.66962000  1.0 -0.2519518132
N  N24  1  0.64170000  0.70950000  0.05000000  1.0 -0.2281815535
O  O1  1  0.65290000  0.46000000  0.74320000  1.0 -0.4009362305
O  O2  1  0.64250000  0.31270000  0.70488000  1.0 -0.2114972318
O  O3  1  0.68310000  0.14720000  0.56756000  1.0 -0.2114972318
O  O4  1  0.58020000  0.04190000  0.60560000  1.0 -0.4239941532
O  O5  1  0.84710000  0.04000000  0.74320000  1.0 -0.4009362305
O  O6  1  0.85750000  0.18730000  0.70488000  1.0 -0.2114972318
O  O7  1  0.81690000  0.35280000  0.56756000  1.0 -0.2114972318
O  O8  1  0.91980000  0.45810000  0.60560000  1.0 -0.4239941532
O  O9  1  0.54000000  0.15290000  0.24320000  1.0 -0.4009362305
O  O10  1  0.68730000  0.14250000  0.20488000  1.0 -0.2114972318
O  O11  1  0.85280000  0.18310000  0.06756000  1.0 -0.2114972318
O  O12  1  0.95810000  0.08020000  0.10560000  1.0 -0.4239941532
O  O13  1  0.96000000  0.34710000  0.24320000  1.0 -0.4009362305
O  O14  1  0.81270000  0.35750000  0.20488000  1.0 -0.2114972318
O  O15  1  0.64720000  0.31690000  0.06756000  1.0 -0.2114972318
O  O16  1  0.54190000  0.41980000  0.10560000  1.0 -0.4239941532
O  O17  1  0.34710000  0.54000000  0.25680000  1.0 -0.4009362305
O  O18  1  0.35750000  0.68730000  0.29512000  1.0 -0.2114972318
O  O19  1  0.31690000  0.85280000  0.43244000  1.0 -0.2114972318
O  O20  1  0.41980000  0.95810000  0.39440000  1.0 -0.4239941532
O  O21  1  0.15290000  0.96000000  0.25680000  1.0 -0.4009362305
O  O22  1  0.14250000  0.81270000  0.29512000  1.0 -0.2114972318
O  O23  1  0.18310000  0.64720000  0.43244000  1.0 -0.2114972318
O  O24  1  0.08020000  0.54190000  0.39440000  1.0 -0.4239941532
O  O25  1  0.46000000  0.84710000  0.75680000  1.0 -0.4009362305
O  O26  1  0.31270000  0.85750000  0.79512000  1.0 -0.2114972318
O  O27  1  0.14720000  0.81690000  0.93244000  1.0 -0.2114972318
O  O28  1  0.04190000  0.91980000  0.89440000  1.0 -0.4239941532
O  O29  1  0.04000000  0.65290000  0.75680000  1.0 -0.4009362305
O  O30  1  0.18730000  0.64250000  0.79512000  1.0 -0.2114972318
O  O31  1  0.35280000  0.68310000  0.93244000  1.0 -0.2114972318
O  O32  1  0.45810000  0.58020000  0.89440000  1.0 -0.4239941532
