# DDEC6 charges by PACMAN v1.1 (https://github.com/mtap-research/PACMAN-charge/)
data_CEVCAK_ASR_pacman
_symmetry_space_group_name_H-M   'P 1'
_cell_length_a   13.56300000
_cell_length_b   13.57190000
_cell_length_c   13.65120000
_cell_angle_alpha   93.04400000
_cell_angle_beta   110.68300000
_cell_angle_gamma   108.35400000
_symmetry_Int_Tables_number   1
_chemical_formula_structural   Co3P2H54C78(N6O7)2
_chemical_formula_sum   'Co3 P2 H54 C78 N12 O14'
_cell_volume   2192.76701826
_cell_formula_units_Z   1
loop_
 _symmetry_equiv_pos_site_id
 _symmetry_equiv_pos_as_xyz
  1  'x, y, z'
loop_
 _atom_site_type_symbol
 _atom_site_label
 _atom_site_symmetry_multiplicity
 _atom_site_fract_x
 _atom_site_fract_y
 _atom_site_fract_z
 _atom_site_occupancy
 _atom_site_charge
Co  Co1  1  0.22169000  0.15684000  0.11359000  1.0 0.846573126
Co  Co2  1  0.23484000  0.67015000  0.69395000  1.0 0.7920349356
Co  Co3  1  0.02560000  0.57731000  0.23651000  1.0 0.5227508661
P  P1  1  0.81625000  0.01011000  0.49022000  1.0 0.8290838119
P  P2  1  0.62507000  0.29367000  0.72216000  1.0 0.8241275665
H  H1  1  0.04160000  0.34320000  0.45520000  1.0 0.1194826617
H  H2  1  0.93100000  0.16760000  0.40160000  1.0 0.1194826617
H  H3  1  0.91610000  0.16200000  0.68790000  1.0 0.1194826617
H  H4  1  0.03130000  0.33610000  0.74310000  1.0 0.128805971
H  H5  1  0.72440000  0.17310000  0.42700000  1.0 0.1118698408
H  H6  1  0.55090000  0.17440000  0.32080000  1.0 0.1194826617
H  H7  1  0.28270000  0.20990000  0.36480000  1.0 0.1118698408
H  H8  1  0.00140000  0.98270000  0.33680000  1.0 0.1467329156
H  H9  1  0.00670000  0.99140000  0.16100000  1.0 0.1467329156
H  H10  1  0.11600000  0.98230000  0.52170000  1.0 0.1400831358
H  H11  1  0.17480000  0.02000000  0.70630000  1.0 0.128805971
H  H12  1  0.32570000  0.32370000  0.70330000  1.0 0.128805971
H  H13  1  0.27130000  0.28470000  0.52130000  1.0 0.128805971
H  H14  1  0.15320000  0.10950000  0.86180000  1.0 0.1118698408
H  H15  1  0.44110000  0.30870000  0.06450000  1.0 0.1467329156
H  H16  1  0.44910000  0.30880000  0.88890000  1.0 0.1400831358
H  H17  1  0.42910000  0.86130000  0.25500000  1.0 0.1194826617
H  H18  1  0.60140000  0.85710000  0.36370000  1.0 0.128805971
H  H19  1  0.64670000  0.95850000  0.58550000  1.0 0.1194826617
H  H20  1  0.64560000  0.90390000  0.74280000  1.0 0.1118698408
H  H21  1  0.95650000  0.90230000  0.81970000  1.0 0.1194826617
H  H22  1  0.95770000  0.95150000  0.66150000  1.0 0.1118698408
H  H23  1  0.39950000  0.95500000  0.74190000  1.0 0.1118698408
H  H24  1  0.51040000  0.12810000  0.80280000  1.0 0.1194826617
H  H25  1  0.52350000  0.15420000  0.51730000  1.0 0.1118698408
H  H26  1  0.40060000  0.98130000  0.45160000  1.0 0.1194826617
H  H27  1  0.72300000  0.13000000  0.78150000  1.0 0.1118698408
H  H28  1  0.89320000  0.13380000  0.90310000  1.0 0.1194826617
H  H29  1  0.00860000  0.44810000  0.96440000  1.0 0.1194826617
H  H30  1  0.83560000  0.44560000  0.84770000  1.0 0.1194826617
H  H31  1  0.49250000  0.37460000  0.56470000  1.0 0.1118698408
H  H32  1  0.48830000  0.42080000  0.40190000  1.0 0.1194826617
H  H33  1  0.78740000  0.39140000  0.46450000  1.0 0.1194826617
H  H34  1  0.78860000  0.33980000  0.62210000  1.0 0.1118698408
H  H35  1  0.00290000  0.61460000  0.72340000  1.0 0.1118698408
H  H36  1  0.89080000  0.77310000  0.50280000  1.0 0.1400831358
H  H37  1  0.07700000  0.77710000  0.51680000  1.0 0.128805971
H  H38  1  0.88260000  0.63600000  0.79250000  1.0 0.128805971
H  H39  1  0.72720000  0.60660000  0.83580000  1.0 0.1400831358
H  H40  1  0.55320000  0.65140000  0.54740000  1.0 0.128805971
H  H41  1  0.70990000  0.68320000  0.50560000  1.0 0.1400831358
H  H42  1  0.45620000  0.70830000  0.64650000  1.0 0.1194826617
H  H43  1  0.37340000  0.53110000  0.84060000  1.0 0.128805971
H  H44  1  0.53710000  0.50600000  0.82540000  1.0 0.1400831358
H  H45  1  0.46220000  0.81010000  0.88320000  1.0 0.1194826617
H  H46  1  0.30790000  0.98060000  0.96720000  1.0 0.128805971
H  H47  1  0.16830000  0.82590000  0.84140000  1.0 0.128805971
H  H48  1  0.62620000  0.92720000  0.98220000  1.0 0.1400831358
H  H49  1  0.80010000  0.06440000  0.07150000  1.0 0.1400831358
H  H50  1  0.64580000  0.24260000  0.13390000  1.0 0.1400831358
H  H51  1  0.47640000  0.11030000  0.04900000  1.0 0.128805971
H  H52  1  0.80080000  0.37890000  0.15850000  1.0 0.1194826617
H  H53  1  0.10350000  0.36640000  0.27090000  1.0 0.1400831358
H  H54  1  0.97130000  0.18580000  0.20320000  1.0 0.128805971
C  C1  1  0.12030000  0.47250000  0.63920000  1.0 0.5227508661
C  C2  1  0.04750000  0.35870000  0.60450000  1.0 -0.0113865679
C  C3  1  0.01660000  0.30660000  0.50260000  1.0 -0.0983295316
C  C4  1  0.94950000  0.20170000  0.47010000  1.0 -0.0909014182
C  C5  1  0.90940000  0.14630000  0.53870000  1.0 -0.1386408541
C  C6  1  0.94140000  0.19840000  0.64050000  1.0 -0.0983295316
C  C7  1  0.01000000  0.30290000  0.67360000  1.0 -0.0983295316
C  C8  1  0.68180000  0.01500000  0.40770000  1.0 -0.1386408541
C  C9  1  0.66500000  0.10950000  0.39300000  1.0 -0.0983295316
C  C10  1  0.56100000  0.11020000  0.32830000  1.0 -0.0909014182
C  C11  1  0.47210000  0.01800000  0.27480000  1.0 -0.0113865679
C  C12  1  0.35960000  0.02160000  0.20330000  1.0 0.5487391766
C  C13  1  0.21380000  0.15410000  0.33540000  1.0 0.1025264826
C  C14  1  0.05850000  0.02880000  0.32100000  1.0 -0.0983295316
C  C15  1  0.06220000  0.03440000  0.22440000  1.0 -0.0219384335
C  C16  1  0.18920000  0.13010000  0.50430000  1.0 0.1582770662
C  C17  1  0.15900000  0.05100000  0.55860000  1.0 -0.1318224068
C  C18  1  0.19260000  0.07350000  0.66870000  1.0 -0.159168202
C  C19  1  0.25250000  0.17660000  0.72060000  1.0 0.1467329156
C  C20  1  0.28310000  0.25480000  0.66680000  1.0 -0.1318224068
C  C21  1  0.25090000  0.23140000  0.55810000  1.0 -0.159168202
C  C22  1  0.22610000  0.15920000  0.89090000  1.0 0.0923042339
C  C23  1  0.38350000  0.26760000  0.00120000  1.0 -0.0113865679
C  C24  1  0.38860000  0.26910000  0.90430000  1.0 -0.0983295316
C  C25  1  0.48880000  0.92450000  0.28970000  1.0 -0.0909014182
C  C26  1  0.59220000  0.92160000  0.35510000  1.0 -0.0909014182
C  C27  1  0.80190000  0.96200000  0.60640000  1.0 -0.1505961899
C  C28  1  0.70950000  0.94710000  0.63210000  1.0 -0.0983295316
C  C29  1  0.70930000  0.91510000  0.72720000  1.0 -0.1085690082
C  C30  1  0.80170000  0.89990000  0.79830000  1.0 -0.0009589267
C  C31  1  0.80180000  0.86610000  0.90260000  1.0 0.5393238779
C  C32  1  0.89390000  0.91350000  0.77250000  1.0 -0.1085690082
C  C33  1  0.89500000  0.94350000  0.67790000  1.0 -0.0983295316
C  C34  1  0.31120000  0.83550000  0.54960000  1.0 0.5393238779
C  C35  1  0.38740000  0.94800000  0.58910000  1.0 -0.0219384335
C  C36  1  0.42280000  0.99520000  0.69570000  1.0 -0.1085690082
C  C37  1  0.49030000  0.09810000  0.73250000  1.0 -0.0909014182
C  C38  1  0.52990000  0.15920000  0.66640000  1.0 -0.1318224068
C  C39  1  0.49700000  0.11440000  0.56220000  1.0 -0.0983295316
C  C40  1  0.42450000  0.00980000  0.52310000  1.0 -0.0983295316
C  C41  1  0.76060000  0.28880000  0.80420000  1.0 -0.1386408541
C  C42  1  0.77930000  0.19420000  0.81940000  1.0 -0.1085690082
C  C43  1  0.88190000  0.19690000  0.89120000  1.0 -0.0983295316
C  C44  1  0.96810000  0.29110000  0.94570000  1.0 -0.0113865679
C  C45  1  0.08020000  0.29030000  0.02330000  1.0 0.5557097908
C  C46  1  0.95080000  0.38400000  0.92880000  1.0 -0.0983295316
C  C47  1  0.84690000  0.38220000  0.85830000  1.0 -0.0909014182
C  C48  1  0.64010000  0.34970000  0.60900000  1.0 -0.1505961899
C  C49  1  0.55090000  0.37590000  0.54350000  1.0 -0.0983295316
C  C50  1  0.54860000  0.40410000  0.44600000  1.0 -0.1085690082
C  C51  1  0.63600000  0.40730000  0.41540000  1.0 0.0046313274
C  C52  1  0.63160000  0.43240000  0.30650000  1.0 0.5487391766
C  C53  1  0.72650000  0.38570000  0.48330000  1.0 -0.0983295316
C  C54  1  0.72780000  0.35590000  0.57820000  1.0 -0.1085690082
C  C55  1  0.99840000  0.65490000  0.67010000  1.0 0.1118698408
C  C56  1  0.93510000  0.74120000  0.54850000  1.0 -0.0983295316
C  C57  1  0.03870000  0.74410000  0.55760000  1.0 -0.0219384335
C  C58  1  0.80970000  0.66060000  0.64410000  1.0 0.1582770662
C  C59  1  0.81610000  0.63910000  0.74340000  1.0 -0.159168202
C  C60  1  0.72400000  0.62240000  0.76950000  1.0 -0.1230189536
C  C61  1  0.62610000  0.62940000  0.69630000  1.0 0.1582770662
C  C62  1  0.62000000  0.64960000  0.59720000  1.0 -0.1505961899
C  C63  1  0.71290000  0.66700000  0.57170000  1.0 -0.1318224068
C  C64  1  0.45570000  0.66120000  0.69350000  1.0 0.1194826617
C  C65  1  0.41080000  0.56390000  0.79900000  1.0 -0.0404783931
C  C66  1  0.50140000  0.55040000  0.79170000  1.0 -0.0909014182
C  C67  1  0.40620000  0.83350000  0.88780000  1.0 0.1194826617
C  C68  1  0.32230000  0.92780000  0.93480000  1.0 -0.0983295316
C  C69  1  0.24600000  0.84270000  0.86570000  1.0 -0.0404783931
C  C70  1  0.53360000  0.00540000  0.00930000  1.0 0.1400831358
C  C71  1  0.62940000  0.99100000  0.01400000  1.0 -0.1505961899
C  C72  1  0.73410000  0.07390000  0.06800000  1.0 -0.1505961899
C  C73  1  0.73950000  0.16540000  0.11380000  1.0 0.1400831358
C  C74  1  0.64340000  0.17810000  0.10460000  1.0 -0.1505961899
C  C75  1  0.54180000  0.09880000  0.05330000  1.0 -0.1386408541
C  C76  1  0.86020000  0.35410000  0.17900000  1.0 0.1118698408
C  C77  1  0.02540000  0.34620000  0.23970000  1.0 -0.0519724708
C  C78  1  0.95300000  0.24630000  0.20310000  1.0 -0.0909014182
N  N1  1  0.16080000  0.11350000  0.23250000  1.0 -0.2821996693
N  N2  1  0.15670000  0.10550000  0.39230000  1.0 -0.0009589267
N  N3  1  0.28710000  0.20070000  0.83380000  1.0 0.0046313274
N  N4  1  0.28330000  0.19820000  0.99370000  1.0 -0.2743969444
N  N5  1  0.07810000  0.69110000  0.63570000  1.0 -0.2821996693
N  N6  1  0.90830000  0.68200000  0.62030000  1.0 -0.0009589267
N  N7  1  0.53160000  0.61390000  0.72540000  1.0 0.0064390632
N  N8  1  0.38130000  0.63350000  0.73600000  1.0 -0.2909757528
N  N9  1  0.29870000  0.78220000  0.83460000  1.0 -0.2909757528
N  N10  1  0.42740000  0.92450000  0.95060000  1.0 0.0064390632
N  N11  1  0.84690000  0.25060000  0.16560000  1.0 0.0064390632
N  N12  1  0.96690000  0.41530000  0.22430000  1.0 -0.2552111331
O  O1  1  0.35760000  0.11120000  0.18790000  1.0 -0.571168888
O  O2  1  0.27660000  0.93640000  0.16510000  1.0 -0.54951008
O  O3  1  0.71020000  0.82870000  0.91030000  1.0 -0.571168888
O  O4  1  0.89630000  0.87860000  0.97420000  1.0 -0.5822046283
O  O5  1  0.85900000  0.94670000  0.43340000  1.0 -0.6481528763
O  O6  1  0.15360000  0.52130000  0.57380000  1.0 -0.5213151458
O  O7  1  0.14660000  0.52020000  0.73090000  1.0 -0.5383087281
O  O8  1  0.29820000  0.78150000  0.61570000  1.0 -0.5383087281
O  O9  1  0.08520000  0.20020000  0.03640000  1.0 -0.571168888
O  O10  1  0.15710000  0.37690000  0.06830000  1.0 -0.54951008
O  O11  1  0.54350000  0.44530000  0.24640000  1.0 -0.571168888
O  O12  1  0.71400000  0.43760000  0.28400000  1.0 -0.5874615792
O  O13  1  0.58360000  0.35110000  0.78510000  1.0 -0.6481528763
O  O14  1  0.26610000  0.80120000  0.45190000  1.0 -0.5257058028
