# DDEC6 charges by PACMAN v1.1 (https://github.com/mtap-research/PACMAN-charge/)
data_CEVGIW_ASR_pacman
_symmetry_space_group_name_H-M   'P 1'
_cell_length_a   10.88990000
_cell_length_b   10.88990000
_cell_length_c   12.09150000
_cell_angle_alpha   85.54790000
_cell_angle_beta   94.45210000
_cell_angle_gamma   41.58910000
_symmetry_Int_Tables_number   1
_chemical_formula_structural   ZnSiH20C24(N4F3)2
_chemical_formula_sum   'Zn1 Si1 H20 C24 N8 F6'
_cell_volume   928.78831847
_cell_formula_units_Z   1
loop_
 _symmetry_equiv_pos_site_id
 _symmetry_equiv_pos_as_xyz
  1  'x, y, z'
loop_
 _atom_site_type_symbol
 _atom_site_label
 _atom_site_symmetry_multiplicity
 _atom_site_fract_x
 _atom_site_fract_y
 _atom_site_fract_z
 _atom_site_occupancy
 _atom_site_charge
Zn  Zn1  1  0.50000000  0.50000000  0.50000000  1.0 0.7395938583
Si  Si1  1  0.00000000  0.00000000  0.50000000  1.0 1.7021957584
H  H1  1  0.25849000  0.86081000  0.31356000  1.0 0.1184047483
H  H2  1  0.29056000  0.98224000  0.17177000  1.0 0.1358210839
H  H3  1  0.85485000  0.52051000  0.27105000  1.0 0.1358210839
H  H4  1  0.72955000  0.77179000  0.11514000  1.0 0.0981618784
H  H5  1  0.80647000  0.40763000  0.40705000  1.0 0.1309367366
H  H6  1  0.86081000  0.25849000  0.68644000  1.0 0.1184047483
H  H7  1  0.98224000  0.29056000  0.82823000  1.0 0.1358210839
H  H8  1  0.52051000  0.85485000  0.72895000  1.0 0.1358210839
H  H9  1  0.77179000  0.72955000  0.88486000  1.0 0.0981618784
H  H10  1  0.40763000  0.80647000  0.59295000  1.0 0.1309367366
H  H11  1  0.74151000  0.13919000  0.68644000  1.0 0.1184047483
H  H12  1  0.70944000  0.01776000  0.82823000  1.0 0.1309367366
H  H13  1  0.14515000  0.47949000  0.72895000  1.0 0.1358210839
H  H14  1  0.27045000  0.22821000  0.88486000  1.0 0.0981618784
H  H15  1  0.19353000  0.59237000  0.59295000  1.0 0.1309367366
H  H16  1  0.13919000  0.74151000  0.31356000  1.0 0.1184047483
H  H17  1  0.01776000  0.70944000  0.17177000  1.0 0.1358210839
H  H18  1  0.47949000  0.14515000  0.27105000  1.0 0.1358210839
H  H19  1  0.22821000  0.27045000  0.11514000  1.0 0.0981618784
H  H20  1  0.59237000  0.19353000  0.40705000  1.0 0.1309367366
C  C1  1  0.37920000  0.79100000  0.30360000  1.0 0.0921390824
C  C2  1  0.39734000  0.86554000  0.21880000  1.0 -0.1808380146
C  C3  1  0.73257000  0.59077000  0.27730000  1.0 -0.1925175838
C  C4  1  0.60833000  0.83393000  0.11520000  1.0 0.0372589812
C  C5  1  0.57730000  0.76450000  0.20410000  1.0 0.1184047483
C  C6  1  0.70218000  0.52438000  0.35920000  1.0 0.106818343
C  C7  1  0.79100000  0.37920000  0.69640000  1.0 0.0921390824
C  C8  1  0.86554000  0.39734000  0.78120000  1.0 -0.1808380146
C  C9  1  0.59077000  0.73257000  0.72270000  1.0 -0.1925175838
C  C10  1  0.83393000  0.60833000  0.88480000  1.0 0.0372589812
C  C11  1  0.76450000  0.57730000  0.79590000  1.0 0.1184047483
C  C12  1  0.52438000  0.70218000  0.64080000  1.0 0.106818343
C  C13  1  0.62080000  0.20900000  0.69640000  1.0 0.0921390824
C  C14  1  0.60266000  0.13446000  0.78120000  1.0 -0.1808380146
C  C15  1  0.26743000  0.40923000  0.72270000  1.0 -0.1925175838
C  C16  1  0.39167000  0.16607000  0.88480000  1.0 0.0372589812
C  C17  1  0.42270000  0.23550000  0.79590000  1.0 0.1184047483
C  C18  1  0.29782000  0.47562000  0.64080000  1.0 0.106818343
C  C19  1  0.20900000  0.62080000  0.30360000  1.0 0.0921390824
C  C20  1  0.13446000  0.60266000  0.21880000  1.0 -0.1808380146
C  C21  1  0.40923000  0.26743000  0.27730000  1.0 -0.1925175838
C  C22  1  0.16607000  0.39167000  0.11520000  1.0 0.0372589812
C  C23  1  0.23550000  0.42270000  0.20410000  1.0 0.1184047483
C  C24  1  0.47562000  0.29782000  0.35920000  1.0 0.106818343
N  N1  1  0.52902000  0.62082000  0.37295000  1.0 -0.2323745019
N  N2  1  0.47104000  0.97804000  0.03870000  1.0 -0.1808380146
N  N3  1  0.62082000  0.52902000  0.62705000  1.0 -0.2323745019
N  N4  1  0.97804000  0.47104000  0.96130000  1.0 -0.1808380146
N  N5  1  0.47098000  0.37918000  0.62705000  1.0 -0.2323745019
N  N6  1  0.52896000  0.02196000  0.96130000  1.0 -0.1808380146
N  N7  1  0.37918000  0.47098000  0.37295000  1.0 -0.2323745019
N  N8  1  0.02196000  0.52896000  0.03870000  1.0 -0.1808380146
F  F1  1  0.77820000  0.22180000  0.49953000  1.0 -0.5146902256
F  F2  1  0.04680000  0.95320000  0.63970000  1.0 -0.5344410888
F  F3  1  0.22180000  0.77820000  0.50047000  1.0 -0.5157908849
F  F4  1  0.95320000  0.04680000  0.36030000  1.0 -0.5344410888
F  F5  1  0.91836000  0.91836000  0.50000000  1.0 -0.5431681327
F  F6  1  0.08164000  0.08164000  0.50000000  1.0 -0.5431681327
