# DDEC6 charges by PACMAN v1.1 (https://github.com/mtap-research/PACMAN-charge/)
data_CEYWOU_FSR_pacman
_symmetry_space_group_name_H-M   'P 1'
_cell_length_a   9.91990000
_cell_length_b   10.49050000
_cell_length_c   13.43160000
_cell_angle_alpha   105.68700000
_cell_angle_beta   101.88000000
_cell_angle_gamma   94.43600000
_symmetry_Int_Tables_number   1
_chemical_formula_structural   TbH18C25(NO4)2
_chemical_formula_sum   'Tb2 H36 C50 N4 O16'
_cell_volume   1303.68077938
_cell_formula_units_Z   2
loop_
 _symmetry_equiv_pos_site_id
 _symmetry_equiv_pos_as_xyz
  1  'x, y, z'
loop_
 _atom_site_type_symbol
 _atom_site_label
 _atom_site_symmetry_multiplicity
 _atom_site_fract_x
 _atom_site_fract_y
 _atom_site_fract_z
 _atom_site_occupancy
 _atom_site_charge
Tb  Tb1  1  0.74376000  0.49442000  0.47550000  1.0 2.0702475297
Tb  Tb2  1  0.25624000  0.50558000  0.52450000  1.0 2.0702475297
H  H1  1  0.55650000  0.31990000  0.26610000  1.0 0.3407094069
H  H2  1  0.44350000  0.68010000  0.73390000  1.0 0.3407094069
H  H3  1  0.49070000  0.42670000  0.30410000  1.0 0.3407094069
H  H4  1  0.50930000  0.57330000  0.69590000  1.0 0.3407094069
H  H5  1  0.80730000  0.45090000  0.25860000  1.0 0.3181385982
H  H6  1  0.19270000  0.54910000  0.74140000  1.0 0.3181385982
H  H7  1  0.91950000  0.51500000  0.34030000  1.0 0.3407094069
H  H8  1  0.08050000  0.48500000  0.65970000  1.0 0.3407094069
H  H9  1  0.63550000  0.86540000  0.37570000  1.0 0.1002960789
H  H10  1  0.36450000  0.13460000  0.62430000  1.0 0.1002960789
H  H11  1  0.33280000  0.07760000  0.30100000  1.0 0.1002960789
H  H12  1  0.66720000  0.92240000  0.69900000  1.0 0.1002960789
H  H13  1  0.25460000  0.76930000  0.41530000  1.0 0.1210112
H  H14  1  0.74540000  0.23070000  0.58470000  1.0 0.1210112
H  H15  1  0.03300000  0.77360000  0.30580000  1.0 0.111855451
H  H16  1  0.96700000  0.22640000  0.69420000  1.0 0.111855451
H  H17  1  0.80850000  0.82260000  0.30070000  1.0 0.111855451
H  H18  1  0.19150000  0.17740000  0.69930000  1.0 0.111855451
H  H19  1  0.77310000  0.04060000  0.36260000  1.0 0.1210112
H  H20  1  0.22690000  0.95940000  0.63740000  1.0 0.1210112
H  H21  1  0.18660000  0.16460000  0.41640000  1.0 0.1210112
H  H22  1  0.81340000  0.83540000  0.58360000  1.0 0.1210112
H  H23  1  0.78010000  0.78380000  0.84110000  1.0 0.1002960789
H  H24  1  0.21990000  0.21620000  0.15890000  1.0 0.1002960789
H  H25  1  0.00320000  0.72640000  0.11040000  1.0 0.0783085066
H  H26  1  0.99680000  0.27360000  0.88960000  1.0 0.0783085066
H  H27  1  0.96820000  0.45180000  0.82510000  1.0 0.1271300378
H  H28  1  0.03180000  0.54820000  0.17490000  1.0 0.1271300378
H  H29  1  0.14890000  0.39510000  0.89820000  1.0 0.0850713092
H  H30  1  0.85110000  0.60490000  0.10180000  1.0 0.0850713092
H  H31  1  0.28060000  0.25680000  0.97660000  1.0 0.111855451
H  H32  1  0.71940000  0.74320000  0.02340000  1.0 0.111855451
H  H33  1  0.29420000  0.26960000  0.15510000  1.0 0.0724751881
H  H34  1  0.70580000  0.73040000  0.84490000  1.0 0.0724751881
H  H35  1  0.04450000  0.55900000  0.17680000  1.0 0.1271300378
H  H36  1  0.95550000  0.44100000  0.82320000  1.0 0.1271300378
C  C1  1  0.50650000  0.68640000  0.43920000  1.0 0.6421580451
C  C2  1  0.49350000  0.31360000  0.56080000  1.0 0.6421580451
C  C3  1  0.45170000  0.79790000  0.40020000  1.0 -0.060078421
C  C4  1  0.54830000  0.20210000  0.59980000  1.0 -0.060078421
C  C5  1  0.54150000  0.88100000  0.37000000  1.0 0.0495371434
C  C6  1  0.45850000  0.11900000  0.63000000  1.0 0.0495371434
C  C7  1  0.36400000  0.00730000  0.32780000  1.0 0.0100431598
C  C8  1  0.63600000  0.99270000  0.67220000  1.0 0.0100431598
C  C9  1  0.27130000  0.93060000  0.36130000  1.0 0.0298779026
C  C10  1  0.72870000  0.06940000  0.63870000  1.0 0.0298779026
C  C11  1  0.31750000  0.82490000  0.39500000  1.0 -0.1122919333
C  C12  1  0.68250000  0.17510000  0.60500000  1.0 -0.1122919333
C  C13  1  0.12970000  0.96330000  0.35920000  1.0 0.0724751881
C  C14  1  0.87030000  0.03670000  0.64080000  1.0 0.0724751881
C  C15  1  0.01790000  0.86430000  0.32740000  1.0 -0.1501888645
C  C16  1  0.98210000  0.13570000  0.67260000  1.0 -0.1501888645
C  C17  1  0.88490000  0.89250000  0.32570000  1.0 -0.0794778255
C  C18  1  0.11510000  0.10750000  0.67430000  1.0 -0.0794778255
C  C19  1  0.86450000  0.02090000  0.36020000  1.0 -0.1122919333
C  C20  1  0.13550000  0.97910000  0.63980000  1.0 -0.1122919333
C  C21  1  0.97480000  0.12560000  0.39270000  1.0 -0.0161075362
C  C22  1  0.02520000  0.87440000  0.60730000  1.0 -0.0161075362
C  C23  1  0.10970000  0.09520000  0.39310000  1.0 -0.1604284172
C  C24  1  0.89030000  0.90480000  0.60690000  1.0 -0.1604284172
C  C25  1  0.95080000  0.26660000  0.43430000  1.0 0.6421580451
C  C26  1  0.04920000  0.73340000  0.56570000  1.0 0.6421580451
C  C27  1  0.81010000  0.56610000  0.69850000  1.0 0.4202214468
C  C28  1  0.18990000  0.43390000  0.30150000  1.0 0.4202214468
C  C29  1  0.86600000  0.61100000  0.81570000  1.0 0.003263629
C  C30  1  0.13400000  0.38900000  0.18430000  1.0 0.003263629
C  C31  1  0.83570000  0.73110000  0.87540000  1.0 0.0100431598
C  C32  1  0.16430000  0.26890000  0.12460000  1.0 0.0100431598
C  C33  1  0.96820000  0.69700000  0.03530000  1.0 -0.0306671772
C  C34  1  0.03180000  0.30300000  0.96470000  1.0 -0.0306671772
C  C35  1  0.99860000  0.57690000  0.97570000  1.0 0.0298779026
C  C36  1  0.00140000  0.42310000  0.02430000  1.0 0.0298779026
C  C37  1  0.94750000  0.53390000  0.86590000  1.0 -0.0794778255
C  C38  1  0.05250000  0.46610000  0.13410000  1.0 -0.0794778255
C  C39  1  0.08430000  0.49010000  0.03010000  1.0 0.0495371434
C  C40  1  0.91570000  0.50990000  0.96990000  1.0 0.0495371434
C  C41  1  0.15440000  0.40030000  0.97070000  1.0 -0.1828078044
C  C42  1  0.84560000  0.59970000  0.02930000  1.0 -0.1828078044
C  C43  1  0.23270000  0.31820000  0.01720000  1.0 -0.0306671772
C  C44  1  0.76730000  0.68180000  0.98280000  1.0 -0.0306671772
C  C45  1  0.24080000  0.32570000  0.12330000  1.0 -0.012300927
C  C46  1  0.75920000  0.67430000  0.87670000  1.0 -0.012300927
C  C47  1  0.17060000  0.41550000  0.18280000  1.0 0.003263629
C  C48  1  0.82940000  0.58450000  0.81720000  1.0 0.003263629
C  C49  1  0.09240000  0.49770000  0.13620000  1.0 -0.0739960832
C  C50  1  0.90760000  0.50230000  0.86380000  1.0 -0.0739960832
N  N1  1  0.50020000  0.98390000  0.33260000  1.0 -0.2586692286
N  N2  1  0.49980000  0.01610000  0.66740000  1.0 -0.2586692286
N  N3  1  0.88680000  0.77410000  0.98520000  1.0 -0.1604284172
N  N4  1  0.11320000  0.22590000  0.01480000  1.0 -0.1604284172
O  O1  1  0.62870000  0.66720000  0.43800000  1.0 -0.6528714907
O  O2  1  0.37130000  0.33280000  0.56200000  1.0 -0.6528714907
O  O3  1  0.42410000  0.62050000  0.47370000  1.0 -0.691205622
O  O4  1  0.57590000  0.37950000  0.52630000  1.0 -0.691205622
O  O5  1  0.05370000  0.35570000  0.47080000  1.0 -0.6830748928
O  O6  1  0.94630000  0.64430000  0.52920000  1.0 -0.6830748928
O  O7  1  0.82650000  0.28950000  0.42890000  1.0 -0.6682764304
O  O8  1  0.17350000  0.71050000  0.57110000  1.0 -0.6682764304
O  O9  1  0.86810000  0.47670000  0.64680000  1.0 -0.5942090762
O  O10  1  0.13190000  0.52330000  0.35320000  1.0 -0.5942090762
O  O11  1  0.72580000  0.62850000  0.65540000  1.0 -0.5521416676
O  O12  1  0.27420000  0.37150000  0.34460000  1.0 -0.5521416676
O  O13  1  0.55720000  0.38510000  0.31870000  1.0 -0.7402097595
O  O14  1  0.44280000  0.61490000  0.68130000  1.0 -0.7402097595
O  O15  1  0.83260000  0.50240000  0.32090000  1.0 -0.760705502
O  O16  1  0.16740000  0.49760000  0.67910000  1.0 -0.760705502
