# DDEC6 charges by PACMAN v1.1 (https://github.com/mtap-research/PACMAN-charge/)
data_CIFGUV_ASR_pacman
_symmetry_space_group_name_H-M   'P 1'
_cell_length_a   11.30060000
_cell_length_b   11.30060000
_cell_length_c   11.30060000
_cell_angle_alpha   142.58200000
_cell_angle_beta   118.25200000
_cell_angle_gamma   74.48040000
_symmetry_Int_Tables_number   1
_chemical_formula_structural   CoH14C8N4O15
_chemical_formula_sum   'Co2 H28 C16 N8 O30'
_cell_volume   756.42106998
_cell_formula_units_Z   2
loop_
 _symmetry_equiv_pos_site_id
 _symmetry_equiv_pos_as_xyz
  1  'x, y, z'
loop_
 _atom_site_type_symbol
 _atom_site_label
 _atom_site_symmetry_multiplicity
 _atom_site_fract_x
 _atom_site_fract_y
 _atom_site_fract_z
 _atom_site_occupancy
 _atom_site_charge
Co  Co1  1  0.00000000  0.00000000  0.50000000  1.0 1.0181614727
Co  Co2  1  0.00000000  0.50000000  0.00000000  1.0 1.0181614727
H  H1  1  0.40110000  0.75060000  0.46390000  1.0 0.2351945013
H  H2  1  0.21330000  0.74940000  0.65050000  1.0 0.2351945013
H  H3  1  0.59890000  0.06280000  0.34950000  1.0 0.2317782003
H  H4  1  0.78670000  0.43720000  0.53610000  1.0 0.2317782003
H  H5  1  0.59890000  0.24940000  0.53610000  1.0 0.2317782003
H  H6  1  0.78670000  0.25060000  0.34950000  1.0 0.2317782003
H  H7  1  0.40110000  0.93720000  0.65050000  1.0 0.2351945013
H  H8  1  0.21330000  0.56280000  0.46390000  1.0 0.2351945013
H  H9  1  0.37300000  0.75700000  0.57560000  1.0 0.1107833971
H  H10  1  0.31860000  0.74300000  0.61600000  1.0 0.1107833971
H  H11  1  0.62700000  0.20260000  0.38400000  1.0 0.1107833971
H  H12  1  0.68140000  0.29740000  0.42440000  1.0 0.1107833971
H  H13  1  0.62700000  0.24300000  0.42440000  1.0 0.1107833971
H  H14  1  0.68140000  0.25700000  0.38400000  1.0 0.1107833971
H  H15  1  0.37300000  0.79740000  0.61600000  1.0 0.1107833971
H  H16  1  0.31860000  0.70260000  0.57560000  1.0 0.1107833971
H  H17  1  0.39490000  0.16680000  0.67390000  1.0 0.2317782003
H  H18  1  0.00710000  0.33320000  0.22810000  1.0 0.2317782003
H  H19  1  0.60510000  0.27900000  0.77190000  1.0 0.2317782003
H  H20  1  0.99290000  0.22100000  0.32610000  1.0 0.2317782003
H  H21  1  0.60510000  0.83320000  0.32610000  1.0 0.2317782003
H  H22  1  0.99290000  0.66680000  0.77190000  1.0 0.2317782003
H  H23  1  0.39490000  0.72100000  0.22810000  1.0 0.2317782003
H  H24  1  0.00710000  0.77900000  0.67390000  1.0 0.2317782003
H  H25  1  0.88530000  0.29460000  0.59070000  1.0 0.3392916292
H  H26  1  0.79610000  0.20540000  0.59070000  1.0 0.3392916292
H  H27  1  0.11470000  0.70540000  0.40930000  1.0 0.3392916292
H  H28  1  0.20390000  0.79460000  0.40930000  1.0 0.3392916292
C  C1  1  0.23590000  0.35960000  0.87630000  1.0 0.5157166988
C  C2  1  0.01670000  0.14040000  0.87630000  1.0 0.5157166988
C  C3  1  0.76410000  0.64040000  0.12370000  1.0 0.5157166988
C  C4  1  0.98330000  0.85960000  0.12370000  1.0 0.5157166988
C  C5  1  0.37280000  0.43190000  0.94090000  1.0 -0.0623666189
C  C6  1  0.00900000  0.06810000  0.94090000  1.0 -0.0623666189
C  C7  1  0.62720000  0.56810000  0.05910000  1.0 -0.0623666189
C  C8  1  0.99100000  0.93190000  0.05910000  1.0 -0.0623666189
C  C9  1  0.43743000  0.30353000  0.80790000  1.0 -0.0924968898
C  C10  1  0.00437000  0.19647000  0.13390000  1.0 -0.0924968898
C  C11  1  0.56257000  0.37047000  0.86610000  1.0 -0.0924968898
C  C12  1  0.99563000  0.12953000  0.19210000  1.0 -0.0924968898
C  C13  1  0.56257000  0.69647000  0.19210000  1.0 -0.0924968898
C  C14  1  0.99563000  0.80353000  0.86610000  1.0 -0.0924968898
C  C15  1  0.43743000  0.62953000  0.13390000  1.0 -0.0924968898
C  C16  1  0.00437000  0.87047000  0.80790000  1.0 -0.0924968898
N  N1  1  0.36700000  0.10620000  0.59300000  1.0 0.0331380385
N  N2  1  0.98680000  0.39380000  0.26080000  1.0 0.0331380385
N  N3  1  0.63300000  0.22600000  0.73920000  1.0 0.0331380385
N  N4  1  0.01320000  0.27400000  0.40700000  1.0 0.0331380385
N  N5  1  0.63300000  0.89380000  0.40700000  1.0 0.0331380385
N  N6  1  0.01320000  0.60620000  0.73920000  1.0 0.0331380385
N  N7  1  0.36700000  0.77400000  0.26080000  1.0 0.0331380385
N  N8  1  0.98680000  0.72600000  0.59300000  1.0 0.0331380385
O  O1  1  0.18543000  0.17848000  0.69855000  1.0 -0.5446662336
O  O2  1  0.02007000  0.32152000  0.00695000  1.0 -0.5459786384
O  O3  1  0.81457000  0.51312000  0.99305000  1.0 -0.5459786384
O  O4  1  0.97993000  0.98688000  0.30145000  1.0 -0.5459786384
O  O5  1  0.81457000  0.82152000  0.30145000  1.0 -0.5459786384
O  O6  1  0.97993000  0.67848000  0.99305000  1.0 -0.5459786384
O  O7  1  0.18543000  0.48688000  0.00695000  1.0 -0.5459786384
O  O8  1  0.02007000  0.01312000  0.69855000  1.0 -0.5446662336
O  O9  1  0.39030000  0.98770000  0.58580000  1.0 -0.0623666189
O  O10  1  0.09810000  0.51230000  0.40260000  1.0 -0.0623666189
O  O11  1  0.60970000  0.19550000  0.59740000  1.0 -0.0623666189
O  O12  1  0.90190000  0.30450000  0.41420000  1.0 -0.0623666189
O  O13  1  0.60970000  0.01230000  0.41420000  1.0 -0.0623666189
O  O14  1  0.90190000  0.48770000  0.59740000  1.0 -0.0623666189
O  O15  1  0.39030000  0.80450000  0.40260000  1.0 -0.0623666189
O  O16  1  0.09810000  0.69550000  0.58580000  1.0 -0.0623666189
O  O17  1  0.30230000  0.06570000  0.43800000  1.0 -0.2497111085
O  O18  1  0.87230000  0.43430000  0.23660000  1.0 -0.2497111085
O  O19  1  0.69770000  0.13570000  0.76340000  1.0 -0.2497111085
O  O20  1  0.12770000  0.36430000  0.56200000  1.0 -0.2497111085
O  O21  1  0.69770000  0.93430000  0.56200000  1.0 -0.2497111085
O  O22  1  0.12770000  0.56570000  0.76340000  1.0 -0.2497111085
O  O23  1  0.30230000  0.86430000  0.23660000  1.0 -0.2497111085
O  O24  1  0.87230000  0.63570000  0.43800000  1.0 -0.2497111085
O  O25  1  0.89080000  0.25000000  0.64080000  1.0 -0.7198103696
O  O26  1  0.10920000  0.75000000  0.35920000  1.0 -0.7198103696
O  O27  1  0.37250000  0.81620000  0.55630000  1.0 -0.259738925
O  O28  1  0.24010000  0.68380000  0.55630000  1.0 -0.259738925
O  O29  1  0.62750000  0.18380000  0.44370000  1.0 -0.259738925
O  O30  1  0.75990000  0.31620000  0.44370000  1.0 -0.259738925
