# DDEC6 charges by PACMAN v1.1 (https://github.com/mtap-research/PACMAN-charge/)
data_CIFMAH_ASR_pacman
_symmetry_space_group_name_H-M   'P 1'
_cell_length_a   17.44300000
_cell_length_b   21.99100000
_cell_length_c   25.09400000
_cell_angle_alpha   90.00000000
_cell_angle_beta   90.00000000
_cell_angle_gamma   90.00000000
_symmetry_Int_Tables_number   1
_chemical_formula_structural   Co3H30C54O13
_chemical_formula_sum   'Co12 H120 C216 O52'
_cell_volume   9625.78269222
_cell_formula_units_Z   4
loop_
 _symmetry_equiv_pos_site_id
 _symmetry_equiv_pos_as_xyz
  1  'x, y, z'
loop_
 _atom_site_type_symbol
 _atom_site_label
 _atom_site_symmetry_multiplicity
 _atom_site_fract_x
 _atom_site_fract_y
 _atom_site_fract_z
 _atom_site_occupancy
 _atom_site_charge
Co  Co1  1  0.88713000  0.33407000  0.25000000  1.0 1.108120786
Co  Co2  1  0.61287000  0.83407000  0.75000000  1.0 1.108120786
Co  Co3  1  0.00148000  0.42390000  0.17884000  1.0 1.0425169039
Co  Co4  1  0.49852000  0.92390000  0.82116000  1.0 1.0425169039
Co  Co5  1  0.00148000  0.42390000  0.32116000  1.0 1.0425169039
Co  Co6  1  0.49852000  0.92390000  0.67884000  1.0 1.0425169039
Co  Co7  1  0.11287000  0.66593000  0.75000000  1.0 1.108120786
Co  Co8  1  0.38713000  0.16593000  0.25000000  1.0 1.108120786
Co  Co9  1  0.99852000  0.57610000  0.67884000  1.0 1.0425169039
Co  Co10  1  0.50148000  0.07610000  0.32116000  1.0 1.0425169039
Co  Co11  1  0.99852000  0.57610000  0.82116000  1.0 1.0425169039
Co  Co12  1  0.50148000  0.07610000  0.17884000  1.0 1.0425169039
H  H1  1  0.59960000  0.68780000  0.86110000  1.0 0.1196222519
H  H2  1  0.90040000  0.18780000  0.13890000  1.0 0.1196222519
H  H3  1  0.59960000  0.68780000  0.63890000  1.0 0.1196222519
H  H4  1  0.90040000  0.18780000  0.36110000  1.0 0.1196222519
H  H5  1  0.43920000  0.78450000  0.93610000  1.0 0.1317362576
H  H6  1  0.06080000  0.28450000  0.06390000  1.0 0.1317362576
H  H7  1  0.43920000  0.78450000  0.56390000  1.0 0.1317362576
H  H8  1  0.06080000  0.28450000  0.43610000  1.0 0.1317362576
H  H9  1  0.42840000  0.70830000  0.99840000  1.0 0.1196222519
H  H10  1  0.07160000  0.20830000  0.00160000  1.0 0.1196222519
H  H11  1  0.42840000  0.70830000  0.50160000  1.0 0.1196222519
H  H12  1  0.07160000  0.20830000  0.49840000  1.0 0.1196222519
H  H13  1  0.59180000  0.61410000  0.92500000  1.0 0.1196222519
H  H14  1  0.90820000  0.11410000  0.07500000  1.0 0.1196222519
H  H15  1  0.59180000  0.61410000  0.57500000  1.0 0.1196222519
H  H16  1  0.90820000  0.11410000  0.42500000  1.0 0.1196222519
H  H17  1  0.61670000  0.59050000  0.01830000  1.0 0.1196222519
H  H18  1  0.88330000  0.09050000  0.98170000  1.0 0.1196222519
H  H19  1  0.61670000  0.59050000  0.48170000  1.0 0.1196222519
H  H20  1  0.88330000  0.09050000  0.51830000  1.0 0.1196222519
H  H21  1  0.59140000  0.42560000  0.11320000  1.0 0.1196222519
H  H22  1  0.90860000  0.92560000  0.88680000  1.0 0.1196222519
H  H23  1  0.59140000  0.42560000  0.38680000  1.0 0.1196222519
H  H24  1  0.90860000  0.92560000  0.61320000  1.0 0.1196222519
H  H25  1  0.38880000  0.60480000  0.01700000  1.0 0.1196222519
H  H26  1  0.11120000  0.10480000  0.98300000  1.0 0.1196222519
H  H27  1  0.38880000  0.60480000  0.48300000  1.0 0.1196222519
H  H28  1  0.11120000  0.10480000  0.51700000  1.0 0.1196222519
H  H29  1  0.17620000  0.50350000  0.04310000  1.0 0.1317362576
H  H30  1  0.32380000  0.00350000  0.95690000  1.0 0.1317362576
H  H31  1  0.17620000  0.50350000  0.45690000  1.0 0.1317362576
H  H32  1  0.32380000  0.00350000  0.54310000  1.0 0.1317362576
H  H33  1  0.69830000  0.38550000  0.15160000  1.0 0.1317362576
H  H34  1  0.80170000  0.88550000  0.84840000  1.0 0.1317362576
H  H35  1  0.69830000  0.38550000  0.34840000  1.0 0.1317362576
H  H36  1  0.80170000  0.88550000  0.65160000  1.0 0.1317362576
H  H37  1  0.48880000  0.48760000  0.11590000  1.0 0.1141882855
H  H38  1  0.01120000  0.98760000  0.88410000  1.0 0.1141882855
H  H39  1  0.48880000  0.48760000  0.38410000  1.0 0.1141882855
H  H40  1  0.01120000  0.98760000  0.61590000  1.0 0.1141882855
H  H41  1  0.70520000  0.57800000  0.08230000  1.0 0.1196222519
H  H42  1  0.79480000  0.07800000  0.91770000  1.0 0.1196222519
H  H43  1  0.70520000  0.57800000  0.41770000  1.0 0.1196222519
H  H44  1  0.79480000  0.07800000  0.58230000  1.0 0.1196222519
H  H45  1  0.25670000  0.46730000  0.18690000  1.0 0.1317362576
H  H46  1  0.24330000  0.96730000  0.81310000  1.0 0.1317362576
H  H47  1  0.25670000  0.46730000  0.31310000  1.0 0.1317362576
H  H48  1  0.24330000  0.96730000  0.68690000  1.0 0.1317362576
H  H49  1  0.81530000  0.53470000  0.11570000  1.0 0.1317362576
H  H50  1  0.68470000  0.03470000  0.88430000  1.0 0.1317362576
H  H51  1  0.81530000  0.53470000  0.38430000  1.0 0.1317362576
H  H52  1  0.68470000  0.03470000  0.61570000  1.0 0.1317362576
H  H53  1  0.29580000  0.53110000  0.01600000  1.0 0.1196222519
H  H54  1  0.20420000  0.03110000  0.98400000  1.0 0.1196222519
H  H55  1  0.29580000  0.53110000  0.48400000  1.0 0.1196222519
H  H56  1  0.20420000  0.03110000  0.51600000  1.0 0.1196222519
H  H57  1  0.37540000  0.50150000  0.16240000  1.0 0.1196222519
H  H58  1  0.12460000  0.00150000  0.83760000  1.0 0.1196222519
H  H59  1  0.37540000  0.50150000  0.33760000  1.0 0.1196222519
H  H60  1  0.12460000  0.00150000  0.66240000  1.0 0.1196222519
H  H61  1  0.40040000  0.31220000  0.36110000  1.0 0.1196222519
H  H62  1  0.09960000  0.81220000  0.63890000  1.0 0.1196222519
H  H63  1  0.40040000  0.31220000  0.13890000  1.0 0.1196222519
H  H64  1  0.09960000  0.81220000  0.86110000  1.0 0.1196222519
H  H65  1  0.56080000  0.21550000  0.43610000  1.0 0.1317362576
H  H66  1  0.93920000  0.71550000  0.56390000  1.0 0.1317362576
H  H67  1  0.56080000  0.21550000  0.06390000  1.0 0.1317362576
H  H68  1  0.93920000  0.71550000  0.93610000  1.0 0.1317362576
H  H69  1  0.57160000  0.29170000  0.49840000  1.0 0.1196222519
H  H70  1  0.92840000  0.79170000  0.50160000  1.0 0.1196222519
H  H71  1  0.57160000  0.29170000  0.00160000  1.0 0.1196222519
H  H72  1  0.92840000  0.79170000  0.99840000  1.0 0.1196222519
H  H73  1  0.40820000  0.38590000  0.42500000  1.0 0.1196222519
H  H74  1  0.09180000  0.88590000  0.57500000  1.0 0.1196222519
H  H75  1  0.40820000  0.38590000  0.07500000  1.0 0.1196222519
H  H76  1  0.09180000  0.88590000  0.92500000  1.0 0.1196222519
H  H77  1  0.38330000  0.40950000  0.51830000  1.0 0.1196222519
H  H78  1  0.11670000  0.90950000  0.48170000  1.0 0.1196222519
H  H79  1  0.38330000  0.40950000  0.98170000  1.0 0.1196222519
H  H80  1  0.11670000  0.90950000  0.01830000  1.0 0.1196222519
H  H81  1  0.40860000  0.57440000  0.61320000  1.0 0.1196222519
H  H82  1  0.09140000  0.07440000  0.38680000  1.0 0.1196222519
H  H83  1  0.40860000  0.57440000  0.88680000  1.0 0.1196222519
H  H84  1  0.09140000  0.07440000  0.11320000  1.0 0.1196222519
H  H85  1  0.61120000  0.39520000  0.51700000  1.0 0.1196222519
H  H86  1  0.88880000  0.89520000  0.48300000  1.0 0.1196222519
H  H87  1  0.61120000  0.39520000  0.98300000  1.0 0.1196222519
H  H88  1  0.88880000  0.89520000  0.01700000  1.0 0.1196222519
H  H89  1  0.82380000  0.49650000  0.54310000  1.0 0.1317362576
H  H90  1  0.67620000  0.99650000  0.45690000  1.0 0.1317362576
H  H91  1  0.82380000  0.49650000  0.95690000  1.0 0.1317362576
H  H92  1  0.67620000  0.99650000  0.04310000  1.0 0.1317362576
H  H93  1  0.30170000  0.61450000  0.65160000  1.0 0.1317362576
H  H94  1  0.19830000  0.11450000  0.34840000  1.0 0.1317362576
H  H95  1  0.30170000  0.61450000  0.84840000  1.0 0.1317362576
H  H96  1  0.19830000  0.11450000  0.15160000  1.0 0.1317362576
H  H97  1  0.51120000  0.51240000  0.61590000  1.0 0.1141882855
H  H98  1  0.98880000  0.01240000  0.38410000  1.0 0.1141882855
H  H99  1  0.51120000  0.51240000  0.88410000  1.0 0.1141882855
H  H100  1  0.98880000  0.01240000  0.11590000  1.0 0.1141882855
H  H101  1  0.29480000  0.42200000  0.58230000  1.0 0.1196222519
H  H102  1  0.20520000  0.92200000  0.41770000  1.0 0.1196222519
H  H103  1  0.29480000  0.42200000  0.91770000  1.0 0.1196222519
H  H104  1  0.20520000  0.92200000  0.08230000  1.0 0.1196222519
H  H105  1  0.74330000  0.53270000  0.68690000  1.0 0.1317362576
H  H106  1  0.75670000  0.03270000  0.31310000  1.0 0.1317362576
H  H107  1  0.74330000  0.53270000  0.81310000  1.0 0.1317362576
H  H108  1  0.75670000  0.03270000  0.18690000  1.0 0.1317362576
H  H109  1  0.18470000  0.46530000  0.61570000  1.0 0.1317362576
H  H110  1  0.31530000  0.96530000  0.38430000  1.0 0.1317362576
H  H111  1  0.18470000  0.46530000  0.88430000  1.0 0.1317362576
H  H112  1  0.31530000  0.96530000  0.11570000  1.0 0.1317362576
H  H113  1  0.70420000  0.46890000  0.51600000  1.0 0.1196222519
H  H114  1  0.79580000  0.96890000  0.48400000  1.0 0.1196222519
H  H115  1  0.70420000  0.46890000  0.98400000  1.0 0.1196222519
H  H116  1  0.79580000  0.96890000  0.01600000  1.0 0.1196222519
H  H117  1  0.62460000  0.49850000  0.66240000  1.0 0.1196222519
H  H118  1  0.87540000  0.99850000  0.33760000  1.0 0.1196222519
H  H119  1  0.62460000  0.49850000  0.83760000  1.0 0.1196222519
H  H120  1  0.87540000  0.99850000  0.16240000  1.0 0.1196222519
C  C1  1  0.56550000  0.69260000  0.88930000  1.0 -0.0870198828
C  C2  1  0.93450000  0.19260000  0.11070000  1.0 -0.0870198828
C  C3  1  0.56550000  0.69260000  0.61070000  1.0 -0.0870198828
C  C4  1  0.93450000  0.19260000  0.38930000  1.0 -0.0870198828
C  C5  1  0.46990000  0.75000000  0.93340000  1.0 -0.0870198828
C  C6  1  0.03010000  0.25000000  0.06660000  1.0 -0.0870198828
C  C7  1  0.46990000  0.75000000  0.56660000  1.0 -0.0870198828
C  C8  1  0.03010000  0.25000000  0.43340000  1.0 -0.0870198828
C  C9  1  0.46410000  0.70420000  0.97110000  1.0 -0.1504539643
C  C10  1  0.03590000  0.20420000  0.02890000  1.0 -0.1504539643
C  C11  1  0.46410000  0.70420000  0.52890000  1.0 -0.1504539643
C  C12  1  0.03590000  0.20420000  0.47110000  1.0 -0.1504539643
C  C13  1  0.56040000  0.64820000  0.92750000  1.0 -0.1675678705
C  C14  1  0.93960000  0.14820000  0.07250000  1.0 -0.1675678705
C  C15  1  0.56040000  0.64820000  0.57250000  1.0 -0.1675678705
C  C16  1  0.93960000  0.14820000  0.42750000  1.0 -0.1675678705
C  C17  1  0.52870000  0.79430000  0.85130000  1.0 0.5968363651
C  C18  1  0.97130000  0.29430000  0.14870000  1.0 0.5968363651
C  C19  1  0.52870000  0.79430000  0.64870000  1.0 0.5968363651
C  C20  1  0.97130000  0.29430000  0.35130000  1.0 0.5968363651
C  C21  1  0.52090000  0.74450000  0.89200000  1.0 -0.0194605212
C  C22  1  0.97910000  0.24450000  0.10800000  1.0 -0.0194605212
C  C23  1  0.52090000  0.74450000  0.60800000  1.0 -0.0194605212
C  C24  1  0.97910000  0.24450000  0.39200000  1.0 -0.0194605212
C  C25  1  0.56900000  0.57850000  0.03110000  1.0 -0.1917895023
C  C26  1  0.93100000  0.07850000  0.96890000  1.0 -0.1917895023
C  C27  1  0.56900000  0.57850000  0.46890000  1.0 -0.1917895023
C  C28  1  0.93100000  0.07850000  0.53110000  1.0 -0.1917895023
C  C29  1  0.76800000  0.45640000  0.13900000  1.0 -0.0138973368
C  C30  1  0.73200000  0.95640000  0.86100000  1.0 -0.0138973368
C  C31  1  0.76800000  0.45640000  0.36100000  1.0 -0.0138973368
C  C32  1  0.73200000  0.95640000  0.63900000  1.0 -0.0138973368
C  C33  1  0.42650000  0.54180000  0.06860000  1.0 0.0874073754
C  C34  1  0.07350000  0.04180000  0.93140000  1.0 0.0874073754
C  C35  1  0.42650000  0.54180000  0.43140000  1.0 0.0874073754
C  C36  1  0.07350000  0.04180000  0.56860000  1.0 0.0874073754
C  C37  1  0.50420000  0.60520000  0.01090000  1.0 0.0874073754
C  C38  1  0.99580000  0.10520000  0.98910000  1.0 0.0874073754
C  C39  1  0.50420000  0.60520000  0.48910000  1.0 0.0874073754
C  C40  1  0.99580000  0.10520000  0.51090000  1.0 0.0874073754
C  C41  1  0.83780000  0.42870000  0.16540000  1.0 0.5968363651
C  C42  1  0.66220000  0.92870000  0.83460000  1.0 0.5968363651
C  C43  1  0.83780000  0.42870000  0.33460000  1.0 0.5968363651
C  C44  1  0.66220000  0.92870000  0.66540000  1.0 0.5968363651
C  C45  1  0.63590000  0.50580000  0.09350000  1.0 0.0699319877
C  C46  1  0.86410000  0.00580000  0.90650000  1.0 0.0699319877
C  C47  1  0.63590000  0.50580000  0.40650000  1.0 0.0699319877
C  C48  1  0.86410000  0.00580000  0.59350000  1.0 0.0699319877
C  C49  1  0.56510000  0.53420000  0.07030000  1.0 0.0874073754
C  C50  1  0.93490000  0.03420000  0.92970000  1.0 0.0874073754
C  C51  1  0.56510000  0.53420000  0.42970000  1.0 0.0874073754
C  C52  1  0.93490000  0.03420000  0.57030000  1.0 0.0874073754
C  C53  1  0.63610000  0.44870000  0.11440000  1.0 -0.1591504263
C  C54  1  0.86390000  0.94870000  0.88560000  1.0 -0.1591504263
C  C55  1  0.63610000  0.44870000  0.38560000  1.0 -0.1591504263
C  C56  1  0.86390000  0.94870000  0.61440000  1.0 -0.1591504263
C  C57  1  0.43300000  0.58660000  0.03030000  1.0 -0.1917895023
C  C58  1  0.06700000  0.08660000  0.96970000  1.0 -0.1917895023
C  C59  1  0.43300000  0.58660000  0.46970000  1.0 -0.1917895023
C  C60  1  0.06700000  0.08660000  0.53030000  1.0 -0.1917895023
C  C61  1  0.21660000  0.50200000  0.06720000  1.0 -0.0870198828
C  C62  1  0.28340000  0.00200000  0.93280000  1.0 -0.0870198828
C  C63  1  0.21660000  0.50200000  0.43280000  1.0 -0.0870198828
C  C64  1  0.28340000  0.00200000  0.56720000  1.0 -0.0870198828
C  C65  1  0.70030000  0.42440000  0.13720000  1.0 -0.0870198828
C  C66  1  0.79970000  0.92440000  0.86280000  1.0 -0.0870198828
C  C67  1  0.70030000  0.42440000  0.36280000  1.0 -0.0870198828
C  C68  1  0.79970000  0.92440000  0.63720000  1.0 -0.0870198828
C  C69  1  0.49230000  0.51670000  0.08910000  1.0 -0.1968878899
C  C70  1  0.00770000  0.01670000  0.91090000  1.0 -0.1968878899
C  C71  1  0.49230000  0.51670000  0.41090000  1.0 -0.1968878899
C  C72  1  0.00770000  0.01670000  0.58910000  1.0 -0.1968878899
C  C73  1  0.20380000  0.48210000  0.11790000  1.0 0.0062778997
C  C74  1  0.29620000  0.98210000  0.88210000  1.0 0.0062778997
C  C75  1  0.20380000  0.48210000  0.38210000  1.0 0.0062778997
C  C76  1  0.29620000  0.98210000  0.61790000  1.0 0.0062778997
C  C77  1  0.34940000  0.52090000  0.08630000  1.0 0.0699319877
C  C78  1  0.15060000  0.02090000  0.91370000  1.0 0.0699319877
C  C79  1  0.34940000  0.52090000  0.41370000  1.0 0.0699319877
C  C80  1  0.15060000  0.02090000  0.58630000  1.0 0.0699319877
C  C81  1  0.70380000  0.53840000  0.09540000  1.0 -0.1504539643
C  C82  1  0.79620000  0.03840000  0.90460000  1.0 -0.1504539643
C  C83  1  0.70380000  0.53840000  0.40460000  1.0 -0.1504539643
C  C84  1  0.79620000  0.03840000  0.59540000  1.0 -0.1504539643
C  C85  1  0.26420000  0.48150000  0.15240000  1.0 -0.0952957608
C  C86  1  0.23580000  0.98150000  0.84760000  1.0 -0.0952957608
C  C87  1  0.26420000  0.48150000  0.34760000  1.0 -0.0952957608
C  C88  1  0.23580000  0.98150000  0.65240000  1.0 -0.0952957608
C  C89  1  0.76960000  0.51300000  0.11670000  1.0 -0.0870198828
C  C90  1  0.73040000  0.01300000  0.88330000  1.0 -0.0870198828
C  C91  1  0.76960000  0.51300000  0.38330000  1.0 -0.0870198828
C  C92  1  0.73040000  0.01300000  0.61670000  1.0 -0.0870198828
C  C93  1  0.28810000  0.51960000  0.05130000  1.0 -0.1591504263
C  C94  1  0.21190000  0.01960000  0.94870000  1.0 -0.1675678705
C  C95  1  0.28810000  0.51960000  0.44870000  1.0 -0.1591504263
C  C96  1  0.21190000  0.01960000  0.55130000  1.0 -0.1591504263
C  C97  1  0.50940000  0.65290000  0.96960000  1.0 0.0641859043
C  C98  1  0.99060000  0.15290000  0.03040000  1.0 0.0641859043
C  C99  1  0.50940000  0.65290000  0.53040000  1.0 0.0641859043
C  C100  1  0.99060000  0.15290000  0.46960000  1.0 0.0641859043
C  C101  1  0.33580000  0.50130000  0.13760000  1.0 -0.1591504263
C  C102  1  0.16420000  0.00130000  0.86240000  1.0 -0.1591504263
C  C103  1  0.33580000  0.50130000  0.36240000  1.0 -0.1591504263
C  C104  1  0.16420000  0.00130000  0.63760000  1.0 -0.1591504263
C  C105  1  0.12540000  0.46120000  0.13900000  1.0 0.5145309437
C  C106  1  0.37460000  0.96120000  0.86100000  1.0 0.5172339249
C  C107  1  0.12540000  0.46120000  0.36100000  1.0 0.5145309437
C  C108  1  0.37460000  0.96120000  0.63900000  1.0 0.5172339249
C  C109  1  0.43450000  0.30740000  0.38930000  1.0 -0.0870198828
C  C110  1  0.06550000  0.80740000  0.61070000  1.0 -0.0870198828
C  C111  1  0.43450000  0.30740000  0.11070000  1.0 -0.0870198828
C  C112  1  0.06550000  0.80740000  0.88930000  1.0 -0.0870198828
C  C113  1  0.53010000  0.25000000  0.43340000  1.0 -0.0870198828
C  C114  1  0.96990000  0.75000000  0.56660000  1.0 -0.0870198828
C  C115  1  0.53010000  0.25000000  0.06660000  1.0 -0.0870198828
C  C116  1  0.96990000  0.75000000  0.93340000  1.0 -0.0870198828
C  C117  1  0.53590000  0.29580000  0.47110000  1.0 -0.1504539643
C  C118  1  0.96410000  0.79580000  0.52890000  1.0 -0.1504539643
C  C119  1  0.53590000  0.29580000  0.02890000  1.0 -0.1504539643
C  C120  1  0.96410000  0.79580000  0.97110000  1.0 -0.1504539643
C  C121  1  0.43960000  0.35180000  0.42750000  1.0 -0.1675678705
C  C122  1  0.06040000  0.85180000  0.57250000  1.0 -0.1675678705
C  C123  1  0.43960000  0.35180000  0.07250000  1.0 -0.1675678705
C  C124  1  0.06040000  0.85180000  0.92750000  1.0 -0.1675678705
C  C125  1  0.47130000  0.20570000  0.35130000  1.0 0.5941947866
C  C126  1  0.02870000  0.70570000  0.64870000  1.0 0.5941947866
C  C127  1  0.47130000  0.20570000  0.14870000  1.0 0.5941947866
C  C128  1  0.02870000  0.70570000  0.85130000  1.0 0.5941947866
C  C129  1  0.47910000  0.25550000  0.39200000  1.0 -0.0194605212
C  C130  1  0.02090000  0.75550000  0.60800000  1.0 -0.0194605212
C  C131  1  0.47910000  0.25550000  0.10800000  1.0 -0.0194605212
C  C132  1  0.02090000  0.75550000  0.89200000  1.0 -0.0194605212
C  C133  1  0.43100000  0.42150000  0.53110000  1.0 -0.1917895023
C  C134  1  0.06900000  0.92150000  0.46890000  1.0 -0.1917895023
C  C135  1  0.43100000  0.42150000  0.96890000  1.0 -0.1917895023
C  C136  1  0.06900000  0.92150000  0.03110000  1.0 -0.1917895023
C  C137  1  0.23200000  0.54360000  0.63900000  1.0 -0.0138973368
C  C138  1  0.26800000  0.04360000  0.36100000  1.0 -0.0138973368
C  C139  1  0.23200000  0.54360000  0.86100000  1.0 -0.0138973368
C  C140  1  0.26800000  0.04360000  0.13900000  1.0 -0.0138973368
C  C141  1  0.57350000  0.45820000  0.56860000  1.0 0.0874073754
C  C142  1  0.92650000  0.95820000  0.43140000  1.0 0.0874073754
C  C143  1  0.57350000  0.45820000  0.93140000  1.0 0.0874073754
C  C144  1  0.92650000  0.95820000  0.06860000  1.0 0.0874073754
C  C145  1  0.49580000  0.39480000  0.51090000  1.0 0.0874073754
C  C146  1  0.00420000  0.89480000  0.48910000  1.0 0.0874073754
C  C147  1  0.49580000  0.39480000  0.98910000  1.0 0.0874073754
C  C148  1  0.00420000  0.89480000  0.01090000  1.0 0.0874073754
C  C149  1  0.16220000  0.57130000  0.66540000  1.0 0.5968363651
C  C150  1  0.33780000  0.07130000  0.33460000  1.0 0.5968363651
C  C151  1  0.16220000  0.57130000  0.83460000  1.0 0.5968363651
C  C152  1  0.33780000  0.07130000  0.16540000  1.0 0.5968363651
C  C153  1  0.36410000  0.49420000  0.59350000  1.0 0.0699319877
C  C154  1  0.13590000  0.99420000  0.40650000  1.0 0.0699319877
C  C155  1  0.36410000  0.49420000  0.90650000  1.0 0.0699319877
C  C156  1  0.13590000  0.99420000  0.09350000  1.0 0.0699319877
C  C157  1  0.43490000  0.46580000  0.57030000  1.0 0.0874073754
C  C158  1  0.06510000  0.96580000  0.42970000  1.0 0.0874073754
C  C159  1  0.43490000  0.46580000  0.92970000  1.0 0.0874073754
C  C160  1  0.06510000  0.96580000  0.07030000  1.0 0.0874073754
C  C161  1  0.36390000  0.55130000  0.61440000  1.0 -0.1591504263
C  C162  1  0.13610000  0.05130000  0.38560000  1.0 -0.1591504263
C  C163  1  0.36390000  0.55130000  0.88560000  1.0 -0.1591504263
C  C164  1  0.13610000  0.05130000  0.11440000  1.0 -0.1591504263
C  C165  1  0.56700000  0.41340000  0.53030000  1.0 -0.1917895023
C  C166  1  0.93300000  0.91340000  0.46970000  1.0 -0.1917895023
C  C167  1  0.56700000  0.41340000  0.96970000  1.0 -0.1917895023
C  C168  1  0.93300000  0.91340000  0.03030000  1.0 -0.1917895023
C  C169  1  0.78340000  0.49800000  0.56720000  1.0 -0.0870198828
C  C170  1  0.71660000  0.99800000  0.43280000  1.0 -0.0870198828
C  C171  1  0.78340000  0.49800000  0.93280000  1.0 -0.0870198828
C  C172  1  0.71660000  0.99800000  0.06720000  1.0 -0.0870198828
C  C173  1  0.29970000  0.57560000  0.63720000  1.0 -0.0870198828
C  C174  1  0.20030000  0.07560000  0.36280000  1.0 -0.0870198828
C  C175  1  0.29970000  0.57560000  0.86280000  1.0 -0.0870198828
C  C176  1  0.20030000  0.07560000  0.13720000  1.0 -0.0870198828
C  C177  1  0.50770000  0.48330000  0.58910000  1.0 -0.1968878899
C  C178  1  0.99230000  0.98330000  0.41090000  1.0 -0.1968878899
C  C179  1  0.50770000  0.48330000  0.91090000  1.0 -0.1968878899
C  C180  1  0.99230000  0.98330000  0.08910000  1.0 -0.1968878899
C  C181  1  0.79620000  0.51790000  0.61790000  1.0 0.0062778997
C  C182  1  0.70380000  0.01790000  0.38210000  1.0 0.0062778997
C  C183  1  0.79620000  0.51790000  0.88210000  1.0 0.0062778997
C  C184  1  0.70380000  0.01790000  0.11790000  1.0 0.0062778997
C  C185  1  0.65060000  0.47910000  0.58630000  1.0 0.0699319877
C  C186  1  0.84940000  0.97910000  0.41370000  1.0 0.0699319877
C  C187  1  0.65060000  0.47910000  0.91370000  1.0 0.0699319877
C  C188  1  0.84940000  0.97910000  0.08630000  1.0 0.0699319877
C  C189  1  0.29620000  0.46160000  0.59540000  1.0 -0.1504539643
C  C190  1  0.20380000  0.96160000  0.40460000  1.0 -0.1504539643
C  C191  1  0.29620000  0.46160000  0.90460000  1.0 -0.1504539643
C  C192  1  0.20380000  0.96160000  0.09540000  1.0 -0.1504539643
C  C193  1  0.73580000  0.51850000  0.65240000  1.0 -0.0952957608
C  C194  1  0.76420000  0.01850000  0.34760000  1.0 -0.0952957608
C  C195  1  0.73580000  0.51850000  0.84760000  1.0 -0.0952957608
C  C196  1  0.76420000  0.01850000  0.15240000  1.0 -0.0952957608
C  C197  1  0.23040000  0.48700000  0.61670000  1.0 -0.0870198828
C  C198  1  0.26960000  0.98700000  0.38330000  1.0 -0.0870198828
C  C199  1  0.23040000  0.48700000  0.88330000  1.0 -0.0870198828
C  C200  1  0.26960000  0.98700000  0.11670000  1.0 -0.0870198828
C  C201  1  0.71190000  0.48040000  0.55130000  1.0 -0.1591504263
C  C202  1  0.78810000  0.98040000  0.44870000  1.0 -0.1591504263
C  C203  1  0.71190000  0.48040000  0.94870000  1.0 -0.1591504263
C  C204  1  0.78810000  0.98040000  0.05130000  1.0 -0.1591504263
C  C205  1  0.49060000  0.34710000  0.46960000  1.0 0.0641859043
C  C206  1  0.00940000  0.84710000  0.53040000  1.0 0.0641859043
C  C207  1  0.49060000  0.34710000  0.03040000  1.0 0.0641859043
C  C208  1  0.00940000  0.84710000  0.96960000  1.0 0.0641859043
C  C209  1  0.66420000  0.49870000  0.63760000  1.0 -0.1591504263
C  C210  1  0.83580000  0.99870000  0.36240000  1.0 -0.1591504263
C  C211  1  0.66420000  0.49870000  0.86240000  1.0 -0.1591504263
C  C212  1  0.83580000  0.99870000  0.13760000  1.0 -0.1591504263
C  C213  1  0.87460000  0.53880000  0.63900000  1.0 0.5172339249
C  C214  1  0.62540000  0.03880000  0.36100000  1.0 0.5172339249
C  C215  1  0.87460000  0.53880000  0.86100000  1.0 0.5172339249
C  C216  1  0.62540000  0.03880000  0.13900000  1.0 0.5172339249
O  O1  1  0.11890000  0.43470000  0.17980000  1.0 -0.4383418914
O  O2  1  0.38110000  0.93470000  0.82020000  1.0 -0.4383418914
O  O3  1  0.11890000  0.43470000  0.32020000  1.0 -0.4383418914
O  O4  1  0.38110000  0.93470000  0.67980000  1.0 -0.4383418914
O  O5  1  0.06930000  0.47100000  0.10920000  1.0 -0.5037238728
O  O6  1  0.43070000  0.97100000  0.89080000  1.0 -0.5037238728
O  O7  1  0.06930000  0.47100000  0.39080000  1.0 -0.5037238728
O  O8  1  0.43070000  0.97100000  0.60920000  1.0 -0.5037238728
O  O9  1  0.49860000  0.84474000  0.86248000  1.0 -0.5329583344
O  O10  1  0.00140000  0.34474000  0.13752000  1.0 -0.5329583344
O  O11  1  0.49860000  0.84474000  0.63752000  1.0 -0.5329583344
O  O12  1  0.00140000  0.34474000  0.36248000  1.0 -0.5329583344
O  O13  1  0.56400000  0.78044000  0.80931000  1.0 -0.5390283
O  O14  1  0.93600000  0.28044000  0.19069000  1.0 -0.5390283
O  O15  1  0.56400000  0.78044000  0.69069000  1.0 -0.5390283
O  O16  1  0.93600000  0.28044000  0.30931000  1.0 -0.5390283
O  O17  1  0.82940000  0.38294000  0.19256000  1.0 -0.5329583344
O  O18  1  0.67060000  0.88294000  0.80744000  1.0 -0.5329583344
O  O19  1  0.82940000  0.38294000  0.30744000  1.0 -0.5329583344
O  O20  1  0.67060000  0.88294000  0.69256000  1.0 -0.5329583344
O  O21  1  0.90110000  0.45680000  0.15743000  1.0 -0.5390283
O  O22  1  0.59890000  0.95680000  0.84257000  1.0 -0.5390283
O  O23  1  0.90110000  0.45680000  0.34257000  1.0 -0.5390283
O  O24  1  0.59890000  0.95680000  0.65743000  1.0 -0.5390283
O  O25  1  0.99040000  0.38440000  0.25000000  1.0 -0.9005378913
O  O26  1  0.50960000  0.88440000  0.75000000  1.0 -0.9005378913
O  O27  1  0.88110000  0.56530000  0.67980000  1.0 -0.4383418914
O  O28  1  0.61890000  0.06530000  0.32020000  1.0 -0.4383418914
O  O29  1  0.88110000  0.56530000  0.82020000  1.0 -0.4383418914
O  O30  1  0.61890000  0.06530000  0.17980000  1.0 -0.4383418914
O  O31  1  0.93070000  0.52900000  0.60920000  1.0 -0.5037238728
O  O32  1  0.56930000  0.02900000  0.39080000  1.0 -0.5037238728
O  O33  1  0.93070000  0.52900000  0.89080000  1.0 -0.5037238728
O  O34  1  0.56930000  0.02900000  0.10920000  1.0 -0.5037238728
O  O35  1  0.50140000  0.15526000  0.36248000  1.0 -0.5329583344
O  O36  1  0.99860000  0.65526000  0.63752000  1.0 -0.5329583344
O  O37  1  0.50140000  0.15526000  0.13752000  1.0 -0.5329583344
O  O38  1  0.99860000  0.65526000  0.86248000  1.0 -0.5329583344
O  O39  1  0.43600000  0.21956000  0.30931000  1.0 -0.5390283
O  O40  1  0.06400000  0.71956000  0.69069000  1.0 -0.5390283
O  O41  1  0.43600000  0.21956000  0.19069000  1.0 -0.5390283
O  O42  1  0.06400000  0.71956000  0.80931000  1.0 -0.5390283
O  O43  1  0.17060000  0.61706000  0.69256000  1.0 -0.5329583344
O  O44  1  0.32940000  0.11706000  0.30744000  1.0 -0.5329583344
O  O45  1  0.17060000  0.61706000  0.80744000  1.0 -0.5329583344
O  O46  1  0.32940000  0.11706000  0.19256000  1.0 -0.5329583344
O  O47  1  0.09890000  0.54320000  0.65743000  1.0 -0.5390283
O  O48  1  0.40110000  0.04320000  0.34257000  1.0 -0.5390283
O  O49  1  0.09890000  0.54320000  0.84257000  1.0 -0.5390283
O  O50  1  0.40110000  0.04320000  0.15743000  1.0 -0.5390283
O  O51  1  0.00960000  0.61560000  0.75000000  1.0 -0.9005378913
O  O52  1  0.49040000  0.11560000  0.25000000  1.0 -0.9005378913
