# DDEC6 charges by PACMAN v1.1 (https://github.com/mtap-research/PACMAN-charge/)
data_CIGMUE_ASR_pacman
_symmetry_space_group_name_H-M   'P 1'
_cell_length_a   19.09100000
_cell_length_b   19.09100000
_cell_length_c   16.36100000
_cell_angle_alpha   90.00000000
_cell_angle_beta   90.00000000
_cell_angle_gamma   120.00000000
_symmetry_Int_Tables_number   1
_chemical_formula_structural   Co3H42C64N27O13
_chemical_formula_sum   'Co6 H84 C128 N54 O26'
_cell_volume   5164.13790870
_cell_formula_units_Z   2
loop_
 _symmetry_equiv_pos_site_id
 _symmetry_equiv_pos_as_xyz
  1  'x, y, z'
loop_
 _atom_site_type_symbol
 _atom_site_label
 _atom_site_symmetry_multiplicity
 _atom_site_fract_x
 _atom_site_fract_y
 _atom_site_fract_z
 _atom_site_occupancy
 _atom_site_charge
Co  Co1  1  0.54478000  0.27239000  0.25000000  1.0 0.6682579558
Co  Co2  1  0.72761000  0.27239000  0.25000000  1.0 0.6682579558
Co  Co3  1  0.72761000  0.45522000  0.25000000  1.0 0.6682579558
Co  Co4  1  0.45522000  0.72761000  0.75000000  1.0 0.6682579558
Co  Co5  1  0.27239000  0.72761000  0.75000000  1.0 0.6682579558
Co  Co6  1  0.27239000  0.54478000  0.75000000  1.0 0.6682579558
H  H1  1  0.40430000  0.10030000  0.25000000  1.0 0.0839374926
H  H2  1  0.89970000  0.30400000  0.25000000  1.0 0.0839374926
H  H3  1  0.69600000  0.59570000  0.25000000  1.0 0.0839374926
H  H4  1  0.59570000  0.89970000  0.75000000  1.0 0.0839374926
H  H5  1  0.10030000  0.69600000  0.75000000  1.0 0.0839374926
H  H6  1  0.30400000  0.40430000  0.75000000  1.0 0.0839374926
H  H7  1  0.10030000  0.40430000  0.75000000  1.0 0.0839374926
H  H8  1  0.30400000  0.89970000  0.75000000  1.0 0.0839374926
H  H9  1  0.59570000  0.69600000  0.75000000  1.0 0.0839374926
H  H10  1  0.89970000  0.59570000  0.25000000  1.0 0.0839374926
H  H11  1  0.69600000  0.10030000  0.25000000  1.0 0.0839374926
H  H12  1  0.40430000  0.30400000  0.25000000  1.0 0.0839374926
H  H13  1  0.26510000  0.02790000  0.25000000  1.0 0.1264934183
H  H14  1  0.97210000  0.23720000  0.25000000  1.0 0.1264934183
H  H15  1  0.76280000  0.73490000  0.25000000  1.0 0.1264934183
H  H16  1  0.73490000  0.97210000  0.75000000  1.0 0.1264934183
H  H17  1  0.02790000  0.76280000  0.75000000  1.0 0.1264934183
H  H18  1  0.23720000  0.26510000  0.75000000  1.0 0.1264934183
H  H19  1  0.02790000  0.26510000  0.75000000  1.0 0.1264934183
H  H20  1  0.23720000  0.97210000  0.75000000  1.0 0.1264934183
H  H21  1  0.73490000  0.76280000  0.75000000  1.0 0.1264934183
H  H22  1  0.97210000  0.73490000  0.25000000  1.0 0.1264934183
H  H23  1  0.76280000  0.02790000  0.25000000  1.0 0.1264934183
H  H24  1  0.26510000  0.23720000  0.25000000  1.0 0.1264934183
H  H25  1  0.46370000  0.30870000  0.39960000  1.0 0.0891337382
H  H26  1  0.69130000  0.15500000  0.39960000  1.0 0.0891337382
H  H27  1  0.84500000  0.53630000  0.39960000  1.0 0.0891337382
H  H28  1  0.53630000  0.69130000  0.89960000  1.0 0.0891337382
H  H29  1  0.30870000  0.84500000  0.89960000  1.0 0.0891337382
H  H30  1  0.15500000  0.46370000  0.89960000  1.0 0.0891337382
H  H31  1  0.30870000  0.46370000  0.60040000  1.0 0.0891337382
H  H32  1  0.15500000  0.69130000  0.60040000  1.0 0.0891337382
H  H33  1  0.53630000  0.84500000  0.60040000  1.0 0.0891337382
H  H34  1  0.69130000  0.53630000  0.10040000  1.0 0.0891337382
H  H35  1  0.84500000  0.30870000  0.10040000  1.0 0.0891337382
H  H36  1  0.46370000  0.15500000  0.10040000  1.0 0.0891337382
H  H37  1  0.53630000  0.69130000  0.60040000  1.0 0.0891337382
H  H38  1  0.30870000  0.84500000  0.60040000  1.0 0.0891337382
H  H39  1  0.15500000  0.46370000  0.60040000  1.0 0.0891337382
H  H40  1  0.46370000  0.30870000  0.10040000  1.0 0.0891337382
H  H41  1  0.69130000  0.15500000  0.10040000  1.0 0.0891337382
H  H42  1  0.84500000  0.53630000  0.10040000  1.0 0.0891337382
H  H43  1  0.69130000  0.53630000  0.39960000  1.0 0.0891337382
H  H44  1  0.84500000  0.30870000  0.39960000  1.0 0.0891337382
H  H45  1  0.46370000  0.15500000  0.39960000  1.0 0.0891337382
H  H46  1  0.30870000  0.46370000  0.89960000  1.0 0.0891337382
H  H47  1  0.15500000  0.69130000  0.89960000  1.0 0.0891337382
H  H48  1  0.53630000  0.84500000  0.89960000  1.0 0.0891337382
H  H49  1  0.38040000  0.38040000  0.50000000  1.0 0.0891337382
H  H50  1  0.61960000  0.00000000  0.50000000  1.0 0.0891337382
H  H51  1  0.00000000  0.61960000  0.50000000  1.0 0.0891337382
H  H52  1  0.61960000  0.61960000  0.00000000  1.0 0.0891337382
H  H53  1  0.38040000  0.00000000  0.00000000  1.0 0.0891337382
H  H54  1  0.00000000  0.38040000  0.00000000  1.0 0.0891337382
H  H55  1  0.61960000  0.61960000  0.50000000  1.0 0.0891337382
H  H56  1  0.38040000  0.00000000  0.50000000  1.0 0.0891337382
H  H57  1  0.00000000  0.38040000  0.50000000  1.0 0.0891337382
H  H58  1  0.38040000  0.38040000  0.00000000  1.0 0.0891337382
H  H59  1  0.61960000  0.00000000  0.00000000  1.0 0.0891337382
H  H60  1  0.00000000  0.61960000  0.00000000  1.0 0.0891337382
H  H61  1  0.40960000  0.35370000  0.43930000  1.0 0.0647833016
H  H62  1  0.64630000  0.05590000  0.43930000  1.0 0.0647833016
H  H63  1  0.94410000  0.59040000  0.43930000  1.0 0.0647833016
H  H64  1  0.59040000  0.64630000  0.93930000  1.0 0.0647833016
H  H65  1  0.35370000  0.94410000  0.93930000  1.0 0.0647833016
H  H66  1  0.05590000  0.40960000  0.93930000  1.0 0.0647833016
H  H67  1  0.35370000  0.40960000  0.56070000  1.0 0.0647833016
H  H68  1  0.05590000  0.64630000  0.56070000  1.0 0.0647833016
H  H69  1  0.59040000  0.94410000  0.56070000  1.0 0.0647833016
H  H70  1  0.64630000  0.59040000  0.06070000  1.0 0.0647833016
H  H71  1  0.94410000  0.35370000  0.06070000  1.0 0.0647833016
H  H72  1  0.40960000  0.05590000  0.06070000  1.0 0.0647833016
H  H73  1  0.59040000  0.64630000  0.56070000  1.0 0.0647833016
H  H74  1  0.35370000  0.94410000  0.56070000  1.0 0.0647833016
H  H75  1  0.05590000  0.40960000  0.56070000  1.0 0.0647833016
H  H76  1  0.40960000  0.35370000  0.06070000  1.0 0.0647833016
H  H77  1  0.64630000  0.05590000  0.06070000  1.0 0.0647833016
H  H78  1  0.94410000  0.59040000  0.06070000  1.0 0.0647833016
H  H79  1  0.64630000  0.59040000  0.43930000  1.0 0.0647833016
H  H80  1  0.94410000  0.35370000  0.43930000  1.0 0.0647833016
H  H81  1  0.40960000  0.05590000  0.43930000  1.0 0.0647833016
H  H82  1  0.35370000  0.40960000  0.93930000  1.0 0.0647833016
H  H83  1  0.05590000  0.64630000  0.93930000  1.0 0.0647833016
H  H84  1  0.59040000  0.94410000  0.93930000  1.0 0.0647833016
C  C1  1  0.37560000  0.12780000  0.25000000  1.0 0.0179707809
C  C2  1  0.87220000  0.24780000  0.25000000  1.0 0.0179707809
C  C3  1  0.75220000  0.62440000  0.25000000  1.0 0.0179707809
C  C4  1  0.62440000  0.87220000  0.75000000  1.0 0.0179707809
C  C5  1  0.12780000  0.75220000  0.75000000  1.0 0.0179707809
C  C6  1  0.24780000  0.37560000  0.75000000  1.0 0.0179707809
C  C7  1  0.12780000  0.37560000  0.75000000  1.0 0.0179707809
C  C8  1  0.24780000  0.87220000  0.75000000  1.0 0.0179707809
C  C9  1  0.62440000  0.75220000  0.75000000  1.0 0.0179707809
C  C10  1  0.87220000  0.62440000  0.25000000  1.0 0.0179707809
C  C11  1  0.75220000  0.12780000  0.25000000  1.0 0.0179707809
C  C12  1  0.37560000  0.24780000  0.25000000  1.0 0.0179707809
C  C13  1  0.29190000  0.08410000  0.25000000  1.0 -0.14285038
C  C14  1  0.91590000  0.20780000  0.25000000  1.0 -0.14285038
C  C15  1  0.79220000  0.70810000  0.25000000  1.0 -0.14285038
C  C16  1  0.70810000  0.91590000  0.75000000  1.0 -0.14285038
C  C17  1  0.08410000  0.79220000  0.75000000  1.0 -0.14285038
C  C18  1  0.20780000  0.29190000  0.75000000  1.0 -0.14285038
C  C19  1  0.08410000  0.29190000  0.75000000  1.0 -0.14285038
C  C20  1  0.20780000  0.91590000  0.75000000  1.0 -0.14285038
C  C21  1  0.70810000  0.79220000  0.75000000  1.0 -0.14285038
C  C22  1  0.91590000  0.70810000  0.25000000  1.0 -0.14285038
C  C23  1  0.79220000  0.08410000  0.25000000  1.0 -0.14285038
C  C24  1  0.29190000  0.20780000  0.25000000  1.0 -0.14285038
C  C25  1  0.24760000  0.12380000  0.25000000  1.0 0.0670486506
C  C26  1  0.87620000  0.12380000  0.25000000  1.0 0.0670486506
C  C27  1  0.87620000  0.75240000  0.25000000  1.0 0.0670486506
C  C28  1  0.75240000  0.87620000  0.75000000  1.0 0.0670486506
C  C29  1  0.12380000  0.87620000  0.75000000  1.0 0.0670486506
C  C30  1  0.12380000  0.24760000  0.75000000  1.0 0.0670486506
C  C31  1  0.15890000  0.07945000  0.25000000  1.0 0.3445300302
C  C32  1  0.92055000  0.07945000  0.25000000  1.0 0.3445300302
C  C33  1  0.92055000  0.84110000  0.25000000  1.0 0.3445300302
C  C34  1  0.84110000  0.92055000  0.75000000  1.0 0.3445300302
C  C35  1  0.07945000  0.92055000  0.75000000  1.0 0.3445300302
C  C36  1  0.07945000  0.15890000  0.75000000  1.0 0.3445300302
C  C37  1  0.04330000  0.95670000  0.25000000  1.0 0.3637287906
C  C38  1  0.04330000  0.08660000  0.25000000  1.0 0.3637287906
C  C39  1  0.91340000  0.95670000  0.25000000  1.0 0.3637287906
C  C40  1  0.95670000  0.04330000  0.75000000  1.0 0.3637287906
C  C41  1  0.95670000  0.91340000  0.75000000  1.0 0.3637287906
C  C42  1  0.08660000  0.04330000  0.75000000  1.0 0.3637287906
C  C43  1  0.00000000  0.00000000  0.25000000  1.0 -0.1868247349
C  C44  1  0.00000000  0.00000000  0.75000000  1.0 -0.1868247349
C  C45  1  0.58380000  0.41620000  0.35560000  1.0 0.2667680125
C  C46  1  0.58380000  0.16760000  0.35560000  1.0 0.2667680125
C  C47  1  0.83240000  0.41620000  0.35560000  1.0 0.2667680125
C  C48  1  0.41620000  0.58380000  0.85560000  1.0 0.2667680125
C  C49  1  0.41620000  0.83240000  0.85560000  1.0 0.2667680125
C  C50  1  0.16760000  0.58380000  0.85560000  1.0 0.2667680125
C  C51  1  0.41620000  0.58380000  0.64440000  1.0 0.2667680125
C  C52  1  0.16760000  0.58380000  0.64440000  1.0 0.2667680125
C  C53  1  0.41620000  0.83240000  0.64440000  1.0 0.2667680125
C  C54  1  0.58380000  0.41620000  0.14440000  1.0 0.2667680125
C  C55  1  0.83240000  0.41620000  0.14440000  1.0 0.2667680125
C  C56  1  0.58380000  0.16760000  0.14440000  1.0 0.2667680125
C  C57  1  0.51440000  0.37080000  0.39210000  1.0 0.1378870225
C  C58  1  0.62920000  0.14360000  0.39210000  1.0 0.1378870225
C  C59  1  0.85640000  0.48560000  0.39210000  1.0 0.1378870225
C  C60  1  0.48560000  0.62920000  0.89210000  1.0 0.1378870225
C  C61  1  0.37080000  0.85640000  0.89210000  1.0 0.1378870225
C  C62  1  0.14360000  0.51440000  0.89210000  1.0 0.1378870225
C  C63  1  0.37080000  0.51440000  0.60790000  1.0 0.1378870225
C  C64  1  0.14360000  0.62920000  0.60790000  1.0 0.1378870225
C  C65  1  0.48560000  0.85640000  0.60790000  1.0 0.1378870225
C  C66  1  0.62920000  0.48560000  0.10790000  1.0 0.1378870225
C  C67  1  0.85640000  0.37080000  0.10790000  1.0 0.1378870225
C  C68  1  0.51440000  0.14360000  0.10790000  1.0 0.1378870225
C  C69  1  0.48560000  0.62920000  0.60790000  1.0 0.1378870225
C  C70  1  0.37080000  0.85640000  0.60790000  1.0 0.1378870225
C  C71  1  0.14360000  0.51440000  0.60790000  1.0 0.1378870225
C  C72  1  0.51440000  0.37080000  0.10790000  1.0 0.1378870225
C  C73  1  0.62920000  0.14360000  0.10790000  1.0 0.1378870225
C  C74  1  0.85640000  0.48560000  0.10790000  1.0 0.1378870225
C  C75  1  0.62920000  0.48560000  0.39210000  1.0 0.1378870225
C  C76  1  0.85640000  0.37080000  0.39210000  1.0 0.1378870225
C  C77  1  0.51440000  0.14360000  0.39210000  1.0 0.1378870225
C  C78  1  0.37080000  0.51440000  0.89210000  1.0 0.1378870225
C  C79  1  0.14360000  0.62920000  0.89210000  1.0 0.1378870225
C  C80  1  0.48560000  0.85640000  0.89210000  1.0 0.1378870225
C  C81  1  0.48020000  0.51980000  0.51840000  1.0 0.0311381749
C  C82  1  0.48020000  0.96040000  0.51840000  1.0 0.0311381749
C  C83  1  0.03960000  0.51980000  0.51840000  1.0 0.0311381749
C  C84  1  0.51980000  0.48020000  0.01840000  1.0 0.0311381749
C  C85  1  0.51980000  0.03960000  0.01840000  1.0 0.0311381749
C  C86  1  0.96040000  0.48020000  0.01840000  1.0 0.0311381749
C  C87  1  0.51980000  0.48020000  0.48160000  1.0 0.0311381749
C  C88  1  0.96040000  0.48020000  0.48160000  1.0 0.0311381749
C  C89  1  0.51980000  0.03960000  0.48160000  1.0 0.0311381749
C  C90  1  0.48020000  0.51980000  0.98160000  1.0 0.0311381749
C  C91  1  0.03960000  0.51980000  0.98160000  1.0 0.0311381749
C  C92  1  0.48020000  0.96040000  0.98160000  1.0 0.0311381749
C  C93  1  0.43800000  0.43800000  0.50000000  1.0 -0.0963766323
C  C94  1  0.56200000  0.00000000  0.50000000  1.0 -0.0963766323
C  C95  1  0.00000000  0.56200000  0.50000000  1.0 -0.0963766323
C  C96  1  0.56200000  0.56200000  0.00000000  1.0 -0.0963766323
C  C97  1  0.43800000  0.00000000  0.00000000  1.0 -0.0963766323
C  C98  1  0.00000000  0.43800000  0.00000000  1.0 -0.0963766323
C  C99  1  0.56200000  0.56200000  0.50000000  1.0 -0.0963766323
C  C100  1  0.43800000  0.00000000  0.50000000  1.0 -0.0963766323
C  C101  1  0.00000000  0.43800000  0.50000000  1.0 -0.0963766323
C  C102  1  0.43800000  0.43800000  0.00000000  1.0 -0.0963766323
C  C103  1  0.56200000  0.00000000  0.00000000  1.0 -0.0963766323
C  C104  1  0.00000000  0.56200000  0.00000000  1.0 -0.0963766323
C  C105  1  0.47030000  0.40670000  0.44690000  1.0 -0.0216933687
C  C106  1  0.59330000  0.06360000  0.44690000  1.0 -0.0216933687
C  C107  1  0.93640000  0.52970000  0.44690000  1.0 -0.0216933687
C  C108  1  0.52970000  0.59330000  0.94690000  1.0 -0.0216933687
C  C109  1  0.40670000  0.93640000  0.94690000  1.0 -0.0216933687
C  C110  1  0.06360000  0.47030000  0.94690000  1.0 -0.0216933687
C  C111  1  0.40670000  0.47030000  0.55310000  1.0 -0.0216933687
C  C112  1  0.06360000  0.59330000  0.55310000  1.0 -0.0216933687
C  C113  1  0.52970000  0.93640000  0.55310000  1.0 -0.0216933687
C  C114  1  0.59330000  0.52970000  0.05310000  1.0 -0.0216933687
C  C115  1  0.93640000  0.40670000  0.05310000  1.0 -0.0216933687
C  C116  1  0.47030000  0.06360000  0.05310000  1.0 -0.0216933687
C  C117  1  0.52970000  0.59330000  0.55310000  1.0 -0.0216933687
C  C118  1  0.40670000  0.93640000  0.55310000  1.0 -0.0216933687
C  C119  1  0.06360000  0.47030000  0.55310000  1.0 -0.0216933687
C  C120  1  0.47030000  0.40670000  0.05310000  1.0 -0.0216933687
C  C121  1  0.59330000  0.06360000  0.05310000  1.0 -0.0216933687
C  C122  1  0.93640000  0.52970000  0.05310000  1.0 -0.0216933687
C  C123  1  0.59330000  0.52970000  0.44690000  1.0 -0.0216933687
C  C124  1  0.93640000  0.40670000  0.44690000  1.0 -0.0216933687
C  C125  1  0.47030000  0.06360000  0.44690000  1.0 -0.0216933687
C  C126  1  0.40670000  0.47030000  0.94690000  1.0 -0.0216933687
C  C127  1  0.06360000  0.59330000  0.94690000  1.0 -0.0216933687
C  C128  1  0.52970000  0.93640000  0.94690000  1.0 -0.0216933687
N  N1  1  0.41560000  0.20780000  0.25000000  1.0 -0.344431128
N  N2  1  0.79220000  0.20780000  0.25000000  1.0 -0.344431128
N  N3  1  0.79220000  0.58440000  0.25000000  1.0 -0.344431128
N  N4  1  0.58440000  0.79220000  0.75000000  1.0 -0.344431128
N  N5  1  0.20780000  0.79220000  0.75000000  1.0 -0.344431128
N  N6  1  0.20780000  0.41560000  0.75000000  1.0 -0.344431128
N  N7  1  0.12470000  0.99900000  0.25000000  1.0 -0.4297431468
N  N8  1  0.00100000  0.12570000  0.25000000  1.0 -0.4297431468
N  N9  1  0.87430000  0.87530000  0.25000000  1.0 -0.4297431468
N  N10  1  0.87530000  0.00100000  0.75000000  1.0 -0.4297431468
N  N11  1  0.99900000  0.87430000  0.75000000  1.0 -0.4297431468
N  N12  1  0.12570000  0.12470000  0.75000000  1.0 -0.4297431468
N  N13  1  0.99900000  0.12470000  0.75000000  1.0 -0.4297431468
N  N14  1  0.12570000  0.00100000  0.75000000  1.0 -0.4297431468
N  N15  1  0.87530000  0.87430000  0.75000000  1.0 -0.4297431468
N  N16  1  0.00100000  0.87530000  0.25000000  1.0 -0.4297431468
N  N17  1  0.87430000  0.99900000  0.25000000  1.0 -0.4297431468
N  N18  1  0.12470000  0.12570000  0.25000000  1.0 -0.4297431468
N  N19  1  0.55790000  0.35820000  0.33970000  1.0 -0.2342525605
N  N20  1  0.64180000  0.19970000  0.33970000  1.0 -0.2342525605
N  N21  1  0.80030000  0.44210000  0.33970000  1.0 -0.2342525605
N  N22  1  0.44210000  0.64180000  0.83970000  1.0 -0.2342525605
N  N23  1  0.35820000  0.80030000  0.83970000  1.0 -0.2342525605
N  N24  1  0.19970000  0.55790000  0.83970000  1.0 -0.2342525605
N  N25  1  0.35820000  0.55790000  0.66030000  1.0 -0.2342525605
N  N26  1  0.19970000  0.64180000  0.66030000  1.0 -0.2342525605
N  N27  1  0.44210000  0.80030000  0.66030000  1.0 -0.2342525605
N  N28  1  0.64180000  0.44210000  0.16030000  1.0 -0.2342525605
N  N29  1  0.80030000  0.35820000  0.16030000  1.0 -0.2342525605
N  N30  1  0.55790000  0.19970000  0.16030000  1.0 -0.2342525605
N  N31  1  0.44210000  0.64180000  0.66030000  1.0 -0.2342525605
N  N32  1  0.35820000  0.80030000  0.66030000  1.0 -0.2342525605
N  N33  1  0.19970000  0.55790000  0.66030000  1.0 -0.2342525605
N  N34  1  0.55790000  0.35820000  0.16030000  1.0 -0.2342525605
N  N35  1  0.64180000  0.19970000  0.16030000  1.0 -0.2342525605
N  N36  1  0.80030000  0.44210000  0.16030000  1.0 -0.2342525605
N  N37  1  0.64180000  0.44210000  0.33970000  1.0 -0.2342525605
N  N38  1  0.80030000  0.35820000  0.33970000  1.0 -0.2342525605
N  N39  1  0.55790000  0.19970000  0.33970000  1.0 -0.2342525605
N  N40  1  0.35820000  0.55790000  0.83970000  1.0 -0.2342525605
N  N41  1  0.19970000  0.64180000  0.83970000  1.0 -0.2342525605
N  N42  1  0.44210000  0.80030000  0.83970000  1.0 -0.2342525605
N  N43  1  0.44950000  0.55050000  0.57800000  1.0 -0.0216933687
N  N44  1  0.44950000  0.89900000  0.57800000  1.0 -0.0216933687
N  N45  1  0.10100000  0.55050000  0.57800000  1.0 -0.0216933687
N  N46  1  0.55050000  0.44950000  0.07800000  1.0 -0.0216933687
N  N47  1  0.55050000  0.10100000  0.07800000  1.0 -0.0216933687
N  N48  1  0.89900000  0.44950000  0.07800000  1.0 -0.0216933687
N  N49  1  0.55050000  0.44950000  0.42200000  1.0 -0.0216933687
N  N50  1  0.89900000  0.44950000  0.42200000  1.0 -0.0216933687
N  N51  1  0.55050000  0.10100000  0.42200000  1.0 -0.0216933687
N  N52  1  0.44950000  0.55050000  0.92200000  1.0 -0.0216933687
N  N53  1  0.10100000  0.55050000  0.92200000  1.0 -0.0216933687
N  N54  1  0.44950000  0.89900000  0.92200000  1.0 -0.0216933687
O  O1  1  0.66666667  0.33333333  0.25000000  1.0 -0.1220141869
O  O2  1  0.33333333  0.66666667  0.75000000  1.0 -0.1220141869
O  O3  1  0.53710000  0.34740000  0.33530000  1.0 -0.247294176
O  O4  1  0.65260000  0.18970000  0.33530000  1.0 -0.247294176
O  O5  1  0.81030000  0.46290000  0.33530000  1.0 -0.247294176
O  O6  1  0.46290000  0.65260000  0.83530000  1.0 -0.247294176
O  O7  1  0.34740000  0.81030000  0.83530000  1.0 -0.247294176
O  O8  1  0.18970000  0.53710000  0.83530000  1.0 -0.247294176
O  O9  1  0.34740000  0.53710000  0.66470000  1.0 -0.247294176
O  O10  1  0.18970000  0.65260000  0.66470000  1.0 -0.247294176
O  O11  1  0.46290000  0.81030000  0.66470000  1.0 -0.247294176
O  O12  1  0.65260000  0.46290000  0.16470000  1.0 -0.247294176
O  O13  1  0.81030000  0.34740000  0.16470000  1.0 -0.247294176
O  O14  1  0.53710000  0.18970000  0.16470000  1.0 -0.247294176
O  O15  1  0.46290000  0.65260000  0.66470000  1.0 -0.247294176
O  O16  1  0.34740000  0.81030000  0.66470000  1.0 -0.247294176
O  O17  1  0.18970000  0.53710000  0.66470000  1.0 -0.247294176
O  O18  1  0.53710000  0.34740000  0.16470000  1.0 -0.247294176
O  O19  1  0.65260000  0.18970000  0.16470000  1.0 -0.247294176
O  O20  1  0.81030000  0.46290000  0.16470000  1.0 -0.247294176
O  O21  1  0.65260000  0.46290000  0.33530000  1.0 -0.247294176
O  O22  1  0.81030000  0.34740000  0.33530000  1.0 -0.247294176
O  O23  1  0.53710000  0.18970000  0.33530000  1.0 -0.247294176
O  O24  1  0.34740000  0.53710000  0.83530000  1.0 -0.247294176
O  O25  1  0.18970000  0.65260000  0.83530000  1.0 -0.247294176
O  O26  1  0.46290000  0.81030000  0.83530000  1.0 -0.247294176
