# DDEC6 charges by PACMAN v1.1 (https://github.com/mtap-research/PACMAN-charge/)
data_CIGNAL_FSR_pacman
_symmetry_space_group_name_H-M   'P 1'
_cell_length_a   19.10900000
_cell_length_b   19.10900000
_cell_length_c   16.28500000
_cell_angle_alpha   90.00000000
_cell_angle_beta   90.00000000
_cell_angle_gamma   120.00000000
_symmetry_Int_Tables_number   1
_chemical_formula_structural   Co3H42C70N21O13
_chemical_formula_sum   'Co6 H84 C140 N42 O26'
_cell_volume   5149.84686890
_cell_formula_units_Z   2
loop_
 _symmetry_equiv_pos_site_id
 _symmetry_equiv_pos_as_xyz
  1  'x, y, z'
loop_
 _atom_site_type_symbol
 _atom_site_label
 _atom_site_symmetry_multiplicity
 _atom_site_fract_x
 _atom_site_fract_y
 _atom_site_fract_z
 _atom_site_occupancy
 _atom_site_charge
Co  Co1  1  0.72755000  0.45511000  0.75000000  1.0 0.6810767666
Co  Co2  1  0.54489000  0.27245000  0.75000000  1.0 0.6810767666
Co  Co3  1  0.72756000  0.27245000  0.75000000  1.0 0.6810767666
Co  Co4  1  0.27245000  0.54489000  0.25000000  1.0 0.6810767666
Co  Co5  1  0.45511000  0.72755000  0.25000000  1.0 0.6810767666
Co  Co6  1  0.27244000  0.72755000  0.25000000  1.0 0.6810767666
H  H1  1  0.68710000  0.53710000  0.58970000  1.0 0.0805101143
H  H2  1  0.46290000  0.15000000  0.58970000  1.0 0.0805101143
H  H3  1  0.85000000  0.31290000  0.58970000  1.0 0.0805101143
H  H4  1  0.31290000  0.46290000  0.08970000  1.0 0.0805101143
H  H5  1  0.53710000  0.85000000  0.08970000  1.0 0.0805101143
H  H6  1  0.15000000  0.68710000  0.08970000  1.0 0.0805101143
H  H7  1  0.53710000  0.68710000  0.41030000  1.0 0.0805101143
H  H8  1  0.15000000  0.46290000  0.41030000  1.0 0.0805101143
H  H9  1  0.31290000  0.85000000  0.41030000  1.0 0.0805101143
H  H10  1  0.46290000  0.31290000  0.91030000  1.0 0.0805101143
H  H11  1  0.85000000  0.53710000  0.91030000  1.0 0.0805101143
H  H12  1  0.68710000  0.15000000  0.91030000  1.0 0.0805101143
H  H13  1  0.31290000  0.46290000  0.41030000  1.0 0.0805101143
H  H14  1  0.53710000  0.85000000  0.41030000  1.0 0.0805101143
H  H15  1  0.15000000  0.68710000  0.41030000  1.0 0.0805101143
H  H16  1  0.68710000  0.53710000  0.91030000  1.0 0.0805101143
H  H17  1  0.46290000  0.15000000  0.91030000  1.0 0.0805101143
H  H18  1  0.85000000  0.31290000  0.91030000  1.0 0.0805101143
H  H19  1  0.46290000  0.31290000  0.58970000  1.0 0.0805101143
H  H20  1  0.85000000  0.53710000  0.58970000  1.0 0.0805101143
H  H21  1  0.68710000  0.15000000  0.58970000  1.0 0.0805101143
H  H22  1  0.53710000  0.68710000  0.08970000  1.0 0.0805101143
H  H23  1  0.15000000  0.46290000  0.08970000  1.0 0.0805101143
H  H24  1  0.31290000  0.85000000  0.08970000  1.0 0.0805101143
H  H25  1  0.69720000  0.59770000  0.75000000  1.0 0.0960067365
H  H26  1  0.40230000  0.09950000  0.75000000  1.0 0.0960067365
H  H27  1  0.90050000  0.30280000  0.75000000  1.0 0.0960067365
H  H28  1  0.30280000  0.40230000  0.25000000  1.0 0.0960067365
H  H29  1  0.59770000  0.90050000  0.25000000  1.0 0.0960067365
H  H30  1  0.09950000  0.69720000  0.25000000  1.0 0.0960067365
H  H31  1  0.59770000  0.69720000  0.25000000  1.0 0.0960067365
H  H32  1  0.09950000  0.40230000  0.25000000  1.0 0.0960067365
H  H33  1  0.30280000  0.90050000  0.25000000  1.0 0.0960067365
H  H34  1  0.40230000  0.30280000  0.75000000  1.0 0.0960067365
H  H35  1  0.90050000  0.59770000  0.75000000  1.0 0.0960067365
H  H36  1  0.69720000  0.09950000  0.75000000  1.0 0.0960067365
H  H37  1  0.63190000  0.59370000  0.56770000  1.0 0.0877360227
H  H38  1  0.40630000  0.03820000  0.56770000  1.0 0.0877360227
H  H39  1  0.96180000  0.36810000  0.56770000  1.0 0.0877360227
H  H40  1  0.36810000  0.40630000  0.06770000  1.0 0.0877360227
H  H41  1  0.59370000  0.96180000  0.06770000  1.0 0.0877360227
H  H42  1  0.03820000  0.63190000  0.06770000  1.0 0.0877360227
H  H43  1  0.59370000  0.63190000  0.43230000  1.0 0.0877360227
H  H44  1  0.03820000  0.40630000  0.43230000  1.0 0.0877360227
H  H45  1  0.36810000  0.96180000  0.43230000  1.0 0.0877360227
H  H46  1  0.40630000  0.36810000  0.93230000  1.0 0.0877360227
H  H47  1  0.96180000  0.59370000  0.93230000  1.0 0.0877360227
H  H48  1  0.63190000  0.03820000  0.93230000  1.0 0.0877360227
H  H49  1  0.36810000  0.40630000  0.43230000  1.0 0.0877360227
H  H50  1  0.59370000  0.96180000  0.43230000  1.0 0.0877360227
H  H51  1  0.03820000  0.63190000  0.43230000  1.0 0.0877360227
H  H52  1  0.63190000  0.59370000  0.93230000  1.0 0.0877360227
H  H53  1  0.40630000  0.03820000  0.93230000  1.0 0.0877360227
H  H54  1  0.96180000  0.36810000  0.93230000  1.0 0.0877360227
H  H55  1  0.40630000  0.36810000  0.56770000  1.0 0.0877360227
H  H56  1  0.96180000  0.59370000  0.56770000  1.0 0.0877360227
H  H57  1  0.63190000  0.03820000  0.56770000  1.0 0.0877360227
H  H58  1  0.59370000  0.63190000  0.06770000  1.0 0.0877360227
H  H59  1  0.03820000  0.40630000  0.06770000  1.0 0.0877360227
H  H60  1  0.36810000  0.96180000  0.06770000  1.0 0.0877360227
H  H61  1  0.76280000  0.73320000  0.75000000  1.0 0.1282323664
H  H62  1  0.26680000  0.02960000  0.75000000  1.0 0.1282323664
H  H63  1  0.97040000  0.23720000  0.75000000  1.0 0.1282323664
H  H64  1  0.23720000  0.26680000  0.25000000  1.0 0.1282323664
H  H65  1  0.73320000  0.97040000  0.25000000  1.0 0.1282323664
H  H66  1  0.02960000  0.76280000  0.25000000  1.0 0.1282323664
H  H67  1  0.73320000  0.76280000  0.25000000  1.0 0.1282323664
H  H68  1  0.02960000  0.26680000  0.25000000  1.0 0.1282323664
H  H69  1  0.23720000  0.97040000  0.25000000  1.0 0.1282323664
H  H70  1  0.26680000  0.23720000  0.75000000  1.0 0.1282323664
H  H71  1  0.97040000  0.73320000  0.75000000  1.0 0.1282323664
H  H72  1  0.76280000  0.02960000  0.75000000  1.0 0.1282323664
H  H73  1  0.61650000  0.61650000  0.50000000  1.0 0.0736375239
H  H74  1  0.38350000  0.00000000  0.50000000  1.0 0.0736375239
H  H75  1  0.00000000  0.38350000  0.50000000  1.0 0.0736375239
H  H76  1  0.38350000  0.38350000  0.00000000  1.0 0.0736375239
H  H77  1  0.61650000  0.00000000  0.00000000  1.0 0.0736375239
H  H78  1  0.00000000  0.61650000  0.00000000  1.0 0.0736375239
H  H79  1  0.38350000  0.38350000  0.50000000  1.0 0.0736375239
H  H80  1  0.61650000  0.00000000  0.50000000  1.0 0.0736375239
H  H81  1  0.00000000  0.61650000  0.50000000  1.0 0.0736375239
H  H82  1  0.61650000  0.61650000  0.00000000  1.0 0.0736375239
H  H83  1  0.38350000  0.00000000  0.00000000  1.0 0.0736375239
H  H84  1  0.00000000  0.38350000  0.00000000  1.0 0.0736375239
C  C1  1  0.58250000  0.41750000  0.64200000  1.0 0.2461758172
C  C2  1  0.58250000  0.16500000  0.64200000  1.0 0.2461758172
C  C3  1  0.83500000  0.41750000  0.64200000  1.0 0.2461758172
C  C4  1  0.41750000  0.58250000  0.14200000  1.0 0.2461758172
C  C5  1  0.41750000  0.83500000  0.14200000  1.0 0.2461758172
C  C6  1  0.16500000  0.58250000  0.14200000  1.0 0.2461758172
C  C7  1  0.41750000  0.58250000  0.35800000  1.0 0.2461758172
C  C8  1  0.16500000  0.58250000  0.35800000  1.0 0.2461758172
C  C9  1  0.41750000  0.83500000  0.35800000  1.0 0.2461758172
C  C10  1  0.58250000  0.41750000  0.85800000  1.0 0.2461758172
C  C11  1  0.83500000  0.41750000  0.85800000  1.0 0.2461758172
C  C12  1  0.58250000  0.16500000  0.85800000  1.0 0.2461758172
C  C13  1  0.62860000  0.48480000  0.60670000  1.0 0.0960067365
C  C14  1  0.51520000  0.14380000  0.60670000  1.0 0.0960067365
C  C15  1  0.85620000  0.37140000  0.60670000  1.0 0.0960067365
C  C16  1  0.37140000  0.51520000  0.10670000  1.0 0.0960067365
C  C17  1  0.48480000  0.85620000  0.10670000  1.0 0.0960067365
C  C18  1  0.14380000  0.62860000  0.10670000  1.0 0.0960067365
C  C19  1  0.48480000  0.62860000  0.39330000  1.0 0.0960067365
C  C20  1  0.14380000  0.51520000  0.39330000  1.0 0.0960067365
C  C21  1  0.37140000  0.85620000  0.39330000  1.0 0.0960067365
C  C22  1  0.51520000  0.37140000  0.89330000  1.0 0.0960067365
C  C23  1  0.85620000  0.48480000  0.89330000  1.0 0.0960067365
C  C24  1  0.62860000  0.14380000  0.89330000  1.0 0.0960067365
C  C25  1  0.37140000  0.51520000  0.39330000  1.0 0.0960067365
C  C26  1  0.48480000  0.85620000  0.39330000  1.0 0.0960067365
C  C27  1  0.14380000  0.62860000  0.39330000  1.0 0.0960067365
C  C28  1  0.62860000  0.48480000  0.89330000  1.0 0.0960067365
C  C29  1  0.51520000  0.14380000  0.89330000  1.0 0.0960067365
C  C30  1  0.85620000  0.37140000  0.89330000  1.0 0.0960067365
C  C31  1  0.51520000  0.37140000  0.60670000  1.0 0.0960067365
C  C32  1  0.85620000  0.48480000  0.60670000  1.0 0.0960067365
C  C33  1  0.62860000  0.14380000  0.60670000  1.0 0.0960067365
C  C34  1  0.48480000  0.62860000  0.10670000  1.0 0.0960067365
C  C35  1  0.14380000  0.51520000  0.10670000  1.0 0.0960067365
C  C36  1  0.37140000  0.85620000  0.10670000  1.0 0.0960067365
C  C37  1  0.75340000  0.62550000  0.75000000  1.0 0.0078715817
C  C38  1  0.37450000  0.12790000  0.75000000  1.0 0.0078715817
C  C39  1  0.87210000  0.24660000  0.75000000  1.0 0.0078715817
C  C40  1  0.24660000  0.37450000  0.25000000  1.0 0.0078715817
C  C41  1  0.62550000  0.87210000  0.25000000  1.0 0.0078715817
C  C42  1  0.12790000  0.75340000  0.25000000  1.0 0.0078715817
C  C43  1  0.62550000  0.75340000  0.25000000  1.0 0.0078715817
C  C44  1  0.12790000  0.37450000  0.25000000  1.0 0.0078715817
C  C45  1  0.24660000  0.87210000  0.25000000  1.0 0.0078715817
C  C46  1  0.37450000  0.24660000  0.75000000  1.0 0.0078715817
C  C47  1  0.87210000  0.62550000  0.75000000  1.0 0.0078715817
C  C48  1  0.75340000  0.12790000  0.75000000  1.0 0.0078715817
C  C49  1  0.55068000  0.44932000  0.57830000  1.0 -0.0534043725
C  C50  1  0.55068000  0.10136000  0.57830000  1.0 -0.0534043725
C  C51  1  0.89864000  0.44932000  0.57830000  1.0 -0.0534043725
C  C52  1  0.44932000  0.55068000  0.07830000  1.0 -0.0534043725
C  C53  1  0.44932000  0.89864000  0.07830000  1.0 -0.0534043725
C  C54  1  0.10136000  0.55068000  0.07830000  1.0 -0.0534043725
C  C55  1  0.44932000  0.55068000  0.42170000  1.0 -0.0534043725
C  C56  1  0.10136000  0.55068000  0.42170000  1.0 -0.0534043725
C  C57  1  0.44932000  0.89864000  0.42170000  1.0 -0.0534043725
C  C58  1  0.55068000  0.44932000  0.92170000  1.0 -0.0534043725
C  C59  1  0.89864000  0.44932000  0.92170000  1.0 -0.0534043725
C  C60  1  0.55068000  0.10136000  0.92170000  1.0 -0.0534043725
C  C61  1  0.58940000  0.52870000  0.56020000  1.0 -0.0582223476
C  C62  1  0.47130000  0.06070000  0.56020000  1.0 -0.0582223476
C  C63  1  0.93930000  0.41060000  0.56020000  1.0 -0.0582223476
C  C64  1  0.41060000  0.47130000  0.06020000  1.0 -0.0582223476
C  C65  1  0.52870000  0.93930000  0.06020000  1.0 -0.0582223476
C  C66  1  0.06070000  0.58940000  0.06020000  1.0 -0.0582223476
C  C67  1  0.52870000  0.58940000  0.43980000  1.0 -0.0582223476
C  C68  1  0.06070000  0.47130000  0.43980000  1.0 -0.0582223476
C  C69  1  0.41060000  0.93930000  0.43980000  1.0 -0.0582223476
C  C70  1  0.47130000  0.41060000  0.93980000  1.0 -0.0582223476
C  C71  1  0.93930000  0.52870000  0.93980000  1.0 -0.0582223476
C  C72  1  0.58940000  0.06070000  0.93980000  1.0 -0.0582223476
C  C73  1  0.41060000  0.47130000  0.43980000  1.0 -0.0582223476
C  C74  1  0.52870000  0.93930000  0.43980000  1.0 -0.0582223476
C  C75  1  0.06070000  0.58940000  0.43980000  1.0 -0.0582223476
C  C76  1  0.58940000  0.52870000  0.93980000  1.0 -0.0582223476
C  C77  1  0.47130000  0.06070000  0.93980000  1.0 -0.0582223476
C  C78  1  0.93930000  0.41060000  0.93980000  1.0 -0.0582223476
C  C79  1  0.47130000  0.41060000  0.56020000  1.0 -0.0582223476
C  C80  1  0.93930000  0.52870000  0.56020000  1.0 -0.0582223476
C  C81  1  0.58940000  0.06070000  0.56020000  1.0 -0.0582223476
C  C82  1  0.52870000  0.58940000  0.06020000  1.0 -0.0582223476
C  C83  1  0.06070000  0.47130000  0.06020000  1.0 -0.0582223476
C  C84  1  0.41060000  0.93930000  0.06020000  1.0 -0.0582223476
C  C85  1  0.79260000  0.70670000  0.75000000  1.0 -0.152317135
C  C86  1  0.29330000  0.08590000  0.75000000  1.0 -0.152317135
C  C87  1  0.91410000  0.20740000  0.75000000  1.0 -0.152317135
C  C88  1  0.20740000  0.29330000  0.25000000  1.0 -0.152317135
C  C89  1  0.70670000  0.91410000  0.25000000  1.0 -0.152317135
C  C90  1  0.08590000  0.79260000  0.25000000  1.0 -0.152317135
C  C91  1  0.70670000  0.79260000  0.25000000  1.0 -0.152317135
C  C92  1  0.08590000  0.29330000  0.25000000  1.0 -0.152317135
C  C93  1  0.20740000  0.91410000  0.25000000  1.0 -0.152317135
C  C94  1  0.29330000  0.20740000  0.75000000  1.0 -0.152317135
C  C95  1  0.91410000  0.70670000  0.75000000  1.0 -0.152317135
C  C96  1  0.79260000  0.08590000  0.75000000  1.0 -0.152317135
C  C97  1  0.52000000  0.48000000  0.51570000  1.0 -0.0034860154
C  C98  1  0.52000000  0.04000000  0.51570000  1.0 -0.0034860154
C  C99  1  0.96000000  0.48000000  0.51570000  1.0 -0.0034860154
C  C100  1  0.48000000  0.52000000  0.01570000  1.0 -0.0034860154
C  C101  1  0.48000000  0.96000000  0.01570000  1.0 -0.0034860154
C  C102  1  0.04000000  0.52000000  0.01570000  1.0 -0.0034860154
C  C103  1  0.48000000  0.52000000  0.48430000  1.0 -0.0034860154
C  C104  1  0.04000000  0.52000000  0.48430000  1.0 -0.0034860154
C  C105  1  0.48000000  0.96000000  0.48430000  1.0 -0.0034860154
C  C106  1  0.52000000  0.48000000  0.98430000  1.0 -0.0034860154
C  C107  1  0.96000000  0.48000000  0.98430000  1.0 -0.0034860154
C  C108  1  0.52000000  0.04000000  0.98430000  1.0 -0.0034860154
C  C109  1  0.55890000  0.55890000  0.50000000  1.0 -0.077263448
C  C110  1  0.44110000  0.00000000  0.50000000  1.0 -0.077263448
C  C111  1  0.00000000  0.44110000  0.50000000  1.0 -0.077263448
C  C112  1  0.44110000  0.44110000  0.00000000  1.0 -0.077263448
C  C113  1  0.55890000  0.00000000  0.00000000  1.0 -0.077263448
C  C114  1  0.00000000  0.55890000  0.00000000  1.0 -0.077263448
C  C115  1  0.44110000  0.44110000  0.50000000  1.0 -0.077263448
C  C116  1  0.55890000  0.00000000  0.50000000  1.0 -0.077263448
C  C117  1  0.00000000  0.55890000  0.50000000  1.0 -0.077263448
C  C118  1  0.55890000  0.55890000  0.00000000  1.0 -0.077263448
C  C119  1  0.44110000  0.00000000  0.00000000  1.0 -0.077263448
C  C120  1  0.00000000  0.44110000  0.00000000  1.0 -0.077263448
C  C121  1  0.87590000  0.75180000  0.75000000  1.0 0.0736375239
C  C122  1  0.24820000  0.12410000  0.75000000  1.0 0.0736375239
C  C123  1  0.87590000  0.12410000  0.75000000  1.0 0.0736375239
C  C124  1  0.12410000  0.24820000  0.25000000  1.0 0.0736375239
C  C125  1  0.75180000  0.87590000  0.25000000  1.0 0.0736375239
C  C126  1  0.12410000  0.87590000  0.25000000  1.0 0.0736375239
C  C127  1  0.92050000  0.84100000  0.75000000  1.0 0.3568051374
C  C128  1  0.15900000  0.07950000  0.75000000  1.0 0.3568051374
C  C129  1  0.92050000  0.07950000  0.75000000  1.0 0.3568051374
C  C130  1  0.07950000  0.15900000  0.25000000  1.0 0.3568051374
C  C131  1  0.84100000  0.92050000  0.25000000  1.0 0.3568051374
C  C132  1  0.07950000  0.92050000  0.25000000  1.0 0.3568051374
C  C133  1  0.04280000  0.95720000  0.75000000  1.0 0.3738954878
C  C134  1  0.04280000  0.08560000  0.75000000  1.0 0.3738954878
C  C135  1  0.91440000  0.95720000  0.75000000  1.0 0.3738954878
C  C136  1  0.95720000  0.04280000  0.25000000  1.0 0.3738954878
C  C137  1  0.95720000  0.91440000  0.25000000  1.0 0.3738954878
C  C138  1  0.08560000  0.04280000  0.25000000  1.0 0.3738954878
C  C139  1  0.00000000  0.00000000  0.75000000  1.0 -0.1853368142
C  C140  1  0.00000000  0.00000000  0.25000000  1.0 -0.1853368142
N  N1  1  0.79135000  0.58270000  0.75000000  1.0 -0.3263454173
N  N2  1  0.41730000  0.20865000  0.75000000  1.0 -0.3263454173
N  N3  1  0.79135000  0.20865000  0.75000000  1.0 -0.3263454173
N  N4  1  0.20865000  0.41730000  0.25000000  1.0 -0.3263454173
N  N5  1  0.58270000  0.79135000  0.25000000  1.0 -0.3263454173
N  N6  1  0.20865000  0.79135000  0.25000000  1.0 -0.3263454173
N  N7  1  0.63860000  0.43980000  0.66000000  1.0 -0.2000837913
N  N8  1  0.56020000  0.19880000  0.66000000  1.0 -0.2000837913
N  N9  1  0.80120000  0.36140000  0.66000000  1.0 -0.2000837913
N  N10  1  0.36140000  0.56020000  0.16000000  1.0 -0.2000837913
N  N11  1  0.43980000  0.80120000  0.16000000  1.0 -0.2000837913
N  N12  1  0.19880000  0.63860000  0.16000000  1.0 -0.2000837913
N  N13  1  0.43980000  0.63860000  0.34000000  1.0 -0.2000837913
N  N14  1  0.19880000  0.56020000  0.34000000  1.0 -0.2000837913
N  N15  1  0.36140000  0.80120000  0.34000000  1.0 -0.2000837913
N  N16  1  0.56020000  0.36140000  0.84000000  1.0 -0.2000837913
N  N17  1  0.80120000  0.43980000  0.84000000  1.0 -0.2000837913
N  N18  1  0.63860000  0.19880000  0.84000000  1.0 -0.2000837913
N  N19  1  0.36140000  0.56020000  0.34000000  1.0 -0.2000837913
N  N20  1  0.43980000  0.80120000  0.34000000  1.0 -0.2000837913
N  N21  1  0.19880000  0.63860000  0.34000000  1.0 -0.2000837913
N  N22  1  0.63860000  0.43980000  0.84000000  1.0 -0.2000837913
N  N23  1  0.56020000  0.19880000  0.84000000  1.0 -0.2000837913
N  N24  1  0.80120000  0.36140000  0.84000000  1.0 -0.2000837913
N  N25  1  0.56020000  0.36140000  0.66000000  1.0 -0.2000837913
N  N26  1  0.80120000  0.43980000  0.66000000  1.0 -0.2000837913
N  N27  1  0.63860000  0.19880000  0.66000000  1.0 -0.2000837913
N  N28  1  0.43980000  0.63860000  0.16000000  1.0 -0.2000837913
N  N29  1  0.19880000  0.56020000  0.16000000  1.0 -0.2000837913
N  N30  1  0.36140000  0.80120000  0.16000000  1.0 -0.2000837913
N  N31  1  0.00150000  0.87590000  0.75000000  1.0 -0.4082287286
N  N32  1  0.12410000  0.12560000  0.75000000  1.0 -0.4082287286
N  N33  1  0.87440000  0.99850000  0.75000000  1.0 -0.4082287286
N  N34  1  0.99850000  0.12410000  0.25000000  1.0 -0.4082287286
N  N35  1  0.87590000  0.87440000  0.25000000  1.0 -0.4082287286
N  N36  1  0.12560000  0.00150000  0.25000000  1.0 -0.4082287286
N  N37  1  0.87590000  0.00150000  0.25000000  1.0 -0.4082287286
N  N38  1  0.12560000  0.12410000  0.25000000  1.0 -0.4082287286
N  N39  1  0.99850000  0.87440000  0.25000000  1.0 -0.4082287286
N  N40  1  0.12410000  0.99850000  0.75000000  1.0 -0.4082287286
N  N41  1  0.87440000  0.87590000  0.75000000  1.0 -0.4082287286
N  N42  1  0.00150000  0.12560000  0.75000000  1.0 -0.4082287286
O  O1  1  0.66666667  0.33333333  0.75000000  1.0 -0.1097984845
O  O2  1  0.33333333  0.66666667  0.25000000  1.0 -0.1013474325
O  O3  1  0.65080000  0.45800000  0.66230000  1.0 -0.2000837913
O  O4  1  0.54200000  0.19280000  0.66230000  1.0 -0.2000837913
O  O5  1  0.80720000  0.34920000  0.66230000  1.0 -0.2000837913
O  O6  1  0.34920000  0.54200000  0.16230000  1.0 -0.2000837913
O  O7  1  0.45800000  0.80720000  0.16230000  1.0 -0.2000837913
O  O8  1  0.19280000  0.65080000  0.16230000  1.0 -0.2000837913
O  O9  1  0.45800000  0.65080000  0.33770000  1.0 -0.2000837913
O  O10  1  0.19280000  0.54200000  0.33770000  1.0 -0.2000837913
O  O11  1  0.34920000  0.80720000  0.33770000  1.0 -0.2000837913
O  O12  1  0.54200000  0.34920000  0.83770000  1.0 -0.2000837913
O  O13  1  0.80720000  0.45800000  0.83770000  1.0 -0.2000837913
O  O14  1  0.65080000  0.19280000  0.83770000  1.0 -0.2000837913
O  O15  1  0.34920000  0.54200000  0.33770000  1.0 -0.2000837913
O  O16  1  0.45800000  0.80720000  0.33770000  1.0 -0.2000837913
O  O17  1  0.19280000  0.65080000  0.33770000  1.0 -0.2000837913
O  O18  1  0.65080000  0.45800000  0.83770000  1.0 -0.2000837913
O  O19  1  0.54200000  0.19280000  0.83770000  1.0 -0.2000837913
O  O20  1  0.80720000  0.34920000  0.83770000  1.0 -0.2000837913
O  O21  1  0.54200000  0.34920000  0.66230000  1.0 -0.2000837913
O  O22  1  0.80720000  0.45800000  0.66230000  1.0 -0.2000837913
O  O23  1  0.65080000  0.19280000  0.66230000  1.0 -0.2000837913
O  O24  1  0.45800000  0.65080000  0.16230000  1.0 -0.2000837913
O  O25  1  0.19280000  0.54200000  0.16230000  1.0 -0.2000837913
O  O26  1  0.34920000  0.80720000  0.16230000  1.0 -0.2000837913
