# DDEC6 charges by PACMAN v1.1 (https://github.com/mtap-research/PACMAN-charge/)
data_CIGYUP_FSR_pacman
_symmetry_space_group_name_H-M   'P 1'
_cell_length_a   10.24230000
_cell_length_b   9.91250000
_cell_length_c   24.58690000
_cell_angle_alpha   90.00000000
_cell_angle_beta   111.85400000
_cell_angle_gamma   90.00000000
_symmetry_Int_Tables_number   1
_chemical_formula_structural   ZnH12C19N2O5
_chemical_formula_sum   'Zn4 H48 C76 N8 O20'
_cell_volume   2316.83875328
_cell_formula_units_Z   4
loop_
 _symmetry_equiv_pos_site_id
 _symmetry_equiv_pos_as_xyz
  1  'x, y, z'
loop_
 _atom_site_type_symbol
 _atom_site_label
 _atom_site_symmetry_multiplicity
 _atom_site_fract_x
 _atom_site_fract_y
 _atom_site_fract_z
 _atom_site_occupancy
 _atom_site_charge
Zn  Zn1  1  0.05492000  0.12829000  0.48854000  1.0 0.8244278366
Zn  Zn2  1  0.94508000  0.62829000  0.01146000  1.0 0.8244278366
Zn  Zn3  1  0.94508000  0.87171000  0.51146000  1.0 0.8244278366
Zn  Zn4  1  0.05492000  0.37171000  0.98854000  1.0 0.8244278366
H  H1  1  0.50130000  0.49360000  0.04930000  1.0 0.1189137985
H  H2  1  0.75950000  0.65670000  0.23770000  1.0 0.1392942229
H  H3  1  0.34620000  0.81860000  0.10100000  1.0 0.1189137985
H  H4  1  0.95210000  0.98870000  0.21100000  1.0 0.1392942229
H  H5  1  0.72800000  0.57500000  0.09630000  1.0 0.1392942229
H  H6  1  0.02220000  0.04210000  0.30930000  1.0 0.1189137985
H  H7  1  0.32550000  0.26100000  0.51430000  1.0 0.131159155
H  H8  1  0.82930000  0.71110000  0.33570000  1.0 0.1189137985
H  H9  1  0.03400000  0.60680000  0.42130000  1.0 0.1392942229
H  H10  1  0.57180000  0.89700000  0.15000000  1.0 0.131159155
H  H11  1  0.94710000  0.40040000  0.43310000  1.0 0.1126556584
H  H12  1  0.27490000  0.63920000  0.45380000  1.0 0.131159155
H  H13  1  0.49870000  0.99360000  0.45070000  1.0 0.1189137985
H  H14  1  0.24050000  0.15670000  0.26230000  1.0 0.1392942229
H  H15  1  0.65380000  0.31860000  0.39900000  1.0 0.1189137985
H  H16  1  0.04790000  0.48870000  0.28900000  1.0 0.1392942229
H  H17  1  0.27200000  0.07500000  0.40370000  1.0 0.1392942229
H  H18  1  0.97780000  0.54210000  0.19070000  1.0 0.1189137985
H  H19  1  0.67450000  0.76100000  0.98570000  1.0 0.131159155
H  H20  1  0.17070000  0.21110000  0.16430000  1.0 0.1189137985
H  H21  1  0.96600000  0.10680000  0.07870000  1.0 0.1392942229
H  H22  1  0.42820000  0.39700000  0.35000000  1.0 0.131159155
H  H23  1  0.05290000  0.90040000  0.06690000  1.0 0.1126556584
H  H24  1  0.72510000  0.13920000  0.04620000  1.0 0.131159155
H  H25  1  0.49870000  0.50640000  0.95070000  1.0 0.1189137985
H  H26  1  0.24050000  0.34330000  0.76230000  1.0 0.1392942229
H  H27  1  0.65380000  0.18140000  0.89900000  1.0 0.1126556584
H  H28  1  0.04790000  0.01130000  0.78900000  1.0 0.1392942229
H  H29  1  0.27200000  0.42500000  0.90370000  1.0 0.1392942229
H  H30  1  0.97780000  0.95790000  0.69070000  1.0 0.1189137985
H  H31  1  0.67450000  0.73900000  0.48570000  1.0 0.131159155
H  H32  1  0.17070000  0.28890000  0.66430000  1.0 0.1189137985
H  H33  1  0.96600000  0.39320000  0.57870000  1.0 0.1392942229
H  H34  1  0.42820000  0.10300000  0.85000000  1.0 0.131159155
H  H35  1  0.05290000  0.59960000  0.56690000  1.0 0.1126556584
H  H36  1  0.72510000  0.36080000  0.54620000  1.0 0.131159155
H  H37  1  0.50130000  0.00640000  0.54930000  1.0 0.1189137985
H  H38  1  0.75950000  0.84330000  0.73770000  1.0 0.1392942229
H  H39  1  0.34620000  0.68140000  0.60100000  1.0 0.1189137985
H  H40  1  0.95210000  0.51130000  0.71100000  1.0 0.1392942229
H  H41  1  0.72800000  0.92500000  0.59630000  1.0 0.1392942229
H  H42  1  0.02220000  0.45790000  0.80930000  1.0 0.1189137985
H  H43  1  0.32550000  0.23900000  0.01430000  1.0 0.131159155
H  H44  1  0.82930000  0.78890000  0.83570000  1.0 0.1189137985
H  H45  1  0.03400000  0.89320000  0.92130000  1.0 0.1392942229
H  H46  1  0.57180000  0.60300000  0.65000000  1.0 0.131159155
H  H47  1  0.94710000  0.09960000  0.93310000  1.0 0.1126556584
H  H48  1  0.27490000  0.86080000  0.95380000  1.0 0.131159155
C  C1  1  0.93057000  0.88370000  0.33256000  1.0 -0.0483792005
C  C2  1  0.51544000  0.57510000  0.06945000  1.0 -0.0898345271
C  C3  1  0.25387000  0.59200000  0.04189000  1.0 0.5774713093
C  C4  1  0.81117000  0.73480000  0.25207000  1.0 -0.2199692214
C  C5  1  0.42264000  0.76860000  0.10054000  1.0 -0.0898345271
C  C6  1  0.40041000  0.64700000  0.07058000  1.0 -0.0440679445
C  C7  1  0.92668000  0.93370000  0.23608000  1.0 -0.2104787296
C  C8  1  0.84648000  0.81890000  0.21498000  1.0 0.250810259
C  C9  1  0.65135000  0.62280000  0.09785000  1.0 -0.2104787296
C  C10  1  0.96830000  0.96530000  0.29480000  1.0 -0.0832255511
C  C11  1  0.32572000  0.45030000  0.48662000  1.0 0.1189137985
C  C12  1  0.96495000  0.92460000  0.39508000  1.0 0.5774713093
C  C13  1  0.67029000  0.74200000  0.12821000  1.0 0.2289701784
C  C14  1  0.26630000  0.33090000  0.49460000  1.0 0.0216229008
C  C15  1  0.85316000  0.76750000  0.31066000  1.0 -0.0898345271
C  C16  1  0.09547000  0.53710000  0.43967000  1.0 -0.1256094119
C  C17  1  0.55721000  0.81590000  0.12961000  1.0 -0.2104787296
C  C18  1  0.04391000  0.41330000  0.44761000  1.0 0.0739051317
C  C19  1  0.23792000  0.55670000  0.45902000  1.0 -0.0991928829
C  C20  1  0.06943000  0.38370000  0.16744000  1.0 -0.0483792005
C  C21  1  0.48456000  0.07510000  0.43055000  1.0 -0.0898345271
C  C22  1  0.74613000  0.09200000  0.45811000  1.0 0.5774713093
C  C23  1  0.18883000  0.23480000  0.24793000  1.0 -0.2199692214
C  C24  1  0.57736000  0.26860000  0.39946000  1.0 -0.0898345271
C  C25  1  0.59959000  0.14700000  0.42942000  1.0 -0.0440679445
C  C26  1  0.07332000  0.43370000  0.26392000  1.0 -0.2104787296
C  C27  1  0.15352000  0.31890000  0.28502000  1.0 0.250810259
C  C28  1  0.34865000  0.12280000  0.40215000  1.0 -0.2104787296
C  C29  1  0.03170000  0.46530000  0.20520000  1.0 -0.0832255511
C  C30  1  0.67428000  0.95030000  0.01338000  1.0 0.1189137985
C  C31  1  0.03505000  0.42460000  0.10492000  1.0 0.5774713093
C  C32  1  0.32971000  0.24200000  0.37179000  1.0 0.2289701784
C  C33  1  0.73370000  0.83090000  0.00540000  1.0 0.0216229008
C  C34  1  0.14684000  0.26750000  0.18934000  1.0 -0.0898345271
C  C35  1  0.90453000  0.03710000  0.06033000  1.0 -0.1196566538
C  C36  1  0.44279000  0.31590000  0.37039000  1.0 -0.2104787296
C  C37  1  0.95609000  0.91330000  0.05239000  1.0 0.0739051317
C  C38  1  0.76208000  0.05670000  0.04098000  1.0 -0.0991928829
C  C39  1  0.06943000  0.11630000  0.66744000  1.0 -0.0483792005
C  C40  1  0.48456000  0.42490000  0.93055000  1.0 -0.0898345271
C  C41  1  0.74613000  0.40800000  0.95811000  1.0 0.5774713093
C  C42  1  0.18883000  0.26520000  0.74793000  1.0 -0.2199692214
C  C43  1  0.57736000  0.23140000  0.89946000  1.0 -0.0898345271
C  C44  1  0.59959000  0.35300000  0.92942000  1.0 -0.0440679445
C  C45  1  0.07332000  0.06630000  0.76392000  1.0 -0.2104787296
C  C46  1  0.15352000  0.18110000  0.78502000  1.0 0.250810259
C  C47  1  0.34865000  0.37720000  0.90215000  1.0 -0.2104787296
C  C48  1  0.03170000  0.03470000  0.70520000  1.0 -0.0832255511
C  C49  1  0.67428000  0.54970000  0.51338000  1.0 0.1189137985
C  C50  1  0.03505000  0.07540000  0.60492000  1.0 0.5774713093
C  C51  1  0.32971000  0.25800000  0.87179000  1.0 0.2289701784
C  C52  1  0.73370000  0.66910000  0.50540000  1.0 0.0216229008
C  C53  1  0.14684000  0.23250000  0.68934000  1.0 -0.0898345271
C  C54  1  0.90453000  0.46290000  0.56033000  1.0 -0.1196566538
C  C55  1  0.44279000  0.18410000  0.87039000  1.0 -0.2104787296
C  C56  1  0.95609000  0.58670000  0.55239000  1.0 0.0739051317
C  C57  1  0.76208000  0.44330000  0.54098000  1.0 -0.0991928829
C  C58  1  0.93057000  0.61630000  0.83256000  1.0 -0.0483792005
C  C59  1  0.51544000  0.92490000  0.56945000  1.0 -0.0898345271
C  C60  1  0.25387000  0.90800000  0.54189000  1.0 0.5774713093
C  C61  1  0.81117000  0.76520000  0.75207000  1.0 -0.2199692214
C  C62  1  0.42264000  0.73140000  0.60054000  1.0 -0.0898345271
C  C63  1  0.40041000  0.85300000  0.57058000  1.0 -0.0440679445
C  C64  1  0.92668000  0.56630000  0.73608000  1.0 -0.2104787296
C  C65  1  0.84648000  0.68110000  0.71498000  1.0 0.250810259
C  C66  1  0.65135000  0.87720000  0.59785000  1.0 -0.2104787296
C  C67  1  0.96830000  0.53470000  0.79480000  1.0 -0.0832255511
C  C68  1  0.32572000  0.04970000  0.98662000  1.0 0.1189137985
C  C69  1  0.96495000  0.57540000  0.89508000  1.0 0.5774713093
C  C70  1  0.67029000  0.75800000  0.62821000  1.0 0.2289701784
C  C71  1  0.26630000  0.16910000  0.99460000  1.0 0.0216229008
C  C72  1  0.85316000  0.73250000  0.81066000  1.0 -0.0898345271
C  C73  1  0.09547000  0.96290000  0.93967000  1.0 -0.1256094119
C  C74  1  0.55721000  0.68410000  0.62961000  1.0 -0.2104787296
C  C75  1  0.04391000  0.08670000  0.94761000  1.0 0.0739051317
C  C76  1  0.23792000  0.94330000  0.95902000  1.0 -0.0991928829
N  N1  1  0.12730000  0.31099000  0.47535000  1.0 -0.1986620641
N  N2  1  0.47520000  0.45060000  0.50860000  1.0 -0.1196566538
N  N3  1  0.87270000  0.81099000  0.02465000  1.0 -0.1986620641
N  N4  1  0.52480000  0.95060000  0.99140000  1.0 -0.1196566538
N  N5  1  0.87270000  0.68901000  0.52465000  1.0 -0.1986620641
N  N6  1  0.52480000  0.54940000  0.49140000  1.0 -0.1196566538
N  N7  1  0.12730000  0.18901000  0.97535000  1.0 -0.1986620641
N  N8  1  0.47520000  0.04940000  0.00860000  1.0 -0.1196566538
O  O1  1  0.80694000  0.78989000  0.15592000  1.0 -0.2199692214
O  O2  1  0.24130000  0.47432000  0.02260000  1.0 -0.5295307404
O  O3  1  0.15470000  0.66797000  0.04023000  1.0 -0.5476181871
O  O4  1  0.93179000  0.84420000  0.42727000  1.0 -0.5476181871
O  O5  1  0.02197000  0.03689000  0.41065000  1.0 -0.5295307404
O  O6  1  0.19306000  0.28989000  0.34408000  1.0 -0.2199692214
O  O7  1  0.75870000  0.97432000  0.47740000  1.0 -0.5295307404
O  O8  1  0.84530000  0.16797000  0.45977000  1.0 -0.5476181871
O  O9  1  0.06821000  0.34420000  0.07273000  1.0 -0.5476181871
O  O10  1  0.97803000  0.53689000  0.08935000  1.0 -0.5295307404
O  O11  1  0.19306000  0.21011000  0.84408000  1.0 -0.2199692214
O  O12  1  0.75870000  0.52568000  0.97740000  1.0 -0.5295307404
O  O13  1  0.84530000  0.33203000  0.95977000  1.0 -0.5476181871
O  O14  1  0.06821000  0.15580000  0.57273000  1.0 -0.5476181871
O  O15  1  0.97803000  0.96311000  0.58935000  1.0 -0.5295307404
O  O16  1  0.80694000  0.71011000  0.65592000  1.0 -0.2199692214
O  O17  1  0.24130000  0.02568000  0.52260000  1.0 -0.5295307404
O  O18  1  0.15470000  0.83203000  0.54023000  1.0 -0.5476181871
O  O19  1  0.93179000  0.65580000  0.92727000  1.0 -0.5476181871
O  O20  1  0.02197000  0.46311000  0.91065000  1.0 -0.5295307404
