# DDEC6 charges by PACMAN v1.1 (https://github.com/mtap-research/PACMAN-charge/)
data_CIHHOU_ASR_pacman
_symmetry_space_group_name_H-M   'P 1'
_cell_length_a   14.68610000
_cell_length_b   14.68610000
_cell_length_c   17.80310000
_cell_angle_alpha   81.74360000
_cell_angle_beta   98.25640000
_cell_angle_gamma   107.96000000
_symmetry_Int_Tables_number   1
_chemical_formula_structural   Mn2H11C23O14
_chemical_formula_sum   'Mn8 H44 C92 O56'
_cell_volume   3594.66051278
_cell_formula_units_Z   4
loop_
 _symmetry_equiv_pos_site_id
 _symmetry_equiv_pos_as_xyz
  1  'x, y, z'
loop_
 _atom_site_type_symbol
 _atom_site_label
 _atom_site_symmetry_multiplicity
 _atom_site_fract_x
 _atom_site_fract_y
 _atom_site_fract_z
 _atom_site_occupancy
 _atom_site_charge
Mn  Mn1  1  0.48050000  0.14440000  0.50795000  1.0 1.0333049801
Mn  Mn2  1  0.14440000  0.48050000  0.99205000  1.0 1.0333049801
Mn  Mn3  1  0.51950000  0.85560000  0.49205000  1.0 1.0333049801
Mn  Mn4  1  0.85560000  0.51950000  0.00795000  1.0 1.0333049801
Mn  Mn5  1  0.68959000  0.08573000  0.43295000  1.0 1.0786558894
Mn  Mn6  1  0.08573000  0.68959000  0.06705000  1.0 1.0786558894
Mn  Mn7  1  0.31041000  0.91427000  0.56705000  1.0 1.0786558894
Mn  Mn8  1  0.91427000  0.31041000  0.93295000  1.0 1.0786558894
H  H1  1  0.69045000  0.41699000  0.58455000  1.0 0.1341514197
H  H2  1  0.41699000  0.69045000  0.91545000  1.0 0.1341514197
H  H3  1  0.30955000  0.58301000  0.41545000  1.0 0.1341514197
H  H4  1  0.58301000  0.30955000  0.08455000  1.0 0.1341514197
H  H5  1  0.97401000  0.54689000  0.61945000  1.0 0.149796933
H  H6  1  0.54689000  0.97401000  0.88055000  1.0 0.149796933
H  H7  1  0.02599000  0.45311000  0.38055000  1.0 0.149796933
H  H8  1  0.45311000  0.02599000  0.11945000  1.0 0.149796933
H  H9  1  0.88139000  0.29423000  0.53141000  1.0 0.149796933
H  H10  1  0.29423000  0.88139000  0.96859000  1.0 0.149796933
H  H11  1  0.11861000  0.70577000  0.46859000  1.0 0.149796933
H  H12  1  0.70577000  0.11861000  0.03141000  1.0 0.149796933
H  H13  1  0.89468000  0.49000000  0.75045000  1.0 0.1385553945
H  H14  1  0.49000000  0.89468000  0.74955000  1.0 0.1385553945
H  H15  1  0.10532000  0.51000000  0.24955000  1.0 0.1385553945
H  H16  1  0.51000000  0.10532000  0.25045000  1.0 0.1385553945
H  H17  1  0.89375000  0.79481000  0.78258000  1.0 0.1150367913
H  H18  1  0.79481000  0.89375000  0.71742000  1.0 0.1150367913
H  H19  1  0.10625000  0.20519000  0.21742000  1.0 0.1150367913
H  H20  1  0.20519000  0.10625000  0.28258000  1.0 0.1150367913
H  H21  1  0.83247000  0.73247000  0.66666667  1.0 0.1385553945
H  H22  1  0.73247000  0.83247000  0.83339000  1.0 0.1385553945
H  H23  1  0.16752000  0.26752000  0.33339000  1.0 0.1385553945
H  H24  1  0.26753000  0.16753000  0.16661000  1.0 0.1385553945
H  H25  1  0.00953000  0.38303000  0.71253000  1.0 0.1385553945
H  H26  1  0.38303000  0.00953000  0.78747000  1.0 0.1385553945
H  H27  1  0.99047000  0.61697000  0.28747000  1.0 0.1385553945
H  H28  1  0.61697000  0.99047000  0.21253000  1.0 0.1385553945
H  H29  1  0.32628000  0.47558000  0.67387000  1.0 0.062817283
H  H30  1  0.47558000  0.32628000  0.82613000  1.0 0.062817283
H  H31  1  0.67372000  0.52442000  0.32613000  1.0 0.062817283
H  H32  1  0.52442000  0.67372000  0.17387000  1.0 0.062817283
H  H33  1  0.21383000  0.46933000  0.57189000  1.0 0.1385553945
H  H34  1  0.46933000  0.21383000  0.92811000  1.0 0.1385553945
H  H35  1  0.78617000  0.53067000  0.42811000  1.0 0.1385553945
H  H36  1  0.53067000  0.78617000  0.07189000  1.0 0.1385553945
H  H37  1  0.45397000  0.46711000  0.82271000  1.0 0.2809764948
H  H38  1  0.46711000  0.45397000  0.67729000  1.0 0.2809764948
H  H39  1  0.54603000  0.53289000  0.17729000  1.0 0.2809764948
H  H40  1  0.53289000  0.54603000  0.32271000  1.0 0.2809764948
H  H41  1  0.37027000  0.38445000  0.90030000  1.0 0.303682996
H  H42  1  0.38445000  0.37027000  0.59970000  1.0 0.303682996
H  H43  1  0.62973000  0.61555000  0.09970000  1.0 0.303682996
H  H44  1  0.61555000  0.62973000  0.40030000  1.0 0.303682996
C  C1  1  0.69360000  0.25920000  0.52550000  1.0 0.598120551
C  C2  1  0.25920000  0.69360000  0.97450000  1.0 0.598120551
C  C3  1  0.30640000  0.74080000  0.47450000  1.0 0.598120551
C  C4  1  0.74080000  0.30640000  0.02550000  1.0 0.598120551
C  C5  1  0.77310000  0.34290000  0.55280000  1.0 0.0166354688
C  C6  1  0.34290000  0.77310000  0.94720000  1.0 0.0166354688
C  C7  1  0.22690000  0.65710000  0.44720000  1.0 0.0166354688
C  C8  1  0.65710000  0.22690000  0.05280000  1.0 0.0166354688
C  C9  1  0.75350000  0.41790000  0.58190000  1.0 -0.2501435279
C  C10  1  0.41790000  0.75350000  0.91810000  1.0 -0.2501435279
C  C11  1  0.24650000  0.58210000  0.41810000  1.0 -0.2501435279
C  C12  1  0.58210000  0.24650000  0.08190000  1.0 -0.2501435279
C  C13  1  0.82920000  0.49200000  0.60640000  1.0 0.2498346326
C  C14  1  0.49200000  0.82920000  0.89360000  1.0 0.2498346326
C  C15  1  0.17080000  0.50800000  0.39360000  1.0 0.2498346326
C  C16  1  0.50800000  0.17080000  0.10640000  1.0 0.2498346326
C  C17  1  0.92350000  0.49510000  0.60330000  1.0 -0.2958669159
C  C18  1  0.49510000  0.92350000  0.89670000  1.0 -0.2958669159
C  C19  1  0.07650000  0.50490000  0.39670000  1.0 -0.2958669159
C  C20  1  0.50490000  0.07650000  0.10330000  1.0 -0.2958669159
C  C21  1  0.94160000  0.42060000  0.57590000  1.0 0.2555763853
C  C22  1  0.42060000  0.94160000  0.92410000  1.0 0.2555763853
C  C23  1  0.05840000  0.57940000  0.42410000  1.0 0.2555763853
C  C24  1  0.57940000  0.05840000  0.07590000  1.0 0.2555763853
C  C25  1  0.86810000  0.34410000  0.55020000  1.0 -0.2286110518
C  C26  1  0.34410000  0.86810000  0.94980000  1.0 -0.2286110518
C  C27  1  0.13190000  0.65590000  0.44980000  1.0 -0.2286110518
C  C28  1  0.65590000  0.13190000  0.05020000  1.0 -0.2286110518
C  C29  1  0.85440000  0.60280000  0.69960000  1.0 0.2498346326
C  C30  1  0.60280000  0.85440000  0.80040000  1.0 0.2498346326
C  C31  1  0.14560000  0.39720000  0.30040000  1.0 0.2498346326
C  C32  1  0.39720000  0.14560000  0.19960000  1.0 0.2498346326
C  C33  1  0.89400000  0.55140000  0.75700000  1.0 -0.2434834111
C  C34  1  0.55140000  0.89400000  0.74300000  1.0 -0.2434834111
C  C35  1  0.10600000  0.44860000  0.24300000  1.0 -0.2434834111
C  C36  1  0.44860000  0.10600000  0.25700000  1.0 -0.2434834111
C  C37  1  0.93320000  0.58860000  0.82510000  1.0 -0.0022816881
C  C38  1  0.58860000  0.93320000  0.67490000  1.0 -0.0022816881
C  C39  1  0.06680000  0.41140000  0.17490000  1.0 -0.0022816881
C  C40  1  0.41140000  0.06680000  0.32510000  1.0 -0.0022816881
C  C41  1  0.93240000  0.68080000  0.83500000  1.0 -0.070022786
C  C42  1  0.68080000  0.93240000  0.66500000  1.0 -0.070022786
C  C43  1  0.06760000  0.31920000  0.16500000  1.0 -0.070022786
C  C44  1  0.31920000  0.06760000  0.33500000  1.0 -0.070022786
C  C45  1  0.89430000  0.73330000  0.77630000  1.0 -0.0808954033
C  C46  1  0.73330000  0.89430000  0.72370000  1.0 -0.0808954033
C  C47  1  0.10570000  0.26670000  0.22370000  1.0 -0.0808954033
C  C48  1  0.26670000  0.10570000  0.27630000  1.0 -0.0808954033
C  C49  1  0.85620000  0.69560000  0.70700000  1.0 -0.1894681546
C  C50  1  0.69560000  0.85620000  0.79300000  1.0 -0.1894681546
C  C51  1  0.14380000  0.30440000  0.29300000  1.0 -0.1894681546
C  C52  1  0.30440000  0.14380000  0.20700000  1.0 -0.1894681546
C  C53  1  0.97730000  0.52950000  0.88720000  1.0 0.598120551
C  C54  1  0.52950000  0.97730000  0.61280000  1.0 0.598120551
C  C55  1  0.02270000  0.47050000  0.11280000  1.0 0.598120551
C  C56  1  0.47050000  0.02270000  0.38720000  1.0 0.598120551
C  C57  1  0.96850000  0.72010000  0.91080000  1.0 0.5903156307
C  C58  1  0.72010000  0.96850000  0.58920000  1.0 0.5903156307
C  C59  1  0.03150000  0.27990000  0.08920000  1.0 0.5903156307
C  C60  1  0.27990000  0.03150000  0.41080000  1.0 0.5903156307
C  C61  1  0.10130000  0.42610000  0.63300000  1.0 0.2382001486
C  C62  1  0.42610000  0.10130000  0.86700000  1.0 0.2382001486
C  C63  1  0.89870000  0.57390000  0.36700000  1.0 0.2382001486
C  C64  1  0.57390000  0.89870000  0.13300000  1.0 0.2382001486
C  C65  1  0.07460000  0.40180000  0.70570000  1.0 -0.2243611011
C  C66  1  0.40180000  0.07460000  0.79430000  1.0 -0.2286110518
C  C67  1  0.92540000  0.59820000  0.29430000  1.0 -0.2286110518
C  C68  1  0.59820000  0.92540000  0.20570000  1.0 -0.2286110518
C  C69  1  0.14130000  0.40450000  0.76910000  1.0 -0.0140719543
C  C70  1  0.40450000  0.14130000  0.73090000  1.0 -0.0140719543
C  C71  1  0.85870000  0.59550000  0.23090000  1.0 -0.0140719543
C  C72  1  0.59550000  0.85870000  0.26910000  1.0 -0.0140719543
C  C73  1  0.23950000  0.43490000  0.75720000  1.0 -0.1040123383
C  C74  1  0.43490000  0.23950000  0.74280000  1.0 -0.1040123383
C  C75  1  0.76050000  0.56510000  0.24280000  1.0 -0.1040123383
C  C76  1  0.56510000  0.76050000  0.25720000  1.0 -0.1040123383
C  C77  1  0.26170000  0.45710000  0.68230000  1.0 -0.139709996
C  C78  1  0.45710000  0.26170000  0.81770000  1.0 -0.139709996
C  C79  1  0.73830000  0.54290000  0.31770000  1.0 -0.139709996
C  C80  1  0.54290000  0.73830000  0.18230000  1.0 -0.139709996
C  C81  1  0.19540000  0.45340000  0.62110000  1.0 -0.1818950269
C  C82  1  0.45340000  0.19540000  0.87890000  1.0 -0.1818950269
C  C83  1  0.80460000  0.54660000  0.37890000  1.0 -0.1818950269
C  C84  1  0.54660000  0.80460000  0.12110000  1.0 -0.1818950269
C  C85  1  0.10260000  0.38180000  0.84570000  1.0 0.598120551
C  C86  1  0.38180000  0.10260000  0.65430000  1.0 0.598120551
C  C87  1  0.89740000  0.61820000  0.15430000  1.0 0.598120551
C  C88  1  0.61820000  0.89740000  0.34570000  1.0 0.598120551
C  C89  1  0.32490000  0.44650000  0.81790000  1.0 0.4539125693
C  C90  1  0.44650000  0.32490000  0.68210000  1.0 0.4539125693
C  C91  1  0.67510000  0.55350000  0.18210000  1.0 0.4539125693
C  C92  1  0.55350000  0.67510000  0.31790000  1.0 0.4539125693
O  O1  1  0.60825000  0.26075000  0.52330000  1.0 -0.5705601367
O  O2  1  0.26075000  0.60825000  0.97670000  1.0 -0.5705601367
O  O3  1  0.39175000  0.73925000  0.47670000  1.0 -0.5705601367
O  O4  1  0.73925000  0.39175000  0.02330000  1.0 -0.5705601367
O  O5  1  0.71960000  0.19080000  0.50850000  1.0 -0.5980927441
O  O6  1  0.19080000  0.71960000  0.99150000  1.0 -0.5980927441
O  O7  1  0.28040000  0.80920000  0.49150000  1.0 -0.5980927441
O  O8  1  0.80920000  0.28040000  0.00850000  1.0 -0.5980927441
O  O9  1  0.80832000  0.56868000  0.63090000  1.0 -0.2501435279
O  O10  1  0.56868000  0.80832000  0.86910000  1.0 -0.2501435279
O  O11  1  0.19168000  0.43132000  0.36910000  1.0 -0.2501435279
O  O12  1  0.43132000  0.19168000  0.13090000  1.0 -0.2501435279
O  O13  1  0.91782000  0.46278000  0.92609000  1.0 -0.6276086363
O  O14  1  0.46278000  0.91782000  0.57391000  1.0 -0.6276086363
O  O15  1  0.08218000  0.53722000  0.07391000  1.0 -0.6276086363
O  O16  1  0.53722000  0.08218000  0.42609000  1.0 -0.6276086363
O  O17  1  0.06626000  0.54474000  0.89567000  1.0 -0.5078053269
O  O18  1  0.54474000  0.06626000  0.60433000  1.0 -0.5078053269
O  O19  1  0.93374000  0.45526000  0.10433000  1.0 -0.5078053269
O  O20  1  0.45526000  0.93374000  0.39567000  1.0 -0.5078053269
O  O21  1  0.97197000  0.66043000  0.96946000  1.0 -0.6221878621
O  O22  1  0.66043000  0.97197000  0.53054000  1.0 -0.6221878621
O  O23  1  0.02803000  0.33957000  0.03054000  1.0 -0.6221878621
O  O24  1  0.33957000  0.02803000  0.46946000  1.0 -0.6221878621
O  O25  1  0.99210000  0.80930000  0.91140000  1.0 -0.5162341687
O  O26  1  0.80930000  0.99210000  0.58860000  1.0 -0.5162341687
O  O27  1  0.00790000  0.19070000  0.08860000  1.0 -0.5162341687
O  O28  1  0.19070000  0.00790000  0.41140000  1.0 -0.5162341687
O  O29  1  0.03400000  0.42060000  0.56860000  1.0 -0.2286110518
O  O30  1  0.42060000  0.03400000  0.93140000  1.0 -0.2286110518
O  O31  1  0.96600000  0.57940000  0.43140000  1.0 -0.2286110518
O  O32  1  0.57940000  0.96600000  0.06860000  1.0 -0.2286110518
O  O33  1  0.01385000  0.34855000  0.84550000  1.0 -0.5823245439
O  O34  1  0.34855000  0.01385000  0.65450000  1.0 -0.5823245439
O  O35  1  0.98615000  0.65145000  0.15450000  1.0 -0.5823245439
O  O36  1  0.65145000  0.98615000  0.34550000  1.0 -0.5823245439
O  O37  1  0.16099000  0.40221000  0.90370000  1.0 -0.5705601367
O  O38  1  0.40221000  0.16099000  0.59630000  1.0 -0.5705601367
O  O39  1  0.83901000  0.59779000  0.09630000  1.0 -0.5705601367
O  O40  1  0.59779000  0.83901000  0.40370000  1.0 -0.5705601367
O  O41  1  0.32800000  0.43100000  0.88570000  1.0 -0.0396586004
O  O42  1  0.43100000  0.32800000  0.61430000  1.0 -0.0396586004
O  O43  1  0.67200000  0.56900000  0.11430000  1.0 -0.0396586004
O  O44  1  0.56900000  0.67200000  0.38570000  1.0 -0.0396586004
O  O45  1  0.41220000  0.47620000  0.78920000  1.0 -0.2574150506
O  O46  1  0.47620000  0.41220000  0.71080000  1.0 -0.2574150506
O  O47  1  0.58780000  0.52380000  0.21080000  1.0 -0.2574150506
O  O48  1  0.52380000  0.58780000  0.28920000  1.0 -0.2574150506
O  O49  1  0.37420000  0.52660000  0.82670000  1.0 -0.1499546113
O  O50  1  0.52660000  0.37420000  0.67330000  1.0 -0.1499546113
O  O51  1  0.62580000  0.47340000  0.17330000  1.0 -0.1499546113
O  O52  1  0.47340000  0.62580000  0.32670000  1.0 -0.1499546113
O  O53  1  0.32400000  0.37060000  0.86790000  1.0 -0.1619452033
O  O54  1  0.37060000  0.32400000  0.63210000  1.0 -0.1619452033
O  O55  1  0.67600000  0.62940000  0.13210000  1.0 -0.1619452033
O  O56  1  0.62940000  0.67600000  0.36790000  1.0 -0.1619452033
