# DDEC6 charges by PACMAN v1.1 (https://github.com/mtap-research/PACMAN-charge/)
data_CIHHUA_FSR_pacman
_symmetry_space_group_name_H-M   'P 1'
_cell_length_a   9.81990000
_cell_length_b   13.59450000
_cell_length_c   24.54650000
_cell_angle_alpha   103.63300000
_cell_angle_beta   92.52600000
_cell_angle_gamma   94.65500000
_symmetry_Int_Tables_number   1
_chemical_formula_structural   Mn5H37C50NO29
_chemical_formula_sum   'Mn10 H74 C100 N2 O58'
_cell_volume   3167.28216030
_cell_formula_units_Z   2
loop_
 _symmetry_equiv_pos_site_id
 _symmetry_equiv_pos_as_xyz
  1  'x, y, z'
loop_
 _atom_site_type_symbol
 _atom_site_label
 _atom_site_symmetry_multiplicity
 _atom_site_fract_x
 _atom_site_fract_y
 _atom_site_fract_z
 _atom_site_occupancy
 _atom_site_charge
Mn  Mn1  1  0.12589000  0.58332000  0.67875000  1.0 1.0315673217
Mn  Mn2  1  0.87411000  0.41668000  0.32125000  1.0 1.0315673217
Mn  Mn3  1  0.58551000  0.50865000  0.23420000  1.0 1.0358265504
Mn  Mn4  1  0.41449000  0.49135000  0.76580000  1.0 1.0358265504
Mn  Mn5  1  0.09111000  0.53071000  0.23309000  1.0 1.0682809218
Mn  Mn6  1  0.90889000  0.46929000  0.76691000  1.0 1.0682809218
Mn  Mn7  1  0.29019000  0.35942000  0.29235000  1.0 1.0566859707
Mn  Mn8  1  0.70981000  0.64058000  0.70765000  1.0 1.0566859707
Mn  Mn9  1  0.56983000  0.69951000  0.14310000  1.0 0.979148434
Mn  Mn10  1  0.43017000  0.30049000  0.85690000  1.0 0.979148434
H  H1  1  0.75015000  0.77644000  0.08722000  1.0 0.3878731965
H  H2  1  0.24985000  0.22356000  0.91278000  1.0 0.3878731965
H  H3  1  0.80876000  0.69249000  0.10008000  1.0 0.3818799942
H  H4  1  0.19124000  0.30751000  0.89992000  1.0 0.3818799942
H  H5  1  0.99769000  0.58215000  0.14350000  1.0 0.3671662077
H  H6  1  0.00231000  0.41785000  0.85650000  1.0 0.3671662077
H  H7  1  0.90493000  0.61296000  0.18364000  1.0 0.3878731965
H  H8  1  0.09507000  0.38704000  0.81636000  1.0 0.3878731965
H  H9  1  0.26069000  0.66952000  0.20494000  1.0 0.357638733
H  H10  1  0.73931000  0.33048000  0.79506000  1.0 0.357638733
H  H11  1  0.32645000  0.64426000  0.24813000  1.0 0.357638733
H  H12  1  0.67355000  0.35574000  0.75187000  1.0 0.357638733
H  H13  1  0.42930000  0.21209000  0.30466000  1.0 0.351491557
H  H14  1  0.57070000  0.78791000  0.69534000  1.0 0.351491557
H  H15  1  0.51876000  0.27597000  0.28435000  1.0 0.3818799942
H  H16  1  0.48124000  0.72403000  0.71565000  1.0 0.3818799942
H  H17  1  0.15756000  0.75643000  0.59662000  1.0 0.1389990924
H  H18  1  0.84244000  0.24357000  0.40338000  1.0 0.1389990924
H  H19  1  0.06142000  0.89957000  0.47663000  1.0 0.1606340646
H  H20  1  0.93858000  0.10043000  0.52337000  1.0 0.1606340646
H  H21  1  0.76292000  0.79282000  0.56096000  1.0 0.148216547
H  H22  1  0.23708000  0.20718000  0.43904000  1.0 0.148216547
H  H23  1  0.12210000  0.67922000  0.45620000  1.0 0.1389990924
H  H24  1  0.87790000  0.32078000  0.54380000  1.0 0.1389990924
H  H25  1  0.57054000  0.71733000  0.40891000  1.0 0.1209657355
H  H26  1  0.42946000  0.28267000  0.59109000  1.0 0.1209657355
H  H27  1  0.49784000  0.82764000  0.48626000  1.0 0.1389990924
H  H28  1  0.50216000  0.17236000  0.51374000  1.0 0.1389990924
H  H29  1  0.89301000  0.72817000  0.41543000  1.0 0.1389990924
H  H30  1  0.10699000  0.27183000  0.58457000  1.0 0.1389990924
H  H31  1  0.62677000  0.90941000  0.32173000  1.0 0.1315084546
H  H32  1  0.37323000  0.09059000  0.67827000  1.0 0.1315084546
H  H33  1  0.68404000  0.97092000  0.41641000  1.0 0.1389990924
H  H34  1  0.31596000  0.02908000  0.58359000  1.0 0.1389990924
H  H35  1  0.05682000  0.12229000  0.15826000  1.0 0.1389990924
H  H36  1  0.94318000  0.87771000  0.84174000  1.0 0.1389990924
H  H37  1  0.69377000  0.04010000  0.07134000  1.0 0.1389990924
H  H38  1  0.30623000  0.95990000  0.92866000  1.0 0.1389990924
H  H39  1  0.61054000  0.18439000  0.12289000  1.0 0.1209657355
H  H40  1  0.38946000  0.81561000  0.87711000  1.0 0.1209657355
H  H41  1  0.06514000  0.85491000  0.12054000  1.0 0.1315084546
H  H42  1  0.93486000  0.14509000  0.87946000  1.0 0.1315084546
H  H43  1  0.43782000  0.94630000  0.07758000  1.0 0.1389990924
H  H44  1  0.56218000  0.05370000  0.92242000  1.0 0.1389990924
H  H45  1  0.10778000  0.07898000  0.03908000  1.0 0.1606340646
H  H46  1  0.89222000  0.92102000  0.96092000  1.0 0.1606340646
H  H47  1  0.29342000  0.20351000  0.12447000  1.0 0.148216547
H  H48  1  0.70658000  0.79649000  0.87553000  1.0 0.148216547
H  H49  1  0.51551000  0.38262000  0.01024000  1.0 0.1315084546
H  H50  1  0.48449000  0.61738000  0.98976000  1.0 0.1315084546
H  H51  1  0.46788000  0.20851000  0.97988000  1.0 0.1389990924
H  H52  1  0.53212000  0.79149000  0.02012000  1.0 0.1389990924
H  H53  1  0.30327000  0.53170000  0.60036000  1.0 0.173795329
H  H54  1  0.69673000  0.46830000  0.39964000  1.0 0.173795329
H  H55  1  0.27513000  0.62232000  0.58883000  1.0 0.1389990924
H  H56  1  0.72487000  0.37768000  0.41117000  1.0 0.1389990924
H  H57  1  0.39753000  0.46072000  0.50554000  1.0 0.1097384085
H  H58  1  0.60247000  0.53928000  0.49446000  1.0 0.1097384085
H  H59  1  0.51340000  0.54712000  0.53219000  1.0 0.1097384085
H  H60  1  0.48660000  0.45288000  0.46781000  1.0 0.1097384085
H  H61  1  0.42889000  0.55139000  0.47724000  1.0 0.1209657355
H  H62  1  0.57111000  0.44861000  0.52276000  1.0 0.1209657355
H  H63  1  0.13093000  0.42100000  0.54746000  1.0 0.1315084546
H  H64  1  0.86907000  0.57900000  0.45254000  1.0 0.1315084546
H  H65  1  0.22022000  0.41791000  0.49579000  1.0 0.1209657355
H  H66  1  0.77978000  0.58209000  0.50421000  1.0 0.1209657355
H  H67  1  0.10847000  0.49488000  0.50823000  1.0 0.1389990924
H  H68  1  0.89153000  0.50512000  0.49177000  1.0 0.1389990924
H  H69  1  0.43345000  0.71249000  0.61820000  1.0 0.1097384085
H  H70  1  0.56655000  0.28751000  0.38180000  1.0 0.1097384085
H  H71  1  0.47264000  0.73756000  0.56141000  1.0 0.1209657355
H  H72  1  0.52736000  0.26244000  0.43859000  1.0 0.1209657355
H  H73  1  0.57427000  0.68505000  0.59395000  1.0 0.1315084546
H  H74  1  0.42573000  0.31495000  0.40605000  1.0 0.1315084546
C  C1  1  0.91750000  0.71590000  0.63273000  1.0 0.5948823556
C  C2  1  0.08250000  0.28410000  0.36727000  1.0 0.5948823556
C  C3  1  0.95350000  0.76940000  0.58724000  1.0 0.0198805104
C  C4  1  0.04650000  0.23060000  0.41276000  1.0 0.0198805104
C  C5  1  0.09160000  0.78070000  0.57620000  1.0 -0.2187325582
C  C6  1  0.90840000  0.21930000  0.42380000  1.0 -0.2187325582
C  C7  1  0.12850000  0.82830000  0.53475000  1.0 0.2605459357
C  C8  1  0.87150000  0.17170000  0.46525000  1.0 0.2605459357
C  C9  1  0.03430000  0.86560000  0.50368000  1.0 -0.2954375134
C  C10  1  0.96570000  0.13440000  0.49632000  1.0 -0.2954375134
C  C11  1  0.89770000  0.85100000  0.51405000  1.0 0.2666695281
C  C12  1  0.10230000  0.14900000  0.48595000  1.0 0.2666695281
C  C13  1  0.85540000  0.80270000  0.55507000  1.0 -0.2111559347
C  C14  1  0.14460000  0.19730000  0.44493000  1.0 -0.2111559347
C  C15  1  0.30250000  0.76530000  0.47710000  1.0 0.2440987542
C  C16  1  0.69750000  0.23470000  0.52290000  1.0 0.2440987542
C  C17  1  0.21150000  0.68750000  0.44589000  1.0 -0.2280069091
C  C18  1  0.78850000  0.31250000  0.55411000  1.0 -0.2280069091
C  C19  1  0.25560000  0.62090000  0.39839000  1.0 -0.0235711955
C  C20  1  0.74440000  0.37910000  0.60161000  1.0 -0.0235711955
C  C21  1  0.39040000  0.63220000  0.38458000  1.0 -0.0540138022
C  C22  1  0.60960000  0.36780000  0.61542000  1.0 -0.0540138022
C  C23  1  0.47990000  0.71000000  0.41797000  1.0 -0.1020568049
C  C24  1  0.52010000  0.29000000  0.58203000  1.0 -0.1020568049
C  C25  1  0.43690000  0.77630000  0.46415000  1.0 -0.1823188797
C  C26  1  0.56310000  0.22370000  0.53585000  1.0 -0.1823188797
C  C27  1  0.15230000  0.54370000  0.36089000  1.0 0.5948823556
C  C28  1  0.84770000  0.45630000  0.63911000  1.0 0.5948823556
C  C29  1  0.44800000  0.56320000  0.33559000  1.0 0.5810174609
C  C30  1  0.55200000  0.43680000  0.66441000  1.0 0.5810174609
C  C31  1  0.78790000  0.85260000  0.42525000  1.0 0.250454318
C  C32  1  0.21210000  0.14740000  0.57475000  1.0 0.250454318
C  C33  1  0.83840000  0.76380000  0.39645000  1.0 -0.2522540079
C  C34  1  0.16160000  0.23620000  0.60355000  1.0 -0.2522540079
C  C35  1  0.80660000  0.72850000  0.33889000  1.0 0.0126206805
C  C36  1  0.19340000  0.27150000  0.66111000  1.0 0.0126206805
C  C37  1  0.72290000  0.78120000  0.31082000  1.0 -0.0645216485
C  C38  1  0.27710000  0.21880000  0.68918000  1.0 -0.0645216485
C  C39  1  0.67930000  0.87240000  0.34060000  1.0 -0.0698656674
C  C40  1  0.32070000  0.12760000  0.65940000  1.0 -0.0698656674
C  C41  1  0.71220000  0.90920000  0.39729000  1.0 -0.2045149715
C  C42  1  0.28780000  0.09080000  0.60271000  1.0 -0.2045149715
C  C43  1  0.86120000  0.63080000  0.30878000  1.0 0.6096618339
C  C44  1  0.13880000  0.36920000  0.69122000  1.0 0.6096618339
C  C45  1  0.67560000  0.73890000  0.25093000  1.0 0.5810174609
C  C46  1  0.32440000  0.26110000  0.74907000  1.0 0.5810174609
C  C47  1  0.72060000  0.33300000  0.20527000  1.0 0.5968097314
C  C48  1  0.27940000  0.66700000  0.79473000  1.0 0.5968097314
C  C49  1  0.78260000  0.24220000  0.17141000  1.0 -0.0267916969
C  C50  1  0.21740000  0.75780000  0.82859000  1.0 -0.0267916969
C  C51  1  0.91830000  0.22400000  0.18115000  1.0 -0.0267916969
C  C52  1  0.08170000  0.77600000  0.81885000  1.0 -0.0267916969
C  C53  1  0.96700000  0.13520000  0.15116000  1.0 -0.2187325582
C  C54  1  0.03300000  0.86480000  0.84884000  1.0 -0.2187325582
C  C55  1  0.88280000  0.06610000  0.11087000  1.0 0.250454318
C  C56  1  0.11720000  0.93390000  0.88913000  1.0 0.250454318
C  C57  1  0.74960000  0.08530000  0.09940000  1.0 -0.1855268911
C  C58  1  0.25040000  0.91470000  0.90060000  1.0 -0.1855268911
C  C59  1  0.70070000  0.17220000  0.13005000  1.0 -0.1020568049
C  C60  1  0.29930000  0.82780000  0.86995000  1.0 -0.1020568049
C  C61  1  0.01590000  0.30060000  0.22075000  1.0 0.6173402532
C  C62  1  0.98410000  0.69940000  0.77925000  1.0 0.6173402532
C  C63  1  0.06650000  0.96920000  0.08061000  1.0 0.2605459357
C  C64  1  0.93350000  0.03080000  0.91939000  1.0 0.2605459357
C  C65  1  0.12090000  0.89670000  0.10403000  1.0 -0.2373312772
C  C66  1  0.87910000  0.10330000  0.89597000  1.0 -0.2373312772
C  C67  1  0.26150000  0.88760000  0.10239000  1.0 0.0334647275
C  C68  1  0.73850000  0.11240000  0.89761000  1.0 0.0334647275
C  C69  1  0.34420000  0.95220000  0.07868000  1.0 -0.2280069091
C  C70  1  0.65580000  0.04780000  0.92132000  1.0 -0.2280069091
C  C71  1  0.28610000  0.02520000  0.05672000  1.0 0.2605459357
C  C72  1  0.71390000  0.97480000  0.94328000  1.0 0.2605459357
C  C73  1  0.14680000  0.03250000  0.05589000  1.0 -0.3071271316
C  C74  1  0.85320000  0.96750000  0.94411000  1.0 -0.3071271316
C  C75  1  0.32390000  0.80850000  0.12738000  1.0 0.574794875
C  C76  1  0.67610000  0.19150000  0.87262000  1.0 0.574794875
C  C77  1  0.38150000  0.18930000  0.05065000  1.0 0.250454318
C  C78  1  0.61850000  0.81070000  0.94935000  1.0 0.250454318
C  C79  1  0.33970000  0.23970000  0.10204000  1.0 -0.2522540079
C  C80  1  0.66030000  0.76030000  0.89796000  1.0 -0.2522540079
C  C81  1  0.36730000  0.34470000  0.12006000  1.0 0.0126206805
C  C82  1  0.63270000  0.65530000  0.87994000  1.0 0.0126206805
C  C83  1  0.43870000  0.39830000  0.08664000  1.0 -0.0698656674
C  C84  1  0.56130000  0.60170000  0.91336000  1.0 -0.0698656674
C  C85  1  0.47300000  0.34650000  0.03359000  1.0 -0.0698656674
C  C86  1  0.52700000  0.65350000  0.96641000  1.0 -0.0698656674
C  C87  1  0.44490000  0.24250000  0.01529000  1.0 -0.2187325582
C  C88  1  0.55510000  0.75750000  0.98471000  1.0 -0.2187325582
C  C89  1  0.31120000  0.39900000  0.17419000  1.0 0.6173402532
C  C90  1  0.68880000  0.60100000  0.82581000  1.0 0.6173402532
C  C91  1  0.48550000  0.50770000  0.10781000  1.0 0.5810174609
C  C92  1  0.51450000  0.49230000  0.89219000  1.0 0.5810174609
C  C93  1  0.46840000  0.50730000  0.49760000  1.0 -0.1020568049
C  C94  1  0.53160000  0.49270000  0.50240000  1.0 -0.1020568049
C  C95  1  0.29680000  0.55210000  0.56720000  1.0 0.1984361574
C  C96  1  0.70320000  0.44790000  0.43280000  1.0 0.1984361574
C  C97  1  0.17540000  0.46120000  0.52490000  1.0 -0.5995031432
C  C98  1  0.82460000  0.53880000  0.47510000  1.0 -0.5995031432
C  C99  1  0.47960000  0.68990000  0.58440000  1.0 -0.5522405143
C  C100  1  0.52040000  0.31010000  0.41560000  1.0 -0.5522405143
N  N1  1  0.40150000  0.56720000  0.54660000  1.0 -0.0860103801
N  N2  1  0.59850000  0.43280000  0.45340000  1.0 -0.0860103801
O  O1  1  0.01670000  0.70075000  0.66277000  1.0 -0.5720451112
O  O2  1  0.98330000  0.29925000  0.33723000  1.0 -0.5720451112
O  O3  1  0.79320000  0.69270000  0.63862000  1.0 -0.5720451112
O  O4  1  0.20680000  0.30730000  0.36138000  1.0 -0.5720451112
O  O5  1  0.26640000  0.83694000  0.52340000  1.0 -0.2280069091
O  O6  1  0.73360000  0.16306000  0.47660000  1.0 -0.2280069091
O  O7  1  0.03830000  0.52404000  0.37779000  1.0 -0.5111540691
O  O8  1  0.96170000  0.47596000  0.62221000  1.0 -0.5111540691
O  O9  1  0.19000000  0.50463000  0.31169000  1.0 -0.6240127221
O  O10  1  0.81000000  0.49537000  0.68831000  1.0 -0.6240127221
O  O11  1  0.48520000  0.60319000  0.29668000  1.0 -0.5420139865
O  O12  1  0.51480000  0.39681000  0.70332000  1.0 -0.5420139865
O  O13  1  0.46220000  0.47264000  0.33683000  1.0 -0.5522405143
O  O14  1  0.53780000  0.52736000  0.66317000  1.0 -0.5522405143
O  O15  1  0.79890000  0.88709000  0.48332000  1.0 -0.2187325582
O  O16  1  0.20110000  0.11291000  0.51668000  1.0 -0.2187325582
O  O17  1  0.97690000  0.63757000  0.29034000  1.0 -0.5522405143
O  O18  1  0.02310000  0.36243000  0.70966000  1.0 -0.5522405143
O  O19  1  0.78870000  0.54843000  0.30667000  1.0 -0.5910637314
O  O20  1  0.21130000  0.45157000  0.69333000  1.0 -0.5910637314
O  O21  1  0.70980000  0.65308000  0.22517000  1.0 -0.5910637314
O  O22  1  0.29020000  0.34692000  0.77483000  1.0 -0.5910637314
O  O23  1  0.59680000  0.78650000  0.22723000  1.0 -0.5191035852
O  O24  1  0.40320000  0.21350000  0.77277000  1.0 -0.5191035852
O  O25  1  0.68550000  0.39827000  0.18056000  1.0 -0.5191035852
O  O26  1  0.31450000  0.60173000  0.81944000  1.0 -0.5191035852
O  O27  1  0.70170000  0.33660000  0.25661000  1.0 -0.5995031432
O  O28  1  0.29830000  0.66340000  0.74339000  1.0 -0.5995031432
O  O29  1  0.97408000  0.38871000  0.23890000  1.0 -0.6080620424
O  O30  1  0.02592000  0.61129000  0.76110000  1.0 -0.6080620424
O  O31  1  0.13105000  0.27633000  0.23215000  1.0 -0.5316358492
O  O32  1  0.86895000  0.72367000  0.76785000  1.0 -0.5316358492
O  O33  1  0.92560000  0.97619000  0.08041000  1.0 -0.2280069091
O  O34  1  0.07440000  0.02381000  0.91959000  1.0 -0.2280069091
O  O35  1  0.44140000  0.78900000  0.11350000  1.0 -0.5720451112
O  O36  1  0.55860000  0.21100000  0.88650000  1.0 -0.5720451112
O  O37  1  0.25460000  0.76880000  0.15899000  1.0 -0.5420139865
O  O38  1  0.74540000  0.23120000  0.84101000  1.0 -0.5420139865
O  O39  1  0.37030000  0.08471000  0.03089000  1.0 -0.2187325582
O  O40  1  0.62970000  0.91529000  0.96911000  1.0 -0.2187325582
O  O41  1  0.19880000  0.43284000  0.17001000  1.0 -0.5420139865
O  O42  1  0.80120000  0.56716000  0.82999000  1.0 -0.5420139865
O  O43  1  0.38030000  0.40417000  0.21983000  1.0 -0.5910637314
O  O44  1  0.61970000  0.59583000  0.78017000  1.0 -0.5910637314
O  O45  1  0.47650000  0.55039000  0.15987000  1.0 -0.5799259082
O  O46  1  0.52350000  0.44961000  0.84013000  1.0 -0.5799259082
O  O47  1  0.53700000  0.55801000  0.07606000  1.0 -0.5316358492
O  O48  1  0.46300000  0.44199000  0.92394000  1.0 -0.5316358492
O  O49  1  0.26290000  0.58870000  0.61371000  1.0 -0.3625407354
O  O50  1  0.73710000  0.41130000  0.38629000  1.0 -0.3625407354
O  O51  1  0.76010000  0.74560000  0.11639000  1.0 -0.6752761737
O  O52  1  0.23990000  0.25440000  0.88361000  1.0 -0.6752761737
O  O53  1  0.95260000  0.56070000  0.16984000  1.0 -0.6492728428
O  O54  1  0.04740000  0.43930000  0.83016000  1.0 -0.6492728428
O  O55  1  0.24720000  0.65277000  0.23558000  1.0 -0.6634079949
O  O56  1  0.75280000  0.34723000  0.76442000  1.0 -0.6634079949
O  O57  1  0.43350000  0.24790000  0.27906000  1.0 -0.6492728428
O  O58  1  0.56650000  0.75210000  0.72094000  1.0 -0.6492728428
