# DDEC6 charges by PACMAN v1.1 (https://github.com/mtap-research/PACMAN-charge/)
data_CIHJAI_ASR_pacman
_symmetry_space_group_name_H-M   'P 1'
_cell_length_a   16.23650000
_cell_length_b   16.45230000
_cell_length_c   18.95010000
_cell_angle_alpha   67.48700000
_cell_angle_beta   69.66900000
_cell_angle_gamma   61.72200000
_symmetry_Int_Tables_number   1
_chemical_formula_structural   Mn4H21(C23O13)2
_chemical_formula_sum   'Mn8 H42 C92 O52'
_cell_volume   4031.56101944
_cell_formula_units_Z   2
loop_
 _symmetry_equiv_pos_site_id
 _symmetry_equiv_pos_as_xyz
  1  'x, y, z'
loop_
 _atom_site_type_symbol
 _atom_site_label
 _atom_site_symmetry_multiplicity
 _atom_site_fract_x
 _atom_site_fract_y
 _atom_site_fract_z
 _atom_site_occupancy
 _atom_site_charge
Mn  Mn1  1  0.64080000  0.46961000  0.58816000  1.0 1.082128322
Mn  Mn2  1  0.35920000  0.53039000  0.41184000  1.0 1.082128322
Mn  Mn3  1  0.40122000  0.44775000  0.61130000  1.0 1.051192359
Mn  Mn4  1  0.59878000  0.55225000  0.38870000  1.0 1.051192359
Mn  Mn5  1  0.88722000  0.96608000  0.97880000  1.0 1.0404756227
Mn  Mn6  1  0.11278000  0.03392000  0.02120000  1.0 1.0404756227
Mn  Mn7  1  0.12417000  0.99030000  0.84095000  1.0 1.082128322
Mn  Mn8  1  0.87583000  0.00970000  0.15905000  1.0 1.0854483405
H  H1  1  0.84480000  0.50705000  0.21550000  1.0 0.3813531855
H  H2  1  0.15520000  0.49295000  0.78450000  1.0 0.3813531855
H  H3  1  0.29355000  0.51955000  0.83658000  1.0 0.1396538568
H  H4  1  0.70645000  0.48045000  0.16342000  1.0 0.1396538568
H  H5  1  0.35614000  0.58850000  0.98743000  1.0 0.1489420796
H  H6  1  0.64386000  0.41150000  0.01257000  1.0 0.1489420796
H  H7  1  0.53814000  0.55753000  0.78393000  1.0 0.1489420796
H  H8  1  0.46186000  0.44247000  0.21607000  1.0 0.1489420796
H  H9  1  0.99658000  0.62059000  0.16539000  1.0 0.1188991936
H  H10  1  0.00342000  0.37941000  0.83461000  1.0 0.1188991936
H  H11  1  0.11272000  0.51429000  0.09441000  1.0 0.1489420796
H  H12  1  0.88728000  0.48571000  0.90559000  1.0 0.1489420796
H  H13  1  0.37389000  0.75556000  0.89020000  1.0 0.132732396
H  H14  1  0.62611000  0.24444000  0.10980000  1.0 0.132732396
H  H15  1  0.20067000  0.72271000  0.94611000  1.0 0.132732396
H  H16  1  0.79933000  0.27729000  0.05389000  1.0 0.132732396
H  H17  1  0.57847000  0.74271000  0.01500000  1.0 0.1123833107
H  H18  1  0.42153000  0.25729000  0.98500000  1.0 0.1123833107
H  H19  1  0.61222000  0.61183000  0.97754000  1.0 0.132732396
H  H20  1  0.38778000  0.38817000  0.02246000  1.0 0.132732396
H  H21  1  0.79848000  0.01963000  0.75859000  1.0 0.1489420796
H  H22  1  0.20152000  0.98037000  0.24141000  1.0 0.1489420796
H  H23  1  0.89603000  0.07249000  0.52557000  1.0 0.1595142344
H  H24  1  0.10397000  0.92751000  0.47443000  1.0 0.1595142344
H  H25  1  0.03072000  0.08442000  0.66005000  1.0 0.1396538568
H  H26  1  0.96928000  0.91558000  0.33995000  1.0 0.1396538568
H  H27  1  0.71854000  0.21290000  0.58632000  1.0 0.1396538568
H  H28  1  0.28146000  0.78710000  0.41368000  1.0 0.1396538568
H  H29  1  0.51217000  0.12503000  0.54216000  1.0 0.1123833107
H  H30  1  0.48783000  0.87497000  0.45784000  1.0 0.1123833107
H  H31  1  0.63951000  0.00823000  0.59944000  1.0 0.1489420796
H  H32  1  0.36049000  0.99177000  0.40056000  1.0 0.1489420796
H  H33  1  0.88234000  0.26100000  0.51745000  1.0 0.132732396
H  H34  1  0.11766000  0.73900000  0.48255000  1.0 0.132732396
H  H35  1  0.08694000  0.27457000  0.27929000  1.0 0.1188991936
H  H36  1  0.91306000  0.72543000  0.72071000  1.0 0.1188991936
H  H37  1  0.12915000  0.14031000  0.37935000  1.0 0.1396538568
H  H38  1  0.87085000  0.85969000  0.62065000  1.0 0.1396538568
H  H39  1  0.42383000  0.03255000  0.95822000  1.0 0.2340137968
H  H40  1  0.57617000  0.96745000  0.04178000  1.0 0.2355373958
H  H41  1  0.53966000  0.93217000  0.02100000  1.0 0.2907669702
H  H42  1  0.46034000  0.06783000  0.97900000  1.0 0.2907669702
C  C1  1  0.44970000  0.50710000  0.72330000  1.0 0.5894307156
C  C2  1  0.55030000  0.49290000  0.27670000  1.0 0.5894307156
C  C3  1  0.42050000  0.53330000  0.79860000  1.0 0.0180001193
C  C4  1  0.57950000  0.46670000  0.20140000  1.0 0.0180001193
C  C5  1  0.33500000  0.53330000  0.84950000  1.0 -0.229606387
C  C6  1  0.66500000  0.46670000  0.15050000  1.0 -0.229606387
C  C7  1  0.31250000  0.55400000  0.91960000  1.0 0.2493961214
C  C8  1  0.68750000  0.44600000  0.08040000  1.0 0.2493961214
C  C9  1  0.37210000  0.57510000  0.93980000  1.0 -0.2976133516
C  C10  1  0.62790000  0.42490000  0.06020000  1.0 -0.2976133516
C  C11  1  0.45660000  0.57610000  0.88800000  1.0 0.259643043
C  C12  1  0.54340000  0.42390000  0.11200000  1.0 0.259643043
C  C13  1  0.48140000  0.55610000  0.81820000  1.0 -0.2213190065
C  C14  1  0.51860000  0.44390000  0.18180000  1.0 -0.2213190065
C  C15  1  0.16830000  0.60820000  0.01450000  1.0 0.259643043
C  C16  1  0.83170000  0.39180000  0.98550000  1.0 0.259643043
C  C17  1  0.09010000  0.76590000  0.03400000  1.0 0.00221059
C  C18  1  0.90990000  0.23410000  0.96600000  1.0 0.00221059
C  C19  1  0.02680000  0.73650000  0.09900000  1.0 -0.0704805097
C  C20  1  0.97320000  0.26350000  0.90100000  1.0 -0.0704805097
C  C21  1  0.03740000  0.64140000  0.12130000  1.0 -0.0704805097
C  C22  1  0.96260000  0.35860000  0.87870000  1.0 -0.0704805097
C  C23  1  0.10710000  0.57730000  0.07930000  1.0 -0.1955685457
C  C24  1  0.89290000  0.42270000  0.92070000  1.0 -0.1955685457
C  C25  1  0.08530000  0.86660000  0.00620000  1.0 0.5993973373
C  C26  1  0.91470000  0.13340000  0.99380000  1.0 0.5993973373
C  C27  1  0.94730000  0.80670000  0.14320000  1.0 0.5894307156
C  C28  1  0.05270000  0.19330000  0.85680000  1.0 0.5894307156
C  C29  1  0.49560000  0.67080000  0.93040000  1.0 0.2493961214
C  C30  1  0.50440000  0.32920000  0.06960000  1.0 0.2493961214
C  C31  1  0.41460000  0.75310000  0.91610000  1.0 -0.229606387
C  C32  1  0.58540000  0.24690000  0.08390000  1.0 -0.229606387
C  C33  1  0.39350000  0.83200000  0.93980000  1.0 -0.007989439
C  C34  1  0.60650000  0.16800000  0.06020000  1.0 -0.007989439
C  C35  1  0.16000000  0.70230000  0.99060000  1.0 -0.2560636715
C  C36  1  0.84000000  0.29770000  0.00940000  1.0 -0.2560636715
C  C37  1  0.45640000  0.82880000  0.97700000  1.0 -0.0892335652
C  C38  1  0.54360000  0.17120000  0.02300000  1.0 -0.0892335652
C  C39  1  0.53670000  0.74540000  0.99000000  1.0 -0.110225494
C  C40  1  0.46330000  0.25460000  0.01000000  1.0 -0.110225494
C  C41  1  0.55760000  0.66680000  0.96780000  1.0 -0.1778284153
C  C42  1  0.44240000  0.33320000  0.03220000  1.0 -0.1778284153
C  C43  1  0.29790000  0.91350000  0.92820000  1.0 0.5993973373
C  C44  1  0.70210000  0.08650000  0.07180000  1.0 0.5993973373
C  C45  1  0.44590000  0.91010000  0.00240000  1.0 0.437621505
C  C46  1  0.55410000  0.08990000  0.99760000  1.0 0.437621505
C  C47  1  0.92960000  0.03690000  0.80100000  1.0 0.5838940302
C  C48  1  0.07040000  0.96310000  0.19900000  1.0 0.5838940302
C  C49  1  0.91640000  0.05030000  0.72160000  1.0 0.0264406064
C  C50  1  0.08360000  0.94970000  0.27840000  1.0 0.0264406064
C  C51  1  0.84210000  0.03580000  0.71460000  1.0 -0.229606387
C  C52  1  0.15790000  0.96420000  0.28540000  1.0 -0.229606387
C  C53  1  0.83420000  0.04580000  0.64140000  1.0 0.259643043
C  C54  1  0.16580000  0.95420000  0.35860000  1.0 0.259643043
C  C55  1  0.90020000  0.06880000  0.57450000  1.0 -0.2976133516
C  C56  1  0.09980000  0.93120000  0.42550000  1.0 -0.2976133516
C  C57  1  0.97040000  0.08550000  0.58300000  1.0 0.2493961214
C  C58  1  0.02960000  0.91450000  0.41700000  1.0 0.2493961214
C  C59  1  0.98090000  0.07500000  0.65540000  1.0 -0.2213190065
C  C60  1  0.01910000  0.92500000  0.34460000  1.0 -0.2213190065
C  C61  1  0.69090000  0.09970000  0.59810000  1.0 0.259643043
C  C62  1  0.30910000  0.90030000  0.40190000  1.0 0.259643043
C  C63  1  0.67750000  0.19530000  0.57690000  1.0 -0.2560636715
C  C64  1  0.32250000  0.80470000  0.42310000  1.0 -0.2560636715
C  C65  1  0.60130000  0.26410000  0.54120000  1.0 -0.007989439
C  C66  1  0.39870000  0.73590000  0.45880000  1.0 -0.007989439
C  C67  1  0.53830000  0.23910000  0.52800000  1.0 -0.0704805097
C  C68  1  0.46170000  0.76090000  0.47200000  1.0 -0.0763784265
C  C69  1  0.55390000  0.14270000  0.55060000  1.0 -0.0704805097
C  C70  1  0.44610000  0.85730000  0.44940000  1.0 -0.0704805097
C  C71  1  0.62980000  0.07240000  0.58520000  1.0 -0.2077849945
C  C72  1  0.37020000  0.92760000  0.41480000  1.0 -0.2077849945
C  C73  1  0.59120000  0.36630000  0.51600000  1.0 0.5993973373
C  C74  1  0.40880000  0.63370000  0.48400000  1.0 0.5993973373
C  C75  1  0.45320000  0.31490000  0.49380000  1.0 0.5894307156
C  C76  1  0.54680000  0.68510000  0.50620000  1.0 0.5894307156
C  C77  1  0.00880000  0.18700000  0.45900000  1.0 0.259643043
C  C78  1  0.99120000  0.81300000  0.54100000  1.0 0.259643043
C  C79  1  0.92300000  0.26380000  0.46870000  1.0 -0.229606387
C  C80  1  0.07700000  0.73620000  0.53130000  1.0 -0.229606387
C  C81  1  0.89530000  0.34500000  0.40790000  1.0 -0.0152924611
C  C82  1  0.10470000  0.65500000  0.59210000  1.0 -0.0152924611
C  C83  1  0.95690000  0.34980000  0.33360000  1.0 -0.0624584398
C  C84  1  0.04310000  0.65020000  0.66640000  1.0 -0.0624584398
C  C85  1  0.04430000  0.27170000  0.32710000  1.0 -0.0892335652
C  C86  1  0.95570000  0.72830000  0.67290000  1.0 -0.0892335652
C  C87  1  0.07080000  0.19120000  0.38690000  1.0 -0.1941870144
C  C88  1  0.92920000  0.80880000  0.61310000  1.0 -0.1941870144
C  C89  1  0.79720000  0.41960000  0.43150000  1.0 0.6062425235
C  C90  1  0.20280000  0.58040000  0.56850000  1.0 0.6062425235
C  C91  1  0.94380000  0.42790000  0.25730000  1.0 0.5419089356
C  C92  1  0.05620000  0.57210000  0.74270000  1.0 0.5450616041
O  O1  1  0.52530000  0.51590000  0.67855000  1.0 -0.5909819594
O  O2  1  0.47470000  0.48410000  0.32145000  1.0 -0.5909819594
O  O3  1  0.39900000  0.47760000  0.71137000  1.0 -0.5611340643
O  O4  1  0.60100000  0.52240000  0.28863000  1.0 -0.5611340643
O  O5  1  0.23050000  0.54220000  0.97223000  1.0 -0.229606387
O  O6  1  0.76950000  0.45780000  0.02777000  1.0 -0.229606387
O  O7  1  0.12380000  0.88954000  0.03690000  1.0 -0.491193537
O  O8  1  0.87620000  0.11046000  0.96310000  1.0 -0.491193537
O  O9  1  0.04411000  0.92109000  0.94820000  1.0 -0.621853753
O  O10  1  0.95589000  0.07891000  0.05180000  1.0 -0.621853753
O  O11  1  0.91952000  0.89533000  0.10470000  1.0 -0.6390217981
O  O12  1  0.08048000  0.10467000  0.89530000  1.0 -0.6390217981
O  O13  1  0.91260000  0.77610000  0.21207000  1.0 -0.491193537
O  O14  1  0.08740000  0.22390000  0.78793000  1.0 -0.4971918306
O  O15  1  0.52300000  0.58960000  0.90780000  1.0 -0.2213190065
O  O16  1  0.47700000  0.41040000  0.09220000  1.0 -0.2213190065
O  O17  1  0.25800000  0.91450000  0.88218000  1.0 -0.5909819594
O  O18  1  0.74200000  0.08550000  0.11782000  1.0 -0.5909819594
O  O19  1  0.26310000  0.97220000  0.96915000  1.0 -0.5492210826
O  O20  1  0.73690000  0.02780000  0.03085000  1.0 -0.5492210826
O  O21  1  0.87590000  0.00560000  0.86015000  1.0 -0.5611340643
O  O22  1  0.12410000  0.99440000  0.13985000  1.0 -0.5611340643
O  O23  1  0.99300000  0.05990000  0.80152000  1.0 -0.5909819594
O  O24  1  0.00700000  0.94010000  0.19848000  1.0 -0.5909819594
O  O25  1  0.76300000  0.02518000  0.63548000  1.0 -0.229606387
O  O26  1  0.23700000  0.97482000  0.36452000  1.0 -0.229606387
O  O27  1  0.55668000  0.40916000  0.57009000  1.0 -0.621853753
O  O28  1  0.44332000  0.59084000  0.42991000  1.0 -0.621853753
O  O29  1  0.61876000  0.40186000  0.44666000  1.0 -0.4786108972
O  O30  1  0.38124000  0.59814000  0.55334000  1.0 -0.4786108972
O  O31  1  0.41920000  0.29260000  0.45790000  1.0 -0.5062024435
O  O32  1  0.58080000  0.70740000  0.54210000  1.0 -0.5062024435
O  O33  1  0.42112000  0.39821000  0.50352000  1.0 -0.6281665406
O  O34  1  0.57888000  0.60179000  0.49648000  1.0 -0.6281665406
O  O35  1  0.03930000  0.10580000  0.51841000  1.0 -0.229606387
O  O36  1  0.96070000  0.89420000  0.48159000  1.0 -0.229606387
O  O37  1  0.76133000  0.40810000  0.50256000  1.0 -0.5909819594
O  O38  1  0.23867000  0.59190000  0.49744000  1.0 -0.5909819594
O  O39  1  0.75429000  0.48800000  0.37879000  1.0 -0.5611340643
O  O40  1  0.24571000  0.51200000  0.62121000  1.0 -0.5611340643
O  O41  1  0.86420000  0.50080000  0.25260000  1.0 -0.4023236921
O  O42  1  0.13580000  0.49920000  0.74740000  1.0 -0.4023236921
O  O43  1  0.01010000  0.42240000  0.20180000  1.0 -0.4721639296
O  O44  1  0.98990000  0.57760000  0.79820000  1.0 -0.4786108972
O  O45  1  0.44710000  0.98450000  0.94260000  1.0 -0.2560636715
O  O46  1  0.55290000  0.01550000  0.05740000  1.0 -0.2560636715
O  O47  1  0.41810000  0.91540000  0.06940000  1.0 -0.164656817
O  O48  1  0.58190000  0.08460000  0.93060000  1.0 -0.1662266692
O  O49  1  0.38620000  0.98020000  0.00890000  1.0 0.0180001193
O  O50  1  0.61380000  0.01980000  0.99110000  1.0 0.0094692269
O  O51  1  0.53440000  0.88370000  0.02400000  1.0 -0.2672509095
O  O52  1  0.46560000  0.11630000  0.97600000  1.0 -0.2672509095
