# DDEC6 charges by PACMAN v1.1 (https://github.com/mtap-research/PACMAN-charge/)
data_CIHPAO_ion_pacman
_symmetry_space_group_name_H-M   'P 1'
_cell_length_a   7.55220000
_cell_length_b   18.35770000
_cell_length_c   14.91010000
_cell_angle_alpha   90.00000000
_cell_angle_beta   103.94300000
_cell_angle_gamma   90.00000000
_symmetry_Int_Tables_number   1
_chemical_formula_structural   CoH13C19N5O7
_chemical_formula_sum   'Co4 H52 C76 N20 O28'
_cell_volume   2006.24478216
_cell_formula_units_Z   4
loop_
 _symmetry_equiv_pos_site_id
 _symmetry_equiv_pos_as_xyz
  1  'x, y, z'
loop_
 _atom_site_type_symbol
 _atom_site_label
 _atom_site_symmetry_multiplicity
 _atom_site_fract_x
 _atom_site_fract_y
 _atom_site_fract_z
 _atom_site_occupancy
 _atom_site_charge
Co  Co1  1  0.83001000  0.60559000  0.66787000  1.0 0.8354903493
Co  Co2  1  0.16999000  0.10559000  0.83213000  1.0 0.8345894251
Co  Co3  1  0.16999000  0.39441000  0.33213000  1.0 0.8345894251
Co  Co4  1  0.83001000  0.89441000  0.16787000  1.0 0.8354903493
H  H1  1  0.04449000  0.25522000  0.75002000  1.0 0.1193806072
H  H2  1  0.95551000  0.75522000  0.74998000  1.0 0.1193806072
H  H3  1  0.95551000  0.74478000  0.24998000  1.0 0.1193806072
H  H4  1  0.04449000  0.24478000  0.25002000  1.0 0.1193806072
H  H5  1  0.01101000  0.48902000  0.82859000  1.0 0.1193806072
H  H6  1  0.98899000  0.98902000  0.67141000  1.0 0.1193806072
H  H7  1  0.98899000  0.51098000  0.17141000  1.0 0.1193806072
H  H8  1  0.01101000  0.01098000  0.32859000  1.0 0.1193806072
H  H9  1  0.74032000  0.44242000  0.57696000  1.0 0.1501382573
H  H10  1  0.25968000  0.94242000  0.92304000  1.0 0.1501382573
H  H11  1  0.25968000  0.55758000  0.42304000  1.0 0.1501382573
H  H12  1  0.74032000  0.05758000  0.07696000  1.0 0.1501382573
H  H13  1  0.55186000  0.28495000  0.12347000  1.0 0.1373148891
H  H14  1  0.44814000  0.78495000  0.37653000  1.0 0.1373148891
H  H15  1  0.44814000  0.71505000  0.87653000  1.0 0.1373148891
H  H16  1  0.55186000  0.21505000  0.62347000  1.0 0.1373148891
H  H17  1  0.30174000  0.20859000  0.00250000  1.0 0.1302749051
H  H18  1  0.69826000  0.70859000  0.49750000  1.0 0.1302749051
H  H19  1  0.69826000  0.79141000  0.99750000  1.0 0.1302749051
H  H20  1  0.30174000  0.29141000  0.50250000  1.0 0.1302749051
H  H21  1  0.12888000  0.41239000  0.94177000  1.0 0.1607395295
H  H22  1  0.87112000  0.91239000  0.55823000  1.0 0.1607395295
H  H23  1  0.87112000  0.58761000  0.05823000  1.0 0.1607395295
H  H24  1  0.12888000  0.08761000  0.44177000  1.0 0.1607395295
H  H25  1  0.08183000  0.38439000  0.11159000  1.0 0.1193806072
H  H26  1  0.91817000  0.88439000  0.38841000  1.0 0.1193806072
H  H27  1  0.91817000  0.61561000  0.88841000  1.0 0.1193806072
H  H28  1  0.08183000  0.11561000  0.61159000  1.0 0.1193806072
H  H29  1  0.53579000  0.32127000  0.27956000  1.0 0.1302749051
H  H30  1  0.46421000  0.82127000  0.22044000  1.0 0.1302749051
H  H31  1  0.46421000  0.67873000  0.72044000  1.0 0.1302749051
H  H32  1  0.53579000  0.17873000  0.77956000  1.0 0.1302749051
H  H33  1  0.86917000  0.32823000  0.64865000  1.0 0.1373148891
H  H34  1  0.13083000  0.82823000  0.85135000  1.0 0.1373148891
H  H35  1  0.13083000  0.67177000  0.35135000  1.0 0.1373148891
H  H36  1  0.86917000  0.17177000  0.14865000  1.0 0.1373148891
H  H37  1  0.61338000  0.00154000  0.45399000  1.0 0.1193806072
H  H38  1  0.62844000  0.20449000  0.36090000  1.0 0.1193806072
H  H39  1  0.43642000  0.96626000  0.31179000  1.0 0.1302749051
H  H40  1  0.46063000  0.16902000  0.21803000  1.0 0.1102153356
H  H41  1  0.38662000  0.50154000  0.04601000  1.0 0.1193806072
H  H42  1  0.37156000  0.70449000  0.13910000  1.0 0.1193806072
H  H43  1  0.56358000  0.46626000  0.18821000  1.0 0.1302749051
H  H44  1  0.53937000  0.66902000  0.28197000  1.0 0.1102153356
H  H45  1  0.38662000  0.99846000  0.54601000  1.0 0.1193806072
H  H46  1  0.37156000  0.79551000  0.63910000  1.0 0.1193806072
H  H47  1  0.56358000  0.03374000  0.68821000  1.0 0.1302749051
H  H48  1  0.53937000  0.83098000  0.78197000  1.0 0.1102153356
H  H49  1  0.61338000  0.49846000  0.95399000  1.0 0.1193806072
H  H50  1  0.62844000  0.29551000  0.86090000  1.0 0.1193806072
H  H51  1  0.43642000  0.53374000  0.81179000  1.0 0.1302749051
H  H52  1  0.46063000  0.33098000  0.71803000  1.0 0.1102153356
C  C1  1  0.09160000  0.27000000  0.81070000  1.0 -0.0242160973
C  C2  1  0.90840000  0.77000000  0.68930000  1.0 -0.0242160973
C  C3  1  0.90840000  0.73000000  0.18930000  1.0 -0.0242160973
C  C4  1  0.09160000  0.23000000  0.31070000  1.0 -0.0242160973
C  C5  1  0.95930000  0.46340000  0.77490000  1.0 0.1102153356
C  C6  1  0.04070000  0.96340000  0.72510000  1.0 0.1102153356
C  C7  1  0.04070000  0.53660000  0.22510000  1.0 0.1102153356
C  C8  1  0.95930000  0.03660000  0.27490000  1.0 0.1102153356
C  C9  1  0.81160000  0.43740000  0.63690000  1.0 0.0227099746
C  C10  1  0.18840000  0.93740000  0.86310000  1.0 0.0227099746
C  C11  1  0.18840000  0.56260000  0.36310000  1.0 0.0227099746
C  C12  1  0.81160000  0.06260000  0.13690000  1.0 0.0227099746
C  C13  1  0.45590000  0.30910000  0.13970000  1.0 -0.0779894855
C  C14  1  0.54410000  0.80910000  0.36030000  1.0 -0.0779894855
C  C15  1  0.54410000  0.69090000  0.86030000  1.0 -0.0779894855
C  C16  1  0.45590000  0.19090000  0.63970000  1.0 -0.0779894855
C  C17  1  0.24370000  0.24260000  0.95910000  1.0 0.0029879966
C  C18  1  0.75630000  0.74260000  0.54090000  1.0 0.0029879966
C  C19  1  0.75630000  0.75740000  0.04090000  1.0 0.0029879966
C  C20  1  0.24370000  0.25740000  0.45910000  1.0 0.0029879966
C  C21  1  0.14090000  0.36443000  0.92400000  1.0 -0.1913802293
C  C22  1  0.85910000  0.86443000  0.57600000  1.0 -0.1913802293
C  C23  1  0.85910000  0.63557000  0.07600000  1.0 -0.1913802293
C  C24  1  0.14090000  0.13557000  0.42400000  1.0 -0.1913802293
C  C25  1  0.22940000  0.31345000  0.98660000  1.0 0.1501382573
C  C26  1  0.77060000  0.81345000  0.51340000  1.0 0.1501382573
C  C27  1  0.77060000  0.68655000  0.01340000  1.0 0.1501382573
C  C28  1  0.22940000  0.18655000  0.48660000  1.0 0.1501382573
C  C29  1  0.07000000  0.34197000  0.83350000  1.0 0.1501382573
C  C30  1  0.93000000  0.84197000  0.66650000  1.0 0.1501382573
C  C31  1  0.93000000  0.65803000  0.16650000  1.0 0.1501382573
C  C32  1  0.07000000  0.15803000  0.33350000  1.0 0.1501382573
C  C33  1  0.19670000  0.36410000  0.13440000  1.0 0.1193806072
C  C34  1  0.80330000  0.86410000  0.36560000  1.0 0.1193806072
C  C35  1  0.80330000  0.63590000  0.86560000  1.0 0.1193806072
C  C36  1  0.19670000  0.13590000  0.63440000  1.0 0.1193806072
C  C37  1  0.44560000  0.32940000  0.22580000  1.0 -0.003954616
C  C38  1  0.55440000  0.82940000  0.27420000  1.0 -0.003954616
C  C39  1  0.55440000  0.67060000  0.77420000  1.0 -0.003954616
C  C40  1  0.44560000  0.17060000  0.72580000  1.0 -0.003954616
C  C41  1  0.88160000  0.37400000  0.67620000  1.0 -0.0735581559
C  C42  1  0.11840000  0.87400000  0.82380000  1.0 -0.0735581559
C  C43  1  0.11840000  0.62600000  0.32380000  1.0 -0.0735581559
C  C44  1  0.88160000  0.12600000  0.17620000  1.0 -0.0735581559
C  C45  1  0.58190000  0.03560000  0.40660000  1.0 -0.1125203263
C  C46  1  0.59190000  0.15620000  0.35100000  1.0 -0.127478477
C  C47  1  0.47650000  0.01420000  0.32110000  1.0 -0.096718945
C  C48  1  0.43110000  0.06410000  0.24960000  1.0 -0.0257416605
C  C49  1  0.75070000  0.12890000  0.51690000  1.0 0.5222655866
C  C50  1  0.64050000  0.10640000  0.42250000  1.0 -0.0257416605
C  C51  1  0.31930000  0.04200000  0.15660000  1.0 0.5071876082
C  C52  1  0.49000000  0.13500000  0.26560000  1.0 -0.1190000143
C  C53  1  0.41810000  0.53560000  0.09340000  1.0 -0.1125203263
C  C54  1  0.40810000  0.65620000  0.14900000  1.0 -0.127478477
C  C55  1  0.52350000  0.51420000  0.17890000  1.0 -0.096718945
C  C56  1  0.56890000  0.56410000  0.25040000  1.0 -0.0257416605
C  C57  1  0.24930000  0.62890000  0.98310000  1.0 0.5222655866
C  C58  1  0.35950000  0.60640000  0.07750000  1.0 -0.0257416605
C  C59  1  0.68070000  0.54200000  0.34340000  1.0 0.5071876082
C  C60  1  0.51000000  0.63500000  0.23440000  1.0 -0.1190000143
C  C61  1  0.41810000  0.96440000  0.59340000  1.0 -0.1125203263
C  C62  1  0.40810000  0.84380000  0.64900000  1.0 -0.127478477
C  C63  1  0.52350000  0.98580000  0.67890000  1.0 -0.096718945
C  C64  1  0.56890000  0.93590000  0.75040000  1.0 -0.0257416605
C  C65  1  0.24930000  0.87110000  0.48310000  1.0 0.5222655866
C  C66  1  0.35950000  0.89360000  0.57750000  1.0 -0.0257416605
C  C67  1  0.68070000  0.95800000  0.84340000  1.0 0.5071876082
C  C68  1  0.51000000  0.86500000  0.73440000  1.0 -0.1190000143
C  C69  1  0.58190000  0.46440000  0.90660000  1.0 -0.1125203263
C  C70  1  0.59190000  0.34380000  0.85100000  1.0 -0.127478477
C  C71  1  0.47650000  0.48580000  0.82110000  1.0 -0.096718945
C  C72  1  0.43110000  0.43590000  0.74960000  1.0 -0.0257416605
C  C73  1  0.75070000  0.37110000  0.01690000  1.0 0.5222655866
C  C74  1  0.64050000  0.39360000  0.92250000  1.0 -0.0257416605
C  C75  1  0.31930000  0.45800000  0.65660000  1.0 0.5071876082
C  C76  1  0.49000000  0.36500000  0.76560000  1.0 -0.1190000143
N  N1  1  0.28250000  0.36365000  0.22170000  1.0 -0.2982337889
N  N2  1  0.71750000  0.86365000  0.27830000  1.0 -0.2982337889
N  N3  1  0.71750000  0.63635000  0.77830000  1.0 -0.2982337889
N  N4  1  0.28250000  0.13635000  0.72170000  1.0 -0.2982337889
N  N5  1  0.97510000  0.39066000  0.76510000  1.0 -0.003954616
N  N6  1  0.02490000  0.89066000  0.73490000  1.0 -0.003954616
N  N7  1  0.02490000  0.60934000  0.23490000  1.0 -0.003954616
N  N8  1  0.97510000  0.10934000  0.26510000  1.0 -0.003954616
N  N9  1  0.29530000  0.33152000  0.08150000  1.0 0.0029879966
N  N10  1  0.70470000  0.83152000  0.41850000  1.0 0.0029879966
N  N11  1  0.70470000  0.66848000  0.91850000  1.0 0.0029879966
N  N12  1  0.29530000  0.16848000  0.58150000  1.0 0.0029879966
N  N13  1  0.17680000  0.22118000  0.87190000  1.0 -0.2078760531
N  N14  1  0.82320000  0.72118000  0.62810000  1.0 -0.2078760531
N  N15  1  0.82320000  0.77882000  0.12810000  1.0 -0.2078760531
N  N16  1  0.17680000  0.27882000  0.37190000  1.0 -0.2078760531
N  N17  1  0.86190000  0.49316000  0.69910000  1.0 -0.2676645485
N  N18  1  0.13810000  0.99316000  0.80090000  1.0 -0.2676645485
N  N19  1  0.13810000  0.50684000  0.30090000  1.0 -0.2676645485
N  N20  1  0.86190000  0.00684000  0.19910000  1.0 -0.2676645485
O  O1  1  0.10310000  0.62123000  0.74750000  1.0 -0.3125617099
O  O2  1  0.89690000  0.12123000  0.75250000  1.0 -0.3125617099
O  O3  1  0.89690000  0.37877000  0.25250000  1.0 -0.3125617099
O  O4  1  0.10310000  0.87877000  0.24750000  1.0 -0.3125617099
O  O5  1  0.58000000  0.58813000  0.57260000  1.0 -0.2982337889
O  O6  1  0.42000000  0.08813000  0.92740000  1.0 -0.2982337889
O  O7  1  0.42000000  0.41187000  0.42740000  1.0 -0.2982337889
O  O8  1  0.58000000  0.91187000  0.07260000  1.0 -0.2982337889
O  O9  1  0.95870000  0.58855000  0.55700000  1.0 0.0029879966
O  O10  1  0.04130000  0.08855000  0.94300000  1.0 0.0029879966
O  O11  1  0.04130000  0.41145000  0.44300000  1.0 0.0029879966
O  O12  1  0.95870000  0.91145000  0.05700000  1.0 -0.003954616
O  O13  1  0.78580000  0.19453000  0.53370000  1.0 -0.5570090082
O  O14  1  0.80260000  0.07862000  0.57490000  1.0 -0.4912075442
O  O15  1  0.25350000  0.97975000  0.14660000  1.0 -0.3611622122
O  O16  1  0.30040000  0.08760000  0.09280000  1.0 -0.4315515649
O  O17  1  0.21420000  0.69453000  0.96630000  1.0 -0.5570090082
O  O18  1  0.19740000  0.57862000  0.92510000  1.0 -0.4912075442
O  O19  1  0.74650000  0.47975000  0.35340000  1.0 -0.3611622122
O  O20  1  0.69960000  0.58760000  0.40720000  1.0 -0.4315515649
O  O21  1  0.21420000  0.80547000  0.46630000  1.0 -0.5570090082
O  O22  1  0.19740000  0.92138000  0.42510000  1.0 -0.4912075442
O  O23  1  0.74650000  0.02025000  0.85340000  1.0 -0.3611622122
O  O24  1  0.69960000  0.91240000  0.90720000  1.0 -0.4315515649
O  O25  1  0.78580000  0.30547000  0.03370000  1.0 -0.5570090082
O  O26  1  0.80260000  0.42138000  0.07490000  1.0 -0.4912075442
O  O27  1  0.25350000  0.52025000  0.64660000  1.0 -0.3611622122
O  O28  1  0.30040000  0.41240000  0.59280000  1.0 -0.4315515649
