# DDEC6 charges by PACMAN v1.1 (https://github.com/mtap-research/PACMAN-charge/)
data_CIJBAB_ASR_pacman
_symmetry_space_group_name_H-M   'P 1'
_cell_length_a   15.99360000
_cell_length_b   15.99360000
_cell_length_c   13.49200000
_cell_angle_alpha   79.44280000
_cell_angle_beta   100.55700000
_cell_angle_gamma   125.93100000
_symmetry_Int_Tables_number   1
_chemical_formula_structural   LaH7C16O7
_chemical_formula_sum   'La4 H28 C64 O28'
_cell_volume   2734.75699912
_cell_formula_units_Z   4
loop_
 _symmetry_equiv_pos_site_id
 _symmetry_equiv_pos_as_xyz
  1  'x, y, z'
loop_
 _atom_site_type_symbol
 _atom_site_label
 _atom_site_symmetry_multiplicity
 _atom_site_fract_x
 _atom_site_fract_y
 _atom_site_fract_z
 _atom_site_occupancy
 _atom_site_charge
La  La1  1  0.03473000  0.39239000  0.55727000  1.0 1.8631659348
La  La2  1  0.39239000  0.03473000  0.94273000  1.0 1.8631659348
La  La3  1  0.96527000  0.60761000  0.44273000  1.0 1.8651174306
La  La4  1  0.60761000  0.96527000  0.05727000  1.0 1.8631659348
H  H1  1  0.17833000  0.71589000  0.19811000  1.0 0.1307234334
H  H2  1  0.38983000  0.71217000  0.08116000  1.0 0.1307234334
H  H3  1  0.21101000  0.48179000  0.28377000  1.0 0.1307234334
H  H4  1  0.45594000  0.47474000  0.11157000  1.0 0.1307234334
H  H5  1  0.48184000  0.36706000  0.04913000  1.0 0.1209371666
H  H6  1  0.17766000  0.15184000  0.01892000  1.0 0.1209371666
H  H7  1  0.14920000  0.25864000  0.07775000  1.0 0.1417513935
H  H8  1  0.71589000  0.17833000  0.30189000  1.0 0.1307234334
H  H9  1  0.71217000  0.38983000  0.41884000  1.0 0.1307234334
H  H10  1  0.48179000  0.21101000  0.21623000  1.0 0.1307234334
H  H11  1  0.47474000  0.45594000  0.38843000  1.0 0.1307234334
H  H12  1  0.36706000  0.48184000  0.45087000  1.0 0.1209371666
H  H13  1  0.15184000  0.17766000  0.48108000  1.0 0.1209371666
H  H14  1  0.25864000  0.14920000  0.42225000  1.0 0.1417513935
H  H15  1  0.82167000  0.28411000  0.80189000  1.0 0.1307234334
H  H16  1  0.61017000  0.28783000  0.91884000  1.0 0.1307234334
H  H17  1  0.78899000  0.51821000  0.71623000  1.0 0.1307234334
H  H18  1  0.54406000  0.52526000  0.88843000  1.0 0.1307234334
H  H19  1  0.51816000  0.63294000  0.95087000  1.0 0.1209371666
H  H20  1  0.82234000  0.84816000  0.98108000  1.0 0.1209371666
H  H21  1  0.85080000  0.74136000  0.92225000  1.0 0.1417513935
H  H22  1  0.28411000  0.82167000  0.69811000  1.0 0.1307234334
H  H23  1  0.28783000  0.61017000  0.58116000  1.0 0.1307234334
H  H24  1  0.51821000  0.78899000  0.78377000  1.0 0.1307234334
H  H25  1  0.52526000  0.54406000  0.61157000  1.0 0.1307234334
H  H26  1  0.63294000  0.51816000  0.54913000  1.0 0.1209371666
H  H27  1  0.84816000  0.82234000  0.51892000  1.0 0.1209371666
H  H28  1  0.74136000  0.85080000  0.57775000  1.0 0.1417513935
C  C1  1  0.10300000  0.54640000  0.32710000  1.0 0.621374905
C  C2  1  0.18310000  0.59210000  0.25280000  1.0 -0.0221083722
C  C3  1  0.21189000  0.68491000  0.19480000  1.0 -0.0907217116
C  C4  1  0.29119000  0.73161000  0.13150000  1.0 -0.0257834663
C  C5  1  0.33744000  0.68176000  0.12370000  1.0 -0.1383293831
C  C6  1  0.30633000  0.58787000  0.17840000  1.0 0.0560066624
C  C7  1  0.23022000  0.54378000  0.24480000  1.0 -0.1242194624
C  C8  1  0.35678000  0.53522000  0.16620000  1.0 0.0434959427
C  C9  1  0.29985000  0.37735000  0.10110000  1.0 0.2590055986
C  C10  1  0.39966000  0.41014000  0.09260000  1.0 -0.2267596127
C  C11  1  0.41461000  0.34499000  0.05530000  1.0 -0.0799694128
C  C12  1  0.33333333  0.24908000  0.02740000  1.0 -0.0403238582
C  C13  1  0.23376000  0.21704000  0.03690000  1.0 -0.0799694128
C  C14  1  0.21662000  0.28058000  0.07260000  1.0 -0.1962005721
C  C15  1  0.35125000  0.17955000  0.98760000  1.0 0.5635718553
C  C16  1  0.32821000  0.83499000  0.07420000  1.0 0.5938271879
C  C17  1  0.54640000  0.10300000  0.17290000  1.0 0.621374905
C  C18  1  0.59210000  0.18310000  0.24720000  1.0 -0.0221083722
C  C19  1  0.68491000  0.21189000  0.30520000  1.0 -0.0907217116
C  C20  1  0.73161000  0.29119000  0.36850000  1.0 -0.0257834663
C  C21  1  0.68176000  0.33744000  0.37630000  1.0 -0.1383293831
C  C22  1  0.58787000  0.30633000  0.32160000  1.0 0.0560066624
C  C23  1  0.54378000  0.23022000  0.25520000  1.0 -0.1242194624
C  C24  1  0.53522000  0.35678000  0.33380000  1.0 0.0434959427
C  C25  1  0.37735000  0.29985000  0.39890000  1.0 0.2590055986
C  C26  1  0.41014000  0.39966000  0.40740000  1.0 -0.2267596127
C  C27  1  0.34499000  0.41461000  0.44470000  1.0 -0.0799694128
C  C28  1  0.24908000  0.33333333  0.47260000  1.0 -0.0403238582
C  C29  1  0.21704000  0.23376000  0.46310000  1.0 -0.0799694128
C  C30  1  0.28058000  0.21662000  0.42740000  1.0 -0.1962005721
C  C31  1  0.17955000  0.35125000  0.51240000  1.0 0.5635718553
C  C32  1  0.83499000  0.32821000  0.42580000  1.0 0.5938271879
C  C33  1  0.89700000  0.45360000  0.67290000  1.0 0.621374905
C  C34  1  0.81690000  0.40790000  0.74720000  1.0 -0.0221083722
C  C35  1  0.78811000  0.31509000  0.80520000  1.0 -0.0907217116
C  C36  1  0.70881000  0.26839000  0.86850000  1.0 -0.0257834663
C  C37  1  0.66256000  0.31824000  0.87630000  1.0 -0.1383293831
C  C38  1  0.69367000  0.41213000  0.82160000  1.0 0.0560066624
C  C39  1  0.76978000  0.45622000  0.75520000  1.0 -0.1242194624
C  C40  1  0.64322000  0.46478000  0.83380000  1.0 0.0434959427
C  C41  1  0.70015000  0.62265000  0.89890000  1.0 0.2590055986
C  C42  1  0.60034000  0.58986000  0.90740000  1.0 -0.2267596127
C  C43  1  0.58539000  0.65501000  0.94470000  1.0 -0.0799694128
C  C44  1  0.66666667  0.75092000  0.97260000  1.0 -0.0403238582
C  C45  1  0.76624000  0.78296000  0.96310000  1.0 -0.0799694128
C  C46  1  0.78338000  0.71942000  0.92740000  1.0 -0.1962005721
C  C47  1  0.64875000  0.82045000  0.01240000  1.0 0.5635718553
C  C48  1  0.67179000  0.16501000  0.92580000  1.0 0.5938271879
C  C49  1  0.45360000  0.89700000  0.82710000  1.0 0.621374905
C  C50  1  0.40790000  0.81690000  0.75280000  1.0 -0.0221083722
C  C51  1  0.31509000  0.78811000  0.69480000  1.0 -0.0907217116
C  C52  1  0.26839000  0.70881000  0.63150000  1.0 -0.0257834663
C  C53  1  0.31824000  0.66256000  0.62370000  1.0 -0.1383293831
C  C54  1  0.41213000  0.69367000  0.67840000  1.0 0.0560066624
C  C55  1  0.45622000  0.76978000  0.74480000  1.0 -0.1242194624
C  C56  1  0.46478000  0.64322000  0.66620000  1.0 0.0434959427
C  C57  1  0.62265000  0.70015000  0.60110000  1.0 0.2590055986
C  C58  1  0.58986000  0.60034000  0.59260000  1.0 -0.2267596127
C  C59  1  0.65501000  0.58539000  0.55530000  1.0 -0.0799694128
C  C60  1  0.75092000  0.66666667  0.52740000  1.0 -0.0403238582
C  C61  1  0.78296000  0.76624000  0.53690000  1.0 -0.0799694128
C  C62  1  0.71942000  0.78338000  0.57260000  1.0 -0.1962005721
C  C63  1  0.82045000  0.64875000  0.48760000  1.0 0.5635718553
C  C64  1  0.16501000  0.67179000  0.57420000  1.0 0.5938271879
O  O1  1  0.08063000  0.46409000  0.37977000  1.0 -0.5990382732
O  O2  1  0.06534000  0.59586000  0.33090000  1.0 -0.6356781722
O  O3  1  0.43821000  0.21729000  0.95950000  1.0 -0.6088791714
O  O4  1  0.27801000  0.08477000  0.98380000  1.0 -0.6088791714
O  O5  1  0.41844000  0.88840000  0.04404000  1.0 -0.6915308388
O  O6  1  0.27114000  0.86652000  0.05570000  1.0 -0.5640876295
O  O7  1  0.27426000  0.43494000  0.13420000  1.0 -0.1747386904
O  O8  1  0.46409000  0.08063000  0.12023000  1.0 -0.5990382732
O  O9  1  0.59586000  0.06534000  0.16910000  1.0 -0.6356781722
O  O10  1  0.21729000  0.43821000  0.54050000  1.0 -0.6088791714
O  O11  1  0.08477000  0.27801000  0.51620000  1.0 -0.6088791714
O  O12  1  0.88840000  0.41844000  0.45596000  1.0 -0.6915308388
O  O13  1  0.86652000  0.27114000  0.44430000  1.0 -0.5640876295
O  O14  1  0.43494000  0.27426000  0.36580000  1.0 -0.1756915302
O  O15  1  0.91937000  0.53591000  0.62023000  1.0 -0.5990382732
O  O16  1  0.93466000  0.40414000  0.66910000  1.0 -0.6356781722
O  O17  1  0.56179000  0.78271000  0.04050000  1.0 -0.6088791714
O  O18  1  0.72199000  0.91523000  0.01620000  1.0 -0.6088791714
O  O19  1  0.58156000  0.11160000  0.95596000  1.0 -0.6915308388
O  O20  1  0.72886000  0.13348000  0.94430000  1.0 -0.5640876295
O  O21  1  0.72574000  0.56506000  0.86580000  1.0 -0.1747386904
O  O22  1  0.53591000  0.91937000  0.87977000  1.0 -0.5990382732
O  O23  1  0.40414000  0.93466000  0.83090000  1.0 -0.6356781722
O  O24  1  0.78271000  0.56179000  0.45950000  1.0 -0.6088791714
O  O25  1  0.91523000  0.72199000  0.48380000  1.0 -0.6088791714
O  O26  1  0.11160000  0.58156000  0.54404000  1.0 -0.6915308388
O  O27  1  0.13348000  0.72886000  0.55570000  1.0 -0.5640876295
O  O28  1  0.56506000  0.72574000  0.63420000  1.0 -0.1747386904
