# DDEC6 charges by PACMAN v1.1 (https://github.com/mtap-research/PACMAN-charge/)
data_CILFIN_ASR_pacman
_symmetry_space_group_name_H-M   'P 1'
_cell_length_a   15.38700000
_cell_length_b   15.38700000
_cell_length_c   9.58460000
_cell_angle_alpha   90.00000000
_cell_angle_beta   90.00000000
_cell_angle_gamma   90.00000000
_symmetry_Int_Tables_number   1
_chemical_formula_structural   ZnH20C16NO4
_chemical_formula_sum   'Zn4 H80 C64 N4 O16'
_cell_volume   2269.24768196
_cell_formula_units_Z   4
loop_
 _symmetry_equiv_pos_site_id
 _symmetry_equiv_pos_as_xyz
  1  'x, y, z'
loop_
 _atom_site_type_symbol
 _atom_site_label
 _atom_site_symmetry_multiplicity
 _atom_site_fract_x
 _atom_site_fract_y
 _atom_site_fract_z
 _atom_site_occupancy
 _atom_site_charge
Zn  Zn1  1  0.00000000  0.00000000  0.84938000  1.0 0.7311874394
Zn  Zn2  1  0.00000000  0.00000000  0.15062000  1.0 0.7311874394
Zn  Zn3  1  0.50000000  0.50000000  0.15062000  1.0 0.7311874394
Zn  Zn4  1  0.50000000  0.50000000  0.84938000  1.0 0.7311874394
H  H1  1  0.84210000  0.76220000  0.18830000  1.0 0.1390635584
H  H2  1  0.76220000  0.15790000  0.18830000  1.0 0.1390635584
H  H3  1  0.23780000  0.84210000  0.18830000  1.0 0.1390635584
H  H4  1  0.76220000  0.84210000  0.81170000  1.0 0.1390635584
H  H5  1  0.15790000  0.23780000  0.18830000  1.0 0.1390635584
H  H6  1  0.84210000  0.23780000  0.81170000  1.0 0.1390635584
H  H7  1  0.15790000  0.76220000  0.81170000  1.0 0.1390635584
H  H8  1  0.23780000  0.15790000  0.81170000  1.0 0.1390635584
H  H9  1  0.65790000  0.73780000  0.81170000  1.0 0.1390635584
H  H10  1  0.73780000  0.34210000  0.81170000  1.0 0.1390635584
H  H11  1  0.26220000  0.65790000  0.81170000  1.0 0.1390635584
H  H12  1  0.73780000  0.65790000  0.18830000  1.0 0.1390635584
H  H13  1  0.34210000  0.26220000  0.81170000  1.0 0.1390635584
H  H14  1  0.65790000  0.26220000  0.18830000  1.0 0.1390635584
H  H15  1  0.34210000  0.73780000  0.18830000  1.0 0.1390635584
H  H16  1  0.26220000  0.34210000  0.18830000  1.0 0.1390635584
H  H17  1  0.97740000  0.11280000  0.48690000  1.0 0.0696861286
H  H18  1  0.11280000  0.02260000  0.48690000  1.0 0.0696861286
H  H19  1  0.88720000  0.97740000  0.48690000  1.0 0.0696861286
H  H20  1  0.11280000  0.97740000  0.51310000  1.0 0.0696861286
H  H21  1  0.02260000  0.88720000  0.48690000  1.0 0.0696861286
H  H22  1  0.97740000  0.88720000  0.51310000  1.0 0.0696861286
H  H23  1  0.02260000  0.11280000  0.51310000  1.0 0.0696861286
H  H24  1  0.88720000  0.02260000  0.51310000  1.0 0.0696861286
H  H25  1  0.52260000  0.38720000  0.51310000  1.0 0.0696861286
H  H26  1  0.38720000  0.47740000  0.51310000  1.0 0.0696861286
H  H27  1  0.61280000  0.52260000  0.51310000  1.0 0.0696861286
H  H28  1  0.38720000  0.52260000  0.48690000  1.0 0.0696861286
H  H29  1  0.47740000  0.61280000  0.51310000  1.0 0.0696861286
H  H30  1  0.52260000  0.61280000  0.48690000  1.0 0.0696861286
H  H31  1  0.47740000  0.38720000  0.48690000  1.0 0.0696861286
H  H32  1  0.61280000  0.47740000  0.48690000  1.0 0.0696861286
H  H33  1  0.97470000  0.12890000  0.64670000  1.0 0.0834564258
H  H34  1  0.12890000  0.02530000  0.64670000  1.0 0.0834564258
H  H35  1  0.87110000  0.97470000  0.64670000  1.0 0.0834564258
H  H36  1  0.12890000  0.97470000  0.35330000  1.0 0.0834564258
H  H37  1  0.02530000  0.87110000  0.64670000  1.0 0.0834564258
H  H38  1  0.97470000  0.87110000  0.35330000  1.0 0.0834564258
H  H39  1  0.02530000  0.12890000  0.35330000  1.0 0.0834564258
H  H40  1  0.87110000  0.02530000  0.35330000  1.0 0.0834564258
H  H41  1  0.52530000  0.37110000  0.35330000  1.0 0.0834564258
H  H42  1  0.37110000  0.47470000  0.35330000  1.0 0.0834564258
H  H43  1  0.62890000  0.52530000  0.35330000  1.0 0.0834564258
H  H44  1  0.37110000  0.52530000  0.64670000  1.0 0.0834564258
H  H45  1  0.47470000  0.62890000  0.35330000  1.0 0.0834564258
H  H46  1  0.52530000  0.62890000  0.64670000  1.0 0.0834564258
H  H47  1  0.47470000  0.37110000  0.64670000  1.0 0.0834564258
H  H48  1  0.62890000  0.47470000  0.64670000  1.0 0.0834564258
H  H49  1  0.90190000  0.06890000  0.67170000  1.0 0.0956093882
H  H50  1  0.06890000  0.09810000  0.67170000  1.0 0.0956093882
H  H51  1  0.93110000  0.90190000  0.67170000  1.0 0.0956093882
H  H52  1  0.06890000  0.90190000  0.32830000  1.0 0.0956093882
H  H53  1  0.09810000  0.93110000  0.67170000  1.0 0.0956093882
H  H54  1  0.90190000  0.93110000  0.32830000  1.0 0.0956093882
H  H55  1  0.09810000  0.06890000  0.32830000  1.0 0.0956093882
H  H56  1  0.93110000  0.09810000  0.32830000  1.0 0.0956093882
H  H57  1  0.59810000  0.43110000  0.32830000  1.0 0.0956093882
H  H58  1  0.43110000  0.40190000  0.32830000  1.0 0.0956093882
H  H59  1  0.56890000  0.59810000  0.32830000  1.0 0.0956093882
H  H60  1  0.43110000  0.59810000  0.67170000  1.0 0.0956093882
H  H61  1  0.40190000  0.56890000  0.32830000  1.0 0.0956093882
H  H62  1  0.59810000  0.56890000  0.67170000  1.0 0.0956093882
H  H63  1  0.40190000  0.43110000  0.67170000  1.0 0.0956093882
H  H64  1  0.56890000  0.40190000  0.67170000  1.0 0.0956093882
H  H65  1  0.89100000  0.07610000  0.50990000  1.0 0.0538047113
H  H66  1  0.07610000  0.10900000  0.50990000  1.0 0.0538047113
H  H67  1  0.92390000  0.89100000  0.50990000  1.0 0.0538047113
H  H68  1  0.07610000  0.89100000  0.49010000  1.0 0.0538047113
H  H69  1  0.10900000  0.92390000  0.50990000  1.0 0.0538047113
H  H70  1  0.89100000  0.92390000  0.49010000  1.0 0.0538047113
H  H71  1  0.10900000  0.07610000  0.49010000  1.0 0.0538047113
H  H72  1  0.92390000  0.10900000  0.49010000  1.0 0.0538047113
H  H73  1  0.60900000  0.42390000  0.49010000  1.0 0.0538047113
H  H74  1  0.42390000  0.39100000  0.49010000  1.0 0.0538047113
H  H75  1  0.57610000  0.60900000  0.49010000  1.0 0.0538047113
H  H76  1  0.42390000  0.60900000  0.50990000  1.0 0.0538047113
H  H77  1  0.39100000  0.57610000  0.49010000  1.0 0.0538047113
H  H78  1  0.60900000  0.57610000  0.50990000  1.0 0.0538047113
H  H79  1  0.39100000  0.42390000  0.50990000  1.0 0.0538047113
H  H80  1  0.57610000  0.39100000  0.50990000  1.0 0.0538047113
C  C1  1  0.98310000  0.08310000  0.57700000  1.0 -0.0638809215
C  C2  1  0.08310000  0.01690000  0.57700000  1.0 -0.0638809215
C  C3  1  0.91690000  0.98310000  0.57700000  1.0 -0.0638809215
C  C4  1  0.08310000  0.98310000  0.42300000  1.0 -0.0638809215
C  C5  1  0.01690000  0.91690000  0.57700000  1.0 -0.0638809215
C  C6  1  0.98310000  0.91690000  0.42300000  1.0 -0.0638809215
C  C7  1  0.01690000  0.08310000  0.42300000  1.0 -0.0638809215
C  C8  1  0.91690000  0.01690000  0.42300000  1.0 -0.0638809215
C  C9  1  0.51690000  0.41690000  0.42300000  1.0 -0.0638809215
C  C10  1  0.41690000  0.48310000  0.42300000  1.0 -0.0638809215
C  C11  1  0.58310000  0.51690000  0.42300000  1.0 -0.0638809215
C  C12  1  0.41690000  0.51690000  0.57700000  1.0 -0.0638809215
C  C13  1  0.48310000  0.58310000  0.42300000  1.0 -0.0638809215
C  C14  1  0.51690000  0.58310000  0.57700000  1.0 -0.0638809215
C  C15  1  0.48310000  0.41690000  0.57700000  1.0 -0.0638809215
C  C16  1  0.58310000  0.48310000  0.57700000  1.0 -0.0638809215
C  C17  1  0.88310000  0.88310000  0.00000000  1.0 0.488015211
C  C18  1  0.88310000  0.11690000  0.00000000  1.0 0.488015211
C  C19  1  0.11690000  0.88310000  0.00000000  1.0 0.488015211
C  C20  1  0.11690000  0.11690000  0.00000000  1.0 0.488015211
C  C21  1  0.61690000  0.61690000  0.00000000  1.0 0.488015211
C  C22  1  0.61690000  0.38310000  0.00000000  1.0 0.488015211
C  C23  1  0.38310000  0.61690000  0.00000000  1.0 0.488015211
C  C24  1  0.38310000  0.38310000  0.00000000  1.0 0.488015211
C  C25  1  0.81370000  0.81370000  0.00000000  1.0 0.0029249142
C  C26  1  0.81370000  0.18630000  0.00000000  1.0 0.0029249142
C  C27  1  0.18630000  0.81370000  0.00000000  1.0 0.0029249142
C  C28  1  0.18630000  0.18630000  0.00000000  1.0 0.0029249142
C  C29  1  0.68630000  0.68630000  0.00000000  1.0 0.0029249142
C  C30  1  0.68630000  0.31370000  0.00000000  1.0 0.0029249142
C  C31  1  0.31370000  0.68630000  0.00000000  1.0 0.0029249142
C  C32  1  0.31370000  0.31370000  0.00000000  1.0 0.0029249142
C  C33  1  0.80450000  0.75730000  0.11140000  1.0 -0.1396980847
C  C34  1  0.75730000  0.19550000  0.11140000  1.0 -0.1396980847
C  C35  1  0.24270000  0.80450000  0.11140000  1.0 -0.1396980847
C  C36  1  0.75730000  0.80450000  0.88860000  1.0 -0.1396980847
C  C37  1  0.19550000  0.24270000  0.11140000  1.0 -0.1396980847
C  C38  1  0.80450000  0.24270000  0.88860000  1.0 -0.1396980847
C  C39  1  0.19550000  0.75730000  0.88860000  1.0 -0.1396980847
C  C40  1  0.24270000  0.19550000  0.88860000  1.0 -0.1396980847
C  C41  1  0.69550000  0.74270000  0.88860000  1.0 -0.1396980847
C  C42  1  0.74270000  0.30450000  0.88860000  1.0 -0.1396980847
C  C43  1  0.25730000  0.69550000  0.88860000  1.0 -0.1396980847
C  C44  1  0.74270000  0.69550000  0.11140000  1.0 -0.1396980847
C  C45  1  0.30450000  0.25730000  0.88860000  1.0 -0.1396980847
C  C46  1  0.69550000  0.25730000  0.11140000  1.0 -0.1396980847
C  C47  1  0.30450000  0.74270000  0.11140000  1.0 -0.1396980847
C  C48  1  0.25730000  0.30450000  0.11140000  1.0 -0.1396980847
C  C49  1  0.92780000  0.05100000  0.58280000  1.0 -0.082862557
C  C50  1  0.05100000  0.07220000  0.58280000  1.0 -0.082862557
C  C51  1  0.94900000  0.92780000  0.58280000  1.0 -0.082862557
C  C52  1  0.05100000  0.92780000  0.41720000  1.0 -0.082862557
C  C53  1  0.07220000  0.94900000  0.58280000  1.0 -0.082862557
C  C54  1  0.92780000  0.94900000  0.41720000  1.0 -0.082862557
C  C55  1  0.07220000  0.05100000  0.41720000  1.0 -0.082862557
C  C56  1  0.94900000  0.07220000  0.41720000  1.0 -0.082862557
C  C57  1  0.57220000  0.44900000  0.41720000  1.0 -0.082862557
C  C58  1  0.44900000  0.42780000  0.41720000  1.0 -0.082862557
C  C59  1  0.55100000  0.57220000  0.41720000  1.0 -0.082862557
C  C60  1  0.44900000  0.57220000  0.58280000  1.0 -0.082862557
C  C61  1  0.42780000  0.55100000  0.41720000  1.0 -0.082862557
C  C62  1  0.57220000  0.55100000  0.58280000  1.0 -0.082862557
C  C63  1  0.42780000  0.44900000  0.58280000  1.0 -0.082862557
C  C64  1  0.55100000  0.42780000  0.58280000  1.0 -0.082862557
N  N1  1  0.00000000  0.00000000  0.63370000  1.0 -0.1396980847
N  N2  1  0.00000000  0.00000000  0.36630000  1.0 -0.1396980847
N  N3  1  0.50000000  0.50000000  0.36630000  1.0 -0.1396980847
N  N4  1  0.50000000  0.50000000  0.63370000  1.0 -0.1396980847
O  O1  1  0.89680000  0.92190000  0.88610000  1.0 -0.5485210504
O  O2  1  0.92190000  0.10320000  0.88610000  1.0 -0.5485210504
O  O3  1  0.07810000  0.89680000  0.88610000  1.0 -0.5485210504
O  O4  1  0.92190000  0.89680000  0.11390000  1.0 -0.5485210504
O  O5  1  0.10320000  0.07810000  0.88610000  1.0 -0.5485210504
O  O6  1  0.89680000  0.07810000  0.11390000  1.0 -0.5485210504
O  O7  1  0.10320000  0.92190000  0.11390000  1.0 -0.5485210504
O  O8  1  0.07810000  0.10320000  0.11390000  1.0 -0.5485210504
O  O9  1  0.60320000  0.57810000  0.11390000  1.0 -0.5485210504
O  O10  1  0.57810000  0.39680000  0.11390000  1.0 -0.5485210504
O  O11  1  0.42190000  0.60320000  0.11390000  1.0 -0.5485210504
O  O12  1  0.57810000  0.60320000  0.88610000  1.0 -0.5485210504
O  O13  1  0.39680000  0.42190000  0.11390000  1.0 -0.5485210504
O  O14  1  0.60320000  0.42190000  0.88610000  1.0 -0.5485210504
O  O15  1  0.39680000  0.57810000  0.88610000  1.0 -0.5485210504
O  O16  1  0.42190000  0.39680000  0.88610000  1.0 -0.5485210504
