# DDEC6 charges by PACMAN v1.1 (https://github.com/mtap-research/PACMAN-charge/)
data_CIPLIX_ASR_pacman
_symmetry_space_group_name_H-M   'P 1'
_cell_length_a   15.42500000
_cell_length_b   12.18420000
_cell_length_c   16.05900000
_cell_angle_alpha   90.00000000
_cell_angle_beta   90.00000000
_cell_angle_gamma   90.00000000
_symmetry_Int_Tables_number   1
_chemical_formula_structural   CoH3(C3O2)3
_chemical_formula_sum   'Co8 H24 C72 O48'
_cell_volume   3018.14909582
_cell_formula_units_Z   8
loop_
 _symmetry_equiv_pos_site_id
 _symmetry_equiv_pos_as_xyz
  1  'x, y, z'
loop_
 _atom_site_type_symbol
 _atom_site_label
 _atom_site_symmetry_multiplicity
 _atom_site_fract_x
 _atom_site_fract_y
 _atom_site_fract_z
 _atom_site_occupancy
 _atom_site_charge
Co  Co1  1  0.09672000  0.48225000  0.40333000  1.0 1.1061032437
Co  Co2  1  0.90328000  0.51775000  0.59667000  1.0 1.1061032437
Co  Co3  1  0.40328000  0.51775000  0.90333000  1.0 1.1061032437
Co  Co4  1  0.59672000  0.48225000  0.09667000  1.0 1.1061032437
Co  Co5  1  0.90328000  0.98225000  0.09667000  1.0 1.1061032437
Co  Co6  1  0.09672000  0.01775000  0.90333000  1.0 1.1061032437
Co  Co7  1  0.59672000  0.01775000  0.59667000  1.0 1.1061032437
Co  Co8  1  0.40328000  0.98225000  0.40333000  1.0 1.0997850321
H  H1  1  0.15467000  0.23924000  0.96256000  1.0 0.1140966624
H  H2  1  0.84533000  0.76076000  0.03744000  1.0 0.1140966624
H  H3  1  0.34533000  0.76076000  0.46256000  1.0 0.1140966624
H  H4  1  0.65467000  0.23924000  0.53744000  1.0 0.1140966624
H  H5  1  0.84533000  0.73924000  0.53744000  1.0 0.1140966624
H  H6  1  0.15467000  0.26076000  0.46256000  1.0 0.1140966624
H  H7  1  0.65467000  0.26076000  0.03744000  1.0 0.1140966624
H  H8  1  0.34533000  0.73924000  0.96256000  1.0 0.1140966624
H  H9  1  0.03672000  0.25303000  0.20816000  1.0 0.1310204756
H  H10  1  0.96328000  0.74697000  0.79184000  1.0 0.1310204756
H  H11  1  0.46328000  0.74697000  0.70816000  1.0 0.1310204756
H  H12  1  0.53672000  0.25303000  0.29184000  1.0 0.1310204756
H  H13  1  0.96328000  0.75303000  0.29184000  1.0 0.1310204756
H  H14  1  0.03672000  0.24697000  0.70816000  1.0 0.1310204756
H  H15  1  0.53672000  0.24697000  0.79184000  1.0 0.1310204756
H  H16  1  0.46328000  0.75303000  0.20816000  1.0 0.1310204756
H  H17  1  0.24062000  0.48322000  0.13744000  1.0 0.1310204756
H  H18  1  0.75938000  0.51678000  0.86256000  1.0 0.1310204756
H  H19  1  0.25938000  0.51678000  0.63744000  1.0 0.1310204756
H  H20  1  0.74062000  0.48322000  0.36256000  1.0 0.1310204756
H  H21  1  0.75938000  0.98322000  0.36256000  1.0 0.1310204756
H  H22  1  0.24062000  0.01678000  0.63744000  1.0 0.1310204756
H  H23  1  0.74062000  0.01678000  0.86256000  1.0 0.1310204756
H  H24  1  0.25938000  0.98322000  0.13744000  1.0 0.1310204756
C  C1  1  0.13500000  0.37642000  0.18120000  1.0 -0.0382133593
C  C2  1  0.86500000  0.62358000  0.81880000  1.0 -0.0382133593
C  C3  1  0.36500000  0.62358000  0.68120000  1.0 -0.0382133593
C  C4  1  0.63500000  0.37642000  0.31880000  1.0 -0.0382133593
C  C5  1  0.86500000  0.87642000  0.31880000  1.0 -0.0382133593
C  C6  1  0.13500000  0.12358000  0.68120000  1.0 -0.0382133593
C  C7  1  0.63500000  0.12358000  0.81880000  1.0 -0.0382133593
C  C8  1  0.36500000  0.87642000  0.18120000  1.0 -0.0382133593
C  C9  1  0.11789000  0.42520000  0.26522000  1.0 0.5300842322
C  C10  1  0.88211000  0.57480000  0.73478000  1.0 0.5300842322
C  C11  1  0.38211000  0.57480000  0.76522000  1.0 0.5300842322
C  C12  1  0.61789000  0.42520000  0.23478000  1.0 0.5300842322
C  C13  1  0.88211000  0.92520000  0.23478000  1.0 0.5300842322
C  C14  1  0.11789000  0.07480000  0.76522000  1.0 0.5300842322
C  C15  1  0.61789000  0.07480000  0.73478000  1.0 0.5300842322
C  C16  1  0.38211000  0.92520000  0.26522000  1.0 0.5300842322
C  C17  1  0.20675000  0.36019000  0.04449000  1.0 -0.0130583936
C  C18  1  0.79325000  0.63981000  0.95551000  1.0 -0.0130583936
C  C19  1  0.29325000  0.63981000  0.54449000  1.0 -0.0130583936
C  C20  1  0.70675000  0.36019000  0.45551000  1.0 -0.0130583936
C  C21  1  0.79325000  0.86019000  0.45551000  1.0 -0.0130583936
C  C22  1  0.20675000  0.13981000  0.54449000  1.0 -0.0130583936
C  C23  1  0.70675000  0.13981000  0.95551000  1.0 -0.0130583936
C  C24  1  0.29325000  0.86019000  0.04449000  1.0 -0.0130583936
C  C25  1  0.14906000  0.27438000  0.02519000  1.0 -0.0797650242
C  C26  1  0.85094000  0.72562000  0.97481000  1.0 -0.0797650242
C  C27  1  0.35094000  0.72562000  0.52519000  1.0 -0.0797650242
C  C28  1  0.64906000  0.27438000  0.47481000  1.0 -0.0797650242
C  C29  1  0.85094000  0.77438000  0.47481000  1.0 -0.0797650242
C  C30  1  0.14906000  0.22562000  0.52519000  1.0 -0.0797650242
C  C31  1  0.64906000  0.22562000  0.97481000  1.0 -0.0797650242
C  C32  1  0.35094000  0.77438000  0.02519000  1.0 -0.0797650242
C  C33  1  0.08222000  0.28494000  0.16167000  1.0 -0.0797650242
C  C34  1  0.91778000  0.71506000  0.83833000  1.0 -0.0797650242
C  C35  1  0.41778000  0.71506000  0.66167000  1.0 -0.0797650242
C  C36  1  0.58222000  0.28494000  0.33833000  1.0 -0.0797650242
C  C37  1  0.91778000  0.78494000  0.33833000  1.0 -0.0797650242
C  C38  1  0.08222000  0.21506000  0.66167000  1.0 -0.0797650242
C  C39  1  0.58222000  0.21506000  0.83833000  1.0 -0.0797650242
C  C40  1  0.41778000  0.78494000  0.16167000  1.0 -0.0797650242
C  C41  1  0.19830000  0.41326000  0.12257000  1.0 -0.0731887655
C  C42  1  0.80170000  0.58674000  0.87743000  1.0 -0.0731887655
C  C43  1  0.30170000  0.58674000  0.62257000  1.0 -0.0731887655
C  C44  1  0.69830000  0.41326000  0.37743000  1.0 -0.0731887655
C  C45  1  0.80170000  0.91326000  0.37743000  1.0 -0.0731887655
C  C46  1  0.19830000  0.08674000  0.62257000  1.0 -0.0731887655
C  C47  1  0.69830000  0.08674000  0.87743000  1.0 -0.0731887655
C  C48  1  0.30170000  0.91326000  0.12257000  1.0 -0.0731887655
C  C49  1  0.03196000  0.13859000  0.05810000  1.0 0.5994468727
C  C50  1  0.96804000  0.86141000  0.94190000  1.0 0.5994468727
C  C51  1  0.46804000  0.86141000  0.55810000  1.0 0.5994468727
C  C52  1  0.53196000  0.13859000  0.44190000  1.0 0.5994468727
C  C53  1  0.96804000  0.63859000  0.44190000  1.0 0.5994468727
C  C54  1  0.03196000  0.36141000  0.55810000  1.0 0.5994468727
C  C55  1  0.53196000  0.36141000  0.94190000  1.0 0.5994468727
C  C56  1  0.46804000  0.63859000  0.05810000  1.0 0.5994468727
C  C57  1  0.27587000  0.37938000  0.97581000  1.0 0.5542207159
C  C58  1  0.72413000  0.62062000  0.02419000  1.0 0.5542207159
C  C59  1  0.22413000  0.62062000  0.47581000  1.0 0.5542207159
C  C60  1  0.77587000  0.37938000  0.52419000  1.0 0.5542207159
C  C61  1  0.72413000  0.87938000  0.52419000  1.0 0.5542207159
C  C62  1  0.27587000  0.12062000  0.47581000  1.0 0.5542207159
C  C63  1  0.77587000  0.12062000  0.02419000  1.0 0.5542207159
C  C64  1  0.22413000  0.87938000  0.97581000  1.0 0.5542207159
C  C65  1  0.08798000  0.23492000  0.08312000  1.0 -0.0382133593
C  C66  1  0.91202000  0.76508000  0.91688000  1.0 -0.0382133593
C  C67  1  0.41202000  0.76508000  0.58312000  1.0 -0.0382133593
C  C68  1  0.58798000  0.23492000  0.41688000  1.0 -0.0382133593
C  C69  1  0.91202000  0.73492000  0.41688000  1.0 -0.0382133593
C  C70  1  0.08798000  0.26508000  0.58312000  1.0 -0.0382133593
C  C71  1  0.58798000  0.26508000  0.91688000  1.0 -0.0382133593
C  C72  1  0.41202000  0.73492000  0.08312000  1.0 -0.0382133593
O  O1  1  0.05420000  0.39091000  0.31183000  1.0 -0.4388483331
O  O2  1  0.94580000  0.60909000  0.68817000  1.0 -0.4388483331
O  O3  1  0.44580000  0.60909000  0.81183000  1.0 -0.4388483331
O  O4  1  0.55420000  0.39091000  0.18817000  1.0 -0.4388483331
O  O5  1  0.94580000  0.89091000  0.18817000  1.0 -0.4388483331
O  O6  1  0.05420000  0.10909000  0.81183000  1.0 -0.4388483331
O  O7  1  0.55420000  0.10909000  0.68817000  1.0 -0.4388483331
O  O8  1  0.44580000  0.89091000  0.31183000  1.0 -0.4388483331
O  O9  1  0.16357000  0.50170000  0.30117000  1.0 -0.4315199308
O  O10  1  0.83643000  0.49830000  0.69883000  1.0 -0.4315199308
O  O11  1  0.33643000  0.49830000  0.80117000  1.0 -0.4315199308
O  O12  1  0.66357000  0.50170000  0.19883000  1.0 -0.4315199308
O  O13  1  0.83643000  0.00170000  0.19883000  1.0 -0.4315199308
O  O14  1  0.16357000  0.99830000  0.80117000  1.0 -0.4315199308
O  O15  1  0.66357000  0.99830000  0.69883000  1.0 -0.4315199308
O  O16  1  0.33643000  0.00170000  0.30117000  1.0 -0.4315199308
O  O17  1  0.03845000  0.10635000  0.98304000  1.0 -0.4955540873
O  O18  1  0.96155000  0.89365000  0.01696000  1.0 -0.4947255827
O  O19  1  0.46155000  0.89365000  0.48304000  1.0 -0.4955540873
O  O20  1  0.53845000  0.10635000  0.51696000  1.0 -0.4947255827
O  O21  1  0.96155000  0.60635000  0.51696000  1.0 -0.4955540873
O  O22  1  0.03845000  0.39365000  0.48304000  1.0 -0.4947255827
O  O23  1  0.53845000  0.39365000  0.01696000  1.0 -0.4947255827
O  O24  1  0.46155000  0.60635000  0.98304000  1.0 -0.4955540873
O  O25  1  0.97854000  0.10014000  0.11409000  1.0 -0.4811602175
O  O26  1  0.02146000  0.89986000  0.88591000  1.0 -0.4811602175
O  O27  1  0.52146000  0.89986000  0.61409000  1.0 -0.4811602175
O  O28  1  0.47854000  0.10014000  0.38591000  1.0 -0.4811602175
O  O29  1  0.02146000  0.60014000  0.38591000  1.0 -0.4811602175
O  O30  1  0.97854000  0.39986000  0.61409000  1.0 -0.4811602175
O  O31  1  0.47854000  0.39986000  0.88591000  1.0 -0.4811602175
O  O32  1  0.52146000  0.60014000  0.11409000  1.0 -0.4811602175
O  O33  1  0.32804000  0.46606000  0.98699000  1.0 -0.5274754144
O  O34  1  0.67196000  0.53394000  0.01301000  1.0 -0.5274754144
O  O35  1  0.17196000  0.53394000  0.48699000  1.0 -0.5274754144
O  O36  1  0.82804000  0.46606000  0.51301000  1.0 -0.5274754144
O  O37  1  0.67196000  0.96606000  0.51301000  1.0 -0.5274754144
O  O38  1  0.32804000  0.03394000  0.48699000  1.0 -0.5274754144
O  O39  1  0.82804000  0.03394000  0.01301000  1.0 -0.5274754144
O  O40  1  0.17196000  0.96606000  0.98699000  1.0 -0.5274754144
O  O41  1  0.28119000  0.31499000  0.91684000  1.0 -0.4688552447
O  O42  1  0.71881000  0.68501000  0.08316000  1.0 -0.4688552447
O  O43  1  0.21881000  0.68501000  0.41684000  1.0 -0.4688552447
O  O44  1  0.78119000  0.31499000  0.58316000  1.0 -0.4688552447
O  O45  1  0.71881000  0.81499000  0.58316000  1.0 -0.4688552447
O  O46  1  0.28119000  0.18501000  0.41684000  1.0 -0.4688552447
O  O47  1  0.78119000  0.18501000  0.08316000  1.0 -0.4688552447
O  O48  1  0.21881000  0.81499000  0.91684000  1.0 -0.4688552447
