# DDEC6 charges by PACMAN v1.1 (https://github.com/mtap-research/PACMAN-charge/)
data_CIPRID_FSR_pacman
_symmetry_space_group_name_H-M   'P 1'
_cell_length_a   14.23700000
_cell_length_b   15.73900000
_cell_length_c   16.61100000
_cell_angle_alpha   90.00000000
_cell_angle_beta   90.00000000
_cell_angle_gamma   90.00000000
_symmetry_Int_Tables_number   1
_chemical_formula_structural   LaNi2H32C22S4(N3O8)2
_chemical_formula_sum   'La4 Ni8 H128 C88 S16 N24 O64'
_cell_volume   3722.12881137
_cell_formula_units_Z   4
loop_
 _symmetry_equiv_pos_site_id
 _symmetry_equiv_pos_as_xyz
  1  'x, y, z'
loop_
 _atom_site_type_symbol
 _atom_site_label
 _atom_site_symmetry_multiplicity
 _atom_site_fract_x
 _atom_site_fract_y
 _atom_site_fract_z
 _atom_site_occupancy
 _atom_site_charge
La  La1  1  0.89144000  0.25000000  0.25000000  1.0 1.8552000594
La  La2  1  0.60856000  0.75000000  0.75000000  1.0 1.8552000594
La  La3  1  0.10856000  0.75000000  0.75000000  1.0 1.8552000594
La  La4  1  0.39144000  0.25000000  0.25000000  1.0 1.8552000594
Ni  Ni1  1  0.71258000  0.44005000  0.11599000  1.0 0.6306536306
Ni  Ni2  1  0.71258000  0.05995000  0.38401000  1.0 0.6306536306
Ni  Ni3  1  0.78742000  0.55995000  0.61599000  1.0 0.6306536306
Ni  Ni4  1  0.78742000  0.94005000  0.88401000  1.0 0.6306536306
Ni  Ni5  1  0.28742000  0.55995000  0.88401000  1.0 0.6306536306
Ni  Ni6  1  0.28742000  0.94005000  0.61599000  1.0 0.6306536306
Ni  Ni7  1  0.21258000  0.44005000  0.38401000  1.0 0.6306536306
Ni  Ni8  1  0.21258000  0.05995000  0.11599000  1.0 0.6306536306
H  H1  1  0.90380000  0.26530000  0.42960000  1.0 0.3460106324
H  H2  1  0.90380000  0.23470000  0.07040000  1.0 0.3460106324
H  H3  1  0.59620000  0.73470000  0.92960000  1.0 0.3460106324
H  H4  1  0.59620000  0.76530000  0.57040000  1.0 0.3460106324
H  H5  1  0.09620000  0.73470000  0.57040000  1.0 0.3460106324
H  H6  1  0.09620000  0.76530000  0.92960000  1.0 0.3460106324
H  H7  1  0.40380000  0.26530000  0.07040000  1.0 0.3460106324
H  H8  1  0.40380000  0.23470000  0.42960000  1.0 0.3460106324
H  H9  1  0.99250000  0.22720000  0.40720000  1.0 0.3929049145
H  H10  1  0.99250000  0.27280000  0.09280000  1.0 0.3929049145
H  H11  1  0.50750000  0.77280000  0.90720000  1.0 0.3929049145
H  H12  1  0.50750000  0.72720000  0.59280000  1.0 0.3929049145
H  H13  1  0.00750000  0.77280000  0.59280000  1.0 0.3929049145
H  H14  1  0.00750000  0.72720000  0.90720000  1.0 0.3929049145
H  H15  1  0.49250000  0.22720000  0.09280000  1.0 0.3929049145
H  H16  1  0.49250000  0.27280000  0.40720000  1.0 0.3929049145
H  H17  1  0.70160000  0.24220000  0.33460000  1.0 0.3795363676
H  H18  1  0.70160000  0.25780000  0.16540000  1.0 0.3795363676
H  H19  1  0.79840000  0.75780000  0.83460000  1.0 0.3795363676
H  H20  1  0.79840000  0.74220000  0.66540000  1.0 0.3795363676
H  H21  1  0.29840000  0.75780000  0.66540000  1.0 0.3795363676
H  H22  1  0.29840000  0.74220000  0.83460000  1.0 0.3795363676
H  H23  1  0.20160000  0.24220000  0.16540000  1.0 0.3795363676
H  H24  1  0.20160000  0.25780000  0.33460000  1.0 0.3795363676
H  H25  1  0.75380000  0.30790000  0.37670000  1.0 0.357051618
H  H26  1  0.75380000  0.19210000  0.12330000  1.0 0.357051618
H  H27  1  0.74620000  0.69210000  0.87670000  1.0 0.357051618
H  H28  1  0.74620000  0.80790000  0.62330000  1.0 0.357051618
H  H29  1  0.24620000  0.69210000  0.62330000  1.0 0.357051618
H  H30  1  0.24620000  0.80790000  0.87670000  1.0 0.357051618
H  H31  1  0.25380000  0.30790000  0.12330000  1.0 0.357051618
H  H32  1  0.25380000  0.19210000  0.37670000  1.0 0.357051618
H  H33  1  0.77570000  0.53980000  0.31180000  1.0 0.1237799149
H  H34  1  0.77570000  0.96020000  0.18820000  1.0 0.1237799149
H  H35  1  0.72430000  0.46020000  0.81180000  1.0 0.1237799149
H  H36  1  0.72430000  0.03980000  0.68820000  1.0 0.1237799149
H  H37  1  0.22430000  0.46020000  0.68820000  1.0 0.1237799149
H  H38  1  0.22430000  0.03980000  0.81180000  1.0 0.1237799149
H  H39  1  0.27570000  0.53980000  0.18820000  1.0 0.1237799149
H  H40  1  0.27570000  0.96020000  0.31180000  1.0 0.1237799149
H  H41  1  0.81910000  0.56410000  0.22780000  1.0 0.1408649213
H  H42  1  0.81910000  0.93590000  0.27220000  1.0 0.1408649213
H  H43  1  0.68090000  0.43590000  0.72780000  1.0 0.1408649213
H  H44  1  0.68090000  0.06410000  0.77220000  1.0 0.1408649213
H  H45  1  0.18090000  0.43590000  0.77220000  1.0 0.1408649213
H  H46  1  0.18090000  0.06410000  0.72780000  1.0 0.1408649213
H  H47  1  0.31910000  0.56410000  0.27220000  1.0 0.1408649213
H  H48  1  0.31910000  0.93590000  0.22780000  1.0 0.1408649213
H  H49  1  0.57150000  0.50120000  0.28380000  1.0 0.1408649213
H  H50  1  0.57150000  0.99880000  0.21620000  1.0 0.1408649213
H  H51  1  0.92850000  0.49880000  0.78380000  1.0 0.1408649213
H  H52  1  0.92850000  0.00120000  0.71620000  1.0 0.1408649213
H  H53  1  0.42850000  0.49880000  0.71620000  1.0 0.1408649213
H  H54  1  0.42850000  0.00120000  0.78380000  1.0 0.1408649213
H  H55  1  0.07150000  0.50120000  0.21620000  1.0 0.1408649213
H  H56  1  0.07150000  0.99880000  0.28380000  1.0 0.1408649213
H  H57  1  0.65650000  0.45240000  0.32170000  1.0 0.1530247699
H  H58  1  0.65650000  0.04760000  0.17830000  1.0 0.1530247699
H  H59  1  0.84350000  0.54760000  0.82170000  1.0 0.1530247699
H  H60  1  0.84350000  0.95240000  0.67830000  1.0 0.1530247699
H  H61  1  0.34350000  0.54760000  0.67830000  1.0 0.1530247699
H  H62  1  0.34350000  0.95240000  0.82170000  1.0 0.1530247699
H  H63  1  0.15650000  0.45240000  0.17830000  1.0 0.1530247699
H  H64  1  0.15650000  0.04760000  0.32170000  1.0 0.1530247699
H  H65  1  0.69680000  0.62810000  0.16670000  1.0 0.0862300411
H  H66  1  0.69680000  0.87190000  0.33333333  1.0 0.0862300411
H  H67  1  0.80320000  0.37190000  0.66666667  1.0 0.0862300411
H  H68  1  0.80320000  0.12810000  0.83330000  1.0 0.0862300411
H  H69  1  0.30320000  0.37190000  0.83330000  1.0 0.0862300411
H  H70  1  0.30320000  0.12810000  0.66666667  1.0 0.0862300411
H  H71  1  0.19680000  0.62810000  0.33333333  1.0 0.0862300411
H  H72  1  0.19680000  0.87190000  0.16670000  1.0 0.0862300411
H  H73  1  0.62070000  0.62300000  0.23510000  1.0 0.0978389231
H  H74  1  0.62070000  0.87700000  0.26490000  1.0 0.0978389231
H  H75  1  0.87930000  0.37700000  0.73510000  1.0 0.0978389231
H  H76  1  0.87930000  0.12300000  0.76490000  1.0 0.0978389231
H  H77  1  0.37930000  0.37700000  0.76490000  1.0 0.0978389231
H  H78  1  0.37930000  0.12300000  0.73510000  1.0 0.0978389231
H  H79  1  0.12070000  0.62300000  0.26490000  1.0 0.0978389231
H  H80  1  0.12070000  0.87700000  0.23510000  1.0 0.0978389231
H  H81  1  0.52220000  0.54150000  0.15260000  1.0 0.1099884134
H  H82  1  0.52220000  0.95850000  0.34740000  1.0 0.1099884134
H  H83  1  0.97780000  0.45850000  0.65260000  1.0 0.1099884134
H  H84  1  0.97780000  0.04150000  0.84740000  1.0 0.1099884134
H  H85  1  0.47780000  0.45850000  0.84740000  1.0 0.1099884134
H  H86  1  0.47780000  0.04150000  0.65260000  1.0 0.1099884134
H  H87  1  0.02220000  0.54150000  0.34740000  1.0 0.1099884134
H  H88  1  0.02220000  0.95850000  0.15260000  1.0 0.1099884134
H  H89  1  0.54770000  0.62530000  0.10640000  1.0 0.0978389231
H  H90  1  0.54770000  0.87470000  0.39360000  1.0 0.0978389231
H  H91  1  0.95230000  0.37470000  0.60640000  1.0 0.0978389231
H  H92  1  0.95230000  0.12530000  0.89360000  1.0 0.0978389231
H  H93  1  0.45230000  0.37470000  0.89360000  1.0 0.0978389231
H  H94  1  0.45230000  0.12530000  0.60640000  1.0 0.0978389231
H  H95  1  0.04770000  0.62530000  0.39360000  1.0 0.0978389231
H  H96  1  0.04770000  0.87470000  0.10640000  1.0 0.0978389231
H  H97  1  0.64270000  0.63310000  0.00670000  1.0 0.0978389231
H  H98  1  0.64270000  0.86690000  0.49330000  1.0 0.0978389231
H  H99  1  0.85730000  0.36690000  0.50670000  1.0 0.0978389231
H  H100  1  0.85730000  0.13310000  0.99330000  1.0 0.0978389231
H  H101  1  0.35730000  0.36690000  0.99330000  1.0 0.0978389231
H  H102  1  0.35730000  0.13310000  0.50670000  1.0 0.0978389231
H  H103  1  0.14270000  0.63310000  0.49330000  1.0 0.0978389231
H  H104  1  0.14270000  0.86690000  0.00670000  1.0 0.0978389231
H  H105  1  0.64890000  0.55590000  0.94760000  1.0 0.1296300418
H  H106  1  0.64890000  0.94410000  0.55240000  1.0 0.1296300418
H  H107  1  0.85110000  0.44410000  0.44760000  1.0 0.1296300418
H  H108  1  0.85110000  0.05590000  0.05240000  1.0 0.1296300418
H  H109  1  0.35110000  0.44410000  0.05240000  1.0 0.1296300418
H  H110  1  0.35110000  0.05590000  0.44760000  1.0 0.1296300418
H  H111  1  0.14890000  0.55590000  0.55240000  1.0 0.1296300418
H  H112  1  0.14890000  0.94410000  0.94760000  1.0 0.1296300418
H  H113  1  0.50960000  0.43450000  0.05710000  1.0 0.1099884134
H  H114  1  0.50960000  0.06550000  0.44290000  1.0 0.1099884134
H  H115  1  0.99040000  0.56550000  0.55710000  1.0 0.1099884134
H  H116  1  0.99040000  0.93450000  0.94290000  1.0 0.1099884134
H  H117  1  0.49040000  0.56550000  0.94290000  1.0 0.1099884134
H  H118  1  0.49040000  0.93450000  0.55710000  1.0 0.1099884134
H  H119  1  0.00960000  0.43450000  0.44290000  1.0 0.1099884134
H  H120  1  0.00960000  0.06550000  0.05710000  1.0 0.1099884134
H  H121  1  0.56710000  0.43900000  0.97690000  1.0 0.0978389231
H  H122  1  0.56710000  0.06100000  0.52310000  1.0 0.0978389231
H  H123  1  0.93290000  0.56100000  0.47690000  1.0 0.0978389231
H  H124  1  0.93290000  0.93900000  0.02310000  1.0 0.0978389231
H  H125  1  0.43290000  0.56100000  0.02310000  1.0 0.0978389231
H  H126  1  0.43290000  0.93900000  0.47690000  1.0 0.0978389231
H  H127  1  0.06710000  0.43900000  0.52310000  1.0 0.0978389231
H  H128  1  0.06710000  0.06100000  0.97690000  1.0 0.0978389231
C  C1  1  0.83200000  0.43670000  0.25290000  1.0 0.5983564627
C  C2  1  0.83200000  0.06330000  0.24710000  1.0 0.5983564627
C  C3  1  0.66800000  0.56330000  0.75290000  1.0 0.5983564627
C  C4  1  0.66800000  0.93670000  0.74710000  1.0 0.5983564627
C  C5  1  0.16800000  0.56330000  0.74710000  1.0 0.5983564627
C  C6  1  0.16800000  0.93670000  0.75290000  1.0 0.5983564627
C  C7  1  0.33200000  0.43670000  0.24710000  1.0 0.5983564627
C  C8  1  0.33200000  0.06330000  0.25290000  1.0 0.5983564627
C  C9  1  0.78260000  0.52160000  0.25630000  1.0 -0.2746068876
C  C10  1  0.78260000  0.97840000  0.24370000  1.0 -0.2746068876
C  C11  1  0.71740000  0.47840000  0.75630000  1.0 -0.2746068876
C  C12  1  0.71740000  0.02160000  0.74370000  1.0 -0.2746068876
C  C13  1  0.21740000  0.47840000  0.74370000  1.0 -0.2746068876
C  C14  1  0.21740000  0.02160000  0.75630000  1.0 -0.2746068876
C  C15  1  0.28260000  0.52160000  0.24370000  1.0 -0.2746068876
C  C16  1  0.28260000  0.97840000  0.25630000  1.0 -0.2746068876
C  C17  1  0.62470000  0.46490000  0.27140000  1.0 -0.2895475369
C  C18  1  0.62470000  0.03510000  0.22860000  1.0 -0.2895475369
C  C19  1  0.87530000  0.53510000  0.77140000  1.0 -0.2895475369
C  C20  1  0.87530000  0.96490000  0.72860000  1.0 -0.2895475369
C  C21  1  0.37530000  0.53510000  0.72860000  1.0 -0.2895475369
C  C22  1  0.37530000  0.96490000  0.77140000  1.0 -0.2895475369
C  C23  1  0.12470000  0.46490000  0.22860000  1.0 -0.2895475369
C  C24  1  0.12470000  0.03510000  0.27140000  1.0 -0.2895475369
C  C25  1  0.58830000  0.38280000  0.23640000  1.0 0.6306536306
C  C26  1  0.58830000  0.11720000  0.26360000  1.0 0.6306536306
C  C27  1  0.91170000  0.61720000  0.73640000  1.0 0.6306536306
C  C28  1  0.91170000  0.88280000  0.76360000  1.0 0.6306536306
C  C29  1  0.41170000  0.61720000  0.76360000  1.0 0.6306536306
C  C30  1  0.41170000  0.88280000  0.73640000  1.0 0.6306536306
C  C31  1  0.08830000  0.38280000  0.26360000  1.0 0.6306536306
C  C32  1  0.08830000  0.11720000  0.23640000  1.0 0.6306536306
C  C33  1  0.64850000  0.59250000  0.19030000  1.0 -0.1586892683
C  C34  1  0.64850000  0.90750000  0.30970000  1.0 -0.1586892683
C  C35  1  0.85150000  0.40750000  0.69030000  1.0 -0.1586892683
C  C36  1  0.85150000  0.09250000  0.80970000  1.0 -0.1586892683
C  C37  1  0.35150000  0.40750000  0.80970000  1.0 -0.1586892683
C  C38  1  0.35150000  0.09250000  0.69030000  1.0 -0.1586892683
C  C39  1  0.14850000  0.59250000  0.30970000  1.0 -0.1586892683
C  C40  1  0.14850000  0.90750000  0.19030000  1.0 -0.1586892683
C  C41  1  0.57310000  0.57260000  0.12730000  1.0 -0.1412874613
C  C42  1  0.57310000  0.92740000  0.37270000  1.0 -0.1412874613
C  C43  1  0.92690000  0.42740000  0.62730000  1.0 -0.1412874613
C  C44  1  0.92690000  0.07260000  0.87270000  1.0 -0.1412874613
C  C45  1  0.42690000  0.42740000  0.87270000  1.0 -0.1412874613
C  C46  1  0.42690000  0.07260000  0.62730000  1.0 -0.1412874613
C  C47  1  0.07310000  0.57260000  0.37270000  1.0 -0.1412874613
C  C48  1  0.07310000  0.92740000  0.12730000  1.0 -0.1412874613
C  C49  1  0.66400000  0.57480000  0.00160000  1.0 -0.3085816879
C  C50  1  0.66400000  0.92520000  0.49840000  1.0 -0.3085816879
C  C51  1  0.83600000  0.42520000  0.50160000  1.0 -0.3085816879
C  C52  1  0.83600000  0.07480000  0.99840000  1.0 -0.3085816879
C  C53  1  0.33600000  0.42520000  0.99840000  1.0 -0.3085816879
C  C54  1  0.33600000  0.07480000  0.50160000  1.0 -0.3085816879
C  C55  1  0.16400000  0.57480000  0.49840000  1.0 -0.3085816879
C  C56  1  0.16400000  0.92520000  0.00160000  1.0 -0.3085816879
C  C57  1  0.77020000  0.57260000  0.01250000  1.0 0.5911097746
C  C58  1  0.77020000  0.92740000  0.48750000  1.0 0.5911097746
C  C59  1  0.72980000  0.42740000  0.51250000  1.0 0.5911097746
C  C60  1  0.72980000  0.07260000  0.98750000  1.0 0.5911097746
C  C61  1  0.22980000  0.42740000  0.98750000  1.0 0.5911097746
C  C62  1  0.22980000  0.07260000  0.51250000  1.0 0.5911097746
C  C63  1  0.27020000  0.57260000  0.48750000  1.0 0.5911097746
C  C64  1  0.27020000  0.92740000  0.01250000  1.0 0.5911097746
C  C65  1  0.53820000  0.47310000  0.01880000  1.0 -0.1412874613
C  C66  1  0.53820000  0.02690000  0.48120000  1.0 -0.1412874613
C  C67  1  0.96180000  0.52690000  0.51880000  1.0 -0.1412874613
C  C68  1  0.96180000  0.97310000  0.98120000  1.0 -0.1412874613
C  C69  1  0.46180000  0.52690000  0.98120000  1.0 -0.1412874613
C  C70  1  0.46180000  0.97310000  0.51880000  1.0 -0.1412874613
C  C71  1  0.03820000  0.47310000  0.48120000  1.0 -0.1412874613
C  C72  1  0.03820000  0.02690000  0.01880000  1.0 -0.1412874613
C  C73  1  0.76690000  0.34130000  0.97100000  1.0 0.0978389231
C  C74  1  0.76690000  0.15870000  0.52900000  1.0 0.0978389231
C  C75  1  0.73310000  0.65870000  0.47100000  1.0 0.0978389231
C  C76  1  0.73310000  0.84130000  0.02900000  1.0 0.0978389231
C  C77  1  0.23310000  0.65870000  0.02900000  1.0 0.0978389231
C  C78  1  0.23310000  0.84130000  0.47100000  1.0 0.0978389231
C  C79  1  0.26690000  0.34130000  0.52900000  1.0 0.0978389231
C  C80  1  0.26690000  0.15870000  0.97100000  1.0 0.0978389231
C  C81  1  0.72300000  0.32710000  0.96950000  1.0 0.0978389231
C  C82  1  0.72300000  0.17290000  0.53050000  1.0 0.0978389231
C  C83  1  0.77700000  0.67290000  0.46950000  1.0 0.0978389231
C  C84  1  0.77700000  0.82710000  0.03050000  1.0 0.0978389231
C  C85  1  0.27700000  0.67290000  0.03050000  1.0 0.0978389231
C  C86  1  0.27700000  0.82710000  0.46950000  1.0 0.0978389231
C  C87  1  0.22300000  0.32710000  0.53050000  1.0 0.0978389231
C  C88  1  0.22300000  0.17290000  0.96950000  1.0 0.0978389231
S  S1  1  0.81450000  0.29720000  0.88380000  1.0 -0.002311648
S  S2  1  0.81450000  0.20280000  0.61620000  1.0 -0.002311648
S  S3  1  0.68550000  0.70280000  0.38380000  1.0 -0.002311648
S  S4  1  0.68550000  0.79720000  0.11620000  1.0 -0.002311648
S  S5  1  0.18550000  0.70280000  0.11620000  1.0 -0.002311648
S  S6  1  0.18550000  0.79720000  0.38380000  1.0 -0.002311648
S  S7  1  0.31450000  0.29720000  0.61620000  1.0 -0.002311648
S  S8  1  0.31450000  0.20280000  0.88380000  1.0 -0.002311648
S  S9  1  0.72050000  0.28010000  0.87260000  1.0 0.0139322668
S  S10  1  0.72050000  0.21990000  0.62740000  1.0 0.0139322668
S  S11  1  0.77950000  0.71990000  0.37260000  1.0 0.0139322668
S  S12  1  0.77950000  0.78010000  0.12740000  1.0 0.0139322668
S  S13  1  0.27950000  0.71990000  0.12740000  1.0 0.0139322668
S  S14  1  0.27950000  0.78010000  0.37260000  1.0 0.0139322668
S  S15  1  0.22050000  0.28010000  0.62740000  1.0 0.0139322668
S  S16  1  0.22050000  0.21990000  0.87260000  1.0 0.0139322668
N  N1  1  0.68990000  0.51240000  0.21880000  1.0 0.0044809644
N  N2  1  0.68990000  0.98760000  0.28120000  1.0 0.0044809644
N  N3  1  0.81010000  0.48760000  0.71880000  1.0 0.0044809644
N  N4  1  0.81010000  0.01240000  0.78120000  1.0 0.0044809644
N  N5  1  0.31010000  0.48760000  0.78120000  1.0 0.0044809644
N  N6  1  0.31010000  0.01240000  0.71880000  1.0 0.0044809644
N  N7  1  0.18990000  0.51240000  0.28120000  1.0 0.0044809644
N  N8  1  0.18990000  0.98760000  0.21880000  1.0 0.0044809644
N  N9  1  0.61180000  0.52160000  0.06010000  1.0 -0.0579360653
N  N10  1  0.61180000  0.97840000  0.43990000  1.0 -0.0579360653
N  N11  1  0.88820000  0.47840000  0.56010000  1.0 -0.0579360653
N  N12  1  0.88820000  0.02160000  0.93990000  1.0 -0.0579360653
N  N13  1  0.38820000  0.47840000  0.93990000  1.0 -0.0579360653
N  N14  1  0.38820000  0.02160000  0.56010000  1.0 -0.0579360653
N  N15  1  0.11180000  0.52160000  0.43990000  1.0 -0.0579360653
N  N16  1  0.11180000  0.97840000  0.06010000  1.0 -0.0579360653
N  N17  1  0.73270000  0.36550000  0.02460000  1.0 -0.2623196024
N  N18  1  0.73270000  0.13450000  0.47540000  1.0 -0.2623196024
N  N19  1  0.76730000  0.63450000  0.52460000  1.0 -0.2623196024
N  N20  1  0.76730000  0.86550000  0.97540000  1.0 -0.2623196024
N  N21  1  0.26730000  0.63450000  0.97540000  1.0 -0.2623196024
N  N22  1  0.26730000  0.86550000  0.52460000  1.0 -0.2623196024
N  N23  1  0.23270000  0.36550000  0.47540000  1.0 -0.2623196024
N  N24  1  0.23270000  0.13450000  0.02460000  1.0 -0.2623196024
O  O1  1  0.81720000  0.39000000  0.19130000  1.0 -0.5807338882
O  O2  1  0.81720000  0.11000000  0.30870000  1.0 -0.5807338882
O  O3  1  0.68280000  0.61000000  0.69130000  1.0 -0.5807338882
O  O4  1  0.68280000  0.89000000  0.80870000  1.0 -0.5807338882
O  O5  1  0.18280000  0.61000000  0.80870000  1.0 -0.5807338882
O  O6  1  0.18280000  0.89000000  0.69130000  1.0 -0.5807338882
O  O7  1  0.31720000  0.39000000  0.30870000  1.0 -0.5807338882
O  O8  1  0.31720000  0.11000000  0.19130000  1.0 -0.5807338882
O  O9  1  0.88330000  0.41400000  0.30930000  1.0 -0.5472944904
O  O10  1  0.88330000  0.08600000  0.19070000  1.0 -0.5472944904
O  O11  1  0.61670000  0.58600000  0.80930000  1.0 -0.5472944904
O  O12  1  0.61670000  0.91400000  0.69070000  1.0 -0.5472944904
O  O13  1  0.11670000  0.58600000  0.69070000  1.0 -0.5472944904
O  O14  1  0.11670000  0.91400000  0.80930000  1.0 -0.5472944904
O  O15  1  0.38330000  0.41400000  0.19070000  1.0 -0.5472944904
O  O16  1  0.38330000  0.08600000  0.30930000  1.0 -0.5472944904
O  O17  1  0.61490000  0.36150000  0.16660000  1.0 -0.5251611401
O  O18  1  0.61490000  0.13850000  0.33340000  1.0 -0.5251611401
O  O19  1  0.88510000  0.63850000  0.66666667  1.0 -0.5251611401
O  O20  1  0.88510000  0.86150000  0.83340000  1.0 -0.5251611401
O  O21  1  0.38510000  0.63850000  0.83340000  1.0 -0.5251611401
O  O22  1  0.38510000  0.86150000  0.66666667  1.0 -0.5222373733
O  O23  1  0.11490000  0.36150000  0.33340000  1.0 -0.5251611401
O  O24  1  0.11490000  0.13850000  0.16660000  1.0 -0.5251611401
O  O25  1  0.53180000  0.34180000  0.27840000  1.0 -0.6022352506
O  O26  1  0.53180000  0.15820000  0.22160000  1.0 -0.6022352506
O  O27  1  0.96820000  0.65820000  0.77840000  1.0 -0.6022352506
O  O28  1  0.96820000  0.84180000  0.72160000  1.0 -0.6022352506
O  O29  1  0.46820000  0.65820000  0.72160000  1.0 -0.6022352506
O  O30  1  0.46820000  0.84180000  0.77840000  1.0 -0.6022352506
O  O31  1  0.03180000  0.34180000  0.22160000  1.0 -0.6022352506
O  O32  1  0.03180000  0.15820000  0.27840000  1.0 -0.6022352506
O  O33  1  0.80520000  0.52670000  0.06830000  1.0 -0.5222373733
O  O34  1  0.80520000  0.97330000  0.43170000  1.0 -0.5222373733
O  O35  1  0.69480000  0.47330000  0.56830000  1.0 -0.5222373733
O  O36  1  0.69480000  0.02670000  0.93170000  1.0 -0.5222373733
O  O37  1  0.19480000  0.47330000  0.93170000  1.0 -0.5222373733
O  O38  1  0.19480000  0.02670000  0.56830000  1.0 -0.5222373733
O  O39  1  0.30520000  0.52670000  0.43170000  1.0 -0.5222373733
O  O40  1  0.30520000  0.97330000  0.06830000  1.0 -0.5222373733
O  O41  1  0.81750000  0.61640000  0.96450000  1.0 -0.5563256968
O  O42  1  0.81750000  0.88360000  0.53550000  1.0 -0.5563256968
O  O43  1  0.68250000  0.38360000  0.46450000  1.0 -0.5563256968
O  O44  1  0.68250000  0.11640000  0.03550000  1.0 -0.5563256968
O  O45  1  0.18250000  0.38360000  0.03550000  1.0 -0.5563256968
O  O46  1  0.18250000  0.11640000  0.46450000  1.0 -0.5563256968
O  O47  1  0.31750000  0.61640000  0.53550000  1.0 -0.5563256968
O  O48  1  0.31750000  0.88360000  0.96450000  1.0 -0.5563256968
O  O49  1  0.94980000  0.26320000  0.39630000  1.0 -0.7329175103
O  O50  1  0.94980000  0.23680000  0.10370000  1.0 -0.7329175103
O  O51  1  0.55020000  0.73680000  0.89630000  1.0 -0.7329175103
O  O52  1  0.55020000  0.76320000  0.60370000  1.0 -0.7329175103
O  O53  1  0.05020000  0.73680000  0.60370000  1.0 -0.7329175103
O  O54  1  0.05020000  0.76320000  0.89630000  1.0 -0.7329175103
O  O55  1  0.44980000  0.26320000  0.10370000  1.0 -0.7329175103
O  O56  1  0.44980000  0.23680000  0.39630000  1.0 -0.7329175103
O  O57  1  0.74120000  0.28200000  0.33350000  1.0 -0.7505877693
O  O58  1  0.74120000  0.21800000  0.16650000  1.0 -0.7505877693
O  O59  1  0.75880000  0.71800000  0.83350000  1.0 -0.7505877693
O  O60  1  0.75880000  0.78200000  0.66650000  1.0 -0.7505877693
O  O61  1  0.25880000  0.71800000  0.66650000  1.0 -0.7505877693
O  O62  1  0.25880000  0.78200000  0.83350000  1.0 -0.7505877693
O  O63  1  0.24120000  0.28200000  0.16650000  1.0 -0.7505877693
O  O64  1  0.24120000  0.21800000  0.33350000  1.0 -0.7505877693
