# DDEC6 charges by PACMAN v1.1 (https://github.com/mtap-research/PACMAN-charge/)
data_CIQVIK_ASR_pacman
_symmetry_space_group_name_H-M   'P 1'
_cell_length_a   13.33070000
_cell_length_b   13.33070000
_cell_length_c   40.23800000
_cell_angle_alpha   87.35610000
_cell_angle_beta   92.64390000
_cell_angle_gamma   122.91500000
_symmetry_Int_Tables_number   1
_chemical_formula_structural   NiH14C15N4
_chemical_formula_sum   'Ni12 H168 C180 N48'
_cell_volume   5994.48462676
_cell_formula_units_Z   12
loop_
 _symmetry_equiv_pos_site_id
 _symmetry_equiv_pos_as_xyz
  1  'x, y, z'
loop_
 _atom_site_type_symbol
 _atom_site_label
 _atom_site_symmetry_multiplicity
 _atom_site_fract_x
 _atom_site_fract_y
 _atom_site_fract_z
 _atom_site_occupancy
 _atom_site_charge
Ni  Ni1  1  0.82956000  0.20096000  0.58679000  1.0 0.1183848421
Ni  Ni2  1  0.67322000  0.83772000  0.66281000  1.0 0.5861211799
Ni  Ni3  1  0.20096000  0.82956000  0.91321000  1.0 0.1183848421
Ni  Ni4  1  0.83772000  0.67322000  0.83719000  1.0 0.5861211799
Ni  Ni5  1  0.17044000  0.79904000  0.41321000  1.0 0.1183848421
Ni  Ni6  1  0.32678000  0.16228000  0.33719000  1.0 0.5861211799
Ni  Ni7  1  0.79904000  0.17044000  0.08679000  1.0 0.1092992905
Ni  Ni8  1  0.16228000  0.32678000  0.16281000  1.0 0.5861211799
Ni  Ni9  1  0.50000000  0.00000000  0.50000000  1.0 0.5861211799
Ni  Ni10  1  0.00000000  0.50000000  0.00000000  1.0 0.5861211799
Ni  Ni11  1  0.50380000  0.50380000  0.75000000  1.0 0.1183848421
Ni  Ni12  1  0.49620000  0.49620000  0.25000000  1.0 0.1183848421
H  H1  1  0.83310000  0.75530000  0.69290000  1.0 0.1002629312
H  H2  1  0.95430000  0.69190000  0.67650000  1.0 0.1315148591
H  H3  1  0.88860000  0.75200000  0.58030000  1.0 0.1403948126
H  H4  1  0.78260000  0.82580000  0.60000000  1.0 0.1092992905
H  H5  1  0.03460000  0.70000000  0.59110000  1.0 0.1092992905
H  H6  1  0.94310000  0.57330000  0.60830000  1.0 0.1315148591
H  H7  1  0.15060000  0.75680000  0.64260000  1.0 0.0797636596
H  H8  1  0.06460000  0.62140000  0.65580000  1.0 0.1002629312
H  H9  1  0.12140000  0.55620000  0.60870000  1.0 0.1315148591
H  H10  1  0.23120000  0.63440000  0.63390000  1.0 0.1092992905
H  H11  1  0.14460000  0.62040000  0.55070000  1.0 0.151106331
H  H12  1  0.25990000  0.75570000  0.50930000  1.0 0.1092992905
H  H13  1  0.47450000  0.99130000  0.57560000  1.0 0.1092992905
H  H14  1  0.36510000  0.86250000  0.61870000  1.0 0.1315148591
H  H15  1  0.45670000  0.57570000  0.65960000  1.0 0.1092992905
H  H16  1  0.30450000  0.44190000  0.62460000  1.0 0.151106331
H  H17  1  0.45590000  0.68590000  0.54950000  1.0 0.1315148591
H  H18  1  0.59780000  0.81780000  0.58730000  1.0 0.1002629312
H  H19  1  0.18610000  0.42390000  0.57030000  1.0 0.1315148591
H  H20  1  0.26260000  0.50220000  0.53890000  1.0 0.1092992905
H  H21  1  0.20870000  0.29510000  0.53930000  1.0 0.1002629312
H  H22  1  0.29570000  0.32450000  0.57120000  1.0 0.1002629312
H  H23  1  0.45970000  0.47630000  0.53800000  1.0 0.1092992905
H  H24  1  0.37060000  0.43320000  0.50630000  1.0 0.1092992905
H  H25  1  0.25760000  0.19360000  0.49830000  1.0 0.1315148591
H  H26  1  0.30050000  0.05010000  0.49070000  1.0 0.1092992905
H  H27  1  0.61940000  0.25020000  0.53290000  1.0 0.1092992905
H  H28  1  0.58370000  0.39830000  0.54220000  1.0 0.1403948126
H  H29  1  0.65380000  0.05260000  0.67200000  1.0 0.1092992905
H  H30  1  0.51530000  0.09910000  0.68450000  1.0 0.1403948126
H  H31  1  0.27080000  0.74640000  0.69820000  1.0 0.1403948126
H  H32  1  0.41530000  0.70970000  0.68560000  1.0 0.1092992905
H  H33  1  0.25810000  0.97690000  0.67980000  1.0 0.1183848421
H  H34  1  0.21030000  0.87630000  0.70870000  1.0 0.1002629312
H  H35  1  0.34470000  0.02250000  0.74730000  1.0 0.1092992905
H  H36  1  0.39090000  0.12310000  0.71830000  1.0 0.1002629312
H  H37  1  0.17900000  0.06600000  0.71250000  1.0 0.1092992905
H  H38  1  0.25620000  0.14680000  0.74330000  1.0 0.1315148591
H  H39  1  0.02750000  0.84110000  0.72450000  1.0 0.1183848421
H  H40  1  0.89570000  0.70190000  0.76260000  1.0 0.1002629312
H  H41  1  0.05820000  0.92880000  0.83510000  1.0 0.1092992905
H  H42  1  0.19930000  0.07070000  0.79940000  1.0 0.151106331
H  H43  1  0.75530000  0.83310000  0.80710000  1.0 0.1002629312
H  H44  1  0.69190000  0.95430000  0.82350000  1.0 0.1315148591
H  H45  1  0.75200000  0.88860000  0.91970000  1.0 0.1403948126
H  H46  1  0.82580000  0.78260000  0.90000000  1.0 0.1092992905
H  H47  1  0.70000000  0.03460000  0.90890000  1.0 0.1092992905
H  H48  1  0.57330000  0.94310000  0.89170000  1.0 0.1315148591
H  H49  1  0.75680000  0.15060000  0.85740000  1.0 0.0797636596
H  H50  1  0.62140000  0.06460000  0.84420000  1.0 0.1002629312
H  H51  1  0.55620000  0.12140000  0.89130000  1.0 0.1315148591
H  H52  1  0.63440000  0.23120000  0.86610000  1.0 0.1092992905
H  H53  1  0.62040000  0.14460000  0.94930000  1.0 0.151106331
H  H54  1  0.75570000  0.25990000  0.99070000  1.0 0.1092992905
H  H55  1  0.99130000  0.47450000  0.92440000  1.0 0.1002629312
H  H56  1  0.86250000  0.36510000  0.88130000  1.0 0.1315148591
H  H57  1  0.57570000  0.45670000  0.84040000  1.0 0.1092992905
H  H58  1  0.44190000  0.30450000  0.87540000  1.0 0.151106331
H  H59  1  0.68590000  0.45590000  0.95050000  1.0 0.1315148591
H  H60  1  0.81780000  0.59780000  0.91270000  1.0 0.1002629312
H  H61  1  0.42390000  0.18610000  0.92970000  1.0 0.1315148591
H  H62  1  0.50220000  0.26260000  0.96110000  1.0 0.1092992905
H  H63  1  0.29510000  0.20870000  0.96070000  1.0 0.1002629312
H  H64  1  0.32450000  0.29570000  0.92880000  1.0 0.1002629312
H  H65  1  0.47630000  0.45970000  0.96200000  1.0 0.1092992905
H  H66  1  0.43320000  0.37060000  0.99370000  1.0 0.1092992905
H  H67  1  0.19360000  0.25760000  0.00170000  1.0 0.1315148591
H  H68  1  0.05010000  0.30050000  0.00930000  1.0 0.1092992905
H  H69  1  0.25020000  0.61940000  0.96710000  1.0 0.1092992905
H  H70  1  0.39830000  0.58370000  0.95780000  1.0 0.1403948126
H  H71  1  0.05260000  0.65380000  0.82800000  1.0 0.1092992905
H  H72  1  0.09910000  0.51530000  0.81550000  1.0 0.1403948126
H  H73  1  0.74640000  0.27080000  0.80180000  1.0 0.1403948126
H  H74  1  0.70970000  0.41530000  0.81440000  1.0 0.1092992905
H  H75  1  0.97690000  0.25810000  0.82020000  1.0 0.1183848421
H  H76  1  0.87630000  0.21030000  0.79130000  1.0 0.1002629312
H  H77  1  0.02250000  0.34470000  0.75270000  1.0 0.1092992905
H  H78  1  0.12310000  0.39090000  0.78170000  1.0 0.1002629312
H  H79  1  0.06600000  0.17900000  0.78750000  1.0 0.1092992905
H  H80  1  0.14680000  0.25620000  0.75670000  1.0 0.1315148591
H  H81  1  0.84110000  0.02750000  0.77550000  1.0 0.1183848421
H  H82  1  0.70190000  0.89570000  0.73740000  1.0 0.1002629312
H  H83  1  0.92880000  0.05820000  0.66490000  1.0 0.1092992905
H  H84  1  0.07070000  0.19930000  0.70060000  1.0 0.151106331
H  H85  1  0.16690000  0.24470000  0.30710000  1.0 0.1002629312
H  H86  1  0.04570000  0.30810000  0.32350000  1.0 0.1315148591
H  H87  1  0.11140000  0.24800000  0.41970000  1.0 0.1403948126
H  H88  1  0.21740000  0.17420000  0.40000000  1.0 0.1092992905
H  H89  1  0.96540000  0.30000000  0.40890000  1.0 0.1092992905
H  H90  1  0.05690000  0.42670000  0.39170000  1.0 0.1315148591
H  H91  1  0.84940000  0.24320000  0.35740000  1.0 0.0797636596
H  H92  1  0.93540000  0.37860000  0.34420000  1.0 0.1002629312
H  H93  1  0.87860000  0.44380000  0.39130000  1.0 0.1315148591
H  H94  1  0.76880000  0.36560000  0.36610000  1.0 0.1092992905
H  H95  1  0.85540000  0.37960000  0.44930000  1.0 0.151106331
H  H96  1  0.74010000  0.24430000  0.49070000  1.0 0.1092992905
H  H97  1  0.52550000  0.00870000  0.42440000  1.0 0.1092992905
H  H98  1  0.63490000  0.13750000  0.38130000  1.0 0.1315148591
H  H99  1  0.54330000  0.42430000  0.34040000  1.0 0.1092992905
H  H100  1  0.69550000  0.55810000  0.37540000  1.0 0.151106331
H  H101  1  0.54410000  0.31410000  0.45050000  1.0 0.1315148591
H  H102  1  0.40220000  0.18220000  0.41270000  1.0 0.1002629312
H  H103  1  0.81390000  0.57610000  0.42970000  1.0 0.1315148591
H  H104  1  0.73740000  0.49780000  0.46110000  1.0 0.1092992905
H  H105  1  0.79130000  0.70490000  0.46070000  1.0 0.1002629312
H  H106  1  0.70430000  0.67550000  0.42880000  1.0 0.1002629312
H  H107  1  0.54030000  0.52370000  0.46200000  1.0 0.1092992905
H  H108  1  0.62940000  0.56680000  0.49370000  1.0 0.1092992905
H  H109  1  0.74240000  0.80640000  0.50170000  1.0 0.1315148591
H  H110  1  0.69950000  0.94990000  0.50930000  1.0 0.1092992905
H  H111  1  0.38060000  0.74980000  0.46710000  1.0 0.1092992905
H  H112  1  0.41630000  0.60170000  0.45780000  1.0 0.1403948126
H  H113  1  0.34620000  0.94740000  0.32800000  1.0 0.1092992905
H  H114  1  0.48470000  0.90090000  0.31550000  1.0 0.1403948126
H  H115  1  0.72920000  0.25360000  0.30180000  1.0 0.1403948126
H  H116  1  0.58470000  0.29030000  0.31440000  1.0 0.1092992905
H  H117  1  0.74190000  0.02310000  0.32020000  1.0 0.1183848421
H  H118  1  0.78970000  0.12370000  0.29130000  1.0 0.1002629312
H  H119  1  0.65530000  0.97750000  0.25270000  1.0 0.1092992905
H  H120  1  0.60910000  0.87690000  0.28170000  1.0 0.1002629312
H  H121  1  0.82100000  0.93400000  0.28750000  1.0 0.1092992905
H  H122  1  0.74380000  0.85320000  0.25670000  1.0 0.1315148591
H  H123  1  0.97250000  0.15890000  0.27550000  1.0 0.1183848421
H  H124  1  0.10430000  0.29810000  0.23740000  1.0 0.1002629312
H  H125  1  0.94180000  0.07120000  0.16490000  1.0 0.1092992905
H  H126  1  0.80070000  0.92930000  0.20060000  1.0 0.151106331
H  H127  1  0.24470000  0.16690000  0.19290000  1.0 0.1002629312
H  H128  1  0.30810000  0.04570000  0.17650000  1.0 0.1315148591
H  H129  1  0.24800000  0.11140000  0.08030000  1.0 0.1403948126
H  H130  1  0.17420000  0.21740000  0.10000000  1.0 0.1092992905
H  H131  1  0.30000000  0.96540000  0.09110000  1.0 0.1092992905
H  H132  1  0.42670000  0.05690000  0.10830000  1.0 0.1315148591
H  H133  1  0.24320000  0.84940000  0.14260000  1.0 0.0797636596
H  H134  1  0.37860000  0.93540000  0.15580000  1.0 0.1002629312
H  H135  1  0.44380000  0.87860000  0.10870000  1.0 0.1315148591
H  H136  1  0.36560000  0.76880000  0.13390000  1.0 0.1092992905
H  H137  1  0.37960000  0.85540000  0.05070000  1.0 0.151106331
H  H138  1  0.24430000  0.74010000  0.00930000  1.0 0.1092992905
H  H139  1  0.00870000  0.52550000  0.07560000  1.0 0.1002629312
H  H140  1  0.13750000  0.63490000  0.11870000  1.0 0.1315148591
H  H141  1  0.42430000  0.54330000  0.15960000  1.0 0.1092992905
H  H142  1  0.55810000  0.69550000  0.12460000  1.0 0.151106331
H  H143  1  0.31410000  0.54410000  0.04950000  1.0 0.1315148591
H  H144  1  0.18220000  0.40220000  0.08730000  1.0 0.1002629312
H  H145  1  0.57610000  0.81390000  0.07030000  1.0 0.1315148591
H  H146  1  0.49780000  0.73740000  0.03890000  1.0 0.1092992905
H  H147  1  0.70490000  0.79130000  0.03930000  1.0 0.1002629312
H  H148  1  0.67550000  0.70430000  0.07120000  1.0 0.1002629312
H  H149  1  0.52370000  0.54030000  0.03800000  1.0 0.1092992905
H  H150  1  0.56680000  0.62940000  0.00630000  1.0 0.1092992905
H  H151  1  0.80640000  0.74240000  0.99830000  1.0 0.1315148591
H  H152  1  0.94990000  0.69950000  0.99070000  1.0 0.1092992905
H  H153  1  0.74980000  0.38060000  0.03290000  1.0 0.1092992905
H  H154  1  0.60170000  0.41630000  0.04220000  1.0 0.1403948126
H  H155  1  0.94740000  0.34620000  0.17200000  1.0 0.1092992905
H  H156  1  0.90090000  0.48470000  0.18450000  1.0 0.1403948126
H  H157  1  0.25360000  0.72920000  0.19820000  1.0 0.1403948126
H  H158  1  0.29030000  0.58470000  0.18560000  1.0 0.1092992905
H  H159  1  0.02310000  0.74190000  0.17980000  1.0 0.1183848421
H  H160  1  0.12370000  0.78970000  0.20870000  1.0 0.1002629312
H  H161  1  0.97750000  0.65530000  0.24730000  1.0 0.1092992905
H  H162  1  0.87690000  0.60910000  0.21830000  1.0 0.1002629312
H  H163  1  0.93400000  0.82100000  0.21250000  1.0 0.1092992905
H  H164  1  0.85320000  0.74380000  0.24330000  1.0 0.1315148591
H  H165  1  0.15890000  0.97250000  0.22450000  1.0 0.1183848421
H  H166  1  0.29810000  0.10430000  0.26260000  1.0 0.1002629312
H  H167  1  0.07120000  0.94180000  0.33510000  1.0 0.1092992905
H  H168  1  0.92930000  0.80070000  0.29940000  1.0 0.151106331
C  C1  1  0.77478000  0.05932000  0.61116000  1.0 0.0520792568
C  C2  1  0.94776000  0.28504000  0.61929000  1.0 -0.0248532759
C  C3  1  0.87231000  0.34329000  0.56413000  1.0 -0.0288352222
C  C4  1  0.71187000  0.11877000  0.55435000  1.0 0.0597465192
C  C5  1  0.57602000  0.63256000  0.71991000  1.0 0.0597465192
C  C6  1  0.37267000  0.42933000  0.72073000  1.0 -0.0288352222
C  C7  1  0.84557000  0.75523000  0.66985000  1.0 0.0797636596
C  C8  1  0.91629000  0.71511000  0.66020000  1.0 -0.2181087877
C  C9  1  0.93130000  0.70910000  0.62574000  1.0 0.1860237551
C  C10  1  0.87949000  0.75191000  0.60359000  1.0 -0.2181087877
C  C11  1  0.81475000  0.79425000  0.61557000  1.0 0.069900897
C  C12  1  0.99987000  0.65933000  0.61263000  1.0 -0.2402421514
C  C13  1  0.09916000  0.67284000  0.63560000  1.0 -0.1434706839
C  C14  1  0.17472000  0.63728000  0.61768000  1.0 -0.2513477881
C  C15  1  0.24370000  0.72370000  0.58972000  1.0 0.1829392595
C  C16  1  0.21318000  0.69562000  0.55651000  1.0 -0.2014309855
C  C17  1  0.28267000  0.77733000  0.53185000  1.0 0.0797636596
C  C18  1  0.40742000  0.91422000  0.57040000  1.0 0.069900897
C  C19  1  0.34255000  0.83765000  0.59634000  1.0 -0.2100569511
C  C20  1  0.45529000  0.59963000  0.63711000  1.0 0.069900897
C  C21  1  0.36483000  0.51817000  0.61617000  1.0 -0.1893152388
C  C22  1  0.36210000  0.54788000  0.58270000  1.0 0.1725778463
C  C23  1  0.45267000  0.66169000  0.57221000  1.0 -0.2100569511
C  C24  1  0.53831000  0.73985000  0.59495000  1.0 0.0520792568
C  C25  1  0.26420000  0.45960000  0.55958000  1.0 -0.2513477881
C  C26  1  0.28206000  0.35926000  0.55059000  1.0 -0.1334996389
C  C27  1  0.38830000  0.40630000  0.52780000  1.0 -0.2581818717
C  C28  1  0.41552000  0.31288000  0.52165000  1.0 0.1725778463
C  C29  1  0.33252000  0.20728000  0.50590000  1.0 -0.2181087877
C  C30  1  0.35936000  0.12204000  0.50125000  1.0 0.069900897
C  C31  1  0.54458000  0.23806000  0.52583000  1.0 0.0797636596
C  C32  1  0.52371000  0.32729000  0.53153000  1.0 -0.2100569511
C  C33  1  0.57494000  0.98946000  0.67726000  1.0 0.0875096043
C  C34  1  0.49241000  0.01799000  0.68482000  1.0 -0.2181087877
C  C35  1  0.37613000  0.92727000  0.69283000  1.0 0.1725778463
C  C36  1  0.34889000  0.81131000  0.69290000  1.0 -0.2100569511
C  C37  1  0.43580000  0.79004000  0.68517000  1.0 0.0797636596
C  C38  1  0.28174000  0.95166000  0.70061000  1.0 -0.2581818717
C  C39  1  0.32050000  0.04690000  0.72644000  1.0 -0.1334996389
C  C40  1  0.22025000  0.06695000  0.73370000  1.0 -0.2513477881
C  C41  1  0.12953000  0.97401000  0.75732000  1.0 0.1829392595
C  C42  1  0.03649000  0.86131000  0.74730000  1.0 -0.2274261159
C  C43  1  0.95717000  0.77863000  0.77018000  1.0 0.0597465192
C  C44  1  0.05242000  0.91016000  0.81231000  1.0 0.0875096043
C  C45  1  0.13652000  0.99622000  0.79101000  1.0 -0.1893152388
C  C46  1  0.05932000  0.77478000  0.88884000  1.0 0.0520792568
C  C47  1  0.28504000  0.94776000  0.88071000  1.0 -0.0248532759
C  C48  1  0.34329000  0.87231000  0.93587000  1.0 -0.0288352222
C  C49  1  0.11877000  0.71187000  0.94565000  1.0 0.0520792568
C  C50  1  0.63256000  0.57602000  0.78009000  1.0 0.0597465192
C  C51  1  0.42933000  0.37267000  0.77927000  1.0 -0.0288352222
C  C52  1  0.75523000  0.84557000  0.83015000  1.0 0.0797636596
C  C53  1  0.71511000  0.91629000  0.83980000  1.0 -0.2181087877
C  C54  1  0.70910000  0.93130000  0.87426000  1.0 0.1860237551
C  C55  1  0.75191000  0.87949000  0.89641000  1.0 -0.2181087877
C  C56  1  0.79425000  0.81475000  0.88443000  1.0 0.069900897
C  C57  1  0.65933000  0.99987000  0.88737000  1.0 -0.2402421514
C  C58  1  0.67284000  0.09916000  0.86440000  1.0 -0.1434706839
C  C59  1  0.63728000  0.17472000  0.88232000  1.0 -0.2513477881
C  C60  1  0.72370000  0.24370000  0.91028000  1.0 0.1829392595
C  C61  1  0.69562000  0.21318000  0.94349000  1.0 -0.2014309855
C  C62  1  0.77733000  0.28267000  0.96815000  1.0 0.0797636596
C  C63  1  0.91422000  0.40742000  0.92960000  1.0 0.069900897
C  C64  1  0.83765000  0.34255000  0.90366000  1.0 -0.2100569511
C  C65  1  0.59963000  0.45529000  0.86289000  1.0 0.069900897
C  C66  1  0.51817000  0.36483000  0.88383000  1.0 -0.1893152388
C  C67  1  0.54788000  0.36210000  0.91730000  1.0 0.1725778463
C  C68  1  0.66169000  0.45267000  0.92779000  1.0 -0.2100569511
C  C69  1  0.73985000  0.53831000  0.90505000  1.0 0.0520792568
C  C70  1  0.45960000  0.26420000  0.94042000  1.0 -0.2513477881
C  C71  1  0.35926000  0.28206000  0.94941000  1.0 -0.1334996389
C  C72  1  0.40630000  0.38830000  0.97220000  1.0 -0.2581818717
C  C73  1  0.31288000  0.41552000  0.97835000  1.0 0.1725778463
C  C74  1  0.20728000  0.33252000  0.99410000  1.0 -0.2181087877
C  C75  1  0.12204000  0.35936000  0.99875000  1.0 0.069900897
C  C76  1  0.23806000  0.54458000  0.97417000  1.0 0.0797636596
C  C77  1  0.32729000  0.52371000  0.96847000  1.0 -0.2100569511
C  C78  1  0.98946000  0.57494000  0.82274000  1.0 0.0875096043
C  C79  1  0.01799000  0.49241000  0.81518000  1.0 -0.2181087877
C  C80  1  0.92727000  0.37613000  0.80717000  1.0 0.1725778463
C  C81  1  0.81131000  0.34889000  0.80710000  1.0 -0.2100569511
C  C82  1  0.79004000  0.43580000  0.81483000  1.0 0.0797636596
C  C83  1  0.95166000  0.28174000  0.79939000  1.0 -0.2581818717
C  C84  1  0.04690000  0.32050000  0.77356000  1.0 -0.1334996389
C  C85  1  0.06695000  0.22025000  0.76630000  1.0 -0.2513477881
C  C86  1  0.97401000  0.12953000  0.74268000  1.0 0.1829392595
C  C87  1  0.86131000  0.03649000  0.75270000  1.0 -0.2274261159
C  C88  1  0.77863000  0.95717000  0.72982000  1.0 0.0597465192
C  C89  1  0.91016000  0.05242000  0.68769000  1.0 0.0875096043
C  C90  1  0.99622000  0.13652000  0.70899000  1.0 -0.1893152388
C  C91  1  0.22522000  0.94068000  0.38884000  1.0 0.0520792568
C  C92  1  0.05224000  0.71496000  0.38071000  1.0 -0.0248532759
C  C93  1  0.12769000  0.65671000  0.43587000  1.0 -0.0288352222
C  C94  1  0.28813000  0.88123000  0.44565000  1.0 0.0520792568
C  C95  1  0.42398000  0.36744000  0.28009000  1.0 0.0597465192
C  C96  1  0.62733000  0.57067000  0.27927000  1.0 -0.0288352222
C  C97  1  0.15443000  0.24477000  0.33015000  1.0 0.0797636596
C  C98  1  0.08371000  0.28489000  0.33980000  1.0 -0.2181087877
C  C99  1  0.06870000  0.29090000  0.37426000  1.0 0.1860237551
C  C100  1  0.12051000  0.24809000  0.39641000  1.0 -0.2181087877
C  C101  1  0.18525000  0.20575000  0.38443000  1.0 0.069900897
C  C102  1  0.00013000  0.34067000  0.38737000  1.0 -0.2402421514
C  C103  1  0.90084000  0.32716000  0.36440000  1.0 -0.1434706839
C  C104  1  0.82528000  0.36272000  0.38232000  1.0 -0.2513477881
C  C105  1  0.75630000  0.27630000  0.41028000  1.0 0.1829392595
C  C106  1  0.78682000  0.30438000  0.44349000  1.0 -0.2014309855
C  C107  1  0.71733000  0.22267000  0.46815000  1.0 0.0797636596
C  C108  1  0.59258000  0.08578000  0.42960000  1.0 0.069900897
C  C109  1  0.65745000  0.16235000  0.40366000  1.0 -0.2100569511
C  C110  1  0.54471000  0.40037000  0.36289000  1.0 0.069900897
C  C111  1  0.63517000  0.48183000  0.38383000  1.0 -0.1893152388
C  C112  1  0.63790000  0.45212000  0.41730000  1.0 0.1725778463
C  C113  1  0.54733000  0.33831000  0.42779000  1.0 -0.2100569511
C  C114  1  0.46169000  0.26015000  0.40505000  1.0 0.0520792568
C  C115  1  0.73580000  0.54040000  0.44042000  1.0 -0.2513477881
C  C116  1  0.71794000  0.64074000  0.44941000  1.0 -0.1334996389
C  C117  1  0.61170000  0.59370000  0.47220000  1.0 -0.2581818717
C  C118  1  0.58448000  0.68712000  0.47835000  1.0 0.1725778463
C  C119  1  0.66748000  0.79272000  0.49410000  1.0 -0.2181087877
C  C120  1  0.64064000  0.87796000  0.49875000  1.0 0.069900897
C  C121  1  0.45542000  0.76194000  0.47417000  1.0 0.0797636596
C  C122  1  0.47629000  0.67271000  0.46847000  1.0 -0.2100569511
C  C123  1  0.42506000  0.01054000  0.32274000  1.0 0.0875096043
C  C124  1  0.50759000  0.98201000  0.31518000  1.0 -0.2181087877
C  C125  1  0.62387000  0.07273000  0.30717000  1.0 0.1725778463
C  C126  1  0.65111000  0.18869000  0.30710000  1.0 -0.2100569511
C  C127  1  0.56420000  0.20996000  0.31483000  1.0 0.0797636596
C  C128  1  0.71826000  0.04834000  0.29939000  1.0 -0.2581818717
C  C129  1  0.67950000  0.95310000  0.27356000  1.0 -0.1334996389
C  C130  1  0.77975000  0.93305000  0.26630000  1.0 -0.2513477881
C  C131  1  0.87047000  0.02599000  0.24268000  1.0 0.1829392595
C  C132  1  0.96351000  0.13869000  0.25270000  1.0 -0.2274261159
C  C133  1  0.04283000  0.22137000  0.22982000  1.0 0.0597465192
C  C134  1  0.94758000  0.08984000  0.18769000  1.0 0.0875096043
C  C135  1  0.86348000  0.00378000  0.20899000  1.0 -0.1893152388
C  C136  1  0.94068000  0.22522000  0.11116000  1.0 0.0520792568
C  C137  1  0.71496000  0.05224000  0.11929000  1.0 -0.0248532759
C  C138  1  0.65671000  0.12769000  0.06413000  1.0 -0.0288352222
C  C139  1  0.88123000  0.28813000  0.05435000  1.0 0.0597465192
C  C140  1  0.36744000  0.42398000  0.21991000  1.0 0.0597465192
C  C141  1  0.57067000  0.62733000  0.22073000  1.0 -0.0288352222
C  C142  1  0.24477000  0.15443000  0.16985000  1.0 0.0797636596
C  C143  1  0.28489000  0.08371000  0.16020000  1.0 -0.2181087877
C  C144  1  0.29090000  0.06870000  0.12574000  1.0 0.1860237551
C  C145  1  0.24809000  0.12051000  0.10359000  1.0 -0.2181087877
C  C146  1  0.20575000  0.18525000  0.11557000  1.0 0.069900897
C  C147  1  0.34067000  0.00013000  0.11263000  1.0 -0.2402421514
C  C148  1  0.32716000  0.90084000  0.13560000  1.0 -0.1434706839
C  C149  1  0.36272000  0.82528000  0.11768000  1.0 -0.2513477881
C  C150  1  0.27630000  0.75630000  0.08972000  1.0 0.1829392595
C  C151  1  0.30438000  0.78682000  0.05651000  1.0 -0.2014309855
C  C152  1  0.22267000  0.71733000  0.03185000  1.0 0.0797636596
C  C153  1  0.08578000  0.59258000  0.07040000  1.0 0.069900897
C  C154  1  0.16235000  0.65745000  0.09634000  1.0 -0.2100569511
C  C155  1  0.40037000  0.54471000  0.13711000  1.0 0.069900897
C  C156  1  0.48183000  0.63517000  0.11617000  1.0 -0.1893152388
C  C157  1  0.45212000  0.63790000  0.08270000  1.0 0.1725778463
C  C158  1  0.33831000  0.54733000  0.07221000  1.0 -0.2100569511
C  C159  1  0.26015000  0.46169000  0.09495000  1.0 0.0520792568
C  C160  1  0.54040000  0.73580000  0.05958000  1.0 -0.2513477881
C  C161  1  0.64074000  0.71794000  0.05059000  1.0 -0.1334996389
C  C162  1  0.59370000  0.61170000  0.02780000  1.0 -0.2581818717
C  C163  1  0.68712000  0.58448000  0.02165000  1.0 0.1725778463
C  C164  1  0.79272000  0.66748000  0.00590000  1.0 -0.2181087877
C  C165  1  0.87796000  0.64064000  0.00125000  1.0 0.069900897
C  C166  1  0.76194000  0.45542000  0.02583000  1.0 0.0797636596
C  C167  1  0.67271000  0.47629000  0.03153000  1.0 -0.2100569511
C  C168  1  0.01054000  0.42506000  0.17726000  1.0 0.0875096043
C  C169  1  0.98201000  0.50759000  0.18482000  1.0 -0.2181087877
C  C170  1  0.07273000  0.62387000  0.19283000  1.0 0.1725778463
C  C171  1  0.18869000  0.65111000  0.19290000  1.0 -0.2100569511
C  C172  1  0.20996000  0.56420000  0.18517000  1.0 0.0797636596
C  C173  1  0.04834000  0.71826000  0.20061000  1.0 -0.2581818717
C  C174  1  0.95310000  0.67950000  0.22644000  1.0 -0.1334996389
C  C175  1  0.93305000  0.77975000  0.23370000  1.0 -0.2513477881
C  C176  1  0.02599000  0.87047000  0.25732000  1.0 0.1829392595
C  C177  1  0.13869000  0.96351000  0.24730000  1.0 -0.2274261159
C  C178  1  0.22137000  0.04283000  0.27018000  1.0 0.0597465192
C  C179  1  0.08984000  0.94758000  0.31231000  1.0 0.0875096043
C  C180  1  0.00378000  0.86348000  0.29101000  1.0 -0.1893152388
N  N1  1  0.73639000  0.97313000  0.62723000  1.0 -0.389402734
N  N2  1  0.01919000  0.33581000  0.63962000  1.0 -0.3573475311
N  N3  1  0.89192000  0.42848000  0.54962000  1.0 -0.3732482113
N  N4  1  0.63786000  0.07156000  0.53432000  1.0 -0.3970702605
N  N5  1  0.61424000  0.70742000  0.69995000  1.0 -0.389402734
N  N6  1  0.29302000  0.38574000  0.70194000  1.0 -0.3573475311
N  N7  1  0.79412000  0.79378000  0.64806000  1.0 -0.2100569511
N  N8  1  0.38048000  0.88538000  0.53809000  1.0 -0.2181087877
N  N9  1  0.54153000  0.71109000  0.62738000  1.0 -0.2274261159
N  N10  1  0.46409000  0.13531000  0.51079000  1.0 -0.2181087877
N  N11  1  0.54791000  0.87745000  0.67713000  1.0 -0.2181087877
N  N12  1  0.96310000  0.80190000  0.80261000  1.0 -0.2274261159
N  N13  1  0.97313000  0.73639000  0.87277000  1.0 -0.389402734
N  N14  1  0.33581000  0.01919000  0.86038000  1.0 -0.3573475311
N  N15  1  0.42848000  0.89192000  0.95038000  1.0 -0.3732482113
N  N16  1  0.07156000  0.63786000  0.96568000  1.0 -0.3970702605
N  N17  1  0.70742000  0.61424000  0.80005000  1.0 -0.389402734
N  N18  1  0.38574000  0.29302000  0.79806000  1.0 -0.3573475311
N  N19  1  0.79378000  0.79412000  0.85194000  1.0 -0.2100569511
N  N20  1  0.88538000  0.38048000  0.96191000  1.0 -0.2181087877
N  N21  1  0.71109000  0.54153000  0.87262000  1.0 -0.2274261159
N  N22  1  0.13531000  0.46409000  0.98921000  1.0 -0.2181087877
N  N23  1  0.87745000  0.54791000  0.82287000  1.0 -0.2181087877
N  N24  1  0.80190000  0.96310000  0.69739000  1.0 -0.2274261159
N  N25  1  0.26361000  0.02687000  0.37277000  1.0 -0.389402734
N  N26  1  0.98081000  0.66419000  0.36038000  1.0 -0.3573475311
N  N27  1  0.10808000  0.57152000  0.45038000  1.0 -0.3732482113
N  N28  1  0.36214000  0.92844000  0.46568000  1.0 -0.3970702605
N  N29  1  0.38576000  0.29258000  0.30005000  1.0 -0.389402734
N  N30  1  0.70698000  0.61426000  0.29806000  1.0 -0.3573475311
N  N31  1  0.20588000  0.20622000  0.35194000  1.0 -0.2100569511
N  N32  1  0.61952000  0.11462000  0.46191000  1.0 -0.2181087877
N  N33  1  0.45847000  0.28891000  0.37262000  1.0 -0.2274261159
N  N34  1  0.53591000  0.86469000  0.48921000  1.0 -0.2181087877
N  N35  1  0.45209000  0.12255000  0.32287000  1.0 -0.2181087877
N  N36  1  0.03690000  0.19810000  0.19739000  1.0 -0.2274261159
N  N37  1  0.02687000  0.26361000  0.12723000  1.0 -0.389402734
N  N38  1  0.66419000  0.98081000  0.13962000  1.0 -0.3573475311
N  N39  1  0.57152000  0.10808000  0.04962000  1.0 -0.3750149625
N  N40  1  0.92844000  0.36214000  0.03432000  1.0 -0.3970702605
N  N41  1  0.29258000  0.38576000  0.19995000  1.0 -0.389402734
N  N42  1  0.61426000  0.70698000  0.20194000  1.0 -0.3573475311
N  N43  1  0.20622000  0.20588000  0.14806000  1.0 -0.2100569511
N  N44  1  0.11462000  0.61952000  0.03809000  1.0 -0.2181087877
N  N45  1  0.28891000  0.45847000  0.12738000  1.0 -0.2274261159
N  N46  1  0.86469000  0.53591000  0.01079000  1.0 -0.2181087877
N  N47  1  0.12255000  0.45209000  0.17713000  1.0 -0.2181087877
N  N48  1  0.19810000  0.03690000  0.30261000  1.0 -0.2274261159
