# DDEC6 charges by PACMAN v1.1 (https://github.com/mtap-research/PACMAN-charge/)
data_CIRCUF_FSR_pacman
_symmetry_space_group_name_H-M   'P 1'
_cell_length_a   13.56430000
_cell_length_b   13.56430000
_cell_length_c   28.47140000
_cell_angle_alpha   89.18060000
_cell_angle_beta   90.81940000
_cell_angle_gamma   142.64600000
_symmetry_Int_Tables_number   1
_chemical_formula_structural   ZnH24C33NO4
_chemical_formula_sum   'Zn4 H96 C132 N4 O16'
_cell_volume   3178.00951259
_cell_formula_units_Z   4
loop_
 _symmetry_equiv_pos_site_id
 _symmetry_equiv_pos_as_xyz
  1  'x, y, z'
loop_
 _atom_site_type_symbol
 _atom_site_label
 _atom_site_symmetry_multiplicity
 _atom_site_fract_x
 _atom_site_fract_y
 _atom_site_fract_z
 _atom_site_occupancy
 _atom_site_charge
Zn  Zn1  1  0.58306000  0.66080000  0.49371000  1.0 0.8174959526
Zn  Zn2  1  0.66080000  0.58306000  0.00629000  1.0 0.8174959526
Zn  Zn3  1  0.41694000  0.33920000  0.50629000  1.0 0.8174959526
Zn  Zn4  1  0.33920000  0.41694000  0.99371000  1.0 0.8174959526
H  H1  1  0.99518000  0.52532000  0.29173000  1.0 0.1102845455
H  H2  1  0.52532000  0.99518000  0.20827000  1.0 0.1024337792
H  H3  1  0.00482000  0.47468000  0.70827000  1.0 0.1024337792
H  H4  1  0.47468000  0.00482000  0.79173000  1.0 0.1102845455
H  H5  1  0.20532000  0.73102000  0.16519000  1.0 0.1024337792
H  H6  1  0.73102000  0.20532000  0.33481000  1.0 0.1024337792
H  H7  1  0.79468000  0.26898000  0.83481000  1.0 0.1024337792
H  H8  1  0.26898000  0.79468000  0.66519000  1.0 0.1024337792
H  H9  1  0.03715000  0.83201000  0.23479000  1.0 0.1024337792
H  H10  1  0.83201000  0.03715000  0.26521000  1.0 0.1024337792
H  H11  1  0.96285000  0.16799000  0.76521000  1.0 0.1024337792
H  H12  1  0.16799000  0.96285000  0.73479000  1.0 0.1024337792
H  H13  1  0.01620000  0.40052000  0.22925000  1.0 0.1491908368
H  H14  1  0.40052000  0.01620000  0.27075000  1.0 0.1491908368
H  H15  1  0.98380000  0.59948000  0.77075000  1.0 0.1491908368
H  H16  1  0.59948000  0.98380000  0.72925000  1.0 0.1491908368
H  H17  1  0.16193000  0.53095000  0.19279000  1.0 0.1290981949
H  H18  1  0.53095000  0.16193000  0.30721000  1.0 0.1290981949
H  H19  1  0.83807000  0.46905000  0.80721000  1.0 0.1290981949
H  H20  1  0.46905000  0.83807000  0.69279000  1.0 0.1290981949
H  H21  1  0.19925000  0.55451000  0.24797000  1.0 0.1491908368
H  H22  1  0.55451000  0.19925000  0.25203000  1.0 0.1491908368
H  H23  1  0.80075000  0.44549000  0.75203000  1.0 0.1491908368
H  H24  1  0.44549000  0.80075000  0.74797000  1.0 0.1491908368
H  H25  1  0.51018000  0.21276000  0.09290000  1.0 0.1102845455
H  H26  1  0.21276000  0.51018000  0.40710000  1.0 0.1102845455
H  H27  1  0.48982000  0.78724000  0.90710000  1.0 0.1102845455
H  H28  1  0.78724000  0.48982000  0.59290000  1.0 0.1102845455
H  H29  1  0.40924000  0.02224000  0.14796000  1.0 0.1102845455
H  H30  1  0.02224000  0.40924000  0.35204000  1.0 0.1102845455
H  H31  1  0.59076000  0.97776000  0.85204000  1.0 0.1102845455
H  H32  1  0.97776000  0.59076000  0.64796000  1.0 0.1102845455
H  H33  1  0.98834000  0.84050000  0.15098000  1.0 0.1102845455
H  H34  1  0.84050000  0.98834000  0.34902000  1.0 0.1102845455
H  H35  1  0.01166000  0.15950000  0.84902000  1.0 0.1102845455
H  H36  1  0.15950000  0.01166000  0.65098000  1.0 0.1102845455
H  H37  1  0.08955000  0.03053000  0.09503000  1.0 0.1102845455
H  H38  1  0.03053000  0.08955000  0.40497000  1.0 0.1102845455
H  H39  1  0.91045000  0.96947000  0.90497000  1.0 0.1102845455
H  H40  1  0.96947000  0.91045000  0.59503000  1.0 0.1102845455
H  H41  1  0.88581000  0.99127000  0.52974000  1.0 0.1102845455
H  H42  1  0.99127000  0.88581000  0.97026000  1.0 0.1102845455
H  H43  1  0.11419000  0.00873000  0.47026000  1.0 0.1102845455
H  H44  1  0.00873000  0.11419000  0.02974000  1.0 0.1102845455
H  H45  1  0.01394000  0.24376000  0.53278000  1.0 0.1183822818
H  H46  1  0.24376000  0.01394000  0.96722000  1.0 0.1183822818
H  H47  1  0.98606000  0.75624000  0.46722000  1.0 0.1183822818
H  H48  1  0.75624000  0.98606000  0.03278000  1.0 0.1183822818
H  H49  1  0.66577000  0.07911000  0.44841000  1.0 0.1290981949
H  H50  1  0.07911000  0.66577000  0.05159000  1.0 0.1290981949
H  H51  1  0.33423000  0.92089000  0.55159000  1.0 0.1290981949
H  H52  1  0.92089000  0.33423000  0.94841000  1.0 0.1290981949
H  H53  1  0.54409000  0.82966000  0.44891000  1.0 0.1102845455
H  H54  1  0.82966000  0.54409000  0.05109000  1.0 0.1102845455
H  H55  1  0.45591000  0.17033000  0.55109000  1.0 0.1102845455
H  H56  1  0.17033000  0.45591000  0.94891000  1.0 0.1102845455
H  H57  1  0.72246000  0.26660000  0.48768000  1.0 0.1102845455
H  H58  1  0.26660000  0.72246000  0.01232000  1.0 0.1102845455
H  H59  1  0.27754000  0.73340000  0.51232000  1.0 0.1102845455
H  H60  1  0.73340000  0.27754000  0.98768000  1.0 0.1102845455
H  H61  1  0.16050000  0.48654000  0.50648000  1.0 0.1102845455
H  H62  1  0.48654000  0.16050000  0.99352000  1.0 0.1102845455
H  H63  1  0.83950000  0.51346000  0.49352000  1.0 0.1102845455
H  H64  1  0.51346000  0.83950000  0.00648000  1.0 0.1102845455
H  H65  1  0.87949000  0.82113000  0.37219000  1.0 0.0789199545
H  H66  1  0.82113000  0.87949000  0.12781000  1.0 0.0789199545
H  H67  1  0.12051000  0.17887000  0.62781000  1.0 0.0789199545
H  H68  1  0.17887000  0.12051000  0.87219000  1.0 0.0789199545
H  H69  1  0.02092000  0.86834000  0.31008000  1.0 0.0899609121
H  H70  1  0.86834000  0.02092000  0.18992000  1.0 0.0899609121
H  H71  1  0.97908000  0.13166000  0.68992000  1.0 0.0899609121
H  H72  1  0.13166000  0.97908000  0.81008000  1.0 0.0899609121
H  H73  1  0.80620000  0.43366000  0.33333333  1.0 0.0899609121
H  H74  1  0.43366000  0.80620000  0.16667000  1.0 0.0899609121
H  H75  1  0.19380000  0.56634000  0.66666667  1.0 0.0899609121
H  H76  1  0.56634000  0.19380000  0.83333000  1.0 0.0899609121
H  H77  1  0.66836000  0.39056000  0.39573000  1.0 0.0899609121
H  H78  1  0.39056000  0.66836000  0.10427000  1.0 0.0899609121
H  H79  1  0.33164000  0.60944000  0.60427000  1.0 0.0899609121
H  H80  1  0.60944000  0.33164000  0.89573000  1.0 0.0899609121
H  H81  1  0.75742000  0.72936000  0.35163000  1.0 0.0789199545
H  H82  1  0.72936000  0.75742000  0.14837000  1.0 0.0789199545
H  H83  1  0.24258000  0.27064000  0.64837000  1.0 0.0789199545
H  H84  1  0.27064000  0.24258000  0.85163000  1.0 0.0789199545
H  H85  1  0.87831000  0.75699000  0.28332000  1.0 0.0899609121
H  H86  1  0.75699000  0.87831000  0.21668000  1.0 0.0899609121
H  H87  1  0.12169000  0.24301000  0.71668000  1.0 0.0899609121
H  H88  1  0.24301000  0.12169000  0.78332000  1.0 0.0899609121
H  H89  1  0.90125000  0.51112000  0.34764000  1.0 0.1024337792
H  H90  1  0.51112000  0.90125000  0.15236000  1.0 0.1024337792
H  H91  1  0.09875000  0.48888000  0.65236000  1.0 0.1024337792
H  H92  1  0.48888000  0.09875000  0.84764000  1.0 0.1024337792
H  H93  1  0.74721000  0.44535000  0.40933000  1.0 0.0899609121
H  H94  1  0.44535000  0.74721000  0.09067000  1.0 0.0899609121
H  H95  1  0.25279000  0.55465000  0.59067000  1.0 0.0899609121
H  H96  1  0.55465000  0.25279000  0.90933000  1.0 0.0899609121
C  C1  1  0.66190000  0.56450000  0.42986000  1.0 0.5311857864
C  C2  1  0.56450000  0.66190000  0.07014000  1.0 0.5311857864
C  C3  1  0.33810000  0.43550000  0.57014000  1.0 0.5311857864
C  C4  1  0.43550000  0.33810000  0.92986000  1.0 0.5311857864
C  C5  1  0.75430000  0.59690000  0.38920000  1.0 -0.024251234
C  C6  1  0.59690000  0.75430000  0.11080000  1.0 -0.024251234
C  C7  1  0.24570000  0.40310000  0.61080000  1.0 -0.024251234
C  C8  1  0.40310000  0.24570000  0.88920000  1.0 -0.024251234
C  C9  1  0.91980000  0.65000000  0.31186000  1.0 0.0345846845
C  C10  1  0.65000000  0.91980000  0.18814000  1.0 0.0345846845
C  C11  1  0.08020000  0.35000000  0.68814000  1.0 0.0345846845
C  C12  1  0.35000000  0.08020000  0.81186000  1.0 0.0345846845
C  C13  1  0.00220000  0.67440000  0.27032000  1.0 0.0523597013
C  C14  1  0.67440000  0.00220000  0.22968000  1.0 0.0523597013
C  C15  1  0.99780000  0.32560000  0.72968000  1.0 0.0523597013
C  C16  1  0.32560000  0.99780000  0.77032000  1.0 0.0523597013
C  C17  1  0.02830000  0.59430000  0.26682000  1.0 -0.2450851843
C  C18  1  0.59430000  0.02830000  0.23318000  1.0 -0.2450851843
C  C19  1  0.97170000  0.40570000  0.73318000  1.0 -0.2450851843
C  C20  1  0.40570000  0.97170000  0.76682000  1.0 -0.2450851843
C  C21  1  0.10290000  0.61370000  0.22710000  1.0 0.1932315335
C  C22  1  0.61370000  0.10290000  0.27290000  1.0 0.1932315335
C  C23  1  0.89710000  0.38630000  0.77290000  1.0 0.1932315335
C  C24  1  0.38630000  0.89710000  0.72710000  1.0 0.1932315335
C  C25  1  0.15340000  0.71640000  0.19190000  1.0 -0.2283678547
C  C26  1  0.71640000  0.15340000  0.30810000  1.0 -0.2283678547
C  C27  1  0.84660000  0.28360000  0.80810000  1.0 -0.2283678547
C  C28  1  0.28360000  0.84660000  0.69190000  1.0 -0.2283678547
C  C29  1  0.13090000  0.79950000  0.19422000  1.0 0.0899609121
C  C30  1  0.79950000  0.13090000  0.30578000  1.0 0.0899609121
C  C31  1  0.86910000  0.20050000  0.80578000  1.0 0.0899609121
C  C32  1  0.20050000  0.86910000  0.69422000  1.0 0.0899609121
C  C33  1  0.05450000  0.77670000  0.23319000  1.0 -0.2130498037
C  C34  1  0.77670000  0.05450000  0.26681000  1.0 -0.2130498037
C  C35  1  0.94550000  0.22330000  0.76681000  1.0 -0.2130498037
C  C36  1  0.22330000  0.94550000  0.73319000  1.0 -0.2130498037
C  C37  1  0.12180000  0.51600000  0.22400000  1.0 -0.4861932814
C  C38  1  0.51600000  0.12180000  0.27600000  1.0 -0.4861932814
C  C39  1  0.87820000  0.48400000  0.77600000  1.0 -0.4861932814
C  C40  1  0.48400000  0.87820000  0.72400000  1.0 -0.4861932814
C  C41  1  0.38170000  0.27310000  0.05599000  1.0 0.5712668106
C  C42  1  0.27310000  0.38170000  0.44401000  1.0 0.5712668106
C  C43  1  0.61830000  0.72690000  0.94401000  1.0 0.5712668106
C  C44  1  0.72690000  0.61830000  0.55599000  1.0 0.5712668106
C  C45  1  0.31129000  0.14391000  0.08951000  1.0 -0.0388598156
C  C46  1  0.14391000  0.31129000  0.41049000  1.0 -0.0388598156
C  C47  1  0.68871000  0.85609000  0.91049000  1.0 -0.0388598156
C  C48  1  0.85609000  0.68871000  0.58951000  1.0 -0.0388598156
C  C49  1  0.40415000  0.13785000  0.10511000  1.0 -0.1031435922
C  C50  1  0.13785000  0.40415000  0.39489000  1.0 -0.1031435922
C  C51  1  0.59585000  0.86215000  0.89489000  1.0 -0.1031435922
C  C52  1  0.86215000  0.59585000  0.60511000  1.0 -0.1031435922
C  C53  1  0.34420000  0.02480000  0.13793000  1.0 -0.1603592828
C  C54  1  0.02480000  0.34420000  0.36207000  1.0 -0.1603592828
C  C55  1  0.65580000  0.97520000  0.86207000  1.0 -0.1603592828
C  C56  1  0.97520000  0.65580000  0.63793000  1.0 -0.1603592828
C  C57  1  0.18910000  0.91330000  0.15688000  1.0 0.0789199545
C  C58  1  0.91330000  0.18910000  0.34312000  1.0 0.0789199545
C  C59  1  0.81090000  0.08670000  0.84312000  1.0 0.0789199545
C  C60  1  0.08670000  0.81090000  0.65688000  1.0 0.0789199545
C  C61  1  0.09571000  0.91729000  0.13965000  1.0 -0.1666755646
C  C62  1  0.91729000  0.09571000  0.36035000  1.0 -0.1666755646
C  C63  1  0.90429000  0.08271000  0.86035000  1.0 -0.1666755646
C  C64  1  0.08271000  0.90429000  0.63965000  1.0 -0.1666755646
C  C65  1  0.15600000  0.03080000  0.10634000  1.0 -0.111846675
C  C66  1  0.03080000  0.15600000  0.39366000  1.0 -0.111846675
C  C67  1  0.84400000  0.96920000  0.89366000  1.0 -0.111846675
C  C68  1  0.96920000  0.84400000  0.60634000  1.0 -0.111846675
C  C69  1  0.83820000  0.00820000  0.51377000  1.0 0.0596702166
C  C70  1  0.00820000  0.83820000  0.98623000  1.0 0.0596702166
C  C71  1  0.16180000  0.99180000  0.48623000  1.0 0.0596702166
C  C72  1  0.99180000  0.16180000  0.01377000  1.0 0.0596702166
C  C73  1  0.91511000  0.15929000  0.51566000  1.0 -0.2030507892
C  C74  1  0.15929000  0.91511000  0.98434000  1.0 -0.2030507892
C  C75  1  0.08489000  0.84071000  0.48434000  1.0 -0.2030507892
C  C76  1  0.84071000  0.08489000  0.01566000  1.0 -0.2030507892
C  C77  1  0.85076000  0.18964000  0.49304000  1.0 0.1183822818
C  C78  1  0.18964000  0.85076000  0.00696000  1.0 0.1183822818
C  C79  1  0.14924000  0.81036000  0.50696000  1.0 0.1183822818
C  C80  1  0.81036000  0.14924000  0.99304000  1.0 0.1183822818
C  C81  1  0.71181000  0.06339000  0.46659000  1.0 -0.1945471808
C  C82  1  0.06339000  0.71181000  0.03341000  1.0 -0.1945471808
C  C83  1  0.28819000  0.93661000  0.53341000  1.0 -0.1945471808
C  C84  1  0.93661000  0.28819000  0.96659000  1.0 -0.1945471808
C  C85  1  0.64071000  0.91529000  0.46674000  1.0 0.06779259
C  C86  1  0.91529000  0.64071000  0.03326000  1.0 0.06779259
C  C87  1  0.35929000  0.08471000  0.53326000  1.0 0.06779259
C  C88  1  0.08471000  0.35929000  0.96674000  1.0 0.06779259
C  C89  1  0.83643000  0.36217000  0.49260000  1.0 -0.1502901882
C  C90  1  0.36217000  0.83643000  0.00740000  1.0 -0.1502901882
C  C91  1  0.16357000  0.63783000  0.50740000  1.0 -0.1502901882
C  C92  1  0.63783000  0.16357000  0.99260000  1.0 -0.1502901882
C  C93  1  0.92774000  0.34966000  0.49579000  1.0 0.06779259
C  C94  1  0.34966000  0.92774000  0.00421000  1.0 0.06779259
C  C95  1  0.07226000  0.65034000  0.50421000  1.0 0.06779259
C  C96  1  0.65034000  0.07226000  0.99579000  1.0 0.06779259
C  C97  1  0.09470000  0.49150000  0.50369000  1.0 -0.1603592828
C  C98  1  0.49150000  0.09470000  0.99631000  1.0 -0.1603592828
C  C99  1  0.90530000  0.50850000  0.49631000  1.0 -0.1603592828
C  C100  1  0.50850000  0.90530000  0.00369000  1.0 -0.1603592828
C  C101  1  0.86240000  0.74080000  0.36380000  1.0 -0.0528888598
C  C102  1  0.74080000  0.86240000  0.13620000  1.0 -0.0528888598
C  C103  1  0.13760000  0.25920000  0.63620000  1.0 -0.0528888598
C  C104  1  0.25920000  0.13760000  0.86380000  1.0 -0.0528888598
C  C105  1  0.94490000  0.76770000  0.32650000  1.0 -0.067441327
C  C106  1  0.76770000  0.94490000  0.17350000  1.0 -0.067441327
C  C107  1  0.05510000  0.23230000  0.67350000  1.0 -0.067441327
C  C108  1  0.23230000  0.05510000  0.82650000  1.0 -0.067441327
C  C109  1  0.81910000  0.51190000  0.34000000  1.0 -0.067441327
C  C110  1  0.51190000  0.81910000  0.16000000  1.0 -0.067441327
C  C111  1  0.18090000  0.48810000  0.66000000  1.0 -0.067441327
C  C112  1  0.48810000  0.18090000  0.84000000  1.0 -0.067441327
C  C113  1  0.73780000  0.48700000  0.37750000  1.0 -0.076611039
C  C114  1  0.48700000  0.73780000  0.12250000  1.0 -0.076611039
C  C115  1  0.26220000  0.51300000  0.62250000  1.0 -0.076611039
C  C116  1  0.51300000  0.26220000  0.87750000  1.0 -0.076611039
C  C117  1  0.78690000  0.68510000  0.35100000  1.0 -0.0388598156
C  C118  1  0.68510000  0.78690000  0.14900000  1.0 -0.0388598156
C  C119  1  0.21310000  0.31490000  0.64900000  1.0 -0.0388598156
C  C120  1  0.31490000  0.21310000  0.85100000  1.0 -0.0388598156
C  C121  1  0.86400000  0.70600000  0.31080000  1.0 -0.0591894843
C  C122  1  0.70600000  0.86400000  0.18920000  1.0 -0.0591894843
C  C123  1  0.13600000  0.29400000  0.68920000  1.0 -0.0591894843
C  C124  1  0.29400000  0.13600000  0.81080000  1.0 -0.0591894843
C  C125  1  0.87320000  0.55680000  0.34790000  1.0 -0.067441327
C  C126  1  0.55680000  0.87320000  0.15210000  1.0 -0.067441327
C  C127  1  0.12680000  0.44320000  0.65210000  1.0 -0.067441327
C  C128  1  0.44320000  0.12680000  0.84790000  1.0 -0.067441327
C  C129  1  0.78550000  0.52050000  0.38590000  1.0 -0.076611039
C  C130  1  0.52050000  0.78550000  0.11410000  1.0 -0.076611039
C  C131  1  0.21450000  0.47950000  0.61410000  1.0 -0.076611039
C  C132  1  0.47950000  0.21450000  0.88590000  1.0 -0.076611039
N  N1  1  0.70050000  0.88590000  0.49058000  1.0 -0.2030507892
N  N2  1  0.88590000  0.70050000  0.00942000  1.0 -0.2030507892
N  N3  1  0.29950000  0.11410000  0.50942000  1.0 -0.2030507892
N  N4  1  0.11410000  0.29950000  0.99058000  1.0 -0.2030507892
O  O1  1  0.68617000  0.67163000  0.43970000  1.0 -0.4977379039
O  O2  1  0.67163000  0.68617000  0.06030000  1.0 -0.4977379039
O  O3  1  0.31383000  0.32837000  0.56030000  1.0 -0.4977379039
O  O4  1  0.32837000  0.31383000  0.93970000  1.0 -0.4977379039
O  O5  1  0.56899000  0.43421000  0.45129000  1.0 -0.4977379039
O  O6  1  0.43421000  0.56899000  0.04871000  1.0 -0.4977379039
O  O7  1  0.43101000  0.56579000  0.54871000  1.0 -0.4977379039
O  O8  1  0.56579000  0.43101000  0.95129000  1.0 -0.4977379039
O  O9  1  0.28895000  0.26325000  0.03878000  1.0 -0.5343613818
O  O10  1  0.26325000  0.28895000  0.46122000  1.0 -0.5343613818
O  O11  1  0.71105000  0.73675000  0.96122000  1.0 -0.5352756376
O  O12  1  0.73675000  0.71105000  0.53878000  1.0 -0.5352756376
O  O13  1  0.53060000  0.38580000  0.04771000  1.0 -0.5352756376
O  O14  1  0.38580000  0.53060000  0.45229000  1.0 -0.5352756376
O  O15  1  0.46940000  0.61420000  0.95229000  1.0 -0.5352756376
O  O16  1  0.61420000  0.46940000  0.54771000  1.0 -0.5352756376
