# DDEC6 charges by PACMAN v1.1 (https://github.com/mtap-research/PACMAN-charge/)
data_CIRDEQ_ASR_pacman
_symmetry_space_group_name_H-M   'P 1'
_cell_length_a   12.13070000
_cell_length_b   12.13070000
_cell_length_c   28.02140000
_cell_angle_alpha   88.36410000
_cell_angle_beta   91.63590000
_cell_angle_gamma   133.43700000
_symmetry_Int_Tables_number   1
_chemical_formula_structural   ZnH24C34(NO2)2
_chemical_formula_sum   'Zn4 H96 C136 N8 O16'
_cell_volume   2992.72343692
_cell_formula_units_Z   4
loop_
 _symmetry_equiv_pos_site_id
 _symmetry_equiv_pos_as_xyz
  1  'x, y, z'
loop_
 _atom_site_type_symbol
 _atom_site_label
 _atom_site_symmetry_multiplicity
 _atom_site_fract_x
 _atom_site_fract_y
 _atom_site_fract_z
 _atom_site_occupancy
 _atom_site_charge
Zn  Zn1  1  0.05208000  0.14924000  0.50366000  1.0 0.7547941461
Zn  Zn2  1  0.14924000  0.05208000  0.99634000  1.0 0.7547941461
Zn  Zn3  1  0.94792000  0.85076000  0.49634000  1.0 0.7547941461
Zn  Zn4  1  0.85076000  0.94792000  0.00366000  1.0 0.7547941461
H  H1  1  0.59691000  0.68519000  0.38305000  1.0 0.1188645544
H  H2  1  0.68519000  0.59691000  0.11695000  1.0 0.1188645544
H  H3  1  0.40309000  0.31481000  0.61695000  1.0 0.1188645544
H  H4  1  0.31481000  0.40309000  0.88305000  1.0 0.1188645544
H  H5  1  0.47019000  0.65215000  0.31397000  1.0 0.1188645544
H  H6  1  0.65215000  0.47019000  0.18603000  1.0 0.1188645544
H  H7  1  0.52981000  0.34785000  0.68603000  1.0 0.1188645544
H  H8  1  0.34785000  0.52981000  0.81397000  1.0 0.1188645544
H  H9  1  0.73528000  0.09818000  0.30194000  1.0 0.1092311331
H  H10  1  0.09818000  0.73528000  0.19806000  1.0 0.1092311331
H  H11  1  0.26472000  0.90182000  0.69806000  1.0 0.1092311331
H  H12  1  0.90182000  0.26472000  0.80194000  1.0 0.1092311331
H  H13  1  0.85875000  0.12745000  0.37113000  1.0 0.1188645544
H  H14  1  0.12745000  0.85875000  0.12887000  1.0 0.1188645544
H  H15  1  0.14125000  0.87255000  0.62887000  1.0 0.1188645544
H  H16  1  0.87255000  0.14125000  0.87113000  1.0 0.1188645544
H  H17  1  0.55754000  0.04752000  0.26042000  1.0 0.1188645544
H  H18  1  0.04752000  0.55754000  0.23958000  1.0 0.1188645544
H  H19  1  0.44246000  0.95248000  0.73958000  1.0 0.1188645544
H  H20  1  0.95248000  0.44246000  0.76042000  1.0 0.1188645544
H  H21  1  0.31999000  0.81945000  0.14248000  1.0 0.1188645544
H  H22  1  0.81945000  0.31999000  0.35752000  1.0 0.1188645544
H  H23  1  0.68001000  0.18055000  0.85752000  1.0 0.1188645544
H  H24  1  0.18055000  0.68001000  0.64248000  1.0 0.1188645544
H  H25  1  0.43958000  0.65618000  0.23286000  1.0 0.1188645544
H  H26  1  0.65618000  0.43958000  0.26714000  1.0 0.1188645544
H  H27  1  0.56042000  0.34382000  0.76714000  1.0 0.1188645544
H  H28  1  0.34382000  0.56042000  0.73286000  1.0 0.1188645544
H  H29  1  0.52617000  0.14666000  0.16084000  1.0 0.1303638361
H  H30  1  0.14666000  0.52617000  0.33916000  1.0 0.1303638361
H  H31  1  0.47382000  0.85333000  0.83916000  1.0 0.1303638361
H  H32  1  0.85333000  0.47382000  0.66084000  1.0 0.1303638361
H  H33  1  0.35185000  0.03717000  0.17040000  1.0 0.1399192318
H  H34  1  0.03717000  0.35185000  0.32960000  1.0 0.1399192318
H  H35  1  0.64815000  0.96283000  0.82960000  1.0 0.1399192318
H  H36  1  0.96283000  0.64815000  0.67040000  1.0 0.1399192318
H  H37  1  0.46966000  0.13856000  0.21160000  1.0 0.1399192318
H  H38  1  0.13856000  0.46966000  0.28840000  1.0 0.1399192318
H  H39  1  0.53034000  0.86144000  0.78840000  1.0 0.1399192318
H  H40  1  0.86144000  0.53034000  0.71160000  1.0 0.1399192318
H  H41  1  0.98567000  0.33029000  0.09087000  1.0 0.1188645544
H  H42  1  0.33029000  0.98567000  0.40913000  1.0 0.1188645544
H  H43  1  0.01433000  0.66971000  0.90913000  1.0 0.1188645544
H  H44  1  0.66971000  0.01433000  0.59087000  1.0 0.1188645544
H  H45  1  0.09720000  0.53200000  0.13941000  1.0 0.1188645544
H  H46  1  0.53200000  0.09720000  0.36059000  1.0 0.1188645544
H  H47  1  0.90280000  0.46800000  0.86059000  1.0 0.1188645544
H  H48  1  0.46800000  0.90280000  0.63941000  1.0 0.1188645544
H  H49  1  0.46581000  0.59583000  0.15161000  1.0 0.1188645544
H  H50  1  0.59583000  0.46581000  0.34839000  1.0 0.1188645544
H  H51  1  0.53419000  0.40417000  0.84839000  1.0 0.1188645544
H  H52  1  0.40417000  0.53419000  0.65161000  1.0 0.1188645544
H  H53  1  0.35798000  0.39754000  0.10034000  1.0 0.1092311331
H  H54  1  0.39754000  0.35798000  0.39966000  1.0 0.1092311331
H  H55  1  0.64202000  0.60246000  0.89966000  1.0 0.1092311331
H  H56  1  0.60246000  0.64202000  0.60034000  1.0 0.1092311331
H  H57  1  0.26235000  0.83859000  0.53357000  1.0 0.1092311331
H  H58  1  0.83859000  0.26235000  0.96643000  1.0 0.1092311331
H  H59  1  0.73765000  0.16141000  0.46643000  1.0 0.1092311331
H  H60  1  0.16141000  0.73765000  0.03357000  1.0 0.1092311331
H  H61  1  0.41276000  0.09572000  0.53540000  1.0 0.1092311331
H  H62  1  0.09573000  0.41276000  0.96460000  1.0 0.1092311331
H  H63  1  0.58723000  0.90428000  0.46460000  1.0 0.1092311331
H  H64  1  0.90428000  0.58723000  0.03540000  1.0 0.1092311331
H  H65  1  0.07895000  0.37011000  0.56066000  1.0 0.0990438006
H  H66  1  0.37011000  0.07895000  0.93934000  1.0 0.0990438006
H  H67  1  0.92105000  0.62989000  0.43934000  1.0 0.0990438006
H  H68  1  0.62989000  0.92105000  0.06066000  1.0 0.0990438006
H  H69  1  0.20463000  0.61929000  0.56053000  1.0 0.1092311331
H  H70  1  0.61929000  0.20463000  0.93947000  1.0 0.1092311331
H  H71  1  0.79537000  0.38071000  0.43947000  1.0 0.1092311331
H  H72  1  0.38071000  0.79537000  0.06053000  1.0 0.1092311331
H  H73  1  0.36569000  0.66429000  0.43292000  1.0 0.1303638361
H  H74  1  0.66429000  0.36569000  0.06708000  1.0 0.1303638361
H  H75  1  0.63431000  0.33571000  0.56708000  1.0 0.1303638361
H  H76  1  0.33571000  0.63431000  0.93292000  1.0 0.1303638361
H  H77  1  0.22794000  0.41044000  0.43573000  1.0 0.1188645544
H  H78  1  0.41044000  0.22794000  0.06427000  1.0 0.1188645544
H  H79  1  0.77206000  0.58956000  0.56427000  1.0 0.1188645544
H  H80  1  0.58956000  0.77206000  0.93573000  1.0 0.1188645544
H  H81  1  0.99601000  0.35351000  0.51762000  1.0 0.0795457821
H  H82  1  0.35351000  0.99601000  0.98238000  1.0 0.0795457821
H  H83  1  0.00399000  0.64649000  0.48238000  1.0 0.0795457821
H  H84  1  0.64649000  0.00399000  0.01762000  1.0 0.0795457821
H  H85  1  0.12665000  0.60635000  0.51770000  1.0 0.0990438006
H  H86  1  0.60635000  0.12665000  0.98230000  1.0 0.0990438006
H  H87  1  0.87335000  0.39365000  0.48230000  1.0 0.0990438006
H  H88  1  0.39365000  0.87335000  0.01770000  1.0 0.0990438006
H  H89  1  0.49911000  0.69659000  0.48656000  1.0 0.1188645544
H  H90  1  0.69659000  0.49911000  0.01344000  1.0 0.1188645544
H  H91  1  0.50089000  0.30341000  0.51344000  1.0 0.1188645544
H  H92  1  0.30341000  0.50089000  0.98656000  1.0 0.1188645544
H  H93  1  0.36074000  0.44192000  0.48944000  1.0 0.1092311331
H  H94  1  0.44192000  0.36074000  0.01056000  1.0 0.1092311331
H  H95  1  0.63926000  0.55808000  0.51056000  1.0 0.1092311331
H  H96  1  0.55808000  0.63926000  0.98944000  1.0 0.1092311331
C  C1  1  0.83450000  0.93830000  0.42670000  1.0 0.5731997743
C  C2  1  0.93830000  0.83450000  0.07330000  1.0 0.5731997743
C  C3  1  0.16550000  0.06170000  0.57330000  1.0 0.5731997743
C  C4  1  0.06170000  0.16550000  0.92670000  1.0 0.5731997743
C  C5  1  0.74740000  0.91140000  0.38210000  1.0 -0.019649254
C  C6  1  0.91140000  0.74740000  0.11790000  1.0 -0.019649254
C  C7  1  0.25260000  0.08860000  0.61790000  1.0 -0.019649254
C  C8  1  0.08860000  0.25260000  0.88210000  1.0 -0.019649254
C  C9  1  0.62770000  0.76930000  0.36610000  1.0 -0.1237804071
C  C10  1  0.76930000  0.62770000  0.13390000  1.0 -0.1237804071
C  C11  1  0.37230000  0.23070000  0.63390000  1.0 -0.1237804071
C  C12  1  0.23070000  0.37230000  0.86610000  1.0 -0.1237804071
C  C13  1  0.55160000  0.74980000  0.32470000  1.0 -0.1712773003
C  C14  1  0.74980000  0.55160000  0.17530000  1.0 -0.1712773003
C  C15  1  0.44840000  0.25020000  0.67530000  1.0 -0.1712773003
C  C16  1  0.25020000  0.44840000  0.82470000  1.0 -0.1712773003
C  C17  1  0.59440000  0.87360000  0.29870000  1.0 0.0708962991
C  C18  1  0.87360000  0.59440000  0.20130000  1.0 0.0708962991
C  C19  1  0.40560000  0.12640000  0.70130000  1.0 0.0708962991
C  C20  1  0.12640000  0.40560000  0.79870000  1.0 0.0708962991
C  C21  1  0.70760000  0.01340000  0.31730000  1.0 -0.1468804449
C  C22  1  0.01340000  0.70760000  0.18270000  1.0 -0.1468804449
C  C23  1  0.29240000  0.98660000  0.68270000  1.0 -0.1468804449
C  C24  1  0.98660000  0.29240000  0.81730000  1.0 -0.1468804449
C  C25  1  0.78220000  0.03060000  0.35890000  1.0 -0.1089025409
C  C26  1  0.03060000  0.78220000  0.14110000  1.0 -0.1089025409
C  C27  1  0.21780000  0.96940000  0.64110000  1.0 -0.1089025409
C  C28  1  0.96940000  0.21780000  0.85890000  1.0 -0.1089025409
C  C29  1  0.51560000  0.85740000  0.25390000  1.0 0.0850740551
C  C30  1  0.85740000  0.51560000  0.24610000  1.0 0.0850740551
C  C31  1  0.48440000  0.14260000  0.74610000  1.0 0.0850740551
C  C32  1  0.14260000  0.48440000  0.75390000  1.0 0.0850740551
C  C33  1  0.51180000  0.96540000  0.24050000  1.0 -0.2195110255
C  C34  1  0.96540000  0.51180000  0.25950000  1.0 -0.2195110255
C  C35  1  0.48820000  0.03460000  0.75950000  1.0 -0.2195110255
C  C36  1  0.03460000  0.48820000  0.74050000  1.0 -0.2195110255
C  C37  1  0.44220000  0.95620000  0.19840000  1.0 0.1856632113
C  C38  1  0.95620000  0.44220000  0.30160000  1.0 0.1856632113
C  C39  1  0.55780000  0.04380000  0.80160000  1.0 0.1856632113
C  C40  1  0.04380000  0.55780000  0.69840000  1.0 0.1856632113
C  C41  1  0.36960000  0.82940000  0.17040000  1.0 -0.2434122012
C  C42  1  0.82940000  0.36960000  0.32960000  1.0 -0.2434122012
C  C43  1  0.63040000  0.17060000  0.82960000  1.0 -0.2434122012
C  C44  1  0.17060000  0.63040000  0.67040000  1.0 -0.2434122012
C  C45  1  0.36840000  0.71760000  0.18250000  1.0 0.0708962991
C  C46  1  0.71760000  0.36840000  0.31750000  1.0 0.0708962991
C  C47  1  0.63160000  0.28240000  0.81750000  1.0 0.0708962991
C  C48  1  0.28240000  0.63160000  0.68250000  1.0 0.0708962991
C  C49  1  0.44070000  0.73150000  0.22430000  1.0 -0.2133805779
C  C50  1  0.73150000  0.44070000  0.27570000  1.0 -0.2133805779
C  C51  1  0.55930000  0.26850000  0.77570000  1.0 -0.2133805779
C  C52  1  0.26850000  0.55930000  0.72430000  1.0 -0.2133805779
C  C53  1  0.44800000  0.08100000  0.18400000  1.0 -0.4691767142
C  C54  1  0.08100000  0.44800000  0.31600000  1.0 -0.4691767142
C  C55  1  0.55200000  0.91900000  0.81600000  1.0 -0.4691767142
C  C56  1  0.91900000  0.55200000  0.68400000  1.0 -0.4691767142
C  C57  1  0.08850000  0.21130000  0.05730000  1.0 0.5640502825
C  C58  1  0.21130000  0.08850000  0.44270000  1.0 0.5640502825
C  C59  1  0.91150000  0.78870000  0.94270000  1.0 0.5640502825
C  C60  1  0.78870000  0.91150000  0.55730000  1.0 0.5640502825
C  C61  1  0.15820000  0.34040000  0.09030000  1.0 -0.0286065036
C  C62  1  0.34040000  0.15820000  0.40970000  1.0 -0.0286065036
C  C63  1  0.84180000  0.65960000  0.90970000  1.0 -0.0286065036
C  C64  1  0.65960000  0.84180000  0.59030000  1.0 -0.0286065036
C  C65  1  0.08330000  0.38410000  0.10270000  1.0 -0.0906376928
C  C66  1  0.38410000  0.08330000  0.39730000  1.0 -0.0906376928
C  C67  1  0.91670000  0.61590000  0.89730000  1.0 -0.0906376928
C  C68  1  0.61590000  0.91670000  0.60270000  1.0 -0.0906376928
C  C69  1  0.15000000  0.50480000  0.13190000  1.0 -0.1646068011
C  C70  1  0.50480000  0.15000000  0.36810000  1.0 -0.1646068011
C  C71  1  0.85000000  0.49520000  0.86810000  1.0 -0.1646068011
C  C72  1  0.49520000  0.85000000  0.63190000  1.0 -0.1646068011
C  C73  1  0.29480000  0.58720000  0.15050000  1.0 0.0708962991
C  C74  1  0.58720000  0.29480000  0.34950000  1.0 0.0708962991
C  C75  1  0.70520000  0.41280000  0.84950000  1.0 0.0708962991
C  C76  1  0.41280000  0.70520000  0.65050000  1.0 0.0708962991
C  C77  1  0.36950000  0.54350000  0.13890000  1.0 -0.1646068011
C  C78  1  0.54350000  0.36950000  0.36110000  1.0 -0.1646068011
C  C79  1  0.63050000  0.45650000  0.86110000  1.0 -0.1646068011
C  C80  1  0.45650000  0.63050000  0.63890000  1.0 -0.1646068011
C  C81  1  0.30420000  0.42300000  0.10850000  1.0 -0.1250137956
C  C82  1  0.42300000  0.30420000  0.39150000  1.0 -0.1237804071
C  C83  1  0.69580000  0.57700000  0.89150000  1.0 -0.1250137956
C  C84  1  0.57700000  0.69580000  0.60850000  1.0 -0.1250137956
C  C85  1  0.40880000  0.84300000  0.49830000  1.0 0.0708962991
C  C86  1  0.84300000  0.40880000  0.00170000  1.0 0.0708962991
C  C87  1  0.59120000  0.15700000  0.50170000  1.0 0.0708962991
C  C88  1  0.15700000  0.59120000  0.99830000  1.0 0.0708962991
C  C89  1  0.35800000  0.90320000  0.51990000  1.0 -0.2307244435
C  C90  1  0.90320000  0.35800000  0.98010000  1.0 -0.2307244435
C  C91  1  0.64200000  0.09680000  0.48010000  1.0 -0.2307244435
C  C92  1  0.09680000  0.64200000  0.01990000  1.0 -0.2307244435
C  C93  1  0.44870000  0.05750000  0.52110000  1.0 -0.1712773003
C  C94  1  0.05750000  0.44870000  0.97890000  1.0 -0.1712773003
C  C95  1  0.55130000  0.94250000  0.47890000  1.0 -0.1712773003
C  C96  1  0.94250000  0.55130000  0.02110000  1.0 -0.1712773003
C  C97  1  0.13960000  0.43040000  0.53470000  1.0 0.0708962991
C  C98  1  0.43040000  0.13960000  0.96530000  1.0 0.0708962991
C  C99  1  0.86040000  0.56960000  0.46530000  1.0 0.0708962991
C  C100  1  0.56960000  0.86040000  0.03470000  1.0 0.0708962991
C  C101  1  0.21640000  0.58080000  0.53500000  1.0 -0.0656004333
C  C102  1  0.58080000  0.21640000  0.96500000  1.0 -0.0656004333
C  C103  1  0.78360000  0.41920000  0.46500000  1.0 -0.0656004333
C  C104  1  0.41920000  0.78360000  0.03500000  1.0 -0.0656004333
C  C105  1  0.30970000  0.67550000  0.49870000  1.0 0.0327742222
C  C106  1  0.67550000  0.30970000  0.00130000  1.0 0.0327742222
C  C107  1  0.69030000  0.32450000  0.50130000  1.0 0.0327742222
C  C108  1  0.32450000  0.69030000  0.99870000  1.0 0.0327742222
C  C109  1  0.31020000  0.60740000  0.46000000  1.0 -0.0906376928
C  C110  1  0.60740000  0.31020000  0.04000000  1.0 -0.0906376928
C  C111  1  0.68980000  0.39260000  0.54000000  1.0 -0.0906376928
C  C112  1  0.39260000  0.68980000  0.96000000  1.0 -0.0906376928
C  C113  1  0.22760000  0.45480000  0.46220000  1.0 0.0619520723
C  C114  1  0.45480000  0.22760000  0.03780000  1.0 0.0619520723
C  C115  1  0.77240000  0.54520000  0.53780000  1.0 0.0619520723
C  C116  1  0.54520000  0.77240000  0.96220000  1.0 0.0619520723
C  C117  1  0.09890000  0.42330000  0.51060000  1.0 0.0795457821
C  C118  1  0.42330000  0.09890000  0.98940000  1.0 0.0795457821
C  C119  1  0.90110000  0.57670000  0.48940000  1.0 0.0795457821
C  C120  1  0.57670000  0.90110000  0.01060000  1.0 0.0795457821
C  C121  1  0.17650000  0.57590000  0.51010000  1.0 -0.0633226995
C  C122  1  0.57590000  0.17650000  0.98990000  1.0 -0.0633226995
C  C123  1  0.82350000  0.42410000  0.48990000  1.0 -0.0633226995
C  C124  1  0.42410000  0.82350000  0.01010000  1.0 -0.0633226995
C  C125  1  0.32430000  0.67970000  0.49860000  1.0 0.0327742222
C  C126  1  0.67970000  0.32430000  0.00140000  1.0 0.0327742222
C  C127  1  0.67570000  0.32030000  0.50140000  1.0 0.0327742222
C  C128  1  0.32030000  0.67570000  0.99860000  1.0 0.0327742222
C  C129  1  0.39530000  0.62790000  0.49210000  1.0 -0.0906376928
C  C130  1  0.62790000  0.39530000  0.00790000  1.0 -0.0906376928
C  C131  1  0.60470000  0.37210000  0.50790000  1.0 -0.0906376928
C  C132  1  0.37210000  0.60470000  0.99210000  1.0 -0.0906376928
C  C133  1  0.31150000  0.47470000  0.49390000  1.0 0.0377620972
C  C134  1  0.47470000  0.31150000  0.00610000  1.0 0.0377620972
C  C135  1  0.68850000  0.52530000  0.50610000  1.0 0.0377620972
C  C136  1  0.52530000  0.68850000  0.99390000  1.0 0.0377620972
N  N1  1  0.14700000  0.36660000  0.49970000  1.0 -0.2133805779
N  N2  1  0.36660000  0.14700000  0.00030000  1.0 -0.2133805779
N  N3  1  0.85300000  0.63340000  0.50030000  1.0 -0.2133805779
N  N4  1  0.63340000  0.85300000  0.99970000  1.0 -0.2133805779
N  N5  1  0.16160000  0.37040000  0.50170000  1.0 -0.2195110255
N  N6  1  0.37040000  0.16160000  0.99830000  1.0 -0.2195110255
N  N7  1  0.83840000  0.62960000  0.49830000  1.0 -0.2195110255
N  N8  1  0.62960000  0.83840000  0.00170000  1.0 -0.2195110255
O  O1  1  0.90940000  0.06260000  0.44652000  1.0 -0.5281917945
O  O2  1  0.06260000  0.90940000  0.05348000  1.0 -0.5281917945
O  O3  1  0.09060000  0.93740000  0.55348000  1.0 -0.5281917945
O  O4  1  0.93740000  0.09060000  0.94652000  1.0 -0.5281917945
O  O5  1  0.82740000  0.83400000  0.44071000  1.0 -0.5281917945
O  O6  1  0.83400000  0.82740000  0.05929000  1.0 -0.5281917945
O  O7  1  0.17260000  0.16600000  0.55929000  1.0 -0.5281917945
O  O8  1  0.16600000  0.17260000  0.94071000  1.0 -0.5281917945
O  O9  1  0.17410000  0.19870000  0.04128000  1.0 -0.5408361897
O  O10  1  0.19870000  0.17410000  0.45872000  1.0 -0.5408361897
O  O11  1  0.82590000  0.80130000  0.95872000  1.0 -0.5408361897
O  O12  1  0.80130000  0.82590000  0.54128000  1.0 -0.5408361897
O  O13  1  0.95132000  0.12568000  0.04732000  1.0 -0.5117224202
O  O14  1  0.12568000  0.95132000  0.45268000  1.0 -0.5117224202
O  O15  1  0.04868000  0.87432000  0.95268000  1.0 -0.5117224202
O  O16  1  0.87432000  0.04868000  0.54732000  1.0 -0.5117224202
