# DDEC6 charges by PACMAN v1.1 (https://github.com/mtap-research/PACMAN-charge/)
data_CIRGET_FSR_pacman
_symmetry_space_group_name_H-M   'P 1'
_cell_length_a   12.04360000
_cell_length_b   12.04360000
_cell_length_c   28.07780000
_cell_angle_alpha   88.56170000
_cell_angle_beta   91.43830000
_cell_angle_gamma   132.91000000
_symmetry_Int_Tables_number   1
_chemical_formula_structural   ZnH20C33NO4
_chemical_formula_sum   'Zn4 H80 C132 N4 O16'
_cell_volume   2981.77925302
_cell_formula_units_Z   4
loop_
 _symmetry_equiv_pos_site_id
 _symmetry_equiv_pos_as_xyz
  1  'x, y, z'
loop_
 _atom_site_type_symbol
 _atom_site_label
 _atom_site_symmetry_multiplicity
 _atom_site_fract_x
 _atom_site_fract_y
 _atom_site_fract_z
 _atom_site_occupancy
 _atom_site_charge
Zn  Zn1  1  0.35084000  0.45006000  0.50326000  1.0 0.787213445
Zn  Zn2  1  0.45006000  0.35084000  0.99674000  1.0 0.787213445
Zn  Zn3  1  0.64916000  0.54994000  0.49674000  1.0 0.787213445
Zn  Zn4  1  0.54994000  0.64916000  0.00326000  1.0 0.787213445
H  H1  1  0.88536000  0.85068000  0.89553000  1.0 0.1192528161
H  H2  1  0.85068000  0.88536000  0.60447000  1.0 0.1192528161
H  H3  1  0.11464000  0.14932000  0.10447000  1.0 0.1192528161
H  H4  1  0.14932000  0.11464000  0.39553000  1.0 0.1192528161
H  H5  1  0.08029000  0.95785000  0.84435000  1.0 0.1192528161
H  H6  1  0.95785000  0.08029000  0.65565000  1.0 0.1192528161
H  H7  1  0.91971000  0.04215000  0.15565000  1.0 0.1192528161
H  H8  1  0.04215000  0.91971000  0.34435000  1.0 0.1192528161
H  H9  1  0.03598000  0.59840000  0.86178000  1.0 0.1372602436
H  H10  1  0.59840000  0.03598000  0.63822000  1.0 0.1372602436
H  H11  1  0.96402000  0.40160000  0.13822000  1.0 0.1372602436
H  H12  1  0.40160000  0.96402000  0.36178000  1.0 0.1372602436
H  H13  1  0.15146000  0.93630000  0.76544000  1.0 0.1111642169
H  H14  1  0.93630000  0.15146000  0.73456000  1.0 0.1111642169
H  H15  1  0.84854000  0.06370000  0.23456000  1.0 0.1111642169
H  H16  1  0.06370000  0.84854000  0.26544000  1.0 0.1111642169
H  H17  1  0.54301000  0.05101000  0.73770000  1.0 0.1111642169
H  H18  1  0.05101000  0.54301000  0.76230000  1.0 0.1111642169
H  H19  1  0.45699000  0.94899000  0.26230000  1.0 0.1111642169
H  H20  1  0.94899000  0.45699000  0.23770000  1.0 0.1111642169
H  H21  1  0.31756000  0.81674000  0.85578000  1.0 0.1111642169
H  H22  1  0.81674000  0.31756000  0.64422000  1.0 0.1111642169
H  H23  1  0.68244000  0.18326000  0.14422000  1.0 0.1111642169
H  H24  1  0.18326000  0.68244000  0.35578000  1.0 0.1111642169
H  H25  1  0.14621000  0.96059000  0.68321000  1.0 0.1192528161
H  H26  1  0.96059000  0.14621000  0.81679000  1.0 0.1192528161
H  H27  1  0.85379000  0.03941000  0.31679000  1.0 0.1192528161
H  H28  1  0.03941000  0.85379000  0.18321000  1.0 0.1192528161
H  H29  1  0.17928000  0.09216000  0.61601000  1.0 0.1192528161
H  H30  1  0.09216000  0.17928000  0.88399000  1.0 0.1192528161
H  H31  1  0.82072000  0.90784000  0.38399000  1.0 0.1192528161
H  H32  1  0.90784000  0.82072000  0.11601000  1.0 0.1192528161
H  H33  1  0.62648000  0.36242000  0.63057000  1.0 0.1192528161
H  H34  1  0.36242000  0.62648000  0.86943000  1.0 0.1192528161
H  H35  1  0.37352000  0.63758000  0.36943000  1.0 0.1192528161
H  H36  1  0.63758000  0.37352000  0.13057000  1.0 0.1192528161
H  H37  1  0.59391000  0.24219000  0.70003000  1.0 0.1111642169
H  H38  1  0.24219000  0.59391000  0.79997000  1.0 0.1111642169
H  H39  1  0.40609000  0.75781000  0.29997000  1.0 0.1111642169
H  H40  1  0.75781000  0.40609000  0.20003000  1.0 0.1111642169
H  H41  1  0.12546000  0.41218000  0.56256000  1.0 0.1192528161
H  H42  1  0.41218000  0.12546000  0.93744000  1.0 0.1192528161
H  H43  1  0.87454000  0.58782000  0.43744000  1.0 0.1192528161
H  H44  1  0.58782000  0.87454000  0.06256000  1.0 0.1192528161
H  H45  1  0.87043000  0.27457000  0.56367000  1.0 0.1111642169
H  H46  1  0.27457000  0.87043000  0.93633000  1.0 0.1111642169
H  H47  1  0.12957000  0.72543000  0.43633000  1.0 0.1111642169
H  H48  1  0.72543000  0.12957000  0.06367000  1.0 0.1111642169
H  H49  1  0.84625000  0.17027000  0.42872000  1.0 0.1192528161
H  H50  1  0.17027000  0.84625000  0.07128000  1.0 0.1192528161
H  H51  1  0.15375000  0.82973000  0.57128000  1.0 0.1192528161
H  H52  1  0.82973000  0.15375000  0.92872000  1.0 0.1192528161
H  H53  1  0.09988000  0.30588000  0.43218000  1.0 0.126432583
H  H54  1  0.30588000  0.09988000  0.06782000  1.0 0.126432583
H  H55  1  0.90012000  0.69412000  0.56782000  1.0 0.126432583
H  H56  1  0.69412000  0.90012000  0.93218000  1.0 0.126432583
H  H57  1  0.65753000  0.23289000  0.53666000  1.0 0.1192528161
H  H58  1  0.23289000  0.65753000  0.96334000  1.0 0.1192528161
H  H59  1  0.34247000  0.76711000  0.46334000  1.0 0.1192528161
H  H60  1  0.76711000  0.34247000  0.03666000  1.0 0.1192528161
H  H61  1  0.60179000  0.92433000  0.45972000  1.0 0.1192528161
H  H62  1  0.92433000  0.60179000  0.04028000  1.0 0.1192528161
H  H63  1  0.39821000  0.07567000  0.54028000  1.0 0.1192528161
H  H64  1  0.07567000  0.39821000  0.95972000  1.0 0.1192528161
H  H65  1  0.06302000  0.14276000  0.49616000  1.0 0.126432583
H  H66  1  0.14276000  0.06302000  0.00384000  1.0 0.126432583
H  H67  1  0.93698000  0.85724000  0.50384000  1.0 0.126432583
H  H68  1  0.85724000  0.93698000  0.99616000  1.0 0.126432583
H  H69  1  0.80453000  0.99947000  0.49430000  1.0 0.1111642169
H  H70  1  0.99947000  0.80453000  0.00570000  1.0 0.1111642169
H  H71  1  0.19547000  0.00053000  0.50570000  1.0 0.1111642169
H  H72  1  0.00053000  0.19547000  0.99430000  1.0 0.1111642169
H  H73  1  0.89812000  0.38286000  0.50881000  1.0 0.1006501627
H  H74  1  0.38286000  0.89812000  0.99119000  1.0 0.1006501627
H  H75  1  0.10188000  0.61714000  0.49119000  1.0 0.1006501627
H  H76  1  0.61714000  0.10188000  0.00881000  1.0 0.1006501627
H  H77  1  0.14314000  0.51062000  0.51062000  1.0 0.1006501627
H  H78  1  0.51062000  0.14314000  0.98938000  1.0 0.1006501627
H  H79  1  0.85686000  0.48938000  0.48938000  1.0 0.1006501627
H  H80  1  0.48938000  0.85686000  0.01062000  1.0 0.1006501627
C  C1  1  0.71222000  0.59058000  0.94250000  1.0 0.576117486
C  C2  1  0.59058000  0.71222000  0.55750000  1.0 0.576117486
C  C3  1  0.28778000  0.40942000  0.05750000  1.0 0.576117486
C  C4  1  0.40942000  0.28778000  0.44250000  1.0 0.576117486
C  C5  1  0.83981000  0.65899000  0.90897000  1.0 -0.053164683
C  C6  1  0.65899000  0.83981000  0.59103000  1.0 -0.053164683
C  C7  1  0.16019000  0.34101000  0.09103000  1.0 -0.053164683
C  C8  1  0.34101000  0.16019000  0.40897000  1.0 -0.053164683
C  C9  1  0.91519000  0.79921000  0.88852000  1.0 -0.0982680082
C  C10  1  0.79921000  0.91519000  0.61148000  1.0 -0.0982680082
C  C11  1  0.08481000  0.20079000  0.11148000  1.0 -0.0982680082
C  C12  1  0.20079000  0.08481000  0.38852000  1.0 -0.0982680082
C  C13  1  0.03266000  0.86394000  0.85818000  1.0 -0.1523521478
C  C14  1  0.86394000  0.03266000  0.64182000  1.0 -0.1523521478
C  C15  1  0.96734000  0.13606000  0.14182000  1.0 -0.1523521478
C  C16  1  0.13606000  0.96734000  0.35818000  1.0 -0.1523521478
C  C17  1  0.08241000  0.79139000  0.84759000  1.0 0.0864140245
C  C18  1  0.79139000  0.08241000  0.65241000  1.0 0.0864140245
C  C19  1  0.91759000  0.20861000  0.15241000  1.0 0.0864140245
C  C20  1  0.20861000  0.91759000  0.34759000  1.0 0.0864140245
C  C21  1  0.00547000  0.64953000  0.86831000  1.0 -0.1695797851
C  C22  1  0.64953000  0.00547000  0.63169000  1.0 -0.1695797851
C  C23  1  0.99453000  0.35047000  0.13169000  1.0 -0.1695797851
C  C24  1  0.35047000  0.99453000  0.36831000  1.0 -0.1695797851
C  C25  1  0.88566000  0.58354000  0.89816000  1.0 -0.0248358359
C  C26  1  0.58354000  0.88566000  0.60184000  1.0 -0.0248358359
C  C27  1  0.11434000  0.41646000  0.10184000  1.0 -0.0248358359
C  C28  1  0.41646000  0.11434000  0.39816000  1.0 -0.0248358359
C  C29  1  0.21280000  0.86400000  0.81588000  1.0 0.0652668553
C  C30  1  0.86400000  0.21280000  0.68412000  1.0 0.0652668553
C  C31  1  0.78720000  0.13600000  0.18412000  1.0 0.0652668553
C  C32  1  0.13600000  0.78720000  0.31588000  1.0 0.0652668553
C  C33  1  0.22629000  0.93571000  0.77376000  1.0 -0.187976822
C  C34  1  0.93571000  0.22629000  0.72624000  1.0 -0.187976822
C  C35  1  0.77371000  0.06429000  0.22624000  1.0 -0.187976822
C  C36  1  0.06429000  0.77371000  0.27376000  1.0 -0.187976822
C  C37  1  0.34893000  0.00627000  0.74399000  1.0 0.0819890977
C  C38  1  0.00627000  0.34893000  0.75601000  1.0 0.0819890977
C  C39  1  0.65107000  0.99373000  0.25601000  1.0 0.0819890977
C  C40  1  0.99373000  0.65107000  0.24399000  1.0 0.0819890977
C  C41  1  0.46030000  0.00450000  0.75740000  1.0 -0.1765323055
C  C42  1  0.00450000  0.46030000  0.74260000  1.0 -0.1765323055
C  C43  1  0.53970000  0.99550000  0.24260000  1.0 -0.1765323055
C  C44  1  0.99550000  0.53970000  0.25740000  1.0 -0.1765323055
C  C45  1  0.45045000  0.93535000  0.79911000  1.0 0.1666995513
C  C46  1  0.93535000  0.45045000  0.70089000  1.0 0.1666995513
C  C47  1  0.54955000  0.06465000  0.20089000  1.0 0.1666995513
C  C48  1  0.06465000  0.54955000  0.29911000  1.0 0.1666995513
C  C49  1  0.32579000  0.86481000  0.82781000  1.0 -0.1996480224
C  C50  1  0.86481000  0.32579000  0.67219000  1.0 -0.1996480224
C  C51  1  0.67421000  0.13519000  0.17219000  1.0 -0.1996480224
C  C52  1  0.13519000  0.67421000  0.32781000  1.0 -0.1996480224
C  C53  1  0.57600000  0.93820000  0.81320000  1.0 -0.4029470009
C  C54  1  0.93820000  0.57600000  0.68680000  1.0 -0.4029470009
C  C55  1  0.42400000  0.06180000  0.18680000  1.0 -0.4029470009
C  C56  1  0.06180000  0.42400000  0.31320000  1.0 -0.4029470009
C  C57  1  0.36703000  0.08717000  0.69955000  1.0 0.0819890977
C  C58  1  0.08717000  0.36703000  0.80045000  1.0 0.0819890977
C  C59  1  0.63297000  0.91283000  0.30045000  1.0 0.0819890977
C  C60  1  0.91283000  0.63297000  0.19955000  1.0 0.0819890977
C  C61  1  0.24393000  0.04407000  0.67323000  1.0 -0.1523521478
C  C62  1  0.04407000  0.24393000  0.82677000  1.0 -0.1523521478
C  C63  1  0.75607000  0.95593000  0.32677000  1.0 -0.1523521478
C  C64  1  0.95593000  0.75607000  0.17323000  1.0 -0.1523521478
C  C65  1  0.26346000  0.12214000  0.63275000  1.0 -0.119046468
C  C66  1  0.12214000  0.26346000  0.86725000  1.0 -0.119046468
C  C67  1  0.73654000  0.87786000  0.36725000  1.0 -0.119046468
C  C68  1  0.87786000  0.73654000  0.13275000  1.0 -0.119046468
C  C69  1  0.40760000  0.24500000  0.61680000  1.0 -0.0337200982
C  C70  1  0.24500000  0.40760000  0.88320000  1.0 -0.0337200982
C  C71  1  0.59240000  0.75500000  0.38320000  1.0 -0.0337200982
C  C72  1  0.75500000  0.59240000  0.11680000  1.0 -0.0337200982
C  C73  1  0.52894000  0.28386000  0.64182000  1.0 -0.0982680082
C  C74  1  0.28386000  0.52894000  0.85818000  1.0 -0.0982680082
C  C75  1  0.47106000  0.71614000  0.35818000  1.0 -0.0982680082
C  C76  1  0.71614000  0.47106000  0.14182000  1.0 -0.0982680082
C  C77  1  0.50918000  0.20942000  0.68289000  1.0 -0.1316045148
C  C78  1  0.20942000  0.50918000  0.81711000  1.0 -0.1316045148
C  C79  1  0.49082000  0.79058000  0.31711000  1.0 -0.1316045148
C  C80  1  0.79058000  0.49082000  0.18289000  1.0 -0.1316045148
C  C81  1  0.43402000  0.33198000  0.57271000  1.0 0.576117486
C  C82  1  0.33198000  0.43402000  0.92729000  1.0 0.576117486
C  C83  1  0.56598000  0.66802000  0.42729000  1.0 0.576117486
C  C84  1  0.66802000  0.56598000  0.07271000  1.0 0.576117486
C  C85  1  0.06640000  0.35360000  0.53630000  1.0 0.0078016583
C  C86  1  0.35360000  0.06640000  0.96370000  1.0 0.0078016583
C  C87  1  0.93360000  0.64640000  0.46370000  1.0 0.0078016583
C  C88  1  0.64640000  0.93360000  0.03630000  1.0 0.0078016583
C  C89  1  0.91270000  0.27190000  0.53700000  1.0 -0.0935827305
C  C90  1  0.27190000  0.91270000  0.96300000  1.0 -0.0935827305
C  C91  1  0.08730000  0.72810000  0.46300000  1.0 -0.0935827305
C  C92  1  0.72810000  0.08730000  0.03700000  1.0 -0.0935827305
C  C93  1  0.82262000  0.18678000  0.49839000  1.0 0.062811807
C  C94  1  0.18678000  0.82262000  0.00161000  1.0 0.062811807
C  C95  1  0.17738000  0.81322000  0.50161000  1.0 0.062811807
C  C96  1  0.81322000  0.17738000  0.99839000  1.0 0.062811807
C  C97  1  0.89840000  0.21000000  0.45760000  1.0 -0.0982680082
C  C98  1  0.21000000  0.89840000  0.04240000  1.0 -0.0982680082
C  C99  1  0.10160000  0.79000000  0.54240000  1.0 -0.0982680082
C  C100  1  0.79000000  0.10160000  0.95760000  1.0 -0.0982680082
C  C101  1  0.05100000  0.29180000  0.46000000  1.0 -0.0074516283
C  C102  1  0.29180000  0.05100000  0.04000000  1.0 -0.0074516283
C  C103  1  0.94900000  0.70820000  0.54000000  1.0 -0.0074516283
C  C104  1  0.70820000  0.94900000  0.96000000  1.0 -0.0074516283
C  C105  1  0.65669000  0.09231000  0.49828000  1.0 0.0438543505
C  C106  1  0.09231000  0.65669000  0.00172000  1.0 0.0438543505
C  C107  1  0.34331000  0.90769000  0.50172000  1.0 0.0438543505
C  C108  1  0.90769000  0.34331000  0.99828000  1.0 0.0438543505
C  C109  1  0.59468000  0.13892000  0.52200000  1.0 -0.1523521478
C  C110  1  0.13892000  0.59468000  0.97800000  1.0 -0.1523521478
C  C111  1  0.40532000  0.86108000  0.47800000  1.0 -0.1523521478
C  C112  1  0.86108000  0.40532000  0.02200000  1.0 -0.1523521478
C  C113  1  0.56110000  0.95530000  0.47631000  1.0 -0.119046468
C  C114  1  0.95530000  0.56110000  0.02369000  1.0 -0.119046468
C  C115  1  0.43890000  0.04470000  0.52369000  1.0 -0.119046468
C  C116  1  0.04470000  0.43890000  0.97631000  1.0 -0.119046468
C  C117  1  0.02690000  0.19050000  0.49730000  1.0 -0.0641317477
C  C118  1  0.19050000  0.02690000  0.00270000  1.0 -0.0641317477
C  C119  1  0.97310000  0.80950000  0.50270000  1.0 -0.0658881302
C  C120  1  0.80950000  0.97310000  0.99730000  1.0 -0.0658881302
C  C121  1  0.87340000  0.10460000  0.49630000  1.0 -0.1392654588
C  C122  1  0.10460000  0.87340000  0.00370000  1.0 -0.1392654588
C  C123  1  0.12660000  0.89540000  0.50370000  1.0 -0.1392654588
C  C124  1  0.89540000  0.12660000  0.99630000  1.0 -0.1392654588
C  C125  1  0.92670000  0.32890000  0.50460000  1.0 -0.0658881302
C  C126  1  0.32890000  0.92670000  0.99540000  1.0 -0.0658881302
C  C127  1  0.07330000  0.67110000  0.49540000  1.0 -0.0658881302
C  C128  1  0.67110000  0.07330000  0.00460000  1.0 -0.0658881302
C  C129  1  0.07640000  0.40680000  0.50550000  1.0 0.0272527317
C  C130  1  0.40680000  0.07640000  0.99450000  1.0 0.0272527317
C  C131  1  0.92360000  0.59320000  0.49450000  1.0 0.0272527317
C  C132  1  0.59320000  0.92360000  0.00550000  1.0 0.0272527317
N  N1  1  0.13232000  0.35208000  0.50007000  1.0 -0.0003265905
N  N2  1  0.35208000  0.13232000  0.99993000  1.0 -0.0003265905
N  N3  1  0.86768000  0.64792000  0.49993000  1.0 -0.0003265905
N  N4  1  0.64792000  0.86768000  0.00007000  1.0 -0.0003265905
O  O1  1  0.33087000  0.32573000  0.55861000  1.0 -0.5292752829
O  O2  1  0.32573000  0.33087000  0.94139000  1.0 -0.5292752829
O  O3  1  0.66913000  0.67427000  0.44139000  1.0 -0.5292752829
O  O4  1  0.67427000  0.66913000  0.05861000  1.0 -0.5292752829
O  O5  1  0.56012000  0.40588000  0.55333000  1.0 -0.5475882289
O  O6  1  0.40588000  0.56012000  0.94667000  1.0 -0.5475882289
O  O7  1  0.43988000  0.59412000  0.44667000  1.0 -0.5475882289
O  O8  1  0.59412000  0.43988000  0.05333000  1.0 -0.5475882289
O  O9  1  0.69895000  0.67605000  0.95846000  1.0 -0.5475882289
O  O10  1  0.67605000  0.69895000  0.54154000  1.0 -0.5475882289
O  O11  1  0.30105000  0.32395000  0.04154000  1.0 -0.5475882289
O  O12  1  0.32395000  0.30105000  0.45846000  1.0 -0.5475882289
O  O13  1  0.62786000  0.45294000  0.95266000  1.0 -0.5292752829
O  O14  1  0.45294000  0.62786000  0.54734000  1.0 -0.5292752829
O  O15  1  0.37214000  0.54706000  0.04734000  1.0 -0.5292752829
O  O16  1  0.54706000  0.37214000  0.45266000  1.0 -0.5292752829
