# DDEC6 charges by PACMAN v1.1 (https://github.com/mtap-research/PACMAN-charge/)
data_CIRRUU_FSR_pacman
_symmetry_space_group_name_H-M   'P 1'
_cell_length_a   16.42390000
_cell_length_b   18.21590000
_cell_length_c   20.28650000
_cell_angle_alpha   101.25200000
_cell_angle_beta   89.92700000
_cell_angle_gamma   102.42400000
_symmetry_Int_Tables_number   1
_chemical_formula_structural   ZnH22C35NO4
_chemical_formula_sum   'Zn4 H88 C140 N4 O16'
_cell_volume   5807.92825215
_cell_formula_units_Z   4
loop_
 _symmetry_equiv_pos_site_id
 _symmetry_equiv_pos_as_xyz
  1  'x, y, z'
loop_
 _atom_site_type_symbol
 _atom_site_label
 _atom_site_symmetry_multiplicity
 _atom_site_fract_x
 _atom_site_fract_y
 _atom_site_fract_z
 _atom_site_occupancy
 _atom_site_charge
Zn  Zn1  1  0.79942000  0.17106000  0.98619000  1.0 0.8374487674
Zn  Zn2  1  0.83666000  0.34033000  0.01349000  1.0 0.8526638067
Zn  Zn3  1  0.20058000  0.82894000  0.01381000  1.0 0.8374487674
Zn  Zn4  1  0.16334000  0.65967000  0.98651000  1.0 0.8526638067
H  H1  1  0.93142000  0.47488000  0.95448000  1.0 0.118961408
H  H2  1  0.92816000  0.59299000  0.95012000  1.0 0.1374920225
H  H3  1  0.69594000  0.79157000  0.01682000  1.0 0.1114660829
H  H4  1  0.95523000  0.72611000  0.00124000  1.0 0.118961408
H  H5  1  0.89206000  0.05337000  0.92237000  1.0 0.118961408
H  H6  1  0.37338000  0.34391000  0.62227000  1.0 0.118961408
H  H7  1  0.74732000  0.58770000  0.08369000  1.0 0.1283778074
H  H8  1  0.29943000  0.36238000  0.42322000  1.0 0.118961408
H  H9  1  0.95258000  0.84502000  0.99598000  1.0 0.118961408
H  H10  1  0.70605000  0.04125000  0.03952000  1.0 0.118961408
H  H11  1  0.19556000  0.35600000  0.56029000  1.0 0.118961408
H  H12  1  0.44783000  0.34269000  0.71718000  1.0 0.1114660829
H  H13  1  0.11042000  0.35343000  0.65511000  1.0 0.118961408
H  H14  1  0.60308000  0.13413000  0.13132000  1.0 0.118961408
H  H15  1  0.15812000  0.15114000  0.67161000  1.0 0.118961408
H  H16  1  0.94567000  0.14404000  0.81074000  1.0 0.1283778074
H  H17  1  0.52390000  0.13562000  0.22794000  1.0 0.1114660829
H  H18  1  0.02532000  0.36630000  0.86451000  1.0 0.118961408
H  H19  1  0.23044000  0.14769000  0.57538000  1.0 0.118961408
H  H20  1  0.70835000  0.91880000  0.05059000  1.0 0.1374920225
H  H21  1  0.02166000  0.39235000  0.18819000  1.0 0.1283778074
H  H22  1  0.57663000  0.35693000  0.77219000  1.0 0.1114660829
H  H23  1  0.92220000  0.94389000  0.94667000  1.0 0.1374920225
H  H24  1  0.10055000  0.38881000  0.27804000  1.0 0.118961408
H  H25  1  0.06498000  0.16962000  0.34206000  1.0 0.1114660829
H  H26  1  0.52165000  0.13004000  0.72973000  1.0 0.1114660829
H  H27  1  0.68032000  0.36747000  0.18303000  1.0 0.118961408
H  H28  1  0.05490000  0.15942000  0.22834000  1.0 0.1114660829
H  H29  1  0.23146000  0.36515000  0.31950000  1.0 0.118961408
H  H30  1  0.96839000  0.16138000  0.13616000  1.0 0.118961408
H  H31  1  0.58147000  0.34088000  0.38449000  1.0 0.1114660829
H  H32  1  0.70385000  0.66688000  0.01708000  1.0 0.118961408
H  H33  1  0.75396000  0.46246000  0.08449000  1.0 0.118961408
H  H34  1  0.02403000  0.13697000  0.71973000  1.0 0.1114660829
H  H35  1  0.43562000  0.15099000  0.52662000  1.0 0.118961408
H  H36  1  0.32889000  0.16399000  0.37574000  1.0 0.118961408
H  H37  1  0.10884000  0.36745000  0.76831000  1.0 0.118961408
H  H38  1  0.52312000  0.15338000  0.61823000  1.0 0.1114660829
H  H39  1  0.66002000  0.35233000  0.86422000  1.0 0.1283778074
H  H40  1  0.40599000  0.15818000  0.28490000  1.0 0.1114660829
H  H41  1  0.13168000  0.17104000  0.44138000  1.0 0.118961408
H  H42  1  0.50266000  0.33160000  0.48114000  1.0 0.118961408
H  H43  1  0.60655000  0.12463000  0.82260000  1.0 0.118961408
H  H44  1  0.58688000  0.36490000  0.27455000  1.0 0.1114660829
H  H45  1  0.06858000  0.52512000  0.04552000  1.0 0.118961408
H  H46  1  0.07184000  0.40701000  0.04988000  1.0 0.1374920225
H  H47  1  0.30406000  0.20843000  0.98318000  1.0 0.1114660829
H  H48  1  0.04477000  0.27389000  0.99876000  1.0 0.118961408
H  H49  1  0.10794000  0.94663000  0.07763000  1.0 0.118961408
H  H50  1  0.62662000  0.65609000  0.37773000  1.0 0.118961408
H  H51  1  0.25268000  0.41230000  0.91631000  1.0 0.1283778074
H  H52  1  0.70057000  0.63762000  0.57678000  1.0 0.118961408
H  H53  1  0.04742000  0.15498000  0.00402000  1.0 0.118961408
H  H54  1  0.29395000  0.95875000  0.96048000  1.0 0.118961408
H  H55  1  0.80444000  0.64400000  0.43971000  1.0 0.118961408
H  H56  1  0.55217000  0.65731000  0.28282000  1.0 0.1114660829
H  H57  1  0.88958000  0.64657000  0.34489000  1.0 0.1114660829
H  H58  1  0.39692000  0.86587000  0.86868000  1.0 0.118961408
H  H59  1  0.84188000  0.84886000  0.32839000  1.0 0.118961408
H  H60  1  0.05433000  0.85596000  0.18926000  1.0 0.1283778074
H  H61  1  0.47610000  0.86438000  0.77206000  1.0 0.1114660829
H  H62  1  0.97468000  0.63370000  0.13549000  1.0 0.118961408
H  H63  1  0.76956000  0.85231000  0.42462000  1.0 0.118961408
H  H64  1  0.29165000  0.08120000  0.94941000  1.0 0.1374920225
H  H65  1  0.97834000  0.60765000  0.81181000  1.0 0.1283778074
H  H66  1  0.42337000  0.64307000  0.22781000  1.0 0.1114660829
H  H67  1  0.07780000  0.05611000  0.05333000  1.0 0.1374920225
H  H68  1  0.89945000  0.61119000  0.72196000  1.0 0.118961408
H  H69  1  0.93502000  0.83038000  0.65794000  1.0 0.1114660829
H  H70  1  0.47835000  0.86996000  0.27027000  1.0 0.1114660829
H  H71  1  0.31968000  0.63253000  0.81697000  1.0 0.118961408
H  H72  1  0.94510000  0.84058000  0.77166000  1.0 0.1114660829
H  H73  1  0.76854000  0.63485000  0.68050000  1.0 0.118961408
H  H74  1  0.03161000  0.83862000  0.86384000  1.0 0.118961408
H  H75  1  0.41853000  0.65912000  0.61551000  1.0 0.1114660829
H  H76  1  0.29615000  0.33312000  0.98292000  1.0 0.118961408
H  H77  1  0.24604000  0.53754000  0.91551000  1.0 0.118961408
H  H78  1  0.97597000  0.86303000  0.28027000  1.0 0.1114660829
H  H79  1  0.56438000  0.84901000  0.47338000  1.0 0.118961408
H  H80  1  0.67111000  0.83601000  0.62426000  1.0 0.118961408
H  H81  1  0.89116000  0.63255000  0.23169000  1.0 0.118961408
H  H82  1  0.47688000  0.84662000  0.38177000  1.0 0.1114660829
H  H83  1  0.33998000  0.64767000  0.13578000  1.0 0.1283778074
H  H84  1  0.59401000  0.84182000  0.71510000  1.0 0.1114660829
H  H85  1  0.86832000  0.82896000  0.55862000  1.0 0.118961408
H  H86  1  0.49734000  0.66840000  0.51886000  1.0 0.118961408
H  H87  1  0.39345000  0.87537000  0.17740000  1.0 0.118961408
H  H88  1  0.41312000  0.63510000  0.72545000  1.0 0.1114660829
C  C1  1  0.83220000  0.60280000  0.00990000  1.0 0.1114660829
C  C2  1  0.89020000  0.49630000  0.97950000  1.0 0.0501755691
C  C3  1  0.81360000  0.91180000  0.99700000  1.0 0.1114660829
C  C4  1  0.88880000  0.56640000  0.97640000  1.0 -0.1699560194
C  C5  1  0.70860000  0.25120000  0.09160000  1.0 0.5876387274
C  C6  1  0.40710000  0.24700000  0.43770000  1.0 0.0616079098
C  C7  1  0.98680000  0.27960000  0.15390000  1.0 -0.049870043
C  C8  1  0.82380000  0.83500000  0.00060000  1.0 0.0692456714
C  C9  1  0.74810000  0.77700000  0.01100000  1.0 -0.1389864953
C  C10  1  0.64700000  0.24310000  0.84990000  1.0 -0.0129182841
C  C11  1  0.82980000  0.68540000  0.00650000  1.0 0.0692456714
C  C12  1  0.50290000  0.24820000  0.32330000  1.0 0.0802030163
C  C13  1  0.90300000  0.74070000  0.00210000  1.0 -0.11306768
C  C14  1  0.54490000  0.24460000  0.73930000  1.0 0.0616079098
C  C15  1  0.97550000  0.25400000  0.84640000  1.0 -0.049870043
C  C16  1  0.65060000  0.25130000  0.14830000  1.0 -0.039581175
C  C17  1  0.85930000  0.02780000  0.95320000  1.0 0.0692456714
C  C18  1  0.35720000  0.25340000  0.49970000  1.0 -0.0243037305
C  C19  1  0.22860000  0.26190000  0.43850000  1.0 0.0692456714
C  C20  1  0.40440000  0.30530000  0.62140000  1.0 -0.1504352396
C  C21  1  0.27610000  0.25690000  0.49870000  1.0 -0.039581175
C  C22  1  0.08760000  0.27640000  0.26070000  1.0 0.0616079098
C  C23  1  0.78310000  0.56340000  0.05440000  1.0 -0.2099334271
C  C24  1  0.25310000  0.32230000  0.40520000  1.0 -0.1504352396
C  C25  1  0.90170000  0.80960000  0.99920000  1.0 -0.1193941059
C  C26  1  0.74910000  0.01880000  0.01850000  1.0 0.0902308105
C  C27  1  0.18740000  0.31340000  0.58210000  1.0 -0.1504352396
C  C28  1  0.55520000  0.25030000  0.26250000  1.0 0.0616079098
C  C29  1  0.92480000  0.25600000  0.90580000  1.0 0.582173667
C  C30  1  0.93280000  0.27930000  0.09600000  1.0 0.5745656705
C  C31  1  0.49480000  0.24800000  0.68000000  1.0 0.0692456714
C  C32  1  0.13670000  0.27010000  0.32380000  1.0 0.0902308105
C  C33  1  0.44840000  0.30440000  0.67810000  1.0 -0.1389864953
C  C34  1  0.13590000  0.31160000  0.63890000  1.0 -0.1504352396
C  C35  1  0.07210000  0.25140000  0.73240000  1.0 0.0802030163
C  C36  1  0.70510000  0.23780000  0.90770000  1.0 0.5876387274
C  C37  1  0.60300000  0.18120000  0.16130000  1.0 -0.1015308485
C  C38  1  0.16280000  0.19180000  0.64780000  1.0 -0.1301638921
C  C39  1  0.97900000  0.19060000  0.80250000  1.0 -0.1015308485
C  C40  1  0.55590000  0.18240000  0.21890000  1.0 -0.1579150763
C  C41  1  0.02450000  0.31950000  0.83380000  1.0 -0.1015308485
C  C42  1  0.20860000  0.19160000  0.59240000  1.0 -0.1504352396
C  C43  1  0.74990000  0.94570000  0.02610000  1.0 -0.203440261
C  C44  1  0.02740000  0.34400000  0.19620000  1.0 -0.1015308485
C  C45  1  0.58310000  0.30870000  0.78000000  1.0 -0.1504352396
C  C46  1  0.40350000  0.25150000  0.56240000  1.0 0.0692456714
C  C47  1  0.22500000  0.25330000  0.55910000  1.0 0.0692456714
C  C48  1  0.87310000  0.95990000  0.96270000  1.0 -0.2099334271
C  C49  1  0.07510000  0.34210000  0.24870000  1.0 -0.1301638921
C  C50  1  0.11170000  0.20990000  0.35870000  1.0 -0.1504352396
C  C51  1  0.55220000  0.17660000  0.75640000  1.0 -0.1699560194
C  C52  1  0.64800000  0.32030000  0.19090000  1.0 -0.1015308485
C  C53  1  0.04730000  0.20680000  0.21930000  1.0 -0.1504352396
C  C54  1  0.21080000  0.32650000  0.34450000  1.0 -0.1699560194
C  C55  1  0.99610000  0.20770000  0.16490000  1.0 -0.1015308485
C  C56  1  0.53150000  0.30270000  0.38280000  1.0 -0.1579150763
C  C57  1  0.75250000  0.70420000  0.01230000  1.0 -0.1301638921
C  C58  1  0.78800000  0.48860000  0.05470000  1.0 0.0692456714
C  C59  1  0.02460000  0.18550000  0.74760000  1.0 -0.1389864953
C  C60  1  0.44230000  0.19240000  0.56420000  1.0 -0.1579150763
C  C61  1  0.38180000  0.19840000  0.37840000  1.0 -0.1301638921
C  C62  1  0.07490000  0.32100000  0.77620000  1.0 -0.1579150763
C  C63  1  0.49160000  0.19170000  0.62020000  1.0 -0.1504352396
C  C64  1  0.63400000  0.30530000  0.83570000  1.0 -0.0814265282
C  C65  1  0.12300000  0.25070000  0.67010000  1.0 0.0616079098
C  C66  1  0.42610000  0.19580000  0.32410000  1.0 -0.1389864953
C  C67  1  0.15360000  0.20880000  0.41580000  1.0 -0.1504352396
C  C68  1  0.48260000  0.29810000  0.43970000  1.0 -0.1579150763
C  C69  1  0.60280000  0.17230000  0.81180000  1.0 -0.1015308485
C  C70  1  0.59450000  0.31820000  0.24750000  1.0 -0.1579150763
C  C71  1  0.16780000  0.39720000  0.99010000  1.0 0.1114660829
C  C72  1  0.10980000  0.50370000  0.02050000  1.0 0.0501755691
C  C73  1  0.18640000  0.08820000  0.00300000  1.0 0.1114660829
C  C74  1  0.11120000  0.43360000  0.02360000  1.0 -0.1699560194
C  C75  1  0.29140000  0.74880000  0.90840000  1.0 0.5876387274
C  C76  1  0.59290000  0.75300000  0.56230000  1.0 0.0616079098
C  C77  1  0.01320000  0.72040000  0.84610000  1.0 -0.049870043
C  C78  1  0.17620000  0.16500000  0.99940000  1.0 0.0692456714
C  C79  1  0.25190000  0.22300000  0.98900000  1.0 -0.1389864953
C  C80  1  0.35300000  0.75690000  0.15010000  1.0 -0.0129182841
C  C81  1  0.17020000  0.31460000  0.99350000  1.0 0.0692456714
C  C82  1  0.49710000  0.75180000  0.67670000  1.0 0.0802030163
C  C83  1  0.09700000  0.25930000  0.99790000  1.0 -0.11306768
C  C84  1  0.45510000  0.75540000  0.26070000  1.0 0.0616079098
C  C85  1  0.02450000  0.74600000  0.15360000  1.0 -0.049870043
C  C86  1  0.34940000  0.74870000  0.85170000  1.0 -0.039581175
C  C87  1  0.14070000  0.97220000  0.04680000  1.0 0.0692456714
C  C88  1  0.64280000  0.74660000  0.50030000  1.0 -0.0243037305
C  C89  1  0.77140000  0.73810000  0.56150000  1.0 0.0692456714
C  C90  1  0.59560000  0.69470000  0.37860000  1.0 -0.1504352396
C  C91  1  0.72390000  0.74310000  0.50130000  1.0 -0.039581175
C  C92  1  0.91240000  0.72360000  0.73930000  1.0 0.0616079098
C  C93  1  0.21690000  0.43660000  0.94560000  1.0 -0.2099334271
C  C94  1  0.74690000  0.67770000  0.59480000  1.0 -0.1504352396
C  C95  1  0.09830000  0.19040000  0.00080000  1.0 -0.1193941059
C  C96  1  0.25090000  0.98120000  0.98150000  1.0 0.0902308105
C  C97  1  0.81260000  0.68660000  0.41790000  1.0 -0.1504352396
C  C98  1  0.44480000  0.74970000  0.73750000  1.0 0.0616079098
C  C99  1  0.07520000  0.74400000  0.09420000  1.0 0.582173667
C  C100  1  0.06720000  0.72070000  0.90400000  1.0 0.5745656705
C  C101  1  0.50520000  0.75200000  0.32000000  1.0 0.0692456714
C  C102  1  0.86330000  0.72990000  0.67620000  1.0 0.0902308105
C  C103  1  0.55160000  0.69560000  0.32190000  1.0 -0.1389864953
C  C104  1  0.86410000  0.68840000  0.36110000  1.0 -0.1504352396
C  C105  1  0.92790000  0.74860000  0.26760000  1.0 0.0802030163
C  C106  1  0.29490000  0.76220000  0.09230000  1.0 0.5876387274
C  C107  1  0.39700000  0.81880000  0.83870000  1.0 -0.1015308485
C  C108  1  0.83720000  0.80820000  0.35220000  1.0 -0.1301638921
C  C109  1  0.02100000  0.80940000  0.19750000  1.0 -0.1015308485
C  C110  1  0.44410000  0.81760000  0.78110000  1.0 -0.1504352396
C  C111  1  0.97550000  0.68050000  0.16620000  1.0 -0.1015308485
C  C112  1  0.79140000  0.80840000  0.40760000  1.0 -0.1504352396
C  C113  1  0.25010000  0.05430000  0.97390000  1.0 -0.203440261
C  C114  1  0.97260000  0.65600000  0.80380000  1.0 -0.0938615361
C  C115  1  0.41690000  0.69130000  0.22000000  1.0 -0.1504352396
C  C116  1  0.59650000  0.74850000  0.43760000  1.0 0.0692456714
C  C117  1  0.77500000  0.74670000  0.44090000  1.0 0.0692456714
C  C118  1  0.12690000  0.04010000  0.03730000  1.0 -0.2099334271
C  C119  1  0.92490000  0.65790000  0.75130000  1.0 -0.1301638921
C  C120  1  0.88830000  0.79010000  0.64130000  1.0 -0.1504352396
C  C121  1  0.44780000  0.82340000  0.24360000  1.0 -0.1699560194
C  C122  1  0.35200000  0.67970000  0.80910000  1.0 -0.1015308485
C  C123  1  0.95270000  0.79320000  0.78070000  1.0 -0.1504352396
C  C124  1  0.78920000  0.67350000  0.65550000  1.0 -0.1699560194
C  C125  1  0.00390000  0.79230000  0.83510000  1.0 -0.1015308485
C  C126  1  0.46850000  0.69730000  0.61720000  1.0 -0.1579150763
C  C127  1  0.24750000  0.29580000  0.98770000  1.0 -0.1301638921
C  C128  1  0.21200000  0.51140000  0.94530000  1.0 0.0692456714
C  C129  1  0.97540000  0.81450000  0.25240000  1.0 -0.1389864953
C  C130  1  0.55770000  0.80760000  0.43580000  1.0 -0.1579150763
C  C131  1  0.61820000  0.80160000  0.62160000  1.0 -0.1301638921
C  C132  1  0.92510000  0.67900000  0.22380000  1.0 -0.1579150763
C  C133  1  0.50840000  0.80830000  0.37980000  1.0 -0.1504352396
C  C134  1  0.36600000  0.69470000  0.16430000  1.0 -0.0814265282
C  C135  1  0.87700000  0.74930000  0.32990000  1.0 0.0616079098
C  C136  1  0.57390000  0.80420000  0.67590000  1.0 -0.1389864953
C  C137  1  0.84640000  0.79120000  0.58420000  1.0 -0.1504352396
C  C138  1  0.51740000  0.70190000  0.56030000  1.0 -0.1579150763
C  C139  1  0.39720000  0.82770000  0.18820000  1.0 -0.1015308485
C  C140  1  0.40550000  0.68180000  0.75250000  1.0 -0.1579150763
N  N1  1  0.83900000  0.44970000  0.01470000  1.0 -0.2360413754
N  N2  1  0.80150000  0.05970000  0.98540000  1.0 -0.203440261
N  N3  1  0.16100000  0.55030000  0.98530000  1.0 -0.2360413754
N  N4  1  0.19850000  0.94030000  0.01460000  1.0 -0.203440261
O  O1  1  0.88400000  0.19330000  0.91730000  1.0 -0.5396135831
O  O2  1  0.91920000  0.32090000  0.93960000  1.0 -0.5396135831
O  O3  1  0.74430000  0.30240000  0.93970000  1.0 -0.5486963177
O  O4  1  0.92420000  0.34530000  0.08530000  1.0 -0.5486963177
O  O5  1  0.71610000  0.18910000  0.05720000  1.0 -0.5308078909
O  O6  1  0.74880000  0.31860000  0.08210000  1.0 -0.5682008052
O  O7  1  0.89180000  0.21350000  0.05850000  1.0 -0.6072675669
O  O8  1  0.71030000  0.17350000  0.91620000  1.0 -0.5148260975
O  O9  1  0.11600000  0.80670000  0.08270000  1.0 -0.5396135831
O  O10  1  0.08080000  0.67910000  0.06040000  1.0 -0.5396135831
O  O11  1  0.25570000  0.69760000  0.06030000  1.0 -0.5486963177
O  O12  1  0.07580000  0.65470000  0.91470000  1.0 -0.5486963177
O  O13  1  0.28390000  0.81090000  0.94280000  1.0 -0.5308078909
O  O14  1  0.25120000  0.68140000  0.91790000  1.0 -0.5682008052
O  O15  1  0.10820000  0.78650000  0.94150000  1.0 -0.6072675669
O  O16  1  0.28970000  0.82650000  0.08380000  1.0 -0.5148260975
