# DDEC6 charges by PACMAN v1.1 (https://github.com/mtap-research/PACMAN-charge/)
data_CISDER_ASR_pacman
_symmetry_space_group_name_H-M   'P 1'
_cell_length_a   16.38000000
_cell_length_b   18.01500000
_cell_length_c   20.21000000
_cell_angle_alpha   102.33700000
_cell_angle_beta   90.33700000
_cell_angle_gamma   115.84500000
_symmetry_Int_Tables_number   1
_chemical_formula_structural   ZnH26C38NO5
_chemical_formula_sum   'Zn4 H104 C152 N4 O20'
_cell_volume   5209.87126119
_cell_formula_units_Z   4
loop_
 _symmetry_equiv_pos_site_id
 _symmetry_equiv_pos_as_xyz
  1  'x, y, z'
loop_
 _atom_site_type_symbol
 _atom_site_label
 _atom_site_symmetry_multiplicity
 _atom_site_fract_x
 _atom_site_fract_y
 _atom_site_fract_z
 _atom_site_occupancy
 _atom_site_charge
Zn  Zn1  1  0.02287000  0.40485000  0.33634000  1.0 0.8523064764
Zn  Zn2  1  0.94480000  0.21684000  0.30229000  1.0 0.8351018342
Zn  Zn3  1  0.97713000  0.59515000  0.66366000  1.0 0.8523064764
Zn  Zn4  1  0.05520000  0.78316000  0.69771000  1.0 0.8346535476
H  H1  1  0.86910000  0.07344000  0.37476000  1.0 0.1112828844
H  H2  1  0.88590000  0.95288000  0.37817000  1.0 0.1028246196
H  H3  1  0.03905000  0.98638000  0.22244000  1.0 0.1112828844
H  H4  1  0.02225000  0.10694000  0.21902000  1.0 0.1198353022
H  H5  1  0.05637000  0.51742000  0.24250000  1.0 0.1198353022
H  H6  1  0.04621000  0.63633000  0.23162000  1.0 0.1287514033
H  H7  1  0.65700000  0.16613000  0.54080000  1.0 0.1198353022
H  H8  1  0.32752000  0.47255000  0.59858000  1.0 0.1198353022
H  H9  1  0.57519000  0.40229000  0.94622000  1.0 0.1112828844
H  H10  1  0.24202000  0.47465000  0.50769000  1.0 0.1287514033
H  H11  1  0.46193000  0.19970000  0.69298000  1.0 0.1287514033
H  H12  1  0.74445000  0.16798000  0.45138000  1.0 0.1198353022
H  H13  1  0.40999000  0.43748000  0.89475000  1.0 0.1198353022
H  H14  1  0.75960000  0.40022000  0.69512000  1.0 0.1198353022
H  H15  1  0.28028000  0.23814000  0.76773000  1.0 0.1112828844
H  H16  1  0.34496000  0.44419000  0.99365000  1.0 0.1112828844
H  H17  1  0.68892000  0.40010000  0.79145000  1.0 0.1198353022
H  H18  1  0.85210000  0.42036000  0.49203000  1.0 0.1198353022
H  H19  1  0.53682000  0.19337000  0.59884000  1.0 0.1198353022
H  H20  1  0.86609000  0.40164000  0.17810000  1.0 0.1198353022
H  H21  1  0.65091000  0.39382000  0.03626000  1.0 0.1112828844
H  H22  1  0.58448000  0.19954000  0.83172000  1.0 0.1287514033
H  H23  1  0.09633000  0.22417000  0.46998000  1.0 0.1112828844
H  H24  1  0.76469000  0.42033000  0.58050000  1.0 0.1198353022
H  H25  1  0.09322000  0.19885000  0.13179000  1.0 0.1198353022
H  H26  1  0.99260000  0.54439000  0.42829000  1.0 0.1198353022
H  H27  1  0.33605000  0.45203000  0.11047000  1.0 0.1028246196
H  H28  1  0.17884000  0.20364000  0.04120000  1.0 0.1112828844
H  H29  1  0.65844000  0.18545000  0.92083000  1.0 0.1198353022
H  H30  1  0.20260000  0.24649000  0.67627000  1.0 0.1028246196
H  H31  1  0.42985000  0.43803000  0.64875000  1.0 0.1198353022
H  H32  1  0.50793000  0.42887000  0.73928000  1.0 0.1198353022
H  H33  1  0.94957000  0.69643000  0.22336000  1.0 0.1198353022
H  H34  1  0.78094000  0.40602000  0.08898000  1.0 0.1112828844
H  H35  1  0.25060000  0.45401000  0.20186000  1.0 0.1112828844
H  H36  1  0.37432000  0.20514000  0.89605000  1.0 0.1198353022
H  H37  1  0.97798000  0.66234000  0.42225000  1.0 0.1287514033
H  H38  1  0.73799000  0.14748000  0.11947000  1.0 0.1287514033
H  H39  1  0.17632000  0.22262000  0.56241000  1.0 0.1112828844
H  H40  1  0.30518000  0.21000000  0.99406000  1.0 0.1198353022
H  H41  1  0.03591000  0.93096000  0.40506000  1.0 0.1198353022
H  H42  1  0.65901000  0.15334000  0.02948000  1.0 0.1112828844
H  H43  1  0.13714000  0.87828000  0.52364000  1.0 0.1287514033
H  H44  1  0.13896000  0.93394000  0.47318000  1.0 0.1198353022
H  H45  1  0.05103000  0.89151000  0.50861000  1.0 0.1112828844
H  H46  1  0.84106000  0.69100000  0.15726000  1.0 0.1198353022
H  H47  1  0.83762000  0.74424000  0.10619000  1.0 0.1287514033
H  H48  1  0.92576000  0.73311000  0.11864000  1.0 0.1198353022
H  H49  1  0.07867000  0.16229000  0.33092000  1.0 0.1198353022
H  H50  1  0.09478000  0.04192000  0.33719000  1.0 0.1028246196
H  H51  1  0.82930000  0.89778000  0.26935000  1.0 0.1028246196
H  H52  1  0.81163000  0.01843000  0.26902000  1.0 0.1287514033
H  H53  1  0.13090000  0.92656000  0.62524000  1.0 0.1112828844
H  H54  1  0.11410000  0.04712000  0.62183000  1.0 0.1028246196
H  H55  1  0.96095000  0.01362000  0.77756000  1.0 0.1112828844
H  H56  1  0.97775000  0.89306000  0.78098000  1.0 0.1198353022
H  H57  1  0.94363000  0.48258000  0.75750000  1.0 0.1198353022
H  H58  1  0.95379000  0.36367000  0.76838000  1.0 0.1287514033
H  H59  1  0.34300000  0.83387000  0.45920000  1.0 0.1198353022
H  H60  1  0.67248000  0.52745000  0.40142000  1.0 0.1198353022
H  H61  1  0.42481000  0.59771000  0.05378000  1.0 0.1112828844
H  H62  1  0.75798000  0.52535000  0.49231000  1.0 0.1287514033
H  H63  1  0.53807000  0.80030000  0.30702000  1.0 0.1287514033
H  H64  1  0.25555000  0.83202000  0.54862000  1.0 0.1198353022
H  H65  1  0.59001000  0.56252000  0.10525000  1.0 0.1198353022
H  H66  1  0.24040000  0.59978000  0.30488000  1.0 0.1198353022
H  H67  1  0.71972000  0.76186000  0.23227000  1.0 0.1112828844
H  H68  1  0.65504000  0.55581000  0.00635000  1.0 0.1112828844
H  H69  1  0.31108000  0.59990000  0.20855000  1.0 0.1198353022
H  H70  1  0.14790000  0.57964000  0.50797000  1.0 0.1198353022
H  H71  1  0.46318000  0.80663000  0.40116000  1.0 0.1198353022
H  H72  1  0.13391000  0.59836000  0.82190000  1.0 0.1198353022
H  H73  1  0.34909000  0.60618000  0.96374000  1.0 0.1112828844
H  H74  1  0.41552000  0.80046000  0.16828000  1.0 0.1287514033
H  H75  1  0.90367000  0.77583000  0.53002000  1.0 0.1112828844
H  H76  1  0.23531000  0.57967000  0.41950000  1.0 0.1198353022
H  H77  1  0.90678000  0.80115000  0.86821000  1.0 0.1198353022
H  H78  1  0.00740000  0.45561000  0.57171000  1.0 0.1198353022
H  H79  1  0.66395000  0.54797000  0.88953000  1.0 0.1028246196
H  H80  1  0.82116000  0.79636000  0.95880000  1.0 0.1112828844
H  H81  1  0.34156000  0.81455000  0.07917000  1.0 0.1198353022
H  H82  1  0.79740000  0.75351000  0.32373000  1.0 0.1028246196
H  H83  1  0.57015000  0.56197000  0.35125000  1.0 0.1198353022
H  H84  1  0.49207000  0.57113000  0.26072000  1.0 0.1198353022
H  H85  1  0.05043000  0.30357000  0.77664000  1.0 0.1198353022
H  H86  1  0.21906000  0.59398000  0.91102000  1.0 0.1112828844
H  H87  1  0.74940000  0.54599000  0.79814000  1.0 0.1112828844
H  H88  1  0.62568000  0.79486000  0.10395000  1.0 0.1198353022
H  H89  1  0.02202000  0.33766000  0.57775000  1.0 0.1287514033
H  H90  1  0.26201000  0.85252000  0.88053000  1.0 0.1287514033
H  H91  1  0.82368000  0.77738000  0.43759000  1.0 0.1112828844
H  H92  1  0.69482000  0.79000000  0.00594000  1.0 0.1198353022
H  H93  1  0.96409000  0.06904000  0.59494000  1.0 0.1198353022
H  H94  1  0.34099000  0.84666000  0.97052000  1.0 0.1112828844
H  H95  1  0.86286000  0.12172000  0.47636000  1.0 0.1287514033
H  H96  1  0.86104000  0.06606000  0.52682000  1.0 0.1198353022
H  H97  1  0.94897000  0.10849000  0.49139000  1.0 0.1112828844
H  H98  1  0.15894000  0.30900000  0.84274000  1.0 0.1198353022
H  H99  1  0.16238000  0.25576000  0.89381000  1.0 0.1287514033
H  H100  1  0.07424000  0.26689000  0.88136000  1.0 0.1198353022
H  H101  1  0.92133000  0.83771000  0.66908000  1.0 0.1198353022
H  H102  1  0.90522000  0.95808000  0.66281000  1.0 0.1028246196
H  H103  1  0.17070000  0.10222000  0.73065000  1.0 0.1028246196
H  H104  1  0.18837000  0.98157000  0.73098000  1.0 0.1287514033
C  C1  1  0.90320000  0.05600000  0.34420000  1.0 -0.0368160417
C  C2  1  0.91320000  0.98380000  0.34630000  1.0 -0.0994130074
C  C3  1  0.96410000  0.95770000  0.30060000  1.0 0.0693752766
C  C4  1  0.00500000  0.00380000  0.25300000  1.0 -0.0994130074
C  C5  1  0.99490000  0.07610000  0.25090000  1.0 -0.0207277801
C  C6  1  0.40110000  0.32780000  0.76260000  1.0 0.0693752766
C  C7  1  0.04020000  0.54710000  0.27930000  1.0 0.0693752766
C  C8  1  0.86690000  0.29590000  0.40640000  1.0 0.5879772616
C  C9  1  0.56830000  0.30210000  0.75340000  1.0 0.0693752766
C  C10  1  0.80680000  0.29300000  0.46220000  1.0 -0.0368160417
C  C11  1  0.10350000  0.35100000  0.42150000  1.0 0.5843716773
C  C12  1  0.03470000  0.61900000  0.27220000  1.0 -0.2010123668
C  C13  1  0.69690000  0.21760000  0.53190000  1.0 -0.1586196046
C  C14  1  0.57230000  0.30170000  0.87780000  1.0 0.0693752766
C  C15  1  0.15890000  0.35180000  0.48080000  1.0 -0.0319115761
C  C16  1  0.70480000  0.29420000  0.57300000  1.0 0.0693752766
C  C17  1  0.27990000  0.42230000  0.57380000  1.0 -0.1586196046
C  C18  1  0.65510000  0.29630000  0.63480000  1.0 0.0693752766
C  C19  1  0.40050000  0.32000000  0.88480000  1.0 0.0693752766
C  C20  1  0.16130000  0.32860000  0.17630000  1.0 -0.0207277801
C  C21  1  0.59280000  0.35900000  0.94100000  1.0 -0.1586196046
C  C22  1  0.22810000  0.42310000  0.51860000  1.0 -0.0994130074
C  C23  1  0.52230000  0.23930000  0.69400000  1.0 -0.1500681279
C  C24  1  0.66400000  0.28770000  0.98950000  1.0 0.0693752766
C  C25  1  0.74910000  0.21910000  0.47770000  1.0 -0.0994130074
C  C26  1  0.31060000  0.34310000  0.65010000  1.0 0.0693752766
C  C27  1  0.80970000  0.27270000  0.15800000  1.0 -0.0319115761
C  C28  1  0.25920000  0.34530000  0.59130000  1.0 0.0693752766
C  C29  1  0.52490000  0.30890000  0.81770000  1.0 -0.0368160417
C  C30  1  0.38960000  0.39150000  0.91480000  1.0 -0.1586196046
C  C31  1  0.26500000  0.32680000  0.06650000  1.0 0.0635134118
C  C32  1  0.70020000  0.35900000  0.69450000  1.0 -0.1335743157
C  C33  1  0.31220000  0.27810000  0.74320000  1.0 -0.1424011212
C  C34  1  0.31400000  0.32570000  0.00420000  1.0 0.0693752766
C  C35  1  0.10120000  0.32750000  0.23290000  1.0 0.5879772616
C  C36  1  0.34930000  0.39480000  0.97340000  1.0 -0.1586196046
C  C37  1  0.86480000  0.27170000  0.21760000  1.0 0.5879772616
C  C38  1  0.65700000  0.35930000  0.75170000  1.0 -0.1424011212
C  C39  1  0.81300000  0.36920000  0.50190000  1.0 -0.0994130074
C  C40  1  0.44820000  0.31880000  0.82090000  1.0 -0.0207277801
C  C41  1  0.01150000  0.66630000  0.32710000  1.0 0.1287514033
C  C42  1  0.95060000  0.81040000  0.25070000  1.0 0.1894940647
C  C43  1  0.56700000  0.23700000  0.63740000  1.0 -0.1424011212
C  C44  1  0.82390000  0.35160000  0.14870000  1.0 -0.0994130074
C  C45  1  0.63750000  0.35370000  0.99510000  1.0 -0.1424011212
C  C46  1  0.59790000  0.23890000  0.87330000  1.0 -0.1500681279
C  C47  1  0.14130000  0.27490000  0.49660000  1.0 -0.1113929331
C  C48  1  0.97610000  0.88090000  0.30640000  1.0 -0.0319115761
C  C49  1  0.76140000  0.36920000  0.55550000  1.0 -0.1424011212
C  C50  1  0.14020000  0.24990000  0.12750000  1.0 -0.1113929331
C  C51  1  0.00260000  0.56220000  0.38790000  1.0 0.1028246196
C  C52  1  0.71200000  0.28110000  0.04810000  1.0 0.0635134118
C  C53  1  0.28690000  0.40210000  0.11470000  1.0 -0.165260197
C  C54  1  0.19300000  0.25360000  0.07400000  1.0 -0.1500681279
C  C55  1  0.64260000  0.23000000  0.92680000  1.0 -0.1424011212
C  C56  1  0.26450000  0.28290000  0.68790000  1.0 -0.1586196046
C  C57  1  0.39890000  0.39590000  0.67170000  1.0 -0.1424011212
C  C58  1  0.44660000  0.39100000  0.72650000  1.0 -0.1586196046
C  C59  1  0.96520000  0.74310000  0.26000000  1.0 -0.2889117686
C  C60  1  0.77330000  0.35350000  0.09450000  1.0 -0.1500681279
C  C61  1  0.23540000  0.40340000  0.16960000  1.0 -0.1165400533
C  C62  1  0.36790000  0.25370000  0.91540000  1.0 -0.1500681279
C  C63  1  0.00260000  0.74190000  0.32220000  1.0 -0.0319115761
C  C64  1  0.99480000  0.63430000  0.38480000  1.0 -0.1931063024
C  C65  1  0.02760000  0.81290000  0.37560000  1.0 0.1962236079
C  C66  1  0.74770000  0.20020000  0.11300000  1.0 -0.0911760082
C  C67  1  0.19070000  0.27440000  0.55180000  1.0 -0.1424011212
C  C68  1  0.32580000  0.25630000  0.97450000  1.0 -0.1500681279
C  C69  1  0.01670000  0.88320000  0.36890000  1.0 -0.2956054298
C  C70  1  0.70010000  0.20360000  0.05920000  1.0 -0.1424011212
C  C71  1  0.10150000  0.88470000  0.48940000  1.0 -0.2409748224
C  C72  1  0.87600000  0.73960000  0.13950000  1.0 -0.2301458431
C  C73  1  0.02860000  0.10900000  0.31830000  1.0 -0.0141592998
C  C74  1  0.03880000  0.03700000  0.32140000  1.0 -0.1113929331
C  C75  1  0.87950000  0.95100000  0.28160000  1.0 -0.1113929331
C  C76  1  0.86910000  0.02320000  0.28050000  1.0 -0.0207277801
C  C77  1  0.09680000  0.94400000  0.65580000  1.0 -0.0319115761
C  C78  1  0.08680000  0.01620000  0.65370000  1.0 -0.0994130074
C  C79  1  0.03590000  0.04230000  0.69940000  1.0 0.0693752766
C  C80  1  0.99500000  0.99620000  0.74700000  1.0 -0.1113929331
C  C81  1  0.00510000  0.92390000  0.74910000  1.0 -0.0207277801
C  C82  1  0.59890000  0.67220000  0.23740000  1.0 0.0693752766
C  C83  1  0.95980000  0.45290000  0.72070000  1.0 0.0693752766
C  C84  1  0.13310000  0.70410000  0.59360000  1.0 0.5879772616
C  C85  1  0.43170000  0.69790000  0.24660000  1.0 0.0693752766
C  C86  1  0.19320000  0.70700000  0.53780000  1.0 -0.0368160417
C  C87  1  0.89650000  0.64900000  0.57850000  1.0 0.5843716773
C  C88  1  0.96530000  0.38100000  0.72780000  1.0 -0.2010123668
C  C89  1  0.30310000  0.78240000  0.46810000  1.0 -0.1586196046
C  C90  1  0.42770000  0.69830000  0.12220000  1.0 0.0693752766
C  C91  1  0.84110000  0.64820000  0.51920000  1.0 -0.0319115761
C  C92  1  0.29520000  0.70580000  0.42700000  1.0 0.0693752766
C  C93  1  0.72010000  0.57770000  0.42620000  1.0 -0.1586196046
C  C94  1  0.34490000  0.70370000  0.36520000  1.0 0.0693752766
C  C95  1  0.59950000  0.68000000  0.11520000  1.0 0.0693752766
C  C96  1  0.83870000  0.67140000  0.82370000  1.0 -0.0207277801
C  C97  1  0.40720000  0.64100000  0.05900000  1.0 -0.1586196046
C  C98  1  0.77190000  0.57690000  0.48140000  1.0 -0.0994130074
C  C99  1  0.47770000  0.76070000  0.30600000  1.0 -0.1500681279
C  C100  1  0.33600000  0.71230000  0.01050000  1.0 0.0693752766
C  C101  1  0.25090000  0.78090000  0.52230000  1.0 -0.0994130074
C  C102  1  0.68940000  0.65690000  0.34990000  1.0 0.0693752766
C  C103  1  0.19030000  0.72730000  0.84200000  1.0 -0.0319115761
C  C104  1  0.74080000  0.65470000  0.40870000  1.0 0.0693752766
C  C105  1  0.47510000  0.69110000  0.18230000  1.0 -0.0368160417
C  C106  1  0.61040000  0.60850000  0.08520000  1.0 -0.1586196046
C  C107  1  0.73500000  0.67320000  0.93350000  1.0 0.0635134118
C  C108  1  0.29980000  0.64100000  0.30550000  1.0 -0.1335743157
C  C109  1  0.68780000  0.72190000  0.25680000  1.0 -0.1424011212
C  C110  1  0.68600000  0.67430000  0.99580000  1.0 0.0635134118
C  C111  1  0.89880000  0.67250000  0.76710000  1.0 0.5879772616
C  C112  1  0.65070000  0.60520000  0.02660000  1.0 -0.1586196046
C  C113  1  0.13520000  0.72830000  0.78240000  1.0 0.5879772616
C  C114  1  0.34300000  0.64070000  0.24830000  1.0 -0.1424011212
C  C115  1  0.18700000  0.63080000  0.49810000  1.0 -0.0994130074
C  C116  1  0.55180000  0.68120000  0.17910000  1.0 -0.0207277801
C  C117  1  0.98850000  0.33370000  0.67290000  1.0 0.1287514033
C  C118  1  0.04940000  0.18960000  0.74930000  1.0 0.1894940647
C  C119  1  0.43300000  0.76300000  0.36260000  1.0 -0.1424011212
C  C120  1  0.17610000  0.64840000  0.85130000  1.0 -0.0994130074
C  C121  1  0.36250000  0.64630000  0.00490000  1.0 -0.1424011212
C  C122  1  0.40210000  0.76110000  0.12670000  1.0 -0.1500681279
C  C123  1  0.85870000  0.72510000  0.50340000  1.0 -0.1113929331
C  C124  1  0.02390000  0.11910000  0.69360000  1.0 -0.0319115761
C  C125  1  0.23860000  0.63080000  0.44450000  1.0 -0.1424011212
C  C126  1  0.85980000  0.75010000  0.87250000  1.0 -0.1113929331
C  C127  1  0.99740000  0.43780000  0.61210000  1.0 0.1028246196
C  C128  1  0.28800000  0.71890000  0.95190000  1.0 0.0693752766
C  C129  1  0.71310000  0.59790000  0.88530000  1.0 -0.165260197
C  C130  1  0.80700000  0.74640000  0.92600000  1.0 -0.1500681279
C  C131  1  0.35740000  0.77000000  0.07320000  1.0 -0.1424011212
C  C132  1  0.73550000  0.71710000  0.31210000  1.0 -0.1586196046
C  C133  1  0.60110000  0.60410000  0.32830000  1.0 -0.1424011212
C  C134  1  0.55340000  0.60900000  0.27350000  1.0 -0.1586196046
C  C135  1  0.03480000  0.25690000  0.74000000  1.0 -0.2889117686
C  C136  1  0.22670000  0.64650000  0.90550000  1.0 -0.1500681279
C  C137  1  0.76460000  0.59660000  0.83040000  1.0 -0.1165400533
C  C138  1  0.63210000  0.74630000  0.08460000  1.0 -0.1500681279
C  C139  1  0.99740000  0.25810000  0.67780000  1.0 -0.0319115761
C  C140  1  0.00520000  0.36570000  0.61520000  1.0 -0.1931063024
C  C141  1  0.97240000  0.18710000  0.62440000  1.0 0.1962236079
C  C142  1  0.25230000  0.79980000  0.88700000  1.0 -0.0911760082
C  C143  1  0.80930000  0.72560000  0.44820000  1.0 -0.1424011212
C  C144  1  0.67420000  0.74370000  0.02550000  1.0 -0.1500681279
C  C145  1  0.98330000  0.11680000  0.63110000  1.0 -0.2956054298
C  C146  1  0.29990000  0.79640000  0.94080000  1.0 -0.1424011212
C  C147  1  0.89850000  0.11530000  0.51060000  1.0 -0.2409748224
C  C148  1  0.12400000  0.26040000  0.86050000  1.0 -0.2301458431
C  C149  1  0.97140000  0.89100000  0.68170000  1.0 -0.0141592998
C  C150  1  0.96120000  0.96300000  0.67860000  1.0 -0.1113929331
C  C151  1  0.12050000  0.04900000  0.71840000  1.0 -0.1113929331
C  C152  1  0.13090000  0.97680000  0.71950000  1.0 -0.0207277801
N  N1  1  0.02380000  0.51630000  0.33610000  1.0 -0.2301458431
N  N2  1  0.94400000  0.10210000  0.29660000  1.0 -0.0319115761
N  N3  1  0.97620000  0.48370000  0.66390000  1.0 -0.2301458431
N  N4  1  0.05600000  0.89790000  0.70340000  1.0 -0.0319115761
O  O1  1  0.92140000  0.36720000  0.39798000  1.0 -0.5501407621
O  O2  1  0.11370000  0.42330000  0.41304000  1.0 -0.5501407621
O  O3  1  0.04820000  0.27840000  0.38330000  1.0 -0.5960591523
O  O4  1  0.85950000  0.22400000  0.37150000  1.0 -0.5602094519
O  O5  1  0.04480000  0.25480000  0.24070000  1.0 -0.5761765329
O  O6  1  0.11060000  0.39980000  0.26770000  1.0 -0.5602094519
O  O7  1  0.92140000  0.34160000  0.25490000  1.0 -0.5658995
O  O8  1  0.85200000  0.19720000  0.22510000  1.0 -0.5602094519
O  O9  1  0.91060000  0.81350000  0.19310000  1.0 -0.1586196046
O  O10  1  0.06780000  0.81060000  0.43360000  1.0 -0.1586196046
O  O11  1  0.07860000  0.63280000  0.60202000  1.0 -0.5501407621
O  O12  1  0.88630000  0.57670000  0.58696000  1.0 -0.5501407621
O  O13  1  0.95180000  0.72160000  0.61670000  1.0 -0.5960591523
O  O14  1  0.14050000  0.77600000  0.62850000  1.0 -0.5602094519
O  O15  1  0.95520000  0.74520000  0.75930000  1.0 -0.5761765329
O  O16  1  0.88940000  0.60020000  0.73230000  1.0 -0.5602094519
O  O17  1  0.07860000  0.65840000  0.74510000  1.0 -0.5658995
O  O18  1  0.14800000  0.80280000  0.77490000  1.0 -0.5602094519
O  O19  1  0.08940000  0.18650000  0.80690000  1.0 -0.1586196046
O  O20  1  0.93220000  0.18940000  0.56640000  1.0 -0.1586196046
