# DDEC6 charges by PACMAN v1.1 (https://github.com/mtap-research/PACMAN-charge/)
data_CISMAT01_FSR_pacman
_symmetry_space_group_name_H-M   'P 1'
_cell_length_a   4.96925000
_cell_length_b   12.00130000
_cell_length_c   10.74400000
_cell_angle_alpha   90.00000000
_cell_angle_beta   94.05830000
_cell_angle_gamma   90.00000000
_symmetry_Int_Tables_number   1
_chemical_formula_structural   AlPC2O4F
_chemical_formula_sum   'Al4 P4 C8 O16 F4'
_cell_volume   639.13823783
_cell_formula_units_Z   4
loop_
 _symmetry_equiv_pos_site_id
 _symmetry_equiv_pos_as_xyz
  1  'x, y, z'
loop_
 _atom_site_type_symbol
 _atom_site_label
 _atom_site_symmetry_multiplicity
 _atom_site_fract_x
 _atom_site_fract_y
 _atom_site_fract_z
 _atom_site_occupancy
 _atom_site_charge
Al  Al1  1  0.00000000  0.50000000  0.00000000  1.0 1.8582975893
Al  Al2  1  0.00000000  0.00000000  0.00000000  1.0 1.8582975893
Al  Al3  1  0.75230000  0.75000000  0.10980000  1.0 1.7594112187
Al  Al4  1  0.24770000  0.25000000  0.89020000  1.0 1.7594112187
P  P1  1  0.47910000  0.48689000  0.81770000  1.0 1.3608931332
P  P2  1  0.52090000  0.98689000  0.18230000  1.0 1.3608931332
P  P3  1  0.52090000  0.51311000  0.18230000  1.0 1.3608931332
P  P4  1  0.47910000  0.01311000  0.81770000  1.0 1.3608931332
C  C1  1  0.55230000  0.47650000  0.56230000  1.0 0.1730234168
C  C2  1  0.44770000  0.97650000  0.43770000  1.0 0.1730234168
C  C3  1  0.44770000  0.52350000  0.43770000  1.0 0.1730234168
C  C4  1  0.55230000  0.02350000  0.56230000  1.0 0.1730234168
C  C5  1  0.39430000  0.53310000  0.65830000  1.0 -0.2826967434
C  C6  1  0.60570000  0.03310000  0.34170000  1.0 -0.2826967434
C  C7  1  0.60570000  0.46690000  0.34170000  1.0 -0.2826967434
C  C8  1  0.39430000  0.96690000  0.65830000  1.0 -0.2826967434
O  O1  1  0.29240000  0.54450000  0.90340000  1.0 -0.7184828491
O  O2  1  0.70760000  0.04450000  0.09660000  1.0 -0.7184828491
O  O3  1  0.70760000  0.45550000  0.09660000  1.0 -0.7184828491
O  O4  1  0.29240000  0.95550000  0.90340000  1.0 -0.7184828491
O  O5  1  0.44460000  0.36000000  0.81720000  1.0 -0.7138131828
O  O6  1  0.55540000  0.86000000  0.18280000  1.0 -0.7138131828
O  O7  1  0.55540000  0.64000000  0.18280000  1.0 -0.7138131828
O  O8  1  0.44460000  0.14000000  0.81720000  1.0 -0.7138131828
O  O9  1  0.76660000  0.51870000  0.85460000  1.0 -0.7463101119
O  O10  1  0.23340000  0.01870000  0.14540000  1.0 -0.7463101119
O  O11  1  0.23340000  0.48130000  0.14540000  1.0 -0.7463101119
O  O12  1  0.76660000  0.98130000  0.85460000  1.0 -0.7463101119
O  O13  1  0.50960000  0.75000000  0.96210000  1.0 -0.3592329741
O  O14  1  0.49040000  0.25000000  0.03790000  1.0 -0.3592329741
O  O15  1  0.03800000  0.75000000  0.24420000  1.0 -0.3592329741
O  O16  1  0.96200000  0.25000000  0.75580000  1.0 -0.3592329741
F  F1  1  0.95280000  0.64880000  0.03220000  1.0 -0.5222350926
F  F2  1  0.04720000  0.14880000  0.96780000  1.0 -0.5222350926
F  F3  1  0.04720000  0.35120000  0.96780000  1.0 -0.5222350926
F  F4  1  0.95280000  0.85120000  0.03220000  1.0 -0.5222350926
