# DDEC6 charges by PACMAN v1.1 (https://github.com/mtap-research/PACMAN-charge/)
data_CIVTEH_FSR_pacman
_symmetry_space_group_name_H-M   'P 1'
_cell_length_a   13.95830000
_cell_length_b   13.95830000
_cell_length_c   19.60640000
_cell_angle_alpha   83.81790000
_cell_angle_beta   96.18210000
_cell_angle_gamma   51.98350000
_symmetry_Int_Tables_number   1
_chemical_formula_structural   CuH12C26N8O5
_chemical_formula_sum   'Cu4 H48 C104 N32 O20'
_cell_volume   2917.24425168
_cell_formula_units_Z   4
loop_
 _symmetry_equiv_pos_site_id
 _symmetry_equiv_pos_as_xyz
  1  'x, y, z'
loop_
 _atom_site_type_symbol
 _atom_site_label
 _atom_site_symmetry_multiplicity
 _atom_site_fract_x
 _atom_site_fract_y
 _atom_site_fract_z
 _atom_site_occupancy
 _atom_site_charge
Cu  Cu1  1  0.69679000  0.85925000  0.03777000  1.0 0.7537596971
Cu  Cu2  1  0.85925000  0.69679000  0.46223000  1.0 0.7537596971
Cu  Cu3  1  0.30321000  0.14075000  0.96223000  1.0 0.7537596971
Cu  Cu4  1  0.14075000  0.30321000  0.53777000  1.0 0.7537596971
H  H1  1  0.62140000  0.62200000  0.12810000  1.0 0.1110844482
H  H2  1  0.62200000  0.62140000  0.37190000  1.0 0.1110844482
H  H3  1  0.37860000  0.37800000  0.87190000  1.0 0.1110844482
H  H4  1  0.37800000  0.37860000  0.62810000  1.0 0.1110844482
H  H5  1  0.54250000  0.52590000  0.16840000  1.0 0.101527094
H  H6  1  0.52590000  0.54250000  0.33160000  1.0 0.101527094
H  H7  1  0.45750000  0.47410000  0.83160000  1.0 0.101527094
H  H8  1  0.47410000  0.45750000  0.66840000  1.0 0.101527094
H  H9  1  0.19880000  0.86140000  0.13360000  1.0 0.101527094
H  H10  1  0.86140000  0.19880000  0.36640000  1.0 0.101527094
H  H11  1  0.80120000  0.13860000  0.86640000  1.0 0.101527094
H  H12  1  0.13860000  0.80120000  0.63360000  1.0 0.101527094
H  H13  1  0.27780000  0.95800000  0.09170000  1.0 0.1217401786
H  H14  1  0.95800000  0.27780000  0.40830000  1.0 0.1217401786
H  H15  1  0.72220000  0.04200000  0.90830000  1.0 0.1217401786
H  H16  1  0.04200000  0.72220000  0.59170000  1.0 0.1217401786
H  H17  1  0.97770000  0.63890000  0.23100000  1.0 0.1367629031
H  H18  1  0.63890000  0.97770000  0.26900000  1.0 0.1367629031
H  H19  1  0.02230000  0.36110000  0.76900000  1.0 0.1367629031
H  H20  1  0.36110000  0.02230000  0.73100000  1.0 0.1367629031
H  H21  1  0.85660000  0.67380000  0.31370000  1.0 0.1110844482
H  H22  1  0.67380000  0.85660000  0.18630000  1.0 0.1110844482
H  H23  1  0.14340000  0.32620000  0.68630000  1.0 0.1110844482
H  H24  1  0.32620000  0.14340000  0.81370000  1.0 0.1110844482
H  H25  1  0.09100000  0.66240000  0.45440000  1.0 0.1110844482
H  H26  1  0.66240000  0.09100000  0.04560000  1.0 0.1110844482
H  H27  1  0.90900000  0.33760000  0.54560000  1.0 0.1110844482
H  H28  1  0.33760000  0.90900000  0.95440000  1.0 0.1110844482
H  H29  1  0.21260000  0.63040000  0.37490000  1.0 0.101527094
H  H30  1  0.63040000  0.21260000  0.12510000  1.0 0.101527094
H  H31  1  0.78740000  0.36960000  0.62510000  1.0 0.101527094
H  H32  1  0.36960000  0.78740000  0.87490000  1.0 0.101527094
H  H33  1  0.33100000  0.25700000  0.19160000  1.0 0.1367629031
H  H34  1  0.25700000  0.33100000  0.30840000  1.0 0.1367629031
H  H35  1  0.66900000  0.74300000  0.80840000  1.0 0.1367629031
H  H36  1  0.74300000  0.66900000  0.69160000  1.0 0.1367629031
H  H37  1  0.33590000  0.13490000  0.11770000  1.0 0.1110844482
H  H38  1  0.13490000  0.33590000  0.38230000  1.0 0.1110844482
H  H39  1  0.66410000  0.86510000  0.88230000  1.0 0.1110844482
H  H40  1  0.86510000  0.66410000  0.61770000  1.0 0.1110844482
H  H41  1  0.19340000  0.39820000  0.95110000  1.0 0.1110844482
H  H42  1  0.39820000  0.19340000  0.54890000  1.0 0.1110844482
H  H43  1  0.80660000  0.60180000  0.04890000  1.0 0.1110844482
H  H44  1  0.60180000  0.80660000  0.45110000  1.0 0.1110844482
H  H45  1  0.18040000  0.53040000  0.01800000  1.0 0.1217401786
H  H46  1  0.53040000  0.18040000  0.48200000  1.0 0.1217401786
H  H47  1  0.81960000  0.46960000  0.98200000  1.0 0.1217401786
H  H48  1  0.46960000  0.81960000  0.51800000  1.0 0.1217401786
C  C1  1  0.50413000  0.86553000  0.07820000  1.0 0.5536037237
C  C2  1  0.86553000  0.50413000  0.42180000  1.0 0.5536037237
C  C3  1  0.49587000  0.13447000  0.92180000  1.0 0.5536037237
C  C4  1  0.13447000  0.49587000  0.57820000  1.0 0.5536037237
C  C5  1  0.45607000  0.80087000  0.10660000  1.0 -0.0273684905
C  C6  1  0.80087000  0.45607000  0.39340000  1.0 -0.0273684905
C  C7  1  0.54393000  0.19913000  0.89340000  1.0 -0.0273684905
C  C8  1  0.19913000  0.54393000  0.60660000  1.0 -0.0273684905
C  C9  1  0.53550000  0.67070000  0.12900000  1.0 -0.1002490694
C  C10  1  0.67070000  0.53550000  0.37100000  1.0 -0.1002490694
C  C11  1  0.46450000  0.32930000  0.87100000  1.0 -0.1002490694
C  C12  1  0.32930000  0.46450000  0.62900000  1.0 -0.1002490694
C  C13  1  0.48820000  0.61400000  0.15240000  1.0 -0.170285806
C  C14  1  0.61400000  0.48820000  0.34760000  1.0 -0.170285806
C  C15  1  0.51180000  0.38600000  0.84760000  1.0 -0.170285806
C  C16  1  0.38600000  0.51180000  0.65240000  1.0 -0.170285806
C  C17  1  0.36297000  0.68337000  0.15300000  1.0 0.0263673868
C  C18  1  0.68337000  0.36297000  0.34700000  1.0 0.0263673868
C  C19  1  0.63703000  0.31663000  0.84700000  1.0 0.0263673868
C  C20  1  0.31663000  0.63703000  0.65300000  1.0 0.0263673868
C  C21  1  0.28430000  0.81250000  0.13180000  1.0 -0.1372785977
C  C22  1  0.81250000  0.28430000  0.36820000  1.0 -0.1372785977
C  C23  1  0.71570000  0.18750000  0.86820000  1.0 -0.1372785977
C  C24  1  0.18750000  0.71570000  0.63180000  1.0 -0.1372785977
C  C25  1  0.33200000  0.87000000  0.10760000  1.0 -0.087760508
C  C26  1  0.87000000  0.33200000  0.39240000  1.0 -0.087760508
C  C27  1  0.66800000  0.13000000  0.89240000  1.0 -0.087760508
C  C28  1  0.13000000  0.66800000  0.60760000  1.0 -0.087760508
C  C29  1  0.30910000  0.62250000  0.17390000  1.0 -0.0437833303
C  C30  1  0.62250000  0.30910000  0.32610000  1.0 -0.0437833303
C  C31  1  0.69090000  0.37750000  0.82610000  1.0 -0.0437833303
C  C32  1  0.37750000  0.69090000  0.67390000  1.0 -0.0437833303
C  C33  1  0.24270000  0.65130000  0.22660000  1.0 -0.0213610189
C  C34  1  0.65130000  0.24270000  0.27340000  1.0 -0.0213610189
C  C35  1  0.75730000  0.34870000  0.77340000  1.0 -0.0213610189
C  C36  1  0.34870000  0.75730000  0.72660000  1.0 -0.0213610189
C  C37  1  0.18920000  0.59600000  0.24150000  1.0 0.1636149325
C  C38  1  0.59600000  0.18920000  0.25850000  1.0 0.1636149325
C  C39  1  0.81080000  0.40400000  0.75850000  1.0 0.1636149325
C  C40  1  0.40400000  0.81080000  0.74150000  1.0 0.1636149325
C  C41  1  0.25986000  0.48786000  0.15460000  1.0 0.1636149325
C  C42  1  0.48786000  0.25986000  0.34540000  1.0 0.1636149325
C  C43  1  0.74014000  0.51214000  0.84540000  1.0 0.1636149325
C  C44  1  0.51214000  0.74014000  0.65460000  1.0 0.1636149325
C  C45  1  0.31970000  0.53650000  0.13900000  1.0 -0.0213610189
C  C46  1  0.53650000  0.31970000  0.36100000  1.0 -0.0213610189
C  C47  1  0.68030000  0.46350000  0.86100000  1.0 -0.0213610189
C  C48  1  0.46350000  0.68030000  0.63900000  1.0 -0.0213610189
C  C49  1  0.40950000  0.48030000  0.09510000  1.0 0.1309633554
C  C50  1  0.48030000  0.40950000  0.40490000  1.0 0.1309633554
C  C51  1  0.59050000  0.51970000  0.90490000  1.0 0.1309633554
C  C52  1  0.51970000  0.59050000  0.59510000  1.0 0.1309633554
C  C53  1  0.25310000  0.72170000  0.27200000  1.0 0.1217401786
C  C54  1  0.72170000  0.25310000  0.22800000  1.0 0.1217401786
C  C55  1  0.74690000  0.27830000  0.72800000  1.0 0.1217401786
C  C56  1  0.27830000  0.74690000  0.77200000  1.0 0.1217401786
C  C57  1  0.11128000  0.62548000  0.29570000  1.0 0.0666591191
C  C58  1  0.62548000  0.11128000  0.20430000  1.0 0.0666591191
C  C59  1  0.88872000  0.37452000  0.70430000  1.0 0.0666591191
C  C60  1  0.37452000  0.88872000  0.79570000  1.0 0.0666591191
C  C61  1  0.00290000  0.64210000  0.27710000  1.0 -0.1536899059
C  C62  1  0.64210000  0.00290000  0.22290000  1.0 -0.1536899059
C  C63  1  0.99710000  0.35790000  0.72290000  1.0 -0.1536899059
C  C64  1  0.35790000  0.99710000  0.77710000  1.0 -0.1536899059
C  C65  1  0.93040000  0.66380000  0.32640000  1.0 0.0779967635
C  C66  1  0.66380000  0.93040000  0.17360000  1.0 0.0779967635
C  C67  1  0.06960000  0.33620000  0.67360000  1.0 0.0779967635
C  C68  1  0.33620000  0.06960000  0.82640000  1.0 0.0779967635
C  C69  1  0.06733000  0.65733000  0.40850000  1.0 0.0878045857
C  C70  1  0.65733000  0.06733000  0.09150000  1.0 0.0878045857
C  C71  1  0.93267000  0.34267000  0.59150000  1.0 0.0878045857
C  C72  1  0.34267000  0.93267000  0.90850000  1.0 0.0878045857
C  C73  1  0.14098000  0.63678000  0.36160000  1.0 -0.2040180414
C  C74  1  0.63678000  0.14098000  0.13840000  1.0 -0.2040180414
C  C75  1  0.85902000  0.36322000  0.63840000  1.0 -0.2040180414
C  C76  1  0.36322000  0.85902000  0.86160000  1.0 -0.2040180414
C  C77  1  0.25890000  0.40570000  0.11270000  1.0 0.0666591191
C  C78  1  0.40570000  0.25890000  0.38730000  1.0 0.0666591191
C  C79  1  0.74110000  0.59430000  0.88730000  1.0 0.0666591191
C  C80  1  0.59430000  0.74110000  0.61270000  1.0 0.0666591191
C  C81  1  0.30320000  0.28820000  0.14210000  1.0 -0.1630309224
C  C82  1  0.28820000  0.30320000  0.35790000  1.0 -0.1630309224
C  C83  1  0.69680000  0.71180000  0.85790000  1.0 -0.1630309224
C  C84  1  0.71180000  0.69680000  0.64210000  1.0 -0.1630309224
C  C85  1  0.30630000  0.21590000  0.09720000  1.0 0.101527094
C  C86  1  0.21590000  0.30630000  0.40280000  1.0 0.101527094
C  C87  1  0.69370000  0.78410000  0.90280000  1.0 0.101527094
C  C88  1  0.78410000  0.69370000  0.59720000  1.0 0.101527094
C  C89  1  0.22340000  0.36880000  0.00060000  1.0 0.0779967635
C  C90  1  0.36880000  0.22340000  0.49940000  1.0 0.0779967635
C  C91  1  0.77660000  0.63120000  0.99940000  1.0 0.0779967635
C  C92  1  0.63120000  0.77660000  0.50060000  1.0 0.0779967635
C  C93  1  0.21530000  0.44810000  0.03990000  1.0 -0.1808929294
C  C94  1  0.44810000  0.21530000  0.46010000  1.0 -0.1808929294
C  C95  1  0.78470000  0.55190000  0.96010000  1.0 -0.1808929294
C  C96  1  0.55190000  0.78470000  0.53990000  1.0 -0.1808929294
C  C97  1  0.52260000  0.35460000  0.42930000  1.0 0.1367629031
C  C98  1  0.35460000  0.52260000  0.07070000  1.0 0.1367629031
C  C99  1  0.47740000  0.64540000  0.57070000  1.0 0.1367629031
C  C100  1  0.64540000  0.47740000  0.92930000  1.0 0.1367629031
C  C101  1  0.76670000  0.18930000  0.24890000  1.0 0.1367629031
C  C102  1  0.18930000  0.76670000  0.25110000  1.0 0.1367629031
C  C103  1  0.23330000  0.81070000  0.75110000  1.0 0.1367629031
C  C104  1  0.81070000  0.23330000  0.74890000  1.0 0.1367629031
N  N1  1  0.19959000  0.51419000  0.20702000  1.0 -0.2636121436
N  N2  1  0.51419000  0.19959000  0.29298000  1.0 -0.2636121436
N  N3  1  0.80041000  0.48581000  0.79298000  1.0 -0.2636121436
N  N4  1  0.48581000  0.80041000  0.70702000  1.0 -0.2636121436
N  N5  1  0.47050000  0.43770000  0.05570000  1.0 -0.1002490694
N  N6  1  0.43770000  0.47050000  0.44430000  1.0 -0.1002490694
N  N7  1  0.52950000  0.56230000  0.94430000  1.0 -0.1002490694
N  N8  1  0.56230000  0.52950000  0.55570000  1.0 -0.1002490694
N  N9  1  0.25650000  0.78010000  0.30670000  1.0 -0.1002490694
N  N10  1  0.78010000  0.25650000  0.19330000  1.0 -0.1002490694
N  N11  1  0.74350000  0.21990000  0.69330000  1.0 -0.1002490694
N  N12  1  0.21990000  0.74350000  0.80670000  1.0 -0.1002490694
N  N13  1  0.96369000  0.67069000  0.39227000  1.0 -0.2411891221
N  N14  1  0.67069000  0.96369000  0.10773000  1.0 -0.2411891221
N  N15  1  0.03631000  0.32931000  0.60773000  1.0 -0.2411891221
N  N16  1  0.32931000  0.03631000  0.89227000  1.0 -0.2411891221
N  N17  1  0.27116000  0.25236000  0.02850000  1.0 -0.2183680496
N  N18  1  0.25236000  0.27116000  0.47150000  1.0 -0.2183680496
N  N19  1  0.72884000  0.74764000  0.97150000  1.0 -0.2183680496
N  N20  1  0.74764000  0.72884000  0.52850000  1.0 -0.2183680496
N  N21  1  0.93532000  0.76472000  0.06100000  1.0 0.6782865078
N  N22  1  0.76472000  0.93532000  0.43900000  1.0 0.6782865078
N  N23  1  0.06468000  0.23528000  0.93900000  1.0 0.6782865078
N  N24  1  0.23528000  0.06468000  0.56100000  1.0 0.6782865078
N  N25  1  0.50130000  0.39330000  0.47870000  1.0 -0.0596886575
N  N26  1  0.39330000  0.50130000  0.02130000  1.0 -0.0596886575
N  N27  1  0.49870000  0.60670000  0.52130000  1.0 -0.0596886575
N  N28  1  0.60670000  0.49870000  0.97870000  1.0 -0.0596886575
N  N29  1  0.85260000  0.15200000  0.22660000  1.0 -0.0697532594
N  N30  1  0.15200000  0.85260000  0.27340000  1.0 -0.0697532594
N  N31  1  0.14740000  0.84800000  0.77340000  1.0 -0.0697532594
N  N32  1  0.84800000  0.14740000  0.72660000  1.0 -0.0697532594
O  O1  1  0.62127000  0.79667000  0.08424000  1.0 -0.5428843945
O  O2  1  0.79667000  0.62127000  0.41576000  1.0 -0.5428843945
O  O3  1  0.37873000  0.20333000  0.91576000  1.0 -0.5428843945
O  O4  1  0.20333000  0.37873000  0.58424000  1.0 -0.5428843945
O  O5  1  0.42951000  0.97751000  0.05085000  1.0 -0.5798320025
O  O6  1  0.97751000  0.42951000  0.44915000  1.0 -0.5798320025
O  O7  1  0.57049000  0.02249000  0.94915000  1.0 -0.5798320025
O  O8  1  0.02249000  0.57049000  0.55085000  1.0 -0.5798320025
O  O9  1  0.83649000  0.85869000  0.01589000  1.0 -0.4146856516
O  O10  1  0.85869000  0.83649000  0.48411000  1.0 -0.4146856516
O  O11  1  0.16351000  0.14131000  0.98411000  1.0 -0.4146856516
O  O12  1  0.14131000  0.16351000  0.51589000  1.0 -0.4146856516
O  O13  1  0.03502000  0.74542000  0.06160000  1.0 -0.3886286169
O  O14  1  0.74542000  0.03502000  0.43840000  1.0 -0.3886286169
O  O15  1  0.96498000  0.25458000  0.93840000  1.0 -0.3886286169
O  O16  1  0.25458000  0.96498000  0.56160000  1.0 -0.3886286169
O  O17  1  0.92511000  0.69911000  0.10180000  1.0 -0.4309099763
O  O18  1  0.69911000  0.92511000  0.39820000  1.0 -0.4309099763
O  O19  1  0.07489000  0.30089000  0.89820000  1.0 -0.4309099763
O  O20  1  0.30089000  0.07489000  0.60180000  1.0 -0.4309099763
