# DDEC6 charges by PACMAN v1.1 (https://github.com/mtap-research/PACMAN-charge/)
data_CIWHUP_ASR_pacman
_symmetry_space_group_name_H-M   'P 1'
_cell_length_a   13.04860000
_cell_length_b   13.04860000
_cell_length_c   13.04860000
_cell_angle_alpha   116.71400000
_cell_angle_beta   116.71400000
_cell_angle_gamma   116.71400000
_symmetry_Int_Tables_number   1
_chemical_formula_structural   FeH12(C7N4)3
_chemical_formula_sum   'Fe2 H24 C42 N24'
_cell_volume   1023.10800231
_cell_formula_units_Z   2
loop_
 _symmetry_equiv_pos_site_id
 _symmetry_equiv_pos_as_xyz
  1  'x, y, z'
loop_
 _atom_site_type_symbol
 _atom_site_label
 _atom_site_symmetry_multiplicity
 _atom_site_fract_x
 _atom_site_fract_y
 _atom_site_fract_z
 _atom_site_occupancy
 _atom_site_charge
Fe  Fe1  1  0.22047000  0.22047000  0.22047000  1.0 0.3903646355
Fe  Fe2  1  0.72027000  0.72027000  0.72027000  1.0 0.3737453109
H  H1  1  0.00581000  0.08200000  0.43017000  1.0 0.1084595631
H  H2  1  0.08200000  0.43017000  0.00581000  1.0 0.1084595631
H  H3  1  0.43017000  0.00581000  0.08200000  1.0 0.1084595631
H  H4  1  0.00581000  0.43017000  0.08200000  1.0 0.1084595631
H  H5  1  0.08200000  0.00581000  0.43017000  1.0 0.1084595631
H  H6  1  0.43017000  0.08200000  0.00581000  1.0 0.1084595631
H  H7  1  0.88812000  0.95975000  0.48779000  1.0 0.1084595631
H  H8  1  0.95975000  0.48779000  0.88812000  1.0 0.1084595631
H  H9  1  0.48779000  0.88812000  0.95975000  1.0 0.1084595631
H  H10  1  0.88812000  0.48779000  0.95975000  1.0 0.1084595631
H  H11  1  0.95975000  0.88812000  0.48779000  1.0 0.1084595631
H  H12  1  0.48779000  0.95975000  0.88812000  1.0 0.1084595631
H  H13  1  0.43866000  0.32609000  0.99353000  1.0 0.1084595631
H  H14  1  0.32609000  0.99353000  0.43866000  1.0 0.1084595631
H  H15  1  0.99353000  0.43866000  0.32609000  1.0 0.1084595631
H  H16  1  0.43866000  0.99353000  0.32609000  1.0 0.1084595631
H  H17  1  0.32609000  0.43866000  0.99353000  1.0 0.1084595631
H  H18  1  0.99353000  0.32609000  0.43866000  1.0 0.1084595631
H  H19  1  0.55636000  0.44834000  0.93591000  1.0 0.1084595631
H  H20  1  0.44834000  0.93591000  0.55636000  1.0 0.1084595631
H  H21  1  0.93591000  0.55636000  0.44834000  1.0 0.1084595631
H  H22  1  0.55636000  0.93591000  0.44834000  1.0 0.1084595631
H  H23  1  0.44834000  0.55636000  0.93591000  1.0 0.1084595631
H  H24  1  0.93591000  0.44834000  0.55636000  1.0 0.1084595631
C  C1  1  0.08085000  0.08085000  0.80130000  1.0 0.1771828717
C  C2  1  0.08085000  0.80130000  0.08085000  1.0 0.1771828717
C  C3  1  0.80130000  0.08085000  0.08085000  1.0 0.1771828717
C  C4  1  0.35625000  0.35625000  0.63570000  1.0 0.1662504659
C  C5  1  0.35625000  0.63570000  0.35625000  1.0 0.1662504659
C  C6  1  0.63570000  0.35625000  0.35625000  1.0 0.1662504659
C  C7  1  0.09250000  0.13090000  0.54310000  1.0 -0.0698776657
C  C8  1  0.13090000  0.54310000  0.09250000  1.0 -0.0698776657
C  C9  1  0.54310000  0.09250000  0.13090000  1.0 -0.0698776657
C  C10  1  0.09250000  0.54310000  0.13090000  1.0 -0.0698776657
C  C11  1  0.13090000  0.09250000  0.54310000  1.0 -0.0698776657
C  C12  1  0.54310000  0.13090000  0.09250000  1.0 -0.0698776657
C  C13  1  0.02200000  0.05770000  0.57760000  1.0 -0.0773846919
C  C14  1  0.05770000  0.57760000  0.02200000  1.0 -0.0773846919
C  C15  1  0.57760000  0.02200000  0.05770000  1.0 -0.0773846919
C  C16  1  0.02200000  0.57760000  0.05770000  1.0 -0.0773846919
C  C17  1  0.05770000  0.02200000  0.57760000  1.0 -0.0773846919
C  C18  1  0.57760000  0.05770000  0.02200000  1.0 -0.0773846919
C  C19  1  0.15180000  0.13080000  0.74640000  1.0 0.0506312063
C  C20  1  0.13080000  0.74640000  0.15180000  1.0 0.0506312063
C  C21  1  0.74640000  0.15180000  0.13080000  1.0 0.0506312063
C  C22  1  0.15180000  0.74640000  0.13080000  1.0 0.0506312063
C  C23  1  0.13080000  0.15180000  0.74640000  1.0 0.0506312063
C  C24  1  0.74640000  0.13080000  0.15180000  1.0 0.0506312063
C  C25  1  0.35190000  0.27710000  0.88060000  1.0 -0.1341098661
C  C26  1  0.27710000  0.88060000  0.35190000  1.0 -0.1341098661
C  C27  1  0.88060000  0.35190000  0.27710000  1.0 -0.1341098661
C  C28  1  0.35190000  0.88060000  0.27710000  1.0 -0.1341098661
C  C29  1  0.27710000  0.35190000  0.88060000  1.0 -0.1341098661
C  C30  1  0.88060000  0.27710000  0.35190000  1.0 -0.1341098661
C  C31  1  0.42230000  0.35040000  0.84610000  1.0 -0.1033610964
C  C32  1  0.35040000  0.84610000  0.42230000  1.0 -0.1033610964
C  C33  1  0.84610000  0.42230000  0.35040000  1.0 -0.1033610964
C  C34  1  0.42230000  0.84610000  0.35040000  1.0 -0.1033610964
C  C35  1  0.35040000  0.42230000  0.84610000  1.0 -0.1033610964
C  C36  1  0.84610000  0.35040000  0.42230000  1.0 -0.1033610964
C  C37  1  0.29280000  0.27730000  0.67730000  1.0 0.0352545441
C  C38  1  0.27730000  0.67730000  0.29280000  1.0 0.0352545441
C  C39  1  0.67730000  0.29280000  0.27730000  1.0 0.0352545441
C  C40  1  0.29280000  0.67730000  0.27730000  1.0 0.0352545441
C  C41  1  0.27730000  0.29280000  0.67730000  1.0 0.0352545441
C  C42  1  0.67730000  0.27730000  0.29280000  1.0 0.0352545441
N  N1  1  0.53745000  0.53745000  0.76260000  1.0 -0.2139833013
N  N2  1  0.53745000  0.76260000  0.53745000  1.0 -0.2139833013
N  N3  1  0.76260000  0.53745000  0.53745000  1.0 -0.2139833013
N  N4  1  0.23115000  0.23115000  0.44790000  1.0 -0.2139833013
N  N5  1  0.23115000  0.44790000  0.23115000  1.0 -0.2139833013
N  N6  1  0.44790000  0.23115000  0.23115000  1.0 -0.2139833013
N  N7  1  0.33465000  0.33465000  0.45720000  1.0 0.0049057238
N  N8  1  0.33465000  0.45720000  0.33465000  1.0 0.0049057238
N  N9  1  0.45720000  0.33465000  0.33465000  1.0 0.0049057238
N  N10  1  0.51370000  0.51370000  0.64060000  1.0 0.0224244909
N  N11  1  0.51370000  0.64060000  0.51370000  1.0 0.0224244909
N  N12  1  0.64060000  0.51370000  0.51370000  1.0 0.0224244909
N  N13  1  0.10650000  0.10650000  0.98400000  1.0 -0.0023870875
N  N14  1  0.10650000  0.98400000  0.10650000  1.0 -0.0023870875
N  N15  1  0.98400000  0.10650000  0.10650000  1.0 -0.0023870875
N  N16  1  0.91870000  0.91870000  0.79170000  1.0 0.0089689656
N  N17  1  0.91870000  0.79170000  0.91870000  1.0 0.0089689656
N  N18  1  0.79170000  0.91870000  0.91870000  1.0 0.0089689656
N  N19  1  0.90650000  0.90650000  0.67960000  1.0 -0.2263693774
N  N20  1  0.90650000  0.67960000  0.90650000  1.0 -0.2263693774
N  N21  1  0.67960000  0.90650000  0.90650000  1.0 -0.2263693774
N  N22  1  0.21210000  0.21210000  0.99540000  1.0 -0.2476941312
N  N23  1  0.21210000  0.99540000  0.21210000  1.0 -0.2476941312
N  N24  1  0.99540000  0.21210000  0.21210000  1.0 -0.2476941312
