# DDEC6 charges by PACMAN v1.1 (https://github.com/mtap-research/PACMAN-charge/)
data_CIWLON_FSR_pacman
_symmetry_space_group_name_H-M   'P 1'
_cell_length_a   20.61500000
_cell_length_b   5.93100000
_cell_length_c   21.66700000
_cell_angle_alpha   90.00000000
_cell_angle_beta   95.51000000
_cell_angle_gamma   90.00000000
_symmetry_Int_Tables_number   1
_chemical_formula_structural   CuH44C35(NO2)5
_chemical_formula_sum   'Cu4 H176 C140 N20 O40'
_cell_volume   2636.93071542
_cell_formula_units_Z   4
loop_
 _symmetry_equiv_pos_site_id
 _symmetry_equiv_pos_as_xyz
  1  'x, y, z'
loop_
 _atom_site_type_symbol
 _atom_site_label
 _atom_site_symmetry_multiplicity
 _atom_site_fract_x
 _atom_site_fract_y
 _atom_site_fract_z
 _atom_site_occupancy
 _atom_site_charge
Cu  Cu1  1  0.44688000  0.86223000  0.28296000  1.0 0.3514373855
Cu  Cu2  1  0.46442000  0.83742000  0.30960000  1.0 0.3748218597
Cu  Cu3  1  0.55312000  0.36223000  0.71704000  1.0 0.3514373855
Cu  Cu4  1  0.53558000  0.33742000  0.69040000  1.0 0.3748218597
H  H1  1  0.57317000  0.08143000  0.06771000  1.0 0.0806918903
H  H2  1  0.49183000  0.80492000  0.05983000  1.0 0.070625425
H  H3  1  0.43863000  0.70883000  0.14680000  1.0 0.0806918903
H  H4  1  0.54810000  0.16577000  0.24952000  1.0 0.0806918903
H  H5  1  0.58627000  0.48950000  0.23869000  1.0 0.0611251971
H  H6  1  0.66617000  0.76530000  0.18970000  1.0 0.0993081003
H  H7  1  0.69681000  0.65391000  0.25415000  1.0 0.1095962998
H  H8  1  0.73947000  0.35669000  0.20621000  1.0 0.0899219753
H  H9  1  0.63262000  0.62885000  0.08698000  1.0 0.1095962998
H  H10  1  0.68581000  0.51727000  0.04729000  1.0 0.1295862858
H  H11  1  0.61535000  0.40437000  0.04782000  1.0 0.0993081003
H  H12  1  0.72341000  0.03604000  0.14434000  1.0 0.0993081003
H  H13  1  0.68545000  0.05325000  0.07640000  1.0 0.0993081003
H  H14  1  0.80162000  0.07481000  0.07410000  1.0 0.0899219753
H  H15  1  0.76483000  0.28788000  0.04217000  1.0 0.0993081003
H  H16  1  0.83599000  0.27882000  0.16175000  1.0 0.0806918903
H  H17  1  0.76772000  0.67341000  0.11418000  1.0 0.0806918903
H  H18  1  0.82434000  0.61568000  0.23862000  1.0 0.1095962998
H  H19  1  0.80563000  0.84805000  0.20392000  1.0 0.1095962998
H  H20  1  0.92081000  0.82137000  0.20873000  1.0 0.1095962998
H  H21  1  0.82653000  0.66394000  0.03394000  1.0 0.1295862858
H  H22  1  0.90091000  0.64802000  0.01894000  1.0 0.1201968339
H  H23  1  0.85161000  0.44591000  0.99977000  1.0 0.1201968339
H  H24  1  0.90335000  0.14097000  0.05399000  1.0 0.0993081003
H  H25  1  0.93017000  0.15342000  0.12563000  1.0 0.0993081003
H  H26  1  0.98914000  0.37390000  0.02720000  1.0 0.1201968339
H  H27  1  0.01886000  0.15919000  0.06497000  1.0 0.1095962998
H  H28  1  0.01093000  0.75683000  0.15821000  1.0 0.1295862858
H  H29  1  0.98830000  0.75822000  0.08541000  1.0 0.1295862858
H  H30  1  0.03513000  0.37277000  0.15655000  1.0 0.070625425
H  H31  1  0.20977000  0.74694000  0.10224000  1.0 0.0993081003
H  H32  1  0.23386000  0.49661000  0.11991000  1.0 0.1295862858
H  H33  1  0.19055000  0.54255000  0.05583000  1.0 0.1201968339
H  H34  1  0.47788000  0.11196000  0.40323000  1.0 0.070625425
H  H35  1  0.35961000  0.58212000  0.35487000  1.0 0.0806918903
H  H36  1  0.38660000  0.78333000  0.53427000  1.0 0.0993081003
H  H37  1  0.45645000  0.06948000  0.50671000  1.0 0.0806918903
H  H38  1  0.34589000  0.36749000  0.55336000  1.0 0.0806918903
H  H39  1  0.27028000  0.03331000  0.50976000  1.0 0.0993081003
H  H40  1  0.23740000  0.19423000  0.55835000  1.0 0.1095962998
H  H41  1  0.19415000  0.42993000  0.48303000  1.0 0.0899219753
H  H42  1  0.25117000  0.12270000  0.35291000  1.0 0.1095962998
H  H43  1  0.32105000  0.24246000  0.35819000  1.0 0.0806918903
H  H44  1  0.30387000  0.06505000  0.40984000  1.0 0.0993081003
H  H45  1  0.21035000  0.68083000  0.40212000  1.0 0.1095962998
H  H46  1  0.24990000  0.60242000  0.34566000  1.0 0.0899219753
H  H47  1  0.13436000  0.56217000  0.32185000  1.0 0.0993081003
H  H48  1  0.17225000  0.32983000  0.31510000  1.0 0.0993081003
H  H49  1  0.09962000  0.45098000  0.41645000  1.0 0.0806918903
H  H50  1  0.16936000  0.03501000  0.41032000  1.0 0.0806918903
H  H51  1  0.10856000  0.18942000  0.51581000  1.0 0.1095962998
H  H52  1  0.13079000  0.93751000  0.50201000  1.0 0.1095962998
H  H53  1  0.01684000  0.93528000  0.48107000  1.0 0.1095962998
H  H54  1  0.10341000  0.95299000  0.31836000  1.0 0.1295862858
H  H55  1  0.03134000  0.98488000  0.28493000  1.0 0.1295862858
H  H56  1  0.08826000  0.15351000  0.26968000  1.0 0.1353152872
H  H57  1  0.02905000  0.48370000  0.29397000  1.0 0.1095962998
H  H58  1  0.00569000  0.52749000  0.36110000  1.0 0.0993081003
H  H59  1  0.94133000  0.23543000  0.26908000  1.0 0.1201968339
H  H60  1  0.91349000  0.47205000  0.29079000  1.0 0.1095962998
H  H61  1  0.90541000  0.32688000  0.39120000  1.0 0.0806918903
H  H62  1  0.92668000  0.94255000  0.41206000  1.0 0.1295862858
H  H63  1  0.94804000  0.90616000  0.34357000  1.0 0.1295862858
H  H64  1  0.72576000  0.04143000  0.36440000  1.0 0.0993081003
H  H65  1  0.69758000  0.25011000  0.32335000  1.0 0.0993081003
H  H66  1  0.73561000  0.05166000  0.29209000  1.0 0.1295862858
H  H67  1  0.43104000  0.27539000  0.30387000  1.0 0.2591391088
H  H68  1  0.49368000  0.30520000  0.32747000  1.0 0.1907824309
H  H69  1  0.56461000  0.01147000  0.07537000  1.0 0.1095962998
H  H70  1  0.48739000  0.72492000  0.08106000  1.0 0.0993081003
H  H71  1  0.44706000  0.64180000  0.17580000  1.0 0.0611251971
H  H72  1  0.56118000  0.13178000  0.25917000  1.0 0.0611251971
H  H73  1  0.19030000  0.58765000  0.05410000  1.0 0.1295862858
H  H74  1  0.23356000  0.51379000  0.11609000  1.0 0.1295862858
H  H75  1  0.22327000  0.34320000  0.05876000  1.0 0.0993081003
H  H76  1  0.49285000  0.02908000  0.43540000  1.0 0.070625425
H  H77  1  0.36567000  0.54741000  0.36810000  1.0 0.0993081003
H  H78  1  0.37464000  0.72554000  0.54931000  1.0 0.070625425
H  H79  1  0.45643000  0.98728000  0.53377000  1.0 0.0500035987
H  H80  1  0.71733000  0.93403000  0.34076000  1.0 0.1201968339
H  H81  1  0.69571000  0.18895000  0.35168000  1.0 0.0993081003
H  H82  1  0.72672000  0.12169000  0.28929000  1.0 0.1295862858
H  H83  1  0.24493000  0.96227000  0.19139000  1.0 0.0806918903
H  H84  1  0.23019000  0.73694000  0.22821000  1.0 0.0806918903
H  H85  1  0.22790000  0.97671000  0.26181000  1.0 0.0899219753
H  H86  1  0.21414000  0.70094000  0.21294000  1.0 0.1095962998
H  H87  1  0.25122000  0.93185000  0.23139000  1.0 0.0168733487
H  H88  1  0.18317000  0.87649000  0.25792000  1.0 0.1095962998
H  H89  1  0.42683000  0.58143000  0.93229000  1.0 0.0806918903
H  H90  1  0.50817000  0.30492000  0.94017000  1.0 0.070625425
H  H91  1  0.56137000  0.20883000  0.85320000  1.0 0.0806918903
H  H92  1  0.45190000  0.66577000  0.75048000  1.0 0.0806918903
H  H93  1  0.41373000  0.98950000  0.76131000  1.0 0.0611251971
H  H94  1  0.33383000  0.26530000  0.81030000  1.0 0.0993081003
H  H95  1  0.30319000  0.15391000  0.74585000  1.0 0.1095962998
H  H96  1  0.26053000  0.85669000  0.79379000  1.0 0.0899219753
H  H97  1  0.36738000  0.12885000  0.91302000  1.0 0.1095962998
H  H98  1  0.31419000  0.01727000  0.95271000  1.0 0.1295862858
H  H99  1  0.38465000  0.90437000  0.95218000  1.0 0.0993081003
H  H100  1  0.27659000  0.53604000  0.85566000  1.0 0.0993081003
H  H101  1  0.31455000  0.55325000  0.92360000  1.0 0.0993081003
H  H102  1  0.19838000  0.57481000  0.92590000  1.0 0.0899219753
H  H103  1  0.23517000  0.78788000  0.95783000  1.0 0.0993081003
H  H104  1  0.16401000  0.77882000  0.83825000  1.0 0.0806918903
H  H105  1  0.23228000  0.17341000  0.88582000  1.0 0.0806918903
H  H106  1  0.17566000  0.11568000  0.76138000  1.0 0.1095962998
H  H107  1  0.19437000  0.34805000  0.79608000  1.0 0.1095962998
H  H108  1  0.07919000  0.32137000  0.79127000  1.0 0.1095962998
H  H109  1  0.17347000  0.16394000  0.96606000  1.0 0.1295862858
H  H110  1  0.09909000  0.14802000  0.98106000  1.0 0.1201968339
H  H111  1  0.14839000  0.94591000  0.00023000  1.0 0.1201968339
H  H112  1  0.09665000  0.64097000  0.94601000  1.0 0.0993081003
H  H113  1  0.06983000  0.65342000  0.87437000  1.0 0.0993081003
H  H114  1  0.01086000  0.87390000  0.97280000  1.0 0.1201968339
H  H115  1  0.98114000  0.65919000  0.93503000  1.0 0.1095962998
H  H116  1  0.98907000  0.25683000  0.84179000  1.0 0.1295862858
H  H117  1  0.01170000  0.25822000  0.91459000  1.0 0.1201968339
H  H118  1  0.96487000  0.87277000  0.84345000  1.0 0.070625425
H  H119  1  0.79023000  0.24694000  0.89776000  1.0 0.0993081003
H  H120  1  0.76614000  0.99661000  0.88009000  1.0 0.1295862858
H  H121  1  0.80945000  0.04255000  0.94417000  1.0 0.1201968339
H  H122  1  0.52212000  0.61196000  0.59677000  1.0 0.070625425
H  H123  1  0.64039000  0.08212000  0.64513000  1.0 0.0806918903
H  H124  1  0.61340000  0.28333000  0.46573000  1.0 0.0993081003
H  H125  1  0.54355000  0.56948000  0.49329000  1.0 0.0806918903
H  H126  1  0.65411000  0.86749000  0.44664000  1.0 0.0806918903
H  H127  1  0.72972000  0.53331000  0.49024000  1.0 0.0993081003
H  H128  1  0.76260000  0.69423000  0.44165000  1.0 0.1095962998
H  H129  1  0.80585000  0.92993000  0.51697000  1.0 0.0899219753
H  H130  1  0.74883000  0.62270000  0.64709000  1.0 0.1095962998
H  H131  1  0.67895000  0.74246000  0.64181000  1.0 0.0806918903
H  H132  1  0.69613000  0.56505000  0.59016000  1.0 0.0993081003
H  H133  1  0.78965000  0.18083000  0.59788000  1.0 0.1095962998
H  H134  1  0.75010000  0.10242000  0.65434000  1.0 0.0899219753
H  H135  1  0.86564000  0.06217000  0.67815000  1.0 0.0993081003
H  H136  1  0.82775000  0.82983000  0.68490000  1.0 0.0993081003
H  H137  1  0.90038000  0.95098000  0.58355000  1.0 0.0806918903
H  H138  1  0.83064000  0.53501000  0.58968000  1.0 0.0806918903
H  H139  1  0.89144000  0.68942000  0.48419000  1.0 0.1095962998
H  H140  1  0.86921000  0.43751000  0.49799000  1.0 0.1095962998
H  H141  1  0.98316000  0.43528000  0.51893000  1.0 0.1095962998
H  H142  1  0.89659000  0.45299000  0.68164000  1.0 0.1295862858
H  H143  1  0.96866000  0.48488000  0.71507000  1.0 0.1295862858
H  H144  1  0.91174000  0.65351000  0.73032000  1.0 0.1353152872
H  H145  1  0.97095000  0.98370000  0.70603000  1.0 0.1095962998
H  H146  1  0.99431000  0.02749000  0.63890000  1.0 0.0993081003
H  H147  1  0.05867000  0.73543000  0.73092000  1.0 0.1201968339
H  H148  1  0.08651000  0.97205000  0.70921000  1.0 0.1095962998
H  H149  1  0.09459000  0.82688000  0.60880000  1.0 0.0806918903
H  H150  1  0.07332000  0.44255000  0.58794000  1.0 0.1295862858
H  H151  1  0.05196000  0.40616000  0.65643000  1.0 0.1295862858
H  H152  1  0.27424000  0.54143000  0.63560000  1.0 0.0993081003
H  H153  1  0.30242000  0.75011000  0.67665000  1.0 0.0993081003
H  H154  1  0.26439000  0.55166000  0.70791000  1.0 0.1295862858
H  H155  1  0.56896000  0.77539000  0.69613000  1.0 0.2591391088
H  H156  1  0.50632000  0.80520000  0.67253000  1.0 0.1907824309
H  H157  1  0.43539000  0.51147000  0.92463000  1.0 0.1095962998
H  H158  1  0.51261000  0.22492000  0.91894000  1.0 0.0993081003
H  H159  1  0.55294000  0.14180000  0.82420000  1.0 0.0611251971
H  H160  1  0.43882000  0.63178000  0.74083000  1.0 0.0611251971
H  H161  1  0.80970000  0.08765000  0.94590000  1.0 0.1295862858
H  H162  1  0.76644000  0.01379000  0.88391000  1.0 0.1295862858
H  H163  1  0.77673000  0.84320000  0.94124000  1.0 0.0993081003
H  H164  1  0.50715000  0.52908000  0.56460000  1.0 0.070625425
H  H165  1  0.63433000  0.04741000  0.63190000  1.0 0.0993081003
H  H166  1  0.62536000  0.22554000  0.45069000  1.0 0.070625425
H  H167  1  0.54357000  0.48728000  0.46623000  1.0 0.0500035987
H  H168  1  0.28267000  0.43403000  0.65924000  1.0 0.1201968339
H  H169  1  0.30429000  0.68895000  0.64832000  1.0 0.0993081003
H  H170  1  0.27328000  0.62169000  0.71071000  1.0 0.1295862858
H  H171  1  0.75507000  0.46227000  0.80861000  1.0 0.0806918903
H  H172  1  0.76981000  0.23694000  0.77179000  1.0 0.0806918903
H  H173  1  0.77210000  0.47671000  0.73819000  1.0 0.0899219753
H  H174  1  0.78586000  0.20094000  0.78706000  1.0 0.1095962998
H  H175  1  0.74878000  0.43185000  0.76861000  1.0 0.0168733487
H  H176  1  0.81683000  0.37649000  0.74208000  1.0 0.1095962998
C  C1  1  0.55160000  0.04240000  0.10300000  1.0 -0.0475436952
C  C2  1  0.50330000  0.87820000  0.09830000  1.0 -0.0594197358
C  C3  1  0.47170000  0.82110000  0.15000000  1.0 0.0317750952
C  C4  1  0.53670000  0.09250000  0.21100000  1.0 -0.0378654434
C  C5  1  0.56830000  0.14960000  0.15940000  1.0 0.0398157698
C  C6  1  0.61868000  0.30380000  0.16938000  1.0 -0.0089998756
C  C7  1  0.61940000  0.47020000  0.21153000  1.0 -0.3122274338
C  C8  1  0.67720000  0.62170000  0.21160000  1.0 -0.3122274338
C  C9  1  0.72191000  0.47260000  0.17552000  1.0 -0.0594197358
C  C10  1  0.67522000  0.34210000  0.12908000  1.0 0.1907824309
C  C11  1  0.64990000  0.48630000  0.07266000  1.0 -0.5228581547
C  C12  1  0.71292000  0.13770000  0.10852000  1.0 -0.2690076996
C  C13  1  0.77621000  0.21130000  0.08236000  1.0 -0.1888612124
C  C14  1  0.81994000  0.37010000  0.12459000  1.0 -0.0780758044
C  C15  1  0.78174000  0.56900000  0.14918000  1.0 -0.0089998756
C  C16  1  0.82450000  0.69660000  0.19867000  1.0 -0.2307962372
C  C17  1  0.89350000  0.72230000  0.18351000  1.0 -0.1888612124
C  C18  1  0.91960000  0.61690000  0.13725000  1.0 0.070625425
C  C19  1  0.88178000  0.44870000  0.09471000  1.0 0.1506631852
C  C20  1  0.86350000  0.56210000  0.03099000  1.0 -0.5069879114
C  C21  1  0.92540000  0.23970000  0.08630000  1.0 -0.2307962372
C  C22  1  0.99310000  0.29880000  0.06820000  1.0 -0.2690076996
C  C23  1  0.98900000  0.66700000  0.12370000  1.0 -0.3210981705
C  C24  1  0.02750000  0.45300000  0.11590000  1.0 0.1295862858
C  C25  1  0.13730000  0.54720000  0.13100000  1.0 0.2703365789
C  C26  1  0.19820000  0.58700000  0.09950000  1.0 -0.301158656
C  C27  1  0.44950000  0.99580000  0.41440000  1.0 -0.0378654434
C  C28  1  0.37930000  0.68110000  0.38570000  1.0 0.0168733487
C  C29  1  0.36650000  0.65580000  0.44720000  1.0 0.0500035987
C  C30  1  0.39530000  0.80060000  0.49230000  1.0 0.0123887832
C  C31  1  0.43680000  0.97060000  0.47590000  1.0 -0.0475436952
C  C32  1  0.31517000  0.46340000  0.46568000  1.0 -0.0213763545
C  C33  1  0.31410000  0.34930000  0.51900000  1.0 -0.2845839529
C  C34  1  0.25760000  0.19000000  0.51870000  1.0 -0.2520102008
C  C35  1  0.21260000  0.29090000  0.46533000  1.0 -0.0378654434
C  C36  1  0.25938000  0.37750000  0.41968000  1.0 0.1787182198
C  C37  1  0.28630000  0.18420000  0.38168000  1.0 -0.553881806
C  C38  1  0.22192000  0.54910000  0.37735000  1.0 -0.2690076996
C  C39  1  0.15980000  0.44330000  0.34534000  1.0 -0.1795898049
C  C40  1  0.11545000  0.32810000  0.39009000  1.0 -0.0594197358
C  C41  1  0.15390000  0.16460000  0.43455000  1.0 -0.0213763545
C  C42  1  0.11060000  0.07510000  0.48275000  1.0 -0.222839628
C  C43  1  0.04320000  0.02110000  0.45610000  1.0 -0.1720635711
C  C44  1  0.01690000  0.08250000  0.40060000  1.0 0.0806918903
C  C45  1  0.05383000  0.22060000  0.35540000  1.0 0.1506631852
C  C46  1  0.07080000  0.06360000  0.30220000  1.0 -0.487195295
C  C47  1  0.00868000  0.41180000  0.32856000  1.0 -0.2134145653
C  C48  1  0.93964000  0.33840000  0.30480000  1.0 -0.3122274338
C  C49  1  0.90810000  0.22050000  0.35570000  1.0 0.2379385711
C  C50  1  0.94740000  0.01590000  0.37790000  1.0 -0.3785437314
C  C51  1  0.79690000  0.26610000  0.34460000  1.0 0.4086529197
C  C52  1  0.73340000  0.14100000  0.33000000  1.0 -0.4321121543
C  C53  1  0.54820000  0.97770000  0.11380000  1.0 -0.0213763545
C  C54  1  0.50240000  0.80750000  0.11720000  1.0 -0.0378654434
C  C55  1  0.47840000  0.75810000  0.17350000  1.0 0.0168733487
C  C56  1  0.54620000  0.04920000  0.22300000  1.0 -0.0378654434
C  C57  1  0.57020000  0.09860000  0.16670000  1.0 0.0015170301
C  C58  1  0.14320000  0.36780000  0.10730000  1.0 0.2288403393
C  C59  1  0.20270000  0.46100000  0.08190000  1.0 -0.301158656
C  C60  1  0.45960000  0.92280000  0.44170000  1.0 0.0015170301
C  C61  1  0.38410000  0.63670000  0.40170000  1.0 -0.0089998756
C  C62  1  0.36250000  0.61190000  0.46020000  1.0 0.0015170301
C  C63  1  0.38940000  0.74250000  0.50940000  1.0 -0.0594197358
C  C64  1  0.43800000  0.89800000  0.50010000  1.0 -0.0594197358
C  C65  1  0.79450000  0.14390000  0.36450000  1.0 0.3514373855
C  C66  1  0.72780000  0.09300000  0.33400000  1.0 -0.439266239
C  C67  1  0.31910000  0.86710000  0.25320000  1.0 -0.0213763545
C  C68  1  0.24980000  0.88740000  0.23190000  1.0 -0.1888612124
C  C69  1  0.17470000  0.96880000  0.16980000  1.0 0.0317750952
C  C70  1  0.20840000  0.86100000  0.22210000  1.0 -0.2350200533
C  C71  1  0.44840000  0.54240000  0.89700000  1.0 -0.0475436952
C  C72  1  0.49670000  0.37820000  0.90170000  1.0 -0.0594197358
C  C73  1  0.52830000  0.32110000  0.85000000  1.0 0.0317750952
C  C74  1  0.46330000  0.59250000  0.78900000  1.0 -0.0378654434
C  C75  1  0.43170000  0.64960000  0.84060000  1.0 0.0398157698
C  C76  1  0.38132000  0.80380000  0.83062000  1.0 -0.0089998756
C  C77  1  0.38060000  0.97020000  0.78847000  1.0 -0.3122274338
C  C78  1  0.32280000  0.12170000  0.78840000  1.0 -0.3210981705
C  C79  1  0.27809000  0.97260000  0.82448000  1.0 -0.0594197358
C  C80  1  0.32478000  0.84210000  0.87092000  1.0 0.1907824309
C  C81  1  0.35010000  0.98630000  0.92734000  1.0 -0.5228581547
C  C82  1  0.28708000  0.63770000  0.89148000  1.0 -0.2690076996
C  C83  1  0.22379000  0.71130000  0.91764000  1.0 -0.1888612124
C  C84  1  0.18006000  0.87010000  0.87541000  1.0 -0.0780758044
C  C85  1  0.21826000  0.06900000  0.85082000  1.0 -0.0089998756
C  C86  1  0.17550000  0.19660000  0.80133000  1.0 -0.2307962372
C  C87  1  0.10650000  0.22230000  0.81649000  1.0 -0.1888612124
C  C88  1  0.08040000  0.11690000  0.86275000  1.0 0.070625425
C  C89  1  0.11822000  0.94870000  0.90529000  1.0 0.1506631852
C  C90  1  0.13650000  0.06210000  0.96901000  1.0 -0.5069879114
C  C91  1  0.07460000  0.73970000  0.91370000  1.0 -0.2307962372
C  C92  1  0.00690000  0.79880000  0.93180000  1.0 -0.2690076996
C  C93  1  0.01100000  0.16700000  0.87630000  1.0 -0.3210981705
C  C94  1  0.97250000  0.95300000  0.88410000  1.0 0.1295862858
C  C95  1  0.86270000  0.04720000  0.86900000  1.0 0.2703365789
C  C96  1  0.80180000  0.08700000  0.90050000  1.0 -0.301158656
C  C97  1  0.55050000  0.49580000  0.58560000  1.0 -0.0378654434
C  C98  1  0.62070000  0.18110000  0.61430000  1.0 0.0168733487
C  C99  1  0.63350000  0.15580000  0.55280000  1.0 0.0500035987
C  C100  1  0.60470000  0.30060000  0.50770000  1.0 0.0123887832
C  C101  1  0.56320000  0.47060000  0.52410000  1.0 -0.0475436952
C  C102  1  0.68483000  0.96340000  0.53432000  1.0 -0.0213763545
C  C103  1  0.68590000  0.84930000  0.48100000  1.0 -0.2845839529
C  C104  1  0.74240000  0.69000000  0.48130000  1.0 -0.2520102008
C  C105  1  0.78740000  0.79090000  0.53467000  1.0 -0.0378654434
C  C106  1  0.74062000  0.87750000  0.58032000  1.0 0.1787182198
C  C107  1  0.71370000  0.68420000  0.61832000  1.0 -0.553881806
C  C108  1  0.77808000  0.04910000  0.62265000  1.0 -0.2690076996
C  C109  1  0.84020000  0.94330000  0.65466000  1.0 -0.1795898049
C  C110  1  0.88455000  0.82810000  0.60991000  1.0 -0.0594197358
C  C111  1  0.84610000  0.66460000  0.56545000  1.0 -0.0213763545
C  C112  1  0.88940000  0.57510000  0.51725000  1.0 -0.222839628
C  C113  1  0.95680000  0.52110000  0.54390000  1.0 -0.1720635711
C  C114  1  0.98310000  0.58250000  0.59940000  1.0 0.0806918903
C  C115  1  0.94617000  0.72060000  0.64460000  1.0 0.1506631852
C  C116  1  0.92920000  0.56360000  0.69780000  1.0 -0.487195295
C  C117  1  0.99132000  0.91180000  0.67144000  1.0 -0.2134145653
C  C118  1  0.06036000  0.83840000  0.69520000  1.0 -0.3122274338
C  C119  1  0.09190000  0.72050000  0.64430000  1.0 0.2379385711
C  C120  1  0.05260000  0.51590000  0.62210000  1.0 -0.3785437314
C  C121  1  0.20310000  0.76610000  0.65540000  1.0 0.4086529197
C  C122  1  0.26660000  0.64100000  0.67000000  1.0 -0.4321121543
C  C123  1  0.45180000  0.47770000  0.88620000  1.0 -0.0213763545
C  C124  1  0.49760000  0.30750000  0.88280000  1.0 -0.0378654434
C  C125  1  0.52160000  0.25810000  0.82650000  1.0 0.0168733487
C  C126  1  0.45380000  0.54920000  0.77700000  1.0 -0.0378654434
C  C127  1  0.42980000  0.59860000  0.83330000  1.0 0.0015170301
C  C128  1  0.85680000  0.86780000  0.89270000  1.0 0.2288403393
C  C129  1  0.79730000  0.96100000  0.91810000  1.0 -0.301158656
C  C130  1  0.54040000  0.42280000  0.55830000  1.0 0.0015170301
C  C131  1  0.61590000  0.13670000  0.59830000  1.0 -0.0089998756
C  C132  1  0.63750000  0.11190000  0.53980000  1.0 0.0015170301
C  C133  1  0.61060000  0.24250000  0.49060000  1.0 -0.0594197358
C  C134  1  0.56200000  0.39800000  0.49990000  1.0 -0.0594197358
C  C135  1  0.20550000  0.64390000  0.63550000  1.0 0.3514373855
C  C136  1  0.27220000  0.59300000  0.66600000  1.0 -0.439266239
C  C137  1  0.68090000  0.36710000  0.74680000  1.0 -0.0213763545
C  C138  1  0.75020000  0.38740000  0.76810000  1.0 -0.1888612124
C  C139  1  0.82530000  0.46880000  0.83020000  1.0 0.0317750952
C  C140  1  0.79160000  0.36100000  0.77790000  1.0 -0.2350200533
N  N1  1  0.48840000  0.92830000  0.20630000  1.0 -0.0324657734
N  N2  1  0.42080000  0.85100000  0.36932000  1.0 -0.0780758044
N  N3  1  0.36940000  0.23330000  0.25210000  1.0 0.1095962998
N  N4  1  0.56730000  0.71070000  0.34220000  1.0 0.2703365789
N  N5  1  0.57490000  0.61860000  0.35230000  1.0 0.2924968035
N  N6  1  0.37340000  0.84720000  0.26980000  1.0 -0.1888612124
N  N7  1  0.50030000  0.87900000  0.22640000  1.0 -0.091366722
N  N8  1  0.43270000  0.79220000  0.39250000  1.0 -0.0213763545
N  N9  1  0.14620000  0.04100000  0.12760000  1.0 -0.0965547531
N  N10  1  0.34480000  0.50390000  0.21740000  1.0 0.1907824309
N  N11  1  0.51160000  0.42830000  0.79370000  1.0 -0.0324657734
N  N12  1  0.57920000  0.35100000  0.63068000  1.0 -0.0780758044
N  N13  1  0.63060000  0.73330000  0.74790000  1.0 0.1095962998
N  N14  1  0.43270000  0.21070000  0.65780000  1.0 0.2703365789
N  N15  1  0.42510000  0.11860000  0.64770000  1.0 0.2924968035
N  N16  1  0.62660000  0.34720000  0.73020000  1.0 -0.1888612124
N  N17  1  0.49970000  0.37900000  0.77360000  1.0 -0.091366722
N  N18  1  0.56730000  0.29220000  0.60750000  1.0 -0.0213763545
N  N19  1  0.85380000  0.54100000  0.87240000  1.0 -0.0965547531
N  N20  1  0.65520000  0.00390000  0.78260000  1.0 0.1907824309
O  O1  1  0.08958000  0.51530000  0.09406000  1.0 -0.1493755101
O  O2  1  0.13450000  0.54740000  0.18680000  1.0 -0.439266239
O  O3  1  0.84730000  0.12150000  0.34060000  1.0 0.0015170301
O  O4  1  0.80330000  0.46610000  0.35310000  1.0 -0.4321121543
O  O5  1  0.36590000  0.01200000  0.24920000  1.0 -0.0324657734
O  O6  1  0.41840000  0.30880000  0.28030000  1.0 -0.1171523972
O  O7  1  0.32160000  0.33320000  0.22780000  1.0 0.0317750952
O  O8  1  0.51570000  0.63080000  0.31030000  1.0 -0.1410693198
O  O9  1  0.60840000  0.57100000  0.36340000  1.0 -0.0213763545
O  O10  1  0.57630000  0.91400000  0.34940000  1.0 -0.1620552062
O  O11  1  0.14160000  0.18930000  0.13400000  1.0 -0.0475436952
O  O12  1  0.83910000  0.17370000  0.32360000  1.0 0.0123887832
O  O13  1  0.80530000  0.17250000  0.41910000  1.0 -0.3440014242
O  O14  1  0.55890000  0.83200000  0.35050000  1.0 0.0123887832
O  O15  1  0.63060000  0.56100000  0.36890000  1.0 -0.1720635711
O  O16  1  0.53150000  0.47670000  0.33890000  1.0 -0.1620552062
O  O17  1  0.46180000  0.21220000  0.32790000  1.0 -0.5027713298
O  O18  1  0.39610000  0.52730000  0.24890000  1.0 -0.2134145653
O  O19  1  0.30160000  0.38490000  0.23370000  1.0 -0.091366722
O  O20  1  0.33370000  0.61370000  0.16590000  1.0 -0.4321121543
O  O21  1  0.91042000  0.01530000  0.90594000  1.0 -0.1493755101
O  O22  1  0.86550000  0.04740000  0.81320000  1.0 -0.439266239
O  O23  1  0.15270000  0.62150000  0.65940000  1.0 0.0015170301
O  O24  1  0.19670000  0.96610000  0.64690000  1.0 -0.4321121543
O  O25  1  0.63410000  0.51200000  0.75080000  1.0 -0.0324657734
O  O26  1  0.58160000  0.80880000  0.71970000  1.0 -0.1171523972
O  O27  1  0.67840000  0.83320000  0.77220000  1.0 0.0317750952
O  O28  1  0.48430000  0.13080000  0.68970000  1.0 -0.1410693198
O  O29  1  0.39160000  0.07100000  0.63660000  1.0 -0.0213763545
O  O30  1  0.42370000  0.41400000  0.65060000  1.0 -0.1620552062
O  O31  1  0.85840000  0.68930000  0.86600000  1.0 -0.0475436952
O  O32  1  0.16090000  0.67370000  0.67640000  1.0 0.0168733487
O  O33  1  0.19470000  0.67250000  0.58090000  1.0 -0.3440014242
O  O34  1  0.44110000  0.33200000  0.64950000  1.0 0.0123887832
O  O35  1  0.36940000  0.06100000  0.63110000  1.0 -0.1720635711
O  O36  1  0.46850000  0.97670000  0.66110000  1.0 -0.1620552062
O  O37  1  0.53820000  0.71220000  0.67210000  1.0 -0.5027713298
O  O38  1  0.60390000  0.02730000  0.75110000  1.0 -0.2134145653
O  O39  1  0.69840000  0.88490000  0.76630000  1.0 -0.091366722
O  O40  1  0.66630000  0.11370000  0.83410000  1.0 -0.4321121543
