# DDEC6 charges by PACMAN v1.1 (https://github.com/mtap-research/PACMAN-charge/)
data_CIXCOC_FSR_pacman
_symmetry_space_group_name_H-M   'P 1'
_cell_length_a   15.14100000
_cell_length_b   15.14100000
_cell_length_c   9.33130000
_cell_angle_alpha   90.00000000
_cell_angle_beta   90.00000000
_cell_angle_gamma   120.00000000
_symmetry_Int_Tables_number   1
_chemical_formula_structural   Co8P9H24(CO11)3
_chemical_formula_sum   'Co16 P18 H48 C6 O66'
_cell_volume   1852.60103678
_cell_formula_units_Z   2
loop_
 _symmetry_equiv_pos_site_id
 _symmetry_equiv_pos_as_xyz
  1  'x, y, z'
loop_
 _atom_site_type_symbol
 _atom_site_label
 _atom_site_symmetry_multiplicity
 _atom_site_fract_x
 _atom_site_fract_y
 _atom_site_fract_z
 _atom_site_occupancy
 _atom_site_charge
Co  Co1  1  0.47894000  0.36502000  0.29865000  1.0 1.0716349415
Co  Co2  1  0.63498000  0.11392000  0.29865000  1.0 1.0716349415
Co  Co3  1  0.88608000  0.52106000  0.29865000  1.0 1.0716349415
Co  Co4  1  0.52106000  0.63498000  0.79865000  1.0 1.0716349415
Co  Co5  1  0.36502000  0.88608000  0.79865000  1.0 1.0716349415
Co  Co6  1  0.11392000  0.47894000  0.79865000  1.0 1.0716349415
Co  Co7  1  0.63498000  0.52106000  0.79865000  1.0 1.0716349415
Co  Co8  1  0.88608000  0.36502000  0.79865000  1.0 1.0716349415
Co  Co9  1  0.47894000  0.11392000  0.79865000  1.0 1.0716349415
Co  Co10  1  0.36502000  0.47894000  0.29865000  1.0 1.0716349415
Co  Co11  1  0.11392000  0.63498000  0.29865000  1.0 1.0716349415
Co  Co12  1  0.52106000  0.88608000  0.29865000  1.0 1.0716349415
Co  Co13  1  0.66666667  0.33333333  0.37240000  1.0 1.1747004024
Co  Co14  1  0.33333333  0.66666667  0.87240000  1.0 1.1747004024
Co  Co15  1  0.66666667  0.33333333  0.87240000  1.0 1.1747004024
Co  Co16  1  0.33333333  0.66666667  0.37240000  1.0 1.1747004024
P  P1  1  0.49458000  0.30724000  0.62830000  1.0 1.1595556271
P  P2  1  0.69276000  0.18734000  0.62830000  1.0 1.1595556271
P  P3  1  0.81266000  0.50542000  0.62830000  1.0 1.1595556271
P  P4  1  0.50542000  0.69276000  0.12830000  1.0 1.1595556271
P  P5  1  0.30724000  0.81266000  0.12830000  1.0 1.1595556271
P  P6  1  0.18734000  0.49458000  0.12830000  1.0 1.1595556271
P  P7  1  0.69276000  0.50542000  0.12830000  1.0 1.1595556271
P  P8  1  0.81266000  0.30724000  0.12830000  1.0 1.1595556271
P  P9  1  0.49458000  0.18734000  0.12830000  1.0 1.1595556271
P  P10  1  0.30724000  0.49458000  0.62830000  1.0 1.1595556271
P  P11  1  0.18734000  0.69276000  0.62830000  1.0 1.1595556271
P  P12  1  0.50542000  0.81266000  0.62830000  1.0 1.1595556271
P  P13  1  0.41200000  0.41200000  0.97590000  1.0 1.3193015488
P  P14  1  0.58800000  0.00000000  0.97590000  1.0 1.3193015488
P  P15  1  0.00000000  0.58800000  0.97590000  1.0 1.3193015488
P  P16  1  0.58800000  0.58800000  0.47590000  1.0 1.3193015488
P  P17  1  0.41200000  0.00000000  0.47590000  1.0 1.3193015488
P  P18  1  0.00000000  0.41200000  0.47590000  1.0 1.3193015488
H  H1  1  0.43140000  0.34400000  0.62800000  1.0 -0.0803908692
H  H2  1  0.65600000  0.08740000  0.62800000  1.0 -0.0803908692
H  H3  1  0.91260000  0.56860000  0.62800000  1.0 -0.0803908692
H  H4  1  0.56860000  0.65600000  0.12800000  1.0 -0.0803908692
H  H5  1  0.34400000  0.91260000  0.12800000  1.0 -0.0803908692
H  H6  1  0.08740000  0.43140000  0.12800000  1.0 -0.0803908692
H  H7  1  0.65600000  0.56860000  0.12800000  1.0 -0.0803908692
H  H8  1  0.91260000  0.34400000  0.12800000  1.0 -0.0803908692
H  H9  1  0.43140000  0.08740000  0.12800000  1.0 -0.0803908692
H  H10  1  0.34400000  0.43140000  0.62800000  1.0 -0.0803908692
H  H11  1  0.08740000  0.65600000  0.62800000  1.0 -0.0803908692
H  H12  1  0.56860000  0.91260000  0.62800000  1.0 -0.0803908692
H  H13  1  0.21060000  0.22610000  0.26110000  1.0 0.1059433663
H  H14  1  0.77390000  0.98450000  0.26110000  1.0 0.1059433663
H  H15  1  0.01550000  0.78940000  0.26110000  1.0 0.1059433663
H  H16  1  0.78940000  0.77390000  0.76110000  1.0 0.1059433663
H  H17  1  0.22610000  0.01550000  0.76110000  1.0 0.10114424
H  H18  1  0.98450000  0.21060000  0.76110000  1.0 0.1059433663
H  H19  1  0.77390000  0.78940000  0.76110000  1.0 0.1059433663
H  H20  1  0.01550000  0.22610000  0.76110000  1.0 0.1059433663
H  H21  1  0.21060000  0.98450000  0.76110000  1.0 0.1059433663
H  H22  1  0.22610000  0.21060000  0.26110000  1.0 0.1059433663
H  H23  1  0.98450000  0.77390000  0.26110000  1.0 0.1059433663
H  H24  1  0.78940000  0.01550000  0.26110000  1.0 0.1059433663
H  H25  1  0.18470000  0.23520000  0.42110000  1.0 0.10114424
H  H26  1  0.76480000  0.94950000  0.42110000  1.0 0.10114424
H  H27  1  0.05050000  0.81530000  0.42110000  1.0 0.10114424
H  H28  1  0.81530000  0.76480000  0.92110000  1.0 0.10114424
H  H29  1  0.23520000  0.05050000  0.92110000  1.0 0.10114424
H  H30  1  0.94950000  0.18470000  0.92110000  1.0 0.10114424
H  H31  1  0.76480000  0.81530000  0.92110000  1.0 0.10114424
H  H32  1  0.05050000  0.23520000  0.92110000  1.0 0.10114424
H  H33  1  0.18470000  0.94950000  0.92110000  1.0 0.10114424
H  H34  1  0.23520000  0.18470000  0.42110000  1.0 0.10114424
H  H35  1  0.94950000  0.76480000  0.42110000  1.0 0.10114424
H  H36  1  0.81530000  0.05050000  0.42110000  1.0 0.10114424
H  H37  1  0.24490000  0.17890000  0.38360000  1.0 0.10114424
H  H38  1  0.82110000  0.06600000  0.38360000  1.0 0.10114424
H  H39  1  0.93400000  0.75510000  0.38360000  1.0 0.10114424
H  H40  1  0.75510000  0.82110000  0.88360000  1.0 0.10114424
H  H41  1  0.17890000  0.93400000  0.88360000  1.0 0.10114424
H  H42  1  0.06600000  0.24490000  0.88360000  1.0 0.10114424
H  H43  1  0.82110000  0.75510000  0.88360000  1.0 0.10114424
H  H44  1  0.93400000  0.17890000  0.88360000  1.0 0.10114424
H  H45  1  0.24490000  0.06600000  0.88360000  1.0 0.10114424
H  H46  1  0.17890000  0.24490000  0.38360000  1.0 0.10114424
H  H47  1  0.06600000  0.82110000  0.38360000  1.0 0.10114424
H  H48  1  0.75510000  0.93400000  0.38360000  1.0 0.10114424
C  C1  1  0.23440000  0.23440000  0.35820000  1.0 -0.3427755205
C  C2  1  0.76560000  0.00000000  0.35820000  1.0 -0.3427755205
C  C3  1  0.00000000  0.76560000  0.35820000  1.0 -0.3427755205
C  C4  1  0.76560000  0.76560000  0.85820000  1.0 -0.3427755205
C  C5  1  0.23440000  0.00000000  0.85820000  1.0 -0.3427755205
C  C6  1  0.00000000  0.23440000  0.85820000  1.0 -0.3427755205
O  O1  1  0.53540000  0.32140000  0.47520000  1.0 -0.7212537644
O  O2  1  0.67860000  0.21400000  0.47520000  1.0 -0.7212537644
O  O3  1  0.78600000  0.46460000  0.47520000  1.0 -0.7212537644
O  O4  1  0.46460000  0.67860000  0.97520000  1.0 -0.7212537644
O  O5  1  0.32140000  0.78600000  0.97520000  1.0 -0.7212537644
O  O6  1  0.21400000  0.53540000  0.97520000  1.0 -0.7212537644
O  O7  1  0.67860000  0.46460000  0.97520000  1.0 -0.7212537644
O  O8  1  0.78600000  0.32140000  0.97520000  1.0 -0.7212537644
O  O9  1  0.53540000  0.21400000  0.97520000  1.0 -0.7212537644
O  O10  1  0.32140000  0.53540000  0.47520000  1.0 -0.7212537644
O  O11  1  0.21400000  0.67860000  0.47520000  1.0 -0.7212537644
O  O12  1  0.46460000  0.78600000  0.47520000  1.0 -0.7212537644
O  O13  1  0.57890000  0.37150000  0.73490000  1.0 -0.7479005722
O  O14  1  0.62850000  0.20740000  0.73490000  1.0 -0.7479005722
O  O15  1  0.79260000  0.42110000  0.73490000  1.0 -0.7479005722
O  O16  1  0.42110000  0.62850000  0.23490000  1.0 -0.7479005722
O  O17  1  0.37150000  0.79260000  0.23490000  1.0 -0.7479005722
O  O18  1  0.20740000  0.57890000  0.23490000  1.0 -0.7479005722
O  O19  1  0.62850000  0.42110000  0.23490000  1.0 -0.7479005722
O  O20  1  0.79260000  0.37150000  0.23490000  1.0 -0.7479005722
O  O21  1  0.57890000  0.20740000  0.23490000  1.0 -0.7479005722
O  O22  1  0.37150000  0.57890000  0.73490000  1.0 -0.7479005722
O  O23  1  0.20740000  0.62850000  0.73490000  1.0 -0.7479005722
O  O24  1  0.42110000  0.79260000  0.73490000  1.0 -0.7479005722
O  O25  1  0.42680000  0.42680000  0.13340000  1.0 -0.7479005722
O  O26  1  0.57320000  0.00000000  0.13340000  1.0 -0.7479005722
O  O27  1  0.00000000  0.57320000  0.13340000  1.0 -0.7479005722
O  O28  1  0.57320000  0.57320000  0.63340000  1.0 -0.7479005722
O  O29  1  0.42680000  0.00000000  0.63340000  1.0 -0.7479005722
O  O30  1  0.00000000  0.42680000  0.63340000  1.0 -0.7479005722
O  O31  1  0.32730000  0.32730000  0.37110000  1.0 -0.2757134281
O  O32  1  0.67270000  0.00000000  0.37110000  1.0 -0.2743411429
O  O33  1  0.00000000  0.67270000  0.37110000  1.0 -0.2757134281
O  O34  1  0.67270000  0.67270000  0.87110000  1.0 -0.2757134281
O  O35  1  0.32730000  0.00000000  0.87110000  1.0 -0.2757134281
O  O36  1  0.00000000  0.32730000  0.87110000  1.0 -0.2743411429
O  O37  1  0.49550000  0.49550000  0.88910000  1.0 -0.7912765709
O  O38  1  0.50450000  0.00000000  0.88910000  1.0 -0.7912765709
O  O39  1  0.00000000  0.50450000  0.88910000  1.0 -0.7912765709
O  O40  1  0.50450000  0.50450000  0.38910000  1.0 -0.7912765709
O  O41  1  0.49550000  0.00000000  0.38910000  1.0 -0.7912765709
O  O42  1  0.00000000  0.49550000  0.38910000  1.0 -0.7912765709
O  O43  1  0.43210000  0.19620000  0.67280000  1.0 -0.6375237075
O  O44  1  0.80380000  0.23590000  0.67280000  1.0 -0.6375237075
O  O45  1  0.76410000  0.56790000  0.67280000  1.0 -0.6375237075
O  O46  1  0.56790000  0.80380000  0.17280000  1.0 -0.6375237075
O  O47  1  0.19620000  0.76410000  0.17280000  1.0 -0.6375237075
O  O48  1  0.23590000  0.43210000  0.17280000  1.0 -0.6375237075
O  O49  1  0.80380000  0.56790000  0.17280000  1.0 -0.6375237075
O  O50  1  0.76410000  0.19620000  0.17280000  1.0 -0.6375237075
O  O51  1  0.43210000  0.23590000  0.17280000  1.0 -0.6375237075
O  O52  1  0.19620000  0.43210000  0.67280000  1.0 -0.6375237075
O  O53  1  0.23590000  0.80380000  0.67280000  1.0 -0.6375237075
O  O54  1  0.56790000  0.76410000  0.67280000  1.0 -0.6375237075
O  O55  1  0.31190000  0.37980000  0.92800000  1.0 -0.3244038113
O  O56  1  0.62020000  0.93210000  0.92800000  1.0 -0.3244038113
O  O57  1  0.06790000  0.68810000  0.92800000  1.0 -0.3244038113
O  O58  1  0.68810000  0.62020000  0.42800000  1.0 -0.3244038113
O  O59  1  0.37980000  0.06790000  0.42800000  1.0 -0.3244038113
O  O60  1  0.93210000  0.31190000  0.42800000  1.0 -0.325381852
O  O61  1  0.62020000  0.68810000  0.42800000  1.0 -0.3244038113
O  O62  1  0.06790000  0.37980000  0.42800000  1.0 -0.3244038113
O  O63  1  0.31190000  0.93210000  0.42800000  1.0 -0.3244038113
O  O64  1  0.37980000  0.31190000  0.92800000  1.0 -0.3244038113
O  O65  1  0.93210000  0.62020000  0.92800000  1.0 -0.325381852
O  O66  1  0.68810000  0.06790000  0.92800000  1.0 -0.3244038113
