# DDEC6 charges by PACMAN v1.1 (https://github.com/mtap-research/PACMAN-charge/)
data_CIZPOS_ASR_pacman
_symmetry_space_group_name_H-M   'P 1'
_cell_length_a   16.75100000
_cell_length_b   16.75100000
_cell_length_c   16.75100000
_cell_angle_alpha   66.99510000
_cell_angle_beta   66.99510000
_cell_angle_gamma   66.99510000
_symmetry_Int_Tables_number   1
_chemical_formula_structural   CuH7C13(NO4)2
_chemical_formula_sum   'Cu6 H42 C78 N12 O48'
_cell_volume   3821.92879620
_cell_formula_units_Z   6
loop_
 _symmetry_equiv_pos_site_id
 _symmetry_equiv_pos_as_xyz
  1  'x, y, z'
loop_
 _atom_site_type_symbol
 _atom_site_label
 _atom_site_symmetry_multiplicity
 _atom_site_fract_x
 _atom_site_fract_y
 _atom_site_fract_z
 _atom_site_occupancy
 _atom_site_charge
Cu  Cu1  1  0.00372000  0.57625000  0.00372000  1.0 0.8755793999
Cu  Cu2  1  0.57625000  0.00372000  0.00372000  1.0 0.8755793999
Cu  Cu3  1  0.00372000  0.00372000  0.57625000  1.0 0.8755793999
Cu  Cu4  1  0.99628000  0.99628000  0.42375000  1.0 0.8755793999
Cu  Cu5  1  0.99628000  0.42375000  0.99628000  1.0 0.8746160845
Cu  Cu6  1  0.42375000  0.99628000  0.99628000  1.0 0.8746160845
H  H1  1  0.72740000  0.72740000  0.02940000  1.0 0.1463912656
H  H2  1  0.72740000  0.02940000  0.72740000  1.0 0.1463912656
H  H3  1  0.02940000  0.72740000  0.72740000  1.0 0.1463912656
H  H4  1  0.27260000  0.97060000  0.27260000  1.0 0.1463912656
H  H5  1  0.97060000  0.27260000  0.27260000  1.0 0.1463912656
H  H6  1  0.27260000  0.27260000  0.97060000  1.0 0.1463912656
H  H7  1  0.71420000  0.49720000  0.01960000  1.0 0.1224186549
H  H8  1  0.49720000  0.01960000  0.71420000  1.0 0.1224186549
H  H9  1  0.01960000  0.71420000  0.49720000  1.0 0.1224186549
H  H10  1  0.28580000  0.98040000  0.50280000  1.0 0.1224186549
H  H11  1  0.98040000  0.50280000  0.28580000  1.0 0.1224186549
H  H12  1  0.50280000  0.28580000  0.98040000  1.0 0.1224186549
H  H13  1  0.28580000  0.50280000  0.98040000  1.0 0.1224186549
H  H14  1  0.50280000  0.98040000  0.28580000  1.0 0.1224186549
H  H15  1  0.98040000  0.28580000  0.50280000  1.0 0.1224186549
H  H16  1  0.71420000  0.01960000  0.49720000  1.0 0.1224186549
H  H17  1  0.01960000  0.49720000  0.71420000  1.0 0.1224186549
H  H18  1  0.49720000  0.71420000  0.01960000  1.0 0.1224186549
H  H19  1  0.49200000  0.64500000  0.90200000  1.0 0.1086211408
H  H20  1  0.64500000  0.90200000  0.49200000  1.0 0.1086211408
H  H21  1  0.90200000  0.49200000  0.64500000  1.0 0.1086211408
H  H22  1  0.50800000  0.09800000  0.35500000  1.0 0.1086211408
H  H23  1  0.09800000  0.35500000  0.50800000  1.0 0.1086211408
H  H24  1  0.35500000  0.50800000  0.09800000  1.0 0.1086211408
H  H25  1  0.50800000  0.35500000  0.09800000  1.0 0.1086211408
H  H26  1  0.35500000  0.09800000  0.50800000  1.0 0.1086211408
H  H27  1  0.09800000  0.50800000  0.35500000  1.0 0.1086211408
H  H28  1  0.49200000  0.90200000  0.64500000  1.0 0.1086211408
H  H29  1  0.90200000  0.64500000  0.49200000  1.0 0.1086211408
H  H30  1  0.64500000  0.49200000  0.90200000  1.0 0.1086211408
H  H31  1  0.56740000  0.41080000  0.10910000  1.0 0.1937803457
H  H32  1  0.41080000  0.10910000  0.56740000  1.0 0.1956080412
H  H33  1  0.10910000  0.56740000  0.41080000  1.0 0.1937803457
H  H34  1  0.43260000  0.89090000  0.58920000  1.0 0.1956080412
H  H35  1  0.89090000  0.58920000  0.43260000  1.0 0.1956080412
H  H36  1  0.58920000  0.43260000  0.89090000  1.0 0.1956080412
H  H37  1  0.43260000  0.58920000  0.89090000  1.0 0.1956080412
H  H38  1  0.58920000  0.89090000  0.43260000  1.0 0.1956080412
H  H39  1  0.89090000  0.43260000  0.58920000  1.0 0.1937803457
H  H40  1  0.56740000  0.10910000  0.41080000  1.0 0.1937803457
H  H41  1  0.10910000  0.41080000  0.56740000  1.0 0.1956080412
H  H42  1  0.41080000  0.56740000  0.10910000  1.0 0.1937803457
C  C1  1  0.83310000  0.56400000  0.02020000  1.0 0.5867679099
C  C2  1  0.56400000  0.02020000  0.83310000  1.0 0.5867679099
C  C3  1  0.02020000  0.83310000  0.56400000  1.0 0.5867679099
C  C4  1  0.16690000  0.97980000  0.43600000  1.0 0.5867679099
C  C5  1  0.97980000  0.43600000  0.16690000  1.0 0.5867679099
C  C6  1  0.43600000  0.16690000  0.97980000  1.0 0.5867679099
C  C7  1  0.16690000  0.43600000  0.97980000  1.0 0.5867679099
C  C8  1  0.43600000  0.97980000  0.16690000  1.0 0.5867679099
C  C9  1  0.97980000  0.16690000  0.43600000  1.0 0.5867679099
C  C10  1  0.83310000  0.02020000  0.56400000  1.0 0.5867679099
C  C11  1  0.02020000  0.56400000  0.83310000  1.0 0.5867679099
C  C12  1  0.56400000  0.83310000  0.02020000  1.0 0.5867679099
C  C13  1  0.73519000  0.60609000  0.02559000  1.0 -0.0113995908
C  C14  1  0.60609000  0.02559000  0.73519000  1.0 -0.0113995908
C  C15  1  0.02559000  0.73519000  0.60609000  1.0 -0.0113995908
C  C16  1  0.26481000  0.97441000  0.39391000  1.0 -0.0113995908
C  C17  1  0.97441000  0.39391000  0.26481000  1.0 -0.0113995908
C  C18  1  0.39391000  0.26481000  0.97441000  1.0 -0.0113995908
C  C19  1  0.26481000  0.39391000  0.97441000  1.0 -0.0113995908
C  C20  1  0.39391000  0.97441000  0.26481000  1.0 -0.0113995908
C  C21  1  0.97441000  0.26481000  0.39391000  1.0 -0.0113995908
C  C22  1  0.73519000  0.02559000  0.60609000  1.0 -0.0113995908
C  C23  1  0.02559000  0.60609000  0.73519000  1.0 -0.0113995908
C  C24  1  0.60609000  0.73519000  0.02559000  1.0 -0.0113995908
C  C25  1  0.69475000  0.69475000  0.02720000  1.0 -0.0937782248
C  C26  1  0.69475000  0.02720000  0.69475000  1.0 -0.0937782248
C  C27  1  0.02720000  0.69475000  0.69475000  1.0 -0.0937782248
C  C28  1  0.30525000  0.97280000  0.30525000  1.0 -0.0937782248
C  C29  1  0.97280000  0.30525000  0.30525000  1.0 -0.0937782248
C  C30  1  0.30525000  0.30525000  0.97280000  1.0 -0.0937782248
C  C31  1  0.68640000  0.55680000  0.02170000  1.0 -0.1340225833
C  C32  1  0.55680000  0.02170000  0.68640000  1.0 -0.1340225833
C  C33  1  0.02170000  0.68640000  0.55680000  1.0 -0.1340225833
C  C34  1  0.31360000  0.97830000  0.44320000  1.0 -0.1340225833
C  C35  1  0.97830000  0.44320000  0.31360000  1.0 -0.1340225833
C  C36  1  0.44320000  0.31360000  0.97830000  1.0 -0.1340225833
C  C37  1  0.31360000  0.44320000  0.97830000  1.0 -0.1340225833
C  C38  1  0.44320000  0.97830000  0.31360000  1.0 -0.1340225833
C  C39  1  0.97830000  0.31360000  0.44320000  1.0 -0.1340225833
C  C40  1  0.68640000  0.02170000  0.55680000  1.0 -0.1340225833
C  C41  1  0.02170000  0.55680000  0.68640000  1.0 -0.1351431628
C  C42  1  0.55680000  0.68640000  0.02170000  1.0 -0.1340225833
C  C43  1  0.59705000  0.59705000  0.02100000  1.0 0.0604109291
C  C44  1  0.59705000  0.02100000  0.59705000  1.0 0.0604109291
C  C45  1  0.02100000  0.59705000  0.59705000  1.0 0.0604109291
C  C46  1  0.40295000  0.97900000  0.40295000  1.0 0.0604109291
C  C47  1  0.97900000  0.40295000  0.40295000  1.0 0.0604109291
C  C48  1  0.40295000  0.40295000  0.97900000  1.0 0.0604109291
C  C49  1  0.54560000  0.54560000  0.01410000  1.0 0.0604109291
C  C50  1  0.54560000  0.01410000  0.54560000  1.0 0.0604109291
C  C51  1  0.01410000  0.54560000  0.54560000  1.0 0.0604109291
C  C52  1  0.45440000  0.98590000  0.45440000  1.0 0.0604109291
C  C53  1  0.98590000  0.45440000  0.45440000  1.0 0.0604109291
C  C54  1  0.45440000  0.45440000  0.98590000  1.0 0.0604109291
C  C55  1  0.49790000  0.58780000  0.94700000  1.0 -0.1215967308
C  C56  1  0.58780000  0.94700000  0.49790000  1.0 -0.1215967308
C  C57  1  0.94700000  0.49790000  0.58780000  1.0 -0.1215967308
C  C58  1  0.50210000  0.05300000  0.41220000  1.0 -0.1215967308
C  C59  1  0.05300000  0.41220000  0.50210000  1.0 -0.1215967308
C  C60  1  0.41220000  0.50210000  0.05300000  1.0 -0.1215967308
C  C61  1  0.50210000  0.41220000  0.05300000  1.0 -0.1215967308
C  C62  1  0.41220000  0.05300000  0.50210000  1.0 -0.1215967308
C  C63  1  0.05300000  0.50210000  0.41220000  1.0 -0.1215967308
C  C64  1  0.49790000  0.94700000  0.58780000  1.0 -0.1215967308
C  C65  1  0.94700000  0.58780000  0.49790000  1.0 -0.1215967308
C  C66  1  0.58780000  0.49790000  0.94700000  1.0 -0.1215967308
C  C67  1  0.54620000  0.46240000  0.06310000  1.0 -0.0541684611
C  C68  1  0.46240000  0.06310000  0.54620000  1.0 -0.0541684611
C  C69  1  0.06310000  0.54620000  0.46240000  1.0 -0.0541684611
C  C70  1  0.45380000  0.93690000  0.53760000  1.0 -0.0541684611
C  C71  1  0.93690000  0.53760000  0.45380000  1.0 -0.0541684611
C  C72  1  0.53760000  0.45380000  0.93690000  1.0 -0.0541684611
C  C73  1  0.45380000  0.53760000  0.93690000  1.0 -0.0541684611
C  C74  1  0.53760000  0.93690000  0.45380000  1.0 -0.0541684611
C  C75  1  0.93690000  0.45380000  0.53760000  1.0 -0.0541684611
C  C76  1  0.54620000  0.06310000  0.46240000  1.0 -0.0541684611
C  C77  1  0.06310000  0.46240000  0.54620000  1.0 -0.0541684611
C  C78  1  0.46240000  0.54620000  0.06310000  1.0 -0.0541684611
N  N1  1  0.58740000  0.40890000  0.14740000  1.0 0.2991845041
N  N2  1  0.40890000  0.14740000  0.58740000  1.0 0.2935914228
N  N3  1  0.14740000  0.58740000  0.40890000  1.0 0.2935914228
N  N4  1  0.41260000  0.85260000  0.59110000  1.0 0.2935914228
N  N5  1  0.85260000  0.59110000  0.41260000  1.0 0.2935914228
N  N6  1  0.59110000  0.41260000  0.85260000  1.0 0.2991845041
N  N7  1  0.41260000  0.59110000  0.85260000  1.0 0.2991845041
N  N8  1  0.59110000  0.85260000  0.41260000  1.0 0.2935914228
N  N9  1  0.85260000  0.41260000  0.59110000  1.0 0.2991845041
N  N10  1  0.58740000  0.14740000  0.40890000  1.0 0.2991845041
N  N11  1  0.14740000  0.40890000  0.58740000  1.0 0.2935914228
N  N12  1  0.40890000  0.58740000  0.14740000  1.0 0.2991845041
O  O1  1  0.87367000  0.61287000  0.02127000  1.0 -0.5175665286
O  O2  1  0.61287000  0.02127000  0.87367000  1.0 -0.5175665286
O  O3  1  0.02127000  0.87367000  0.61287000  1.0 -0.5175665286
O  O4  1  0.12633000  0.97873000  0.38713000  1.0 -0.5175665286
O  O5  1  0.97873000  0.38713000  0.12633000  1.0 -0.5175665286
O  O6  1  0.38713000  0.12633000  0.97873000  1.0 -0.5175665286
O  O7  1  0.12633000  0.38713000  0.97873000  1.0 -0.5175665286
O  O8  1  0.38713000  0.97873000  0.12633000  1.0 -0.5175665286
O  O9  1  0.97873000  0.12633000  0.38713000  1.0 -0.5175665286
O  O10  1  0.87367000  0.02127000  0.61287000  1.0 -0.5175665286
O  O11  1  0.02127000  0.61287000  0.87367000  1.0 -0.5175665286
O  O12  1  0.61287000  0.87367000  0.02127000  1.0 -0.5175665286
O  O13  1  0.86660000  0.48460000  0.01510000  1.0 -0.5143405645
O  O14  1  0.48460000  0.01510000  0.86660000  1.0 -0.5143405645
O  O15  1  0.01510000  0.86660000  0.48460000  1.0 -0.5175665286
O  O16  1  0.13340000  0.98490000  0.51540000  1.0 -0.5175665286
O  O17  1  0.98490000  0.51540000  0.13340000  1.0 -0.5143405645
O  O18  1  0.51540000  0.13340000  0.98490000  1.0 -0.5143405645
O  O19  1  0.13340000  0.51540000  0.98490000  1.0 -0.5175665286
O  O20  1  0.51540000  0.98490000  0.13340000  1.0 -0.5175665286
O  O21  1  0.98490000  0.13340000  0.51540000  1.0 -0.5175665286
O  O22  1  0.86660000  0.01510000  0.48460000  1.0 -0.5143405645
O  O23  1  0.01510000  0.48460000  0.86660000  1.0 -0.5143405645
O  O24  1  0.48460000  0.86660000  0.01510000  1.0 -0.5143405645
O  O25  1  0.62630000  0.33390000  0.15710000  1.0 -0.2520040964
O  O26  1  0.33390000  0.15710000  0.62630000  1.0 -0.2520040964
O  O27  1  0.15710000  0.62630000  0.33390000  1.0 -0.2520040964
O  O28  1  0.37370000  0.84290000  0.66610000  1.0 -0.2520040964
O  O29  1  0.84290000  0.66610000  0.37370000  1.0 -0.2520040964
O  O30  1  0.66610000  0.37370000  0.84290000  1.0 -0.2520040964
O  O31  1  0.37370000  0.66610000  0.84290000  1.0 -0.2520040964
O  O32  1  0.66610000  0.84290000  0.37370000  1.0 -0.2520040964
O  O33  1  0.84290000  0.37370000  0.66610000  1.0 -0.2520040964
O  O34  1  0.62630000  0.15710000  0.33390000  1.0 -0.2520040964
O  O35  1  0.15710000  0.33390000  0.62630000  1.0 -0.2520040964
O  O36  1  0.33390000  0.62630000  0.15710000  1.0 -0.2520040964
O  O37  1  0.57800000  0.45420000  0.19040000  1.0 -0.2241100987
O  O38  1  0.45420000  0.19040000  0.57800000  1.0 -0.2277668718
O  O39  1  0.19040000  0.57800000  0.45420000  1.0 -0.2277668718
O  O40  1  0.42200000  0.80960000  0.54580000  1.0 -0.2277668718
O  O41  1  0.80960000  0.54580000  0.42200000  1.0 -0.2277668718
O  O42  1  0.54580000  0.42200000  0.80960000  1.0 -0.2241100987
O  O43  1  0.42200000  0.54580000  0.80960000  1.0 -0.2277668718
O  O44  1  0.54580000  0.80960000  0.42200000  1.0 -0.2277668718
O  O45  1  0.80960000  0.42200000  0.54580000  1.0 -0.2277668718
O  O46  1  0.57800000  0.19040000  0.45420000  1.0 -0.2277668718
O  O47  1  0.19040000  0.45420000  0.57800000  1.0 -0.2241100987
O  O48  1  0.45420000  0.57800000  0.19040000  1.0 -0.2277668718
