# DDEC6 charges by PACMAN v1.1 (https://github.com/mtap-research/PACMAN-charge/)
data_COCDEG_ion_pacman
_symmetry_space_group_name_H-M   'P 1'
_cell_length_a   10.19170000
_cell_length_b   12.59330000
_cell_length_c   31.57700000
_cell_angle_alpha   90.00000000
_cell_angle_beta   90.61900000
_cell_angle_gamma   90.00000000
_symmetry_Int_Tables_number   1
_chemical_formula_structural   MnH16C26S4N7ClO4
_chemical_formula_sum   'Mn4 H64 C104 S16 N28 Cl4 O16'
_cell_volume   4052.58098606
_cell_formula_units_Z   4
loop_
 _symmetry_equiv_pos_site_id
 _symmetry_equiv_pos_as_xyz
  1  'x, y, z'
loop_
 _atom_site_type_symbol
 _atom_site_label
 _atom_site_symmetry_multiplicity
 _atom_site_fract_x
 _atom_site_fract_y
 _atom_site_fract_z
 _atom_site_occupancy
 _atom_site_charge
Mn  Mn1  1  0.01414000  0.30054000  0.23508000  1.0 0.6833180203
Mn  Mn2  1  0.98586000  0.80054000  0.26492000  1.0 0.6833180203
Mn  Mn3  1  0.98586000  0.69946000  0.76492000  1.0 0.6833180203
Mn  Mn4  1  0.01414000  0.19946000  0.73508000  1.0 0.6833180203
H  H1  1  0.95640000  0.13860000  0.31070000  1.0 0.1007114174
H  H2  1  0.92140000  0.03650000  0.66470000  1.0 0.1007114174
H  H3  1  0.81090000  0.10400000  0.36420000  1.0 0.12355986
H  H4  1  0.23140000  0.26290000  0.58890000  1.0 0.1284827707
H  H5  1  0.43820000  0.05860000  0.66100000  1.0 0.1375194121
H  H6  1  0.43640000  0.13210000  0.30290000  1.0 0.1375194121
H  H7  1  0.08740000  0.27560000  0.64390000  1.0 0.1059466763
H  H8  1  0.28270000  0.07170000  0.71230000  1.0 0.1007114174
H  H9  1  0.10550000  0.37100000  0.32530000  1.0 0.1007114174
H  H10  1  0.59360000  0.27810000  0.64580000  1.0 0.1375194121
H  H11  1  0.74700000  0.38070000  0.27180000  1.0 0.1007114174
H  H12  1  0.77040000  0.01350000  0.60790000  1.0 0.12355986
H  H13  1  0.58540000  0.34610000  0.32290000  1.0 0.1375194121
H  H14  1  0.27930000  0.16940000  0.25290000  1.0 0.1007114174
H  H15  1  0.25920000  0.34550000  0.37760000  1.0 0.1375194121
H  H16  1  0.74990000  0.29710000  0.69830000  1.0 0.1007114174
H  H17  1  0.04360000  0.63860000  0.18930000  1.0 0.1007114174
H  H18  1  0.07860000  0.53650000  0.83530000  1.0 0.1007114174
H  H19  1  0.18910000  0.60400000  0.13580000  1.0 0.12355986
H  H20  1  0.76860000  0.76290000  0.91110000  1.0 0.1284827707
H  H21  1  0.56180000  0.55860000  0.83900000  1.0 0.1375194121
H  H22  1  0.56360000  0.63210000  0.19710000  1.0 0.1375194121
H  H23  1  0.91260000  0.77560000  0.85610000  1.0 0.1059466763
H  H24  1  0.71730000  0.57170000  0.78770000  1.0 0.1007114174
H  H25  1  0.89450000  0.87100000  0.17470000  1.0 0.1007114174
H  H26  1  0.40640000  0.77810000  0.85420000  1.0 0.1375194121
H  H27  1  0.25300000  0.88070000  0.22820000  1.0 0.1007114174
H  H28  1  0.22960000  0.51350000  0.89210000  1.0 0.12355986
H  H29  1  0.41460000  0.84610000  0.17710000  1.0 0.1375194121
H  H30  1  0.72070000  0.66940000  0.24710000  1.0 0.1007114174
H  H31  1  0.74080000  0.84550000  0.12240000  1.0 0.1375194121
H  H32  1  0.25010000  0.79710000  0.80170000  1.0 0.1007114174
H  H33  1  0.04360000  0.86140000  0.68930000  1.0 0.1007114174
H  H34  1  0.07860000  0.96350000  0.33530000  1.0 0.1007114174
H  H35  1  0.18910000  0.89600000  0.63580000  1.0 0.12355986
H  H36  1  0.76860000  0.73710000  0.41110000  1.0 0.1284827707
H  H37  1  0.56180000  0.94140000  0.33900000  1.0 0.1375194121
H  H38  1  0.56360000  0.86790000  0.69710000  1.0 0.1375194121
H  H39  1  0.91260000  0.72440000  0.35610000  1.0 0.1059466763
H  H40  1  0.71730000  0.92830000  0.28770000  1.0 0.1007114174
H  H41  1  0.89450000  0.62900000  0.67470000  1.0 0.1007114174
H  H42  1  0.40640000  0.72190000  0.35420000  1.0 0.1375194121
H  H43  1  0.25300000  0.61930000  0.72820000  1.0 0.1007114174
H  H44  1  0.22960000  0.98650000  0.39210000  1.0 0.12355986
H  H45  1  0.41460000  0.65390000  0.67710000  1.0 0.1375194121
H  H46  1  0.72070000  0.83060000  0.74710000  1.0 0.1007114174
H  H47  1  0.74080000  0.65450000  0.62240000  1.0 0.1375194121
H  H48  1  0.25010000  0.70290000  0.30170000  1.0 0.1007114174
H  H49  1  0.95640000  0.36140000  0.81070000  1.0 0.1007114174
H  H50  1  0.92140000  0.46350000  0.16470000  1.0 0.1007114174
H  H51  1  0.81090000  0.39600000  0.86420000  1.0 0.12355986
H  H52  1  0.23140000  0.23710000  0.08890000  1.0 0.1284827707
H  H53  1  0.43820000  0.44140000  0.16100000  1.0 0.1375194121
H  H54  1  0.43640000  0.36790000  0.80290000  1.0 0.1375194121
H  H55  1  0.08740000  0.22440000  0.14390000  1.0 0.1059466763
H  H56  1  0.28270000  0.42830000  0.21230000  1.0 0.1007114174
H  H57  1  0.10550000  0.12900000  0.82530000  1.0 0.1007114174
H  H58  1  0.59360000  0.22190000  0.14580000  1.0 0.1375194121
H  H59  1  0.74700000  0.11930000  0.77180000  1.0 0.1007114174
H  H60  1  0.77040000  0.48650000  0.10790000  1.0 0.12355986
H  H61  1  0.58540000  0.15390000  0.82290000  1.0 0.1375194121
H  H62  1  0.27930000  0.33060000  0.75290000  1.0 0.1007114174
H  H63  1  0.25920000  0.15450000  0.87760000  1.0 0.1375194121
H  H64  1  0.74990000  0.20290000  0.19830000  1.0 0.1007114174
C  C1  1  0.44210000  0.14430000  0.58330000  1.0 -0.0795928888
C  C2  1  0.51140000  0.13960000  0.50300000  1.0 -0.0795928888
C  C3  1  0.51320000  0.14950000  0.46170000  1.0 -0.0908399322
C  C4  1  0.57160000  0.13590000  0.58430000  1.0 -0.0676561748
C  C5  1  0.45490000  0.20550000  0.38270000  1.0 -0.0588505552
C  C6  1  0.35060000  0.15570000  0.61860000  1.0 0.12355986
C  C7  1  0.66400000  0.14560000  0.62050000  1.0 0.1284827707
C  C8  1  0.67860000  0.22140000  0.34950000  1.0 0.1284827707
C  C9  1  0.88200000  0.18070000  0.31370000  1.0 0.0483539016
C  C10  1  0.85570000  0.08680000  0.66050000  1.0 0.1007114174
C  C11  1  0.58720000  0.19410000  0.38380000  1.0 -0.0588505552
C  C12  1  0.36070000  0.22810000  0.34780000  1.0 0.12355986
C  C13  1  0.79440000  0.15930000  0.34540000  1.0 -0.1976961107
C  C14  1  0.24440000  0.22390000  0.61350000  1.0 -0.1976961107
C  C15  1  0.36550000  0.10190000  0.65660000  1.0 -0.1881925748
C  C16  1  0.36920000  0.17960000  0.30880000  1.0 -0.1769211068
C  C17  1  0.15900000  0.23060000  0.64730000  1.0 0.091343665
C  C18  1  0.27330000  0.11220000  0.68780000  1.0 0.0671926154
C  C19  1  0.17270000  0.32260000  0.32080000  1.0 0.1007114174
C  C20  1  0.66020000  0.22800000  0.64820000  1.0 -0.1769211068
C  C21  1  0.75820000  0.32330000  0.29000000  1.0 0.1284827707
C  C22  1  0.76340000  0.07150000  0.62600000  1.0 -0.226023261
C  C23  1  0.66000000  0.30380000  0.32150000  1.0 -0.1769211068
C  C24  1  0.27480000  0.20400000  0.27890000  1.0 0.0594038474
C  C25  1  0.26290000  0.30580000  0.35290000  1.0 -0.1881925748
C  C26  1  0.75440000  0.23900000  0.68030000  1.0 0.1007114174
C  C27  1  0.55790000  0.64430000  0.91670000  1.0 -0.0795928888
C  C28  1  0.48860000  0.63960000  0.99700000  1.0 -0.0795928888
C  C29  1  0.48680000  0.64950000  0.03830000  1.0 -0.0908399322
C  C30  1  0.42840000  0.63590000  0.91570000  1.0 -0.0676561748
C  C31  1  0.54510000  0.70550000  0.11730000  1.0 -0.0588505552
C  C32  1  0.64940000  0.65570000  0.88140000  1.0 0.12355986
C  C33  1  0.33600000  0.64560000  0.87950000  1.0 0.1284827707
C  C34  1  0.32140000  0.72140000  0.15050000  1.0 0.1284827707
C  C35  1  0.11800000  0.68070000  0.18630000  1.0 0.0483539016
C  C36  1  0.14430000  0.58680000  0.83950000  1.0 0.1007114174
C  C37  1  0.41280000  0.69410000  0.11620000  1.0 -0.0588505552
C  C38  1  0.63930000  0.72810000  0.15220000  1.0 0.12355986
C  C39  1  0.20560000  0.65930000  0.15460000  1.0 -0.1976961107
C  C40  1  0.75560000  0.72390000  0.88650000  1.0 -0.1976961107
C  C41  1  0.63450000  0.60190000  0.84340000  1.0 -0.1881925748
C  C42  1  0.63080000  0.67960000  0.19120000  1.0 -0.1769211068
C  C43  1  0.84100000  0.73060000  0.85270000  1.0 0.091343665
C  C44  1  0.72670000  0.61220000  0.81220000  1.0 0.0671926154
C  C45  1  0.82730000  0.82260000  0.17920000  1.0 0.1007114174
C  C46  1  0.33980000  0.72800000  0.85180000  1.0 -0.1769211068
C  C47  1  0.24180000  0.82330000  0.21000000  1.0 0.1375194121
C  C48  1  0.23660000  0.57150000  0.87400000  1.0 -0.226023261
C  C49  1  0.34000000  0.80380000  0.17850000  1.0 -0.1769211068
C  C50  1  0.72520000  0.70400000  0.22110000  1.0 0.0594038474
C  C51  1  0.73710000  0.80580000  0.14710000  1.0 -0.1881925748
C  C52  1  0.24560000  0.73900000  0.81970000  1.0 0.1007114174
C  C53  1  0.55790000  0.85570000  0.41670000  1.0 -0.0795928888
C  C54  1  0.48860000  0.86040000  0.49700000  1.0 -0.0795928888
C  C55  1  0.48680000  0.85050000  0.53830000  1.0 -0.0908399322
C  C56  1  0.42840000  0.86410000  0.41570000  1.0 -0.0676561748
C  C57  1  0.54510000  0.79450000  0.61730000  1.0 -0.0588505552
C  C58  1  0.64940000  0.84430000  0.38140000  1.0 0.12355986
C  C59  1  0.33600000  0.85440000  0.37950000  1.0 0.1284827707
C  C60  1  0.32140000  0.77860000  0.65050000  1.0 0.1284827707
C  C61  1  0.11800000  0.81930000  0.68630000  1.0 0.0483539016
C  C62  1  0.14430000  0.91320000  0.33950000  1.0 0.1007114174
C  C63  1  0.41280000  0.80590000  0.61620000  1.0 -0.0588505552
C  C64  1  0.63930000  0.77190000  0.65220000  1.0 0.12355986
C  C65  1  0.20560000  0.84070000  0.65460000  1.0 -0.1976961107
C  C66  1  0.75560000  0.77610000  0.38650000  1.0 -0.1976961107
C  C67  1  0.63450000  0.89810000  0.34340000  1.0 -0.1881925748
C  C68  1  0.63080000  0.82040000  0.69120000  1.0 -0.1769211068
C  C69  1  0.84100000  0.76940000  0.35270000  1.0 0.091343665
C  C70  1  0.72670000  0.88780000  0.31220000  1.0 0.0671926154
C  C71  1  0.82730000  0.67740000  0.67920000  1.0 0.1007114174
C  C72  1  0.33980000  0.77200000  0.35180000  1.0 -0.1769211068
C  C73  1  0.24180000  0.67670000  0.71000000  1.0 0.1375194121
C  C74  1  0.23660000  0.92850000  0.37400000  1.0 -0.226023261
C  C75  1  0.34000000  0.69620000  0.67850000  1.0 -0.1769211068
C  C76  1  0.72520000  0.79600000  0.72110000  1.0 0.0594038474
C  C77  1  0.73710000  0.69420000  0.64710000  1.0 -0.1881925748
C  C78  1  0.24560000  0.76100000  0.31970000  1.0 0.1007114174
C  C79  1  0.44210000  0.35570000  0.08330000  1.0 -0.0795928888
C  C80  1  0.51140000  0.36040000  0.00300000  1.0 -0.0795928888
C  C81  1  0.51320000  0.35050000  0.96170000  1.0 -0.0908399322
C  C82  1  0.57160000  0.36410000  0.08430000  1.0 -0.0676561748
C  C83  1  0.45490000  0.29450000  0.88270000  1.0 -0.0588505552
C  C84  1  0.35060000  0.34430000  0.11860000  1.0 0.12355986
C  C85  1  0.66400000  0.35440000  0.12050000  1.0 0.1284827707
C  C86  1  0.67860000  0.27860000  0.84950000  1.0 0.1284827707
C  C87  1  0.88200000  0.31930000  0.81370000  1.0 0.0483539016
C  C88  1  0.85570000  0.41320000  0.16050000  1.0 0.1007114174
C  C89  1  0.58720000  0.30590000  0.88380000  1.0 -0.0588505552
C  C90  1  0.36070000  0.27190000  0.84780000  1.0 0.12355986
C  C91  1  0.79440000  0.34070000  0.84540000  1.0 -0.1976961107
C  C92  1  0.24440000  0.27610000  0.11350000  1.0 -0.1976961107
C  C93  1  0.36550000  0.39810000  0.15660000  1.0 -0.1881925748
C  C94  1  0.36920000  0.32040000  0.80880000  1.0 -0.1769211068
C  C95  1  0.15900000  0.26940000  0.14730000  1.0 0.091343665
C  C96  1  0.27330000  0.38780000  0.18780000  1.0 0.0671926154
C  C97  1  0.17270000  0.17740000  0.82080000  1.0 0.1007114174
C  C98  1  0.66020000  0.27200000  0.14820000  1.0 -0.1769211068
C  C99  1  0.75820000  0.17670000  0.79000000  1.0 0.1375194121
C  C100  1  0.76340000  0.42850000  0.12600000  1.0 -0.226023261
C  C101  1  0.66000000  0.19620000  0.82150000  1.0 -0.1769211068
C  C102  1  0.27480000  0.29600000  0.77890000  1.0 0.0594038474
C  C103  1  0.26290000  0.19420000  0.85290000  1.0 -0.1881925748
C  C104  1  0.75440000  0.26100000  0.18030000  1.0 0.1007114174
S  S1  1  0.65300000  0.11700000  0.53441000  1.0 0.0310542222
S  S2  1  0.36580000  0.13730000  0.53213000  1.0 0.0310542222
S  S3  1  0.65960000  0.14950000  0.43111000  1.0 0.0401306091
S  S4  1  0.37150000  0.17000000  0.43050000  1.0 0.0310542222
S  S5  1  0.34700000  0.61700000  0.96559000  1.0 0.0310542222
S  S6  1  0.63420000  0.63730000  0.96787000  1.0 0.0310542222
S  S7  1  0.34040000  0.64950000  0.06889000  1.0 0.0401306091
S  S8  1  0.62850000  0.67000000  0.06950000  1.0 0.0310542222
S  S9  1  0.34700000  0.88300000  0.46559000  1.0 0.0310542222
S  S10  1  0.63420000  0.86270000  0.46787000  1.0 0.0310542222
S  S11  1  0.34040000  0.85050000  0.56889000  1.0 0.0401306091
S  S12  1  0.62850000  0.83000000  0.56950000  1.0 0.0310542222
S  S13  1  0.65300000  0.38300000  0.03441000  1.0 0.0310542222
S  S14  1  0.36580000  0.36270000  0.03213000  1.0 0.0310542222
S  S15  1  0.65960000  0.35050000  0.93111000  1.0 0.0401306091
S  S16  1  0.37150000  0.33000000  0.93050000  1.0 0.0310542222
N  N1  1  0.16850000  0.17930000  0.68430000  1.0 -0.236530392
N  N2  1  0.17650000  0.27390000  0.28420000  1.0 -0.226023261
N  N3  1  0.85950000  0.26560000  0.28610000  1.0 -0.226023261
N  N4  1  0.01190000  0.46950000  0.24800000  1.0 -0.4678038866
N  N5  1  0.00510000  0.55010000  0.26550000  1.0 0.4125857665
N  N6  1  0.85070000  0.16840000  0.68620000  1.0 -0.226023261
N  N7  1  0.99140000  0.63190000  0.28330000  1.0 -0.4678038866
N  N8  1  0.83150000  0.67930000  0.81570000  1.0 -0.236530392
N  N9  1  0.82350000  0.77390000  0.21580000  1.0 -0.226023261
N  N10  1  0.14050000  0.76560000  0.21390000  1.0 -0.226023261
N  N11  1  0.98810000  0.96950000  0.25200000  1.0 -0.4678038866
N  N12  1  0.99490000  0.05010000  0.23450000  1.0 0.4125857665
N  N13  1  0.14930000  0.66840000  0.81380000  1.0 -0.226023261
N  N14  1  0.00860000  0.13190000  0.21670000  1.0 -0.4678038866
N  N15  1  0.83150000  0.82070000  0.31570000  1.0 -0.236530392
N  N16  1  0.82350000  0.72610000  0.71580000  1.0 -0.226023261
N  N17  1  0.14050000  0.73440000  0.71390000  1.0 -0.226023261
N  N18  1  0.98810000  0.53050000  0.75200000  1.0 -0.4678038866
N  N19  1  0.99490000  0.44990000  0.73450000  1.0 0.4125857665
N  N20  1  0.14930000  0.83160000  0.31380000  1.0 -0.226023261
N  N21  1  0.00860000  0.36810000  0.71670000  1.0 -0.4678038866
N  N22  1  0.16850000  0.32070000  0.18430000  1.0 -0.236530392
N  N23  1  0.17650000  0.22610000  0.78420000  1.0 -0.226023261
N  N24  1  0.85950000  0.23440000  0.78610000  1.0 -0.226023261
N  N25  1  0.01190000  0.03050000  0.74800000  1.0 -0.4678038866
N  N26  1  0.00510000  0.94990000  0.76550000  1.0 0.4125857665
N  N27  1  0.85070000  0.33160000  0.18620000  1.0 -0.226023261
N  N28  1  0.99140000  0.86810000  0.78330000  1.0 -0.4678038866
Cl  Cl1  1  0.45920000  0.95870000  0.77955000  1.0 1.1504019662
Cl  Cl2  1  0.54080000  0.45870000  0.72045000  1.0 1.1504019662
Cl  Cl3  1  0.54080000  0.04130000  0.22045000  1.0 1.1504019662
Cl  Cl4  1  0.45920000  0.54130000  0.27955000  1.0 1.1504019662
O  O1  1  0.53800000  0.02250000  0.75280000  1.0 -0.4612323218
O  O2  1  0.35400000  0.91400000  0.75510000  1.0 -0.4612323218
O  O3  1  0.38600000  0.00400000  0.81060000  1.0 -0.4123553695
O  O4  1  0.54200000  0.89800000  0.79450000  1.0 -0.312524064
O  O5  1  0.46200000  0.52250000  0.74720000  1.0 -0.4612323218
O  O6  1  0.64600000  0.41400000  0.74490000  1.0 -0.4612323218
O  O7  1  0.61400000  0.50400000  0.68940000  1.0 -0.4123553695
O  O8  1  0.45800000  0.39800000  0.70550000  1.0 -0.312524064
O  O9  1  0.46200000  0.97750000  0.24720000  1.0 -0.4612323218
O  O10  1  0.64600000  0.08600000  0.24490000  1.0 -0.4612323218
O  O11  1  0.61400000  0.99600000  0.18940000  1.0 -0.4123553695
O  O12  1  0.45800000  0.10200000  0.20550000  1.0 -0.312524064
O  O13  1  0.53800000  0.47750000  0.25280000  1.0 -0.4612323218
O  O14  1  0.35400000  0.58600000  0.25510000  1.0 -0.4612323218
O  O15  1  0.38600000  0.49600000  0.31060000  1.0 -0.4123553695
O  O16  1  0.54200000  0.60200000  0.29450000  1.0 -0.312524064
