# DDEC6 charges by PACMAN v1.1 (https://github.com/mtap-research/PACMAN-charge/)
data_COCMOY_ASR_pacman
_symmetry_space_group_name_H-M   'P 1'
_cell_length_a   18.82660000
_cell_length_b   18.82660000
_cell_length_c   25.46380000
_cell_angle_alpha   90.00000000
_cell_angle_beta   90.00000000
_cell_angle_gamma   90.00000000
_symmetry_Int_Tables_number   1
_chemical_formula_structural   Mn4Si2H32C56N32Cl
_chemical_formula_sum   'Mn8 Si4 H64 C112 N64 Cl2'
_cell_volume   9025.41136337
_cell_formula_units_Z   2
loop_
 _symmetry_equiv_pos_site_id
 _symmetry_equiv_pos_as_xyz
  1  'x, y, z'
loop_
 _atom_site_type_symbol
 _atom_site_label
 _atom_site_symmetry_multiplicity
 _atom_site_fract_x
 _atom_site_fract_y
 _atom_site_fract_z
 _atom_site_occupancy
 _atom_site_charge
Mn  Mn1  1  0.60140000  0.39860000  0.50000000  1.0 0.6255937071
Mn  Mn2  1  0.39860000  0.60140000  0.50000000  1.0 0.6255937071
Mn  Mn3  1  0.10140000  0.10140000  0.00000000  1.0 0.6255937071
Mn  Mn4  1  0.89860000  0.89860000  0.00000000  1.0 0.6255937071
Mn  Mn5  1  0.50000000  0.50000000  0.60784000  1.0 0.6167959274
Mn  Mn6  1  0.00000000  0.00000000  0.10784000  1.0 0.6167959274
Mn  Mn7  1  0.00000000  0.00000000  0.89216000  1.0 0.6167959274
Mn  Mn8  1  0.50000000  0.50000000  0.39216000  1.0 0.6167959274
Si  Si1  1  0.50000000  0.00000000  0.75000000  1.0 0.6695006342
Si  Si2  1  0.50000000  0.00000000  0.25000000  1.0 0.6695006342
Si  Si3  1  0.00000000  0.50000000  0.75000000  1.0 0.6695006342
Si  Si4  1  0.00000000  0.50000000  0.25000000  1.0 0.6695006342
H  H1  1  0.43700000  0.24480000  0.70730000  1.0 0.1194236592
H  H2  1  0.56300000  0.75520000  0.70730000  1.0 0.1194236592
H  H3  1  0.25520000  0.93700000  0.20730000  1.0 0.1194236592
H  H4  1  0.74480000  0.06300000  0.20730000  1.0 0.1194236592
H  H5  1  0.06300000  0.74480000  0.79270000  1.0 0.1194236592
H  H6  1  0.93700000  0.25520000  0.79270000  1.0 0.1194236592
H  H7  1  0.24480000  0.43700000  0.29270000  1.0 0.1194236592
H  H8  1  0.75520000  0.56300000  0.29270000  1.0 0.1194236592
H  H9  1  0.56300000  0.75520000  0.29270000  1.0 0.1194236592
H  H10  1  0.43700000  0.24480000  0.29270000  1.0 0.1194236592
H  H11  1  0.74480000  0.06300000  0.79270000  1.0 0.1194236592
H  H12  1  0.25520000  0.93700000  0.79270000  1.0 0.1194236592
H  H13  1  0.93700000  0.25520000  0.20730000  1.0 0.1194236592
H  H14  1  0.06300000  0.74480000  0.20730000  1.0 0.1194236592
H  H15  1  0.75520000  0.56300000  0.70730000  1.0 0.1194236592
H  H16  1  0.24480000  0.43700000  0.70730000  1.0 0.1194236592
H  H17  1  0.43170000  0.13910000  0.75480000  1.0 0.111943351
H  H18  1  0.56830000  0.86090000  0.75480000  1.0 0.111943351
H  H19  1  0.36090000  0.93170000  0.25480000  1.0 0.111943351
H  H20  1  0.63910000  0.06830000  0.25480000  1.0 0.111943351
H  H21  1  0.06830000  0.63910000  0.74520000  1.0 0.111943351
H  H22  1  0.93170000  0.36090000  0.74520000  1.0 0.111943351
H  H23  1  0.13910000  0.43170000  0.24520000  1.0 0.111943351
H  H24  1  0.86090000  0.56830000  0.24520000  1.0 0.111943351
H  H25  1  0.56830000  0.86090000  0.24520000  1.0 0.111943351
H  H26  1  0.43170000  0.13910000  0.24520000  1.0 0.111943351
H  H27  1  0.63910000  0.06830000  0.74520000  1.0 0.111943351
H  H28  1  0.36090000  0.93170000  0.74520000  1.0 0.111943351
H  H29  1  0.93170000  0.36090000  0.25480000  1.0 0.111943351
H  H30  1  0.06830000  0.63910000  0.25480000  1.0 0.111943351
H  H31  1  0.86090000  0.56830000  0.75480000  1.0 0.111943351
H  H32  1  0.13910000  0.43170000  0.75480000  1.0 0.111943351
H  H33  1  0.55950000  0.04500000  0.64950000  1.0 0.111943351
H  H34  1  0.44050000  0.95500000  0.64950000  1.0 0.111943351
H  H35  1  0.45500000  0.05950000  0.14950000  1.0 0.111943351
H  H36  1  0.54500000  0.94050000  0.14950000  1.0 0.111943351
H  H37  1  0.94050000  0.54500000  0.85050000  1.0 0.111943351
H  H38  1  0.05950000  0.45500000  0.85050000  1.0 0.111943351
H  H39  1  0.04500000  0.55950000  0.35050000  1.0 0.111943351
H  H40  1  0.95500000  0.44050000  0.35050000  1.0 0.111943351
H  H41  1  0.44050000  0.95500000  0.35050000  1.0 0.111943351
H  H42  1  0.55950000  0.04500000  0.35050000  1.0 0.111943351
H  H43  1  0.54500000  0.94050000  0.85050000  1.0 0.111943351
H  H44  1  0.45500000  0.05950000  0.85050000  1.0 0.111943351
H  H45  1  0.05950000  0.45500000  0.14950000  1.0 0.111943351
H  H46  1  0.94050000  0.54500000  0.14950000  1.0 0.111943351
H  H47  1  0.95500000  0.44050000  0.64950000  1.0 0.111943351
H  H48  1  0.04500000  0.55950000  0.64950000  1.0 0.111943351
H  H49  1  0.56610000  0.14960000  0.60140000  1.0 0.1194236592
H  H50  1  0.43390000  0.85040000  0.60140000  1.0 0.1194236592
H  H51  1  0.35040000  0.06610000  0.10140000  1.0 0.1194236592
H  H52  1  0.64960000  0.93390000  0.10140000  1.0 0.1194236592
H  H53  1  0.93390000  0.64960000  0.89860000  1.0 0.1194236592
H  H54  1  0.06610000  0.35040000  0.89860000  1.0 0.1194236592
H  H55  1  0.14960000  0.56610000  0.39860000  1.0 0.1194236592
H  H56  1  0.85040000  0.43390000  0.39860000  1.0 0.1194236592
H  H57  1  0.43390000  0.85040000  0.39860000  1.0 0.1194236592
H  H58  1  0.56610000  0.14960000  0.39860000  1.0 0.1194236592
H  H59  1  0.64960000  0.93390000  0.89860000  1.0 0.1194236592
H  H60  1  0.35040000  0.06610000  0.89860000  1.0 0.1194236592
H  H61  1  0.06610000  0.35040000  0.10140000  1.0 0.1194236592
H  H62  1  0.93390000  0.64960000  0.10140000  1.0 0.1194236592
H  H63  1  0.85040000  0.43390000  0.60140000  1.0 0.1194236592
H  H64  1  0.14960000  0.56610000  0.60140000  1.0 0.1194236592
C  C1  1  0.50750000  0.27340000  0.61890000  1.0 0.24743622
C  C2  1  0.49250000  0.72660000  0.61890000  1.0 0.24743622
C  C3  1  0.22660000  0.00750000  0.11890000  1.0 0.24743622
C  C4  1  0.77340000  0.99250000  0.11890000  1.0 0.24743622
C  C5  1  0.99250000  0.77340000  0.88110000  1.0 0.24743622
C  C6  1  0.00750000  0.22660000  0.88110000  1.0 0.24743622
C  C7  1  0.27340000  0.50750000  0.38110000  1.0 0.24743622
C  C8  1  0.72660000  0.49250000  0.38110000  1.0 0.24743622
C  C9  1  0.49250000  0.72660000  0.38110000  1.0 0.24743622
C  C10  1  0.50750000  0.27340000  0.38110000  1.0 0.24743622
C  C11  1  0.77340000  0.99250000  0.88110000  1.0 0.24743622
C  C12  1  0.22660000  0.00750000  0.88110000  1.0 0.24743622
C  C13  1  0.00750000  0.22660000  0.11890000  1.0 0.24743622
C  C14  1  0.99250000  0.77340000  0.11890000  1.0 0.24743622
C  C15  1  0.72660000  0.49250000  0.61890000  1.0 0.24743622
C  C16  1  0.27340000  0.50750000  0.61890000  1.0 0.24743622
C  C17  1  0.50090000  0.20720000  0.64950000  1.0 0.0473773944
C  C18  1  0.49910000  0.79280000  0.64950000  1.0 0.0473773944
C  C19  1  0.29280000  0.00090000  0.14950000  1.0 0.0473773944
C  C20  1  0.70720000  0.99910000  0.14950000  1.0 0.0473773944
C  C21  1  0.99910000  0.70720000  0.85050000  1.0 0.0473773944
C  C22  1  0.00090000  0.29280000  0.85050000  1.0 0.0473773944
C  C23  1  0.20720000  0.50090000  0.35050000  1.0 0.0473773944
C  C24  1  0.79280000  0.49910000  0.35050000  1.0 0.0473773944
C  C25  1  0.49910000  0.79280000  0.35050000  1.0 0.0473773944
C  C26  1  0.50090000  0.20720000  0.35050000  1.0 0.0473773944
C  C27  1  0.70720000  0.99910000  0.85050000  1.0 0.0473773944
C  C28  1  0.29280000  0.00090000  0.85050000  1.0 0.0473773944
C  C29  1  0.00090000  0.29280000  0.14950000  1.0 0.0473773944
C  C30  1  0.99910000  0.70720000  0.14950000  1.0 0.0473773944
C  C31  1  0.79280000  0.49910000  0.64950000  1.0 0.0473773944
C  C32  1  0.20720000  0.50090000  0.64950000  1.0 0.0473773944
C  C33  1  0.46200000  0.20410000  0.69530000  1.0 -0.1021777968
C  C34  1  0.53800000  0.79590000  0.69530000  1.0 -0.1021777968
C  C35  1  0.29590000  0.96200000  0.19530000  1.0 -0.1021777968
C  C36  1  0.70410000  0.03800000  0.19530000  1.0 -0.1021777968
C  C37  1  0.03800000  0.70410000  0.80470000  1.0 -0.1021777968
C  C38  1  0.96200000  0.29590000  0.80470000  1.0 -0.1021777968
C  C39  1  0.20410000  0.46200000  0.30470000  1.0 -0.1021777968
C  C40  1  0.79590000  0.53800000  0.30470000  1.0 -0.1021777968
C  C41  1  0.53800000  0.79590000  0.30470000  1.0 -0.1021777968
C  C42  1  0.46200000  0.20410000  0.30470000  1.0 -0.1021777968
C  C43  1  0.70410000  0.03800000  0.80470000  1.0 -0.1021777968
C  C44  1  0.29590000  0.96200000  0.80470000  1.0 -0.1021777968
C  C45  1  0.96200000  0.29590000  0.19530000  1.0 -0.1021777968
C  C46  1  0.03800000  0.70410000  0.19530000  1.0 -0.1021777968
C  C47  1  0.79590000  0.53800000  0.69530000  1.0 -0.1021777968
C  C48  1  0.20410000  0.46200000  0.69530000  1.0 -0.1021777968
C  C49  1  0.45960000  0.14110000  0.72370000  1.0 -0.0835104472
C  C50  1  0.54040000  0.85890000  0.72370000  1.0 -0.0835104472
C  C51  1  0.35890000  0.95960000  0.22370000  1.0 -0.0835104472
C  C52  1  0.64110000  0.04040000  0.22370000  1.0 -0.0835104472
C  C53  1  0.04040000  0.64110000  0.77630000  1.0 -0.0835104472
C  C54  1  0.95960000  0.35890000  0.77630000  1.0 -0.0835104472
C  C55  1  0.14110000  0.45960000  0.27630000  1.0 -0.0835104472
C  C56  1  0.85890000  0.54040000  0.27630000  1.0 -0.0835104472
C  C57  1  0.54040000  0.85890000  0.27630000  1.0 -0.0835104472
C  C58  1  0.45960000  0.14110000  0.27630000  1.0 -0.0835104472
C  C59  1  0.64110000  0.04040000  0.77630000  1.0 -0.0835104472
C  C60  1  0.35890000  0.95960000  0.77630000  1.0 -0.0835104472
C  C61  1  0.95960000  0.35890000  0.22370000  1.0 -0.0835104472
C  C62  1  0.04040000  0.64110000  0.22370000  1.0 -0.0835104472
C  C63  1  0.85890000  0.54040000  0.72370000  1.0 -0.0835104472
C  C64  1  0.14110000  0.45960000  0.72370000  1.0 -0.0835104472
C  C65  1  0.49690000  0.08100000  0.70810000  1.0 -0.2117832544
C  C66  1  0.50310000  0.91900000  0.70810000  1.0 -0.2117832544
C  C67  1  0.41900000  0.99690000  0.20810000  1.0 -0.2117832544
C  C68  1  0.58100000  0.00310000  0.20810000  1.0 -0.2117832544
C  C69  1  0.00310000  0.58100000  0.79190000  1.0 -0.2117832544
C  C70  1  0.99690000  0.41900000  0.79190000  1.0 -0.2117832544
C  C71  1  0.08100000  0.49690000  0.29190000  1.0 -0.2117832544
C  C72  1  0.91900000  0.50310000  0.29190000  1.0 -0.2117832544
C  C73  1  0.50310000  0.91900000  0.29190000  1.0 -0.2117832544
C  C74  1  0.49690000  0.08100000  0.29190000  1.0 -0.2117832544
C  C75  1  0.58100000  0.00310000  0.79190000  1.0 -0.2117832544
C  C76  1  0.41900000  0.99690000  0.79190000  1.0 -0.2117832544
C  C77  1  0.99690000  0.41900000  0.20810000  1.0 -0.2117832544
C  C78  1  0.00310000  0.58100000  0.20810000  1.0 -0.2117832544
C  C79  1  0.91900000  0.50310000  0.70810000  1.0 -0.2117832544
C  C80  1  0.08100000  0.49690000  0.70810000  1.0 -0.2117832544
C  C81  1  0.53490000  0.08580000  0.66170000  1.0 -0.0912349623
C  C82  1  0.46510000  0.91420000  0.66170000  1.0 -0.0912349623
C  C83  1  0.41420000  0.03490000  0.16170000  1.0 -0.0912349623
C  C84  1  0.58580000  0.96510000  0.16170000  1.0 -0.0912349623
C  C85  1  0.96510000  0.58580000  0.83830000  1.0 -0.0912349623
C  C86  1  0.03490000  0.41420000  0.83830000  1.0 -0.0912349623
C  C87  1  0.08580000  0.53490000  0.33830000  1.0 -0.0912349623
C  C88  1  0.91420000  0.46510000  0.33830000  1.0 -0.0912349623
C  C89  1  0.46510000  0.91420000  0.33830000  1.0 -0.0912349623
C  C90  1  0.53490000  0.08580000  0.33830000  1.0 -0.0912349623
C  C91  1  0.58580000  0.96510000  0.83830000  1.0 -0.0912349623
C  C92  1  0.41420000  0.03490000  0.83830000  1.0 -0.0912349623
C  C93  1  0.03490000  0.41420000  0.16170000  1.0 -0.0912349623
C  C94  1  0.96510000  0.58580000  0.16170000  1.0 -0.0912349623
C  C95  1  0.91420000  0.46510000  0.66170000  1.0 -0.0912349623
C  C96  1  0.08580000  0.53490000  0.66170000  1.0 -0.0912349623
C  C97  1  0.53840000  0.14770000  0.63260000  1.0 -0.1021777968
C  C98  1  0.46160000  0.85230000  0.63260000  1.0 -0.1021777968
C  C99  1  0.35230000  0.03840000  0.13260000  1.0 -0.1021777968
C  C100  1  0.64770000  0.96160000  0.13260000  1.0 -0.1021777968
C  C101  1  0.96160000  0.64770000  0.86740000  1.0 -0.1021777968
C  C102  1  0.03840000  0.35230000  0.86740000  1.0 -0.1021777968
C  C103  1  0.14770000  0.53840000  0.36740000  1.0 -0.1021777968
C  C104  1  0.85230000  0.46160000  0.36740000  1.0 -0.1021777968
C  C105  1  0.46160000  0.85230000  0.36740000  1.0 -0.1021777968
C  C106  1  0.53840000  0.14770000  0.36740000  1.0 -0.1021777968
C  C107  1  0.64770000  0.96160000  0.86740000  1.0 -0.1021777968
C  C108  1  0.35230000  0.03840000  0.86740000  1.0 -0.1021777968
C  C109  1  0.03840000  0.35230000  0.13260000  1.0 -0.1021777968
C  C110  1  0.96160000  0.64770000  0.13260000  1.0 -0.1021777968
C  C111  1  0.85230000  0.46160000  0.63260000  1.0 -0.1021777968
C  C112  1  0.14770000  0.53840000  0.63260000  1.0 -0.1021777968
N  N1  1  0.53940000  0.34870000  0.56325000  1.0 -0.0287909278
N  N2  1  0.46060000  0.65130000  0.56325000  1.0 -0.0287909278
N  N3  1  0.15130000  0.03940000  0.06325000  1.0 -0.0287909278
N  N4  1  0.84870000  0.96060000  0.06325000  1.0 -0.0287909278
N  N5  1  0.96060000  0.84870000  0.93675000  1.0 -0.0287909278
N  N6  1  0.03940000  0.15130000  0.93675000  1.0 -0.0287909278
N  N7  1  0.34870000  0.53940000  0.43675000  1.0 -0.0287909278
N  N8  1  0.65130000  0.46060000  0.43675000  1.0 -0.0287909278
N  N9  1  0.46060000  0.65130000  0.43675000  1.0 -0.0287909278
N  N10  1  0.53940000  0.34870000  0.43675000  1.0 -0.0287909278
N  N11  1  0.84870000  0.96060000  0.93675000  1.0 -0.0287909278
N  N12  1  0.15130000  0.03940000  0.93675000  1.0 -0.0287909278
N  N13  1  0.03940000  0.15130000  0.06325000  1.0 -0.0287909278
N  N14  1  0.96060000  0.84870000  0.06325000  1.0 -0.0287909278
N  N15  1  0.65130000  0.46060000  0.56325000  1.0 -0.0287909278
N  N16  1  0.34870000  0.53940000  0.56325000  1.0 -0.0287909278
N  N17  1  0.50375000  0.38280000  0.60060000  1.0 -0.0215670594
N  N18  1  0.49625000  0.61720000  0.60060000  1.0 -0.0215670594
N  N19  1  0.11720000  0.00375000  0.10060000  1.0 -0.0215670594
N  N20  1  0.88280000  0.99625000  0.10060000  1.0 -0.0215670594
N  N21  1  0.99625000  0.88280000  0.89940000  1.0 -0.0215670594
N  N22  1  0.00375000  0.11720000  0.89940000  1.0 -0.0215670594
N  N23  1  0.38280000  0.50375000  0.39940000  1.0 -0.0215670594
N  N24  1  0.61720000  0.49625000  0.39940000  1.0 -0.0215670594
N  N25  1  0.49625000  0.61720000  0.39940000  1.0 -0.0215670594
N  N26  1  0.50375000  0.38280000  0.39940000  1.0 -0.0215670594
N  N27  1  0.88280000  0.99625000  0.89940000  1.0 -0.0215670594
N  N28  1  0.11720000  0.00375000  0.89940000  1.0 -0.0215670594
N  N29  1  0.00375000  0.11720000  0.10060000  1.0 -0.0215670594
N  N30  1  0.99625000  0.88280000  0.10060000  1.0 -0.0215670594
N  N31  1  0.61720000  0.49625000  0.60060000  1.0 -0.0215670594
N  N32  1  0.38280000  0.50375000  0.60060000  1.0 -0.0215670594
N  N33  1  0.48290000  0.33560000  0.63761000  1.0 -0.2691445722
N  N34  1  0.51710000  0.66440000  0.63761000  1.0 -0.2691445722
N  N35  1  0.16440000  0.98290000  0.13761000  1.0 -0.2691445722
N  N36  1  0.83560000  0.01710000  0.13761000  1.0 -0.2691445722
N  N37  1  0.01710000  0.83560000  0.86239000  1.0 -0.2691445722
N  N38  1  0.98290000  0.16440000  0.86239000  1.0 -0.2691445722
N  N39  1  0.33560000  0.48290000  0.36239000  1.0 -0.2691445722
N  N40  1  0.66440000  0.51710000  0.36239000  1.0 -0.2691445722
N  N41  1  0.51710000  0.66440000  0.36239000  1.0 -0.2691445722
N  N42  1  0.48290000  0.33560000  0.36239000  1.0 -0.2691445722
N  N43  1  0.83560000  0.01710000  0.86239000  1.0 -0.2691445722
N  N44  1  0.16440000  0.98290000  0.86239000  1.0 -0.2691445722
N  N45  1  0.98290000  0.16440000  0.13761000  1.0 -0.2691445722
N  N46  1  0.01710000  0.83560000  0.13761000  1.0 -0.2691445722
N  N47  1  0.66440000  0.51710000  0.63761000  1.0 -0.2691445722
N  N48  1  0.33560000  0.48290000  0.63761000  1.0 -0.2691445722
N  N49  1  0.54210000  0.27960000  0.57498000  1.0 -0.2600746154
N  N50  1  0.45790000  0.72040000  0.57498000  1.0 -0.2600746154
N  N51  1  0.22040000  0.04210000  0.07498000  1.0 -0.2600746154
N  N52  1  0.77960000  0.95790000  0.07498000  1.0 -0.2600746154
N  N53  1  0.95790000  0.77960000  0.92502000  1.0 -0.2600746154
N  N54  1  0.04210000  0.22040000  0.92502000  1.0 -0.2600746154
N  N55  1  0.27960000  0.54210000  0.42502000  1.0 -0.2600746154
N  N56  1  0.72040000  0.45790000  0.42502000  1.0 -0.2600746154
N  N57  1  0.45790000  0.72040000  0.42502000  1.0 -0.2600746154
N  N58  1  0.54210000  0.27960000  0.42502000  1.0 -0.2600746154
N  N59  1  0.77960000  0.95790000  0.92502000  1.0 -0.2600746154
N  N60  1  0.22040000  0.04210000  0.92502000  1.0 -0.2600746154
N  N61  1  0.04210000  0.22040000  0.07498000  1.0 -0.2600746154
N  N62  1  0.95790000  0.77960000  0.07498000  1.0 -0.2600746154
N  N63  1  0.72040000  0.45790000  0.57498000  1.0 -0.2600746154
N  N64  1  0.27960000  0.54210000  0.57498000  1.0 -0.2600746154
Cl  Cl1  1  0.50000000  0.50000000  0.50000000  1.0 -0.5204701571
Cl  Cl2  1  0.00000000  0.00000000  0.00000000  1.0 -0.5204701571
