# DDEC6 charges by PACMAN v1.1 (https://github.com/mtap-research/PACMAN-charge/)
data_CODGAE_ASR_pacman
_symmetry_space_group_name_H-M   'P 1'
_cell_length_a   9.44034000
_cell_length_b   9.44034000
_cell_length_c   9.44034000
_cell_angle_alpha   93.11860000
_cell_angle_beta   93.11860000
_cell_angle_gamma   93.11860000
_symmetry_Int_Tables_number   1
_chemical_formula_structural   AlPO4
_chemical_formula_sum   'Al6 P6 O24'
_cell_volume   837.44379755
_cell_formula_units_Z   6
loop_
 _symmetry_equiv_pos_site_id
 _symmetry_equiv_pos_as_xyz
  1  'x, y, z'
loop_
 _atom_site_type_symbol
 _atom_site_label
 _atom_site_symmetry_multiplicity
 _atom_site_fract_x
 _atom_site_fract_y
 _atom_site_fract_z
 _atom_site_occupancy
 _atom_site_charge
Al  Al1  1  0.91260000  0.66820000  0.13530000  1.0 1.7679448807
Al  Al2  1  0.66820000  0.13530000  0.91260000  1.0 1.7679448807
Al  Al3  1  0.13530000  0.91260000  0.66820000  1.0 1.7679448807
Al  Al4  1  0.08740000  0.33180000  0.86470000  1.0 1.7679448807
Al  Al5  1  0.33180000  0.86470000  0.08740000  1.0 1.7679448807
Al  Al6  1  0.86470000  0.08740000  0.33180000  1.0 1.7679448807
P  P1  1  0.66510000  0.88560000  0.13120000  1.0 1.4317274176
P  P2  1  0.88560000  0.13120000  0.66510000  1.0 1.4317274176
P  P3  1  0.13120000  0.66510000  0.88560000  1.0 1.4317274176
P  P4  1  0.33490000  0.11440000  0.86880000  1.0 1.4317274176
P  P5  1  0.11440000  0.86880000  0.33490000  1.0 1.4317274176
P  P6  1  0.86880000  0.33490000  0.11440000  1.0 1.4317274176
O  O1  1  0.74960000  0.75570000  0.11780000  1.0 -0.7682450579
O  O2  1  0.75570000  0.11780000  0.74960000  1.0 -0.7682450579
O  O3  1  0.11780000  0.74960000  0.75570000  1.0 -0.7682450579
O  O4  1  0.25040000  0.24430000  0.88220000  1.0 -0.7682450579
O  O5  1  0.24430000  0.88220000  0.25040000  1.0 -0.7682450579
O  O6  1  0.88220000  0.25040000  0.24430000  1.0 -0.7682450579
O  O7  1  0.68390000  0.97290000  0.00410000  1.0 -0.8315910912
O  O8  1  0.97290000  0.00410000  0.68390000  1.0 -0.8315910912
O  O9  1  0.00410000  0.68390000  0.97290000  1.0 -0.8315910912
O  O10  1  0.31610000  0.02710000  0.99590000  1.0 -0.8315910912
O  O11  1  0.02710000  0.99590000  0.31610000  1.0 -0.8315910912
O  O12  1  0.99590000  0.31610000  0.02710000  1.0 -0.8315910912
O  O13  1  0.71140000  0.97400000  0.26770000  1.0 -0.8315910912
O  O14  1  0.97400000  0.26770000  0.71140000  1.0 -0.8315910912
O  O15  1  0.26770000  0.71140000  0.97400000  1.0 -0.8315910912
O  O16  1  0.28860000  0.02600000  0.73230000  1.0 -0.8315910912
O  O17  1  0.02600000  0.73230000  0.28860000  1.0 -0.8315910912
O  O18  1  0.73230000  0.28860000  0.02600000  1.0 -0.8315910912
O  O19  1  0.51200000  0.83430000  0.13940000  1.0 -0.7682450579
O  O20  1  0.83430000  0.13940000  0.51200000  1.0 -0.7682450579
O  O21  1  0.13940000  0.51200000  0.83430000  1.0 -0.7682450579
O  O22  1  0.48800000  0.16570000  0.86060000  1.0 -0.7682450579
O  O23  1  0.16570000  0.86060000  0.48800000  1.0 -0.7682450579
O  O24  1  0.86060000  0.48800000  0.16570000  1.0 -0.7682450579
