# DDEC6 charges by PACMAN v1.1 (https://github.com/mtap-research/PACMAN-charge/)
data_CODNAM_FSR_pacman
_symmetry_space_group_name_H-M   'P 1'
_cell_length_a   8.33190000
_cell_length_b   16.48620000
_cell_length_c   17.18120000
_cell_angle_alpha   90.00000000
_cell_angle_beta   117.34500000
_cell_angle_gamma   90.00000000
_symmetry_Int_Tables_number   1
_chemical_formula_structural   Zn3P4(HO3)4
_chemical_formula_sum   'Zn12 P16 H16 O48'
_cell_volume   2096.31535754
_cell_formula_units_Z   4
loop_
 _symmetry_equiv_pos_site_id
 _symmetry_equiv_pos_as_xyz
  1  'x, y, z'
loop_
 _atom_site_type_symbol
 _atom_site_label
 _atom_site_symmetry_multiplicity
 _atom_site_fract_x
 _atom_site_fract_y
 _atom_site_fract_z
 _atom_site_occupancy
 _atom_site_charge
Zn  Zn1  1  0.89709000  0.14234000  0.75804000  1.0 1.1471987302
Zn  Zn2  1  0.10291000  0.64234000  0.74196000  1.0 1.1471987302
Zn  Zn3  1  0.10291000  0.85766000  0.24196000  1.0 1.1471987302
Zn  Zn4  1  0.89709000  0.35766000  0.25804000  1.0 1.1471987302
Zn  Zn5  1  0.74814000  0.04024000  0.38846000  1.0 1.1311842734
Zn  Zn6  1  0.25186000  0.54024000  0.11154000  1.0 1.1311842734
Zn  Zn7  1  0.25186000  0.95976000  0.61154000  1.0 1.1311842734
Zn  Zn8  1  0.74814000  0.45976000  0.88846000  1.0 1.1311842734
Zn  Zn9  1  0.54105000  0.06030000  0.11257000  1.0 1.09175142
Zn  Zn10  1  0.45895000  0.56030000  0.38743000  1.0 1.09175142
Zn  Zn11  1  0.45895000  0.93970000  0.88743000  1.0 1.09175142
Zn  Zn12  1  0.54105000  0.43970000  0.61257000  1.0 1.09175142
P  P1  1  0.90713000  0.05549000  0.59583000  1.0 1.1861469085
P  P2  1  0.09287000  0.55549000  0.90417000  1.0 1.1861469085
P  P3  1  0.09287000  0.94451000  0.40417000  1.0 1.1861469085
P  P4  1  0.90713000  0.44451000  0.09583000  1.0 1.1861469085
P  P5  1  0.38185000  0.98171000  0.22945000  1.0 1.1968213255
P  P6  1  0.61815000  0.48171000  0.27055000  1.0 1.1968213255
P  P7  1  0.61815000  0.01829000  0.77055000  1.0 1.1968213255
P  P8  1  0.38185000  0.51829000  0.72945000  1.0 1.1968213255
P  P9  1  0.81254000  0.16333000  0.26489000  1.0 1.3502763445
P  P10  1  0.18746000  0.66333000  0.23511000  1.0 1.3502763445
P  P11  1  0.18746000  0.83667000  0.73511000  1.0 1.3502763445
P  P12  1  0.81254000  0.33667000  0.76489000  1.0 1.3502763445
P  P13  1  0.20128000  0.05273000  0.93218000  1.0 1.1427247757
P  P14  1  0.79872000  0.55273000  0.56782000  1.0 1.1427247757
P  P15  1  0.79872000  0.94727000  0.06782000  1.0 1.1427247757
P  P16  1  0.20128000  0.44727000  0.43218000  1.0 1.1427247757
H  H1  1  0.84460000  0.98600000  0.60590000  1.0 -0.1290401061
H  H2  1  0.15540000  0.48600000  0.89410000  1.0 -0.1290401061
H  H3  1  0.15540000  0.01400000  0.39410000  1.0 -0.1290401061
H  H4  1  0.84460000  0.51400000  0.10590000  1.0 -0.1290401061
H  H5  1  0.23470000  0.02790000  0.19970000  1.0 -0.1471629506
H  H6  1  0.76530000  0.52790000  0.30030000  1.0 -0.1471629506
H  H7  1  0.76530000  0.97210000  0.80030000  1.0 -0.1471629506
H  H8  1  0.23470000  0.47210000  0.69970000  1.0 -0.1471629506
H  H9  1  0.94190000  0.10530000  0.25940000  1.0 -0.1290401061
H  H10  1  0.05810000  0.60530000  0.24060000  1.0 -0.1290401061
H  H11  1  0.05810000  0.89470000  0.74060000  1.0 -0.1290401061
H  H12  1  0.94190000  0.39470000  0.75940000  1.0 -0.1290401061
H  H13  1  0.07260000  0.03880000  0.94840000  1.0 -0.1031626677
H  H14  1  0.92740000  0.53880000  0.55160000  1.0 -0.1031626677
H  H15  1  0.92740000  0.96120000  0.05160000  1.0 -0.1031626677
H  H16  1  0.07260000  0.46120000  0.44840000  1.0 -0.1031626677
O  O1  1  0.90640000  0.24290000  0.27780000  1.0 -0.6638538902
O  O2  1  0.09360000  0.74290000  0.22220000  1.0 -0.6638538902
O  O3  1  0.09360000  0.75710000  0.72220000  1.0 -0.6638538902
O  O4  1  0.90640000  0.25710000  0.77780000  1.0 -0.6638538902
O  O5  1  0.11790000  0.10610000  0.85330000  1.0 -0.6327982742
O  O6  1  0.88210000  0.60610000  0.64670000  1.0 -0.6327982742
O  O7  1  0.88210000  0.89390000  0.14670000  1.0 -0.6327982742
O  O8  1  0.11790000  0.39390000  0.35330000  1.0 -0.6327982742
O  O9  1  0.89000000  0.12380000  0.64810000  1.0 -0.6232282286
O  O10  1  0.11000000  0.62380000  0.85190000  1.0 -0.6232282286
O  O11  1  0.11000000  0.87620000  0.35190000  1.0 -0.6232282286
O  O12  1  0.89000000  0.37620000  0.14810000  1.0 -0.6232282286
O  O13  1  0.09710000  0.04310000  0.61220000  1.0 -0.6783918207
O  O14  1  0.90290000  0.54310000  0.88780000  1.0 -0.6783918207
O  O15  1  0.90290000  0.95690000  0.38780000  1.0 -0.6783918207
O  O16  1  0.09710000  0.45690000  0.11220000  1.0 -0.6783918207
O  O17  1  0.77410000  0.06780000  0.50190000  1.0 -0.5999128213
O  O18  1  0.22590000  0.56780000  0.99810000  1.0 -0.5999128213
O  O19  1  0.22590000  0.93220000  0.49810000  1.0 -0.5999128213
O  O20  1  0.77410000  0.43220000  0.00190000  1.0 -0.5999128213
O  O21  1  0.77820000  0.14450000  0.34260000  1.0 -0.6867548292
O  O22  1  0.22180000  0.64450000  0.15740000  1.0 -0.6867548292
O  O23  1  0.22180000  0.85550000  0.65740000  1.0 -0.6867548292
O  O24  1  0.77820000  0.35550000  0.84260000  1.0 -0.6867548292
O  O25  1  0.64090000  0.15790000  0.17990000  1.0 -0.6783918207
O  O26  1  0.35910000  0.65790000  0.32010000  1.0 -0.6783918207
O  O27  1  0.35910000  0.84210000  0.82010000  1.0 -0.6783918207
O  O28  1  0.64090000  0.34210000  0.67990000  1.0 -0.6783918207
O  O29  1  0.49400000  0.01360000  0.31830000  1.0 -0.6327982742
O  O30  1  0.50600000  0.51360000  0.18170000  1.0 -0.6327982742
O  O31  1  0.50600000  0.98640000  0.68170000  1.0 -0.6327982742
O  O32  1  0.49400000  0.48640000  0.81830000  1.0 -0.6327982742
O  O33  1  0.30660000  0.89740000  0.22870000  1.0 -0.6397724046
O  O34  1  0.69340000  0.39740000  0.27130000  1.0 -0.6397724046
O  O35  1  0.69340000  0.10260000  0.77130000  1.0 -0.6397724046
O  O36  1  0.30660000  0.60260000  0.72870000  1.0 -0.6397724046
O  O37  1  0.46900000  0.98020000  0.16990000  1.0 -0.6638538902
O  O38  1  0.53100000  0.48020000  0.33010000  1.0 -0.6638538902
O  O39  1  0.53100000  0.01980000  0.83010000  1.0 -0.6638538902
O  O40  1  0.46900000  0.51980000  0.66990000  1.0 -0.6638538902
O  O41  1  0.27590000  0.97500000  0.92000000  1.0 -0.6397724046
O  O42  1  0.72410000  0.47500000  0.58000000  1.0 -0.6397724046
O  O43  1  0.72410000  0.02500000  0.08000000  1.0 -0.6327982742
O  O44  1  0.27590000  0.52500000  0.42000000  1.0 -0.6397724046
O  O45  1  0.33880000  0.10310000  0.00740000  1.0 -0.5999128213
O  O46  1  0.66120000  0.60310000  0.49260000  1.0 -0.5999128213
O  O47  1  0.66120000  0.89690000  0.99260000  1.0 -0.5999128213
O  O48  1  0.33880000  0.39690000  0.50740000  1.0 -0.5999128213
