# DDEC6 charges by PACMAN v1.1 (https://github.com/mtap-research/PACMAN-charge/)
data_COHFEN_ASR_pacman
_symmetry_space_group_name_H-M   'P 1'
_cell_length_a   13.13600000
_cell_length_b   17.17700000
_cell_length_c   20.59800000
_cell_angle_alpha   89.28800000
_cell_angle_beta   92.39900000
_cell_angle_gamma   109.55300000
_symmetry_Int_Tables_number   1
_chemical_formula_structural   Cu6P2H24W18C28N13O54
_chemical_formula_sum   'Cu12 P4 H48 W36 C56 N26 O108'
_cell_volume   4375.80718885
_cell_formula_units_Z   2
loop_
 _symmetry_equiv_pos_site_id
 _symmetry_equiv_pos_as_xyz
  1  'x, y, z'
loop_
 _atom_site_type_symbol
 _atom_site_label
 _atom_site_symmetry_multiplicity
 _atom_site_fract_x
 _atom_site_fract_y
 _atom_site_fract_z
 _atom_site_occupancy
 _atom_site_charge
Cu  Cu1  1  0.57220000  0.19980000  0.45790000  1.0 0.4335426609
Cu  Cu2  1  0.43280000  0.27610000  0.88800000  1.0 0.3882497097
Cu  Cu3  1  0.10230000  0.37350000  0.43180000  1.0 0.4840338846
Cu  Cu4  1  0.44540000  0.26060000  0.25750000  1.0 0.4840338846
Cu  Cu5  1  0.78410000  0.13410000  0.08890000  1.0 0.3173754732
Cu  Cu6  1  0.31540000  0.32230000  0.05650000  1.0 0.3882497097
Cu  Cu7  1  0.42780000  0.80020000  0.54210000  1.0 0.4335426609
Cu  Cu8  1  0.56720000  0.72390000  0.11200000  1.0 0.3882497097
Cu  Cu9  1  0.89770000  0.62650000  0.56820000  1.0 0.4840338846
Cu  Cu10  1  0.55460000  0.73940000  0.74250000  1.0 0.4840338846
Cu  Cu11  1  0.21590000  0.86590000  0.91110000  1.0 0.3173754732
Cu  Cu12  1  0.68460000  0.67770000  0.94350000  1.0 0.3882497097
P  P1  1  0.04290000  0.38650000  0.76550000  1.0 1.3971102754
P  P2  1  0.83470000  0.15910000  0.75120000  1.0 1.3576524178
P  P3  1  0.95710000  0.61350000  0.23450000  1.0 1.3971102754
P  P4  1  0.16530000  0.84090000  0.24880000  1.0 1.3500189702
H  H1  1  0.75057000  0.16636000  0.38821000  1.0 0.0923347281
H  H2  1  0.93644000  0.21789000  0.39439000  1.0 0.0923347281
H  H3  1  0.73527000  0.37761000  0.46380000  1.0 0.118069285
H  H4  1  0.92735000  0.42691000  0.47137000  1.0 0.110873554
H  H5  1  0.15528000  0.38441000  0.28860000  1.0 0.0923347281
H  H6  1  0.25686000  0.32937000  0.23617000  1.0 0.118069285
H  H7  1  0.28853000  0.30468000  0.44766000  1.0 0.1418852726
H  H8  1  0.61217000  0.20863000  0.06519000  1.0 0.127118935
H  H9  1  0.64037000  0.20271000  0.29045000  1.0 0.110873554
H  H10  1  0.74644000  0.15365000  0.22403000  1.0 0.0923347281
H  H11  1  0.70774000  0.98612000  0.00230000  1.0 0.1025383244
H  H12  1  0.62897000  0.84515000  0.01030000  1.0 0.110873554
H  H13  1  0.76345000  0.99778000  0.18782000  1.0 0.110873554
H  H14  1  0.66415000  0.86342000  0.19523000  1.0 0.127118935
H  H15  1  0.94479000  0.30355000  0.10880000  1.0 0.127118935
H  H16  1  0.13894000  0.35471000  0.11303000  1.0 0.110873554
H  H17  1  0.97186000  0.09326000  0.06387000  1.0 0.110873554
H  H18  1  0.16231000  0.14802000  0.06490000  1.0 0.110873554
H  H19  1  0.29322000  0.49413000  0.01416000  1.0 0.110873554
H  H20  1  0.41229000  0.62218000  0.01890000  1.0 0.118069285
H  H21  1  0.47264000  0.42926000  0.15461000  1.0 0.110873554
H  H22  1  0.56706000  0.56941000  0.16800000  1.0 0.118069285
H  H23  1  0.36661000  0.07030000  0.48408000  1.0 0.118069285
H  H24  1  0.68244000  0.07449000  0.48468000  1.0 0.0923347281
H  H25  1  0.24943000  0.83364000  0.61179000  1.0 0.0923347281
H  H26  1  0.06356000  0.78211000  0.60561000  1.0 0.0923347281
H  H27  1  0.26473000  0.62239000  0.53620000  1.0 0.127118935
H  H28  1  0.07265000  0.57309000  0.52863000  1.0 0.110873554
H  H29  1  0.84472000  0.61559000  0.71140000  1.0 0.0923347281
H  H30  1  0.74314000  0.67063000  0.76383000  1.0 0.118069285
H  H31  1  0.71147000  0.69532000  0.55234000  1.0 0.1418852726
H  H32  1  0.38783000  0.79137000  0.93481000  1.0 0.127118935
H  H33  1  0.35963000  0.79729000  0.70955000  1.0 0.110873554
H  H34  1  0.25356000  0.84635000  0.77597000  1.0 0.0923347281
H  H35  1  0.29226000  0.01388000  0.99770000  1.0 0.1025383244
H  H36  1  0.37103000  0.15485000  0.98970000  1.0 0.110873554
H  H37  1  0.23655000  0.00222000  0.81218000  1.0 0.110873554
H  H38  1  0.33585000  0.13658000  0.80477000  1.0 0.127118935
H  H39  1  0.05521000  0.69645000  0.89120000  1.0 0.127118935
H  H40  1  0.86106000  0.64529000  0.88697000  1.0 0.110873554
H  H41  1  0.02814000  0.90674000  0.93613000  1.0 0.110873554
H  H42  1  0.83769000  0.85198000  0.93510000  1.0 0.110873554
H  H43  1  0.70678000  0.50587000  0.98584000  1.0 0.110873554
H  H44  1  0.58771000  0.37782000  0.98110000  1.0 0.110873554
H  H45  1  0.52736000  0.57074000  0.84539000  1.0 0.110873554
H  H46  1  0.43294000  0.43059000  0.83200000  1.0 0.118069285
H  H47  1  0.63339000  0.92970000  0.51592000  1.0 0.118069285
H  H48  1  0.31756000  0.92551000  0.51532000  1.0 0.0923347281
W  W1  1  0.18714000  0.31943000  0.88706000  1.0 2.3528238455
W  W2  1  0.89562000  0.43905000  0.63750000  1.0 2.3415149371
W  W3  1  0.25007000  0.30650000  0.73185000  1.0 2.4158806721
W  W4  1  0.10360000  0.37729000  0.60155000  1.0 2.4071181933
W  W5  1  0.76633000  0.17627000  0.91213000  1.0 2.3872317473
W  W6  1  0.08459000  0.59989000  0.74532000  1.0 2.1283984104
W  W7  1  0.96448000  0.39150000  0.92761000  1.0 2.2264561176
W  W8  1  0.83069000  0.45529000  0.80817000  1.0 2.2264561176
W  W9  1  0.69768000  0.22291000  0.62303000  1.0 2.3872317473
W  W10  1  0.99185000  0.10335000  0.87509000  1.0 2.1455689589
W  W11  1  0.29082000  0.53095000  0.71402000  1.0 2.2621273915
W  W12  1  0.05190000  0.09029000  0.71954000  1.0 2.4395662466
W  W13  1  0.21914000  0.54122000  0.86848000  1.0 2.2833311478
W  W14  1  0.90577000  0.16092000  0.58792000  1.0 2.3962882677
W  W15  1  0.71024000  0.97323000  0.83253000  1.0 2.3045366923
W  W16  1  0.63341000  0.23944000  0.79206000  1.0 2.3962882677
W  W17  1  0.56439000  0.03229000  0.71492000  1.0 2.2453812281
W  W18  1  0.76846000  0.96566000  0.67473000  1.0 2.3562639872
W  W19  1  0.81286000  0.68057000  0.11294000  1.0 2.3528238455
W  W20  1  0.10438000  0.56095000  0.36250000  1.0 2.3415149371
W  W21  1  0.74993000  0.69350000  0.26815000  1.0 2.4158806721
W  W22  1  0.89640000  0.62271000  0.39845000  1.0 2.4071181933
W  W23  1  0.23367000  0.82373000  0.08787000  1.0 2.3872317473
W  W24  1  0.91541000  0.40011000  0.25468000  1.0 2.1283984104
W  W25  1  0.03552000  0.60850000  0.07239000  1.0 2.2264561176
W  W26  1  0.16931000  0.54471000  0.19183000  1.0 2.207784764
W  W27  1  0.30232000  0.77709000  0.37697000  1.0 2.3872317473
W  W28  1  0.00815000  0.89665000  0.12491000  1.0 2.1435028235
W  W29  1  0.70918000  0.46905000  0.28598000  1.0 2.2621273915
W  W30  1  0.94810000  0.90971000  0.28046000  1.0 2.4395662466
W  W31  1  0.78086000  0.45878000  0.13152000  1.0 2.2833311478
W  W32  1  0.09423000  0.83908000  0.41208000  1.0 2.3962882677
W  W33  1  0.28976000  0.02677000  0.16747000  1.0 2.3058198611
W  W34  1  0.36659000  0.76056000  0.20794000  1.0 2.3872317473
W  W35  1  0.43561000  0.96771000  0.28508000  1.0 2.243182532
W  W36  1  0.23154000  0.03434000  0.32527000  1.0 2.3562639872
C  C1  1  0.78400000  0.21800000  0.40700000  1.0 -0.0392956218
C  C2  1  0.89600000  0.24900000  0.40800000  1.0 -0.0139467428
C  C3  1  0.77400000  0.34400000  0.45180000  1.0 0.0263027506
C  C4  1  0.89000000  0.37500000  0.45400000  1.0 0.0764932274
C  C5  1  0.19900000  0.35900000  0.31000000  1.0 -0.0636904245
C  C6  1  0.26500000  0.32900000  0.28100000  1.0 -0.0257138094
C  C7  1  0.28300000  0.31300000  0.40300000  1.0 -0.0392956218
C  C8  1  0.34800000  0.29200000  0.36130000  1.0 0.0764932274
C  C9  1  0.43300000  0.25400000  0.38900000  1.0 0.5034991423
C  C10  1  0.54600000  0.23300000  0.14780000  1.0 0.0603629159
C  C11  1  0.61800000  0.20800000  0.11000000  1.0 0.0117913031
C  C12  1  0.63100000  0.20200000  0.24500000  1.0 0.0263027506
C  C13  1  0.69800000  0.17600000  0.20500000  1.0 0.0117913031
C  C14  1  0.46100000  0.27000000  0.12500000  1.0 0.4840338846
C  C15  1  0.69800000  0.96300000  0.04400000  1.0 0.0030378377
C  C16  1  0.64900000  0.87600000  0.04800000  1.0 0.0216596494
C  C17  1  0.72800000  0.97000000  0.15100000  1.0 -0.0497647641
C  C18  1  0.67300000  0.88700000  0.15400000  1.0 0.0030378377
C  C19  1  0.98600000  0.27000000  0.10100000  1.0 -0.075897547
C  C20  1  0.10400000  0.30100000  0.09900000  1.0 0.0655564214
C  C21  1  0.00400000  0.14900000  0.07430000  1.0 0.0603629159
C  C22  1  0.12000000  0.18100000  0.07200000  1.0 -0.0665483052
C  C23  1  0.35600000  0.50700000  0.04000000  1.0 -0.0497647641
C  C24  1  0.41900000  0.58400000  0.05000000  1.0 0.0117913031
C  C25  1  0.46100000  0.46800000  0.12600000  1.0 0.0117913031
C  C26  1  0.51300000  0.55300000  0.13500000  1.0 0.0117913031
C  C27  1  0.41700000  0.04300000  0.49000000  1.0 0.0030378377
C  C28  1  0.61000000  0.04400000  0.49000000  1.0 0.0603629159
C  C29  1  0.21600000  0.78200000  0.59300000  1.0 -0.0392956218
C  C30  1  0.10400000  0.75100000  0.59200000  1.0 -0.0139467428
C  C31  1  0.22600000  0.65600000  0.54820000  1.0 0.0263027506
C  C32  1  0.11000000  0.62500000  0.54600000  1.0 0.0764932274
C  C33  1  0.80100000  0.64100000  0.69000000  1.0 -0.0636904245
C  C34  1  0.73500000  0.67100000  0.71900000  1.0 -0.0257138094
C  C35  1  0.71700000  0.68700000  0.59700000  1.0 -0.0392956218
C  C36  1  0.65200000  0.70800000  0.63870000  1.0 0.0764932274
C  C37  1  0.56700000  0.74600000  0.61100000  1.0 0.5034991423
C  C38  1  0.45400000  0.76700000  0.85220000  1.0 0.0603629159
C  C39  1  0.38200000  0.79200000  0.89000000  1.0 0.0117913031
C  C40  1  0.36900000  0.79800000  0.75500000  1.0 0.0263027506
C  C41  1  0.30200000  0.82400000  0.79500000  1.0 0.0117913031
C  C42  1  0.53900000  0.73000000  0.87500000  1.0 0.4840338846
C  C43  1  0.30200000  0.03700000  0.95600000  1.0 0.0030378377
C  C44  1  0.35100000  0.12400000  0.95200000  1.0 0.0216596494
C  C45  1  0.27200000  0.03000000  0.84900000  1.0 -0.0497647641
C  C46  1  0.32700000  0.11300000  0.84600000  1.0 0.0030378377
C  C47  1  0.01400000  0.73000000  0.89900000  1.0 -0.075897547
C  C48  1  0.89600000  0.69900000  0.90100000  1.0 0.0655564214
C  C49  1  0.99600000  0.85100000  0.92570000  1.0 0.0603629159
C  C50  1  0.88000000  0.81900000  0.92800000  1.0 -0.0665483052
C  C51  1  0.64400000  0.49300000  0.96000000  1.0 -0.0497647641
C  C52  1  0.58100000  0.41600000  0.95000000  1.0 0.0117913031
C  C53  1  0.53900000  0.53200000  0.87400000  1.0 0.0117913031
C  C54  1  0.48700000  0.44700000  0.86500000  1.0 0.0117913031
C  C55  1  0.58300000  0.95700000  0.51000000  1.0 0.0030378377
C  C56  1  0.39000000  0.95600000  0.51000000  1.0 0.0603629159
N  N1  1  0.71600000  0.26000000  0.43100000  1.0 -0.2778382083
N  N2  1  0.94400000  0.32700000  0.43120000  1.0 -0.2533696374
N  N3  1  0.20600000  0.34600000  0.37600000  1.0 -0.2314962229
N  N4  1  0.34000000  0.29940000  0.30100000  1.0 -0.2314962229
N  N5  1  0.55100000  0.22510000  0.21340000  1.0 -0.2621329358
N  N6  1  0.69500000  0.18300000  0.14100000  1.0 -0.1920394977
N  N7  1  0.73200000  0.01300000  0.09420000  1.0 -0.2147238632
N  N8  1  0.63200000  0.83700000  0.10300000  1.0 -0.1826088061
N  N9  1  0.94300000  0.18500000  0.08830000  1.0 -0.1654207339
N  N10  1  0.16200000  0.26440000  0.08110000  1.0 -0.163237833
N  N11  1  0.39100000  0.44300000  0.07300000  1.0 -0.2904655715
N  N12  1  0.49100000  0.61300000  0.09900000  1.0 -0.2031999012
N  N13  1  0.53500000  0.08100000  0.47950000  1.0 -0.2621329358
N  N14  1  0.28400000  0.74000000  0.56900000  1.0 -0.2778382083
N  N15  1  0.05600000  0.67300000  0.56880000  1.0 -0.2533696374
N  N16  1  0.79400000  0.65400000  0.62400000  1.0 -0.2314962229
N  N17  1  0.66000000  0.70060000  0.69900000  1.0 -0.2314962229
N  N18  1  0.44900000  0.77490000  0.78660000  1.0 -0.2621329358
N  N19  1  0.30500000  0.81700000  0.85900000  1.0 -0.1920394977
N  N20  1  0.26800000  0.98700000  0.90580000  1.0 -0.2147238632
N  N21  1  0.36800000  0.16300000  0.89700000  1.0 -0.1826088061
N  N22  1  0.05700000  0.81500000  0.91170000  1.0 -0.163237833
N  N23  1  0.83800000  0.73560000  0.91890000  1.0 -0.163237833
N  N24  1  0.60900000  0.55700000  0.92700000  1.0 -0.2904655715
N  N25  1  0.50900000  0.38700000  0.90100000  1.0 -0.2031999012
N  N26  1  0.46500000  0.91900000  0.52050000  1.0 -0.2621329358
O  O1  1  0.26000000  0.31050000  0.95490000  1.0 -0.7691687425
O  O2  1  0.84300000  0.49120000  0.58620000  1.0 -0.6815178474
O  O3  1  0.16300000  0.38460000  0.52660000  1.0 -0.7691687425
O  O4  1  0.73400000  0.15450000  0.99330000  1.0 -0.7957968792
O  O5  1  0.60700000  0.24290000  0.57070000  1.0 -0.7020221432
O  O6  1  0.51500000  0.26000000  0.79310000  1.0 -0.7357914527
O  O7  1  0.64630000  0.20420000  0.87970000  1.0 -0.900559263
O  O8  1  0.80700000  0.33250000  0.61740000  1.0 -0.892487067
O  O9  1  0.00600000  0.54050000  0.67350000  1.0 -0.9488290866
O  O10  1  0.00990000  0.43250000  0.58060000  1.0 -0.8633045932
O  O11  1  0.23900000  0.43870000  0.87950000  1.0 -0.9371545941
O  O12  1  0.06400000  0.32970000  0.92230000  1.0 -0.9371545941
O  O13  1  0.86800000  0.44800000  0.89910000  1.0 -0.9488290866
O  O14  1  0.94880000  0.15430000  0.77260000  1.0 -0.9063525024
O  O15  1  0.28100000  0.30430000  0.82130000  1.0 -0.9371545941
O  O16  1  0.85900000  0.01140000  0.85300000  1.0 -0.97995436
O  O17  1  0.17000000  0.31770000  0.65280000  1.0 -0.9292547584
O  O18  1  0.91100000  0.00490000  0.70370000  1.0 -0.9586152738
O  O19  1  0.21800000  0.61210000  0.70540000  1.0 -0.9488290866
O  O20  1  0.05600000  0.06050000  0.80770000  1.0 -0.9586152738
O  O21  1  0.96000000  0.54800000  0.79570000  1.0 -0.9996899148
O  O22  1  0.72500000  0.91330000  0.75910000  1.0 -0.9709851821
O  O23  1  0.80900000  0.05270000  0.61500000  1.0 -0.9920134028
O  O24  1  0.89700000  0.15490000  0.91310000  1.0 -0.9488290866
O  O25  1  0.01000000  0.14510000  0.64400000  1.0 -0.9586152738
O  O26  1  0.95500000  0.38190000  0.81380000  1.0 -0.9195079287
O  O27  1  0.10100000  0.20710000  0.87410000  1.0 -0.892487067
O  O28  1  0.66800000  0.25850000  0.70290000  1.0 -0.9063525024
O  O29  1  0.61800000  0.11580000  0.65030000  1.0 -0.9371545941
O  O30  1  0.11100000  0.33130000  0.78620000  1.0 -0.9063525024
O  O31  1  0.77800000  0.18660000  0.56260000  1.0 -0.9371545941
O  O32  1  0.57200000  0.12170000  0.76490000  1.0 -0.9371545941
O  O33  1  0.16900000  0.61880000  0.82940000  1.0 -0.9195079287
O  O34  1  0.16000000  0.19480000  0.73930000  1.0 -0.9709851821
O  O35  1  0.62800000  0.96520000  0.66690000  1.0 -0.9195079287
O  O36  1  0.09000000  0.48800000  0.90680000  1.0 -0.9586152738
O  O37  1  0.20200000  0.47300000  0.64210000  1.0 -0.9292547584
O  O38  1  0.70220000  0.06540000  0.87630000  1.0 -0.9488290866
O  O39  1  0.84200000  0.20030000  0.68360000  1.0 -0.892487067
O  O40  1  0.00550000  0.37180000  0.69350000  1.0 -0.8827825864
O  O41  1  0.32800000  0.56940000  0.80440000  1.0 -0.97995436
O  O42  1  0.79160000  0.20170000  0.79940000  1.0 -0.900559263
O  O43  1  0.82800000  0.43770000  0.71340000  1.0 -0.900559263
O  O44  1  0.73300000  0.34340000  0.81350000  1.0 -0.9292547584
O  O45  1  0.30200000  0.42790000  0.73480000  1.0 -0.97995436
O  O46  1  0.58200000  0.96590000  0.78770000  1.0 -0.9292547584
O  O47  1  0.84800000  0.28630000  0.91930000  1.0 -0.9063525024
O  O48  1  0.98500000  0.27340000  0.58550000  1.0 -0.9292547584
O  O49  1  0.75500000  0.06820000  0.74780000  1.0 -1.0421856722
O  O50  1  0.12600000  0.47950000  0.77070000  1.0 -1.0267049154
O  O51  1  0.48100000  0.23300000  0.34640000  1.0 -0.5052793404
O  O52  1  0.45300000  0.25200000  0.44960000  1.0 -0.4843236884
O  O53  1  0.40800000  0.28140000  0.17270000  1.0 -0.5472141882
O  O54  1  0.45080000  0.27670000  0.06750000  1.0 -0.5052793404
O  O55  1  0.74000000  0.68950000  0.04510000  1.0 -0.7691687425
O  O56  1  0.15700000  0.50880000  0.41380000  1.0 -0.6815178474
O  O57  1  0.83700000  0.61540000  0.47340000  1.0 -0.7691687425
O  O58  1  0.26600000  0.84550000  0.00670000  1.0 -0.7957968792
O  O59  1  0.39300000  0.75710000  0.42930000  1.0 -0.7020221432
O  O60  1  0.48500000  0.74000000  0.20690000  1.0 -0.7357914527
O  O61  1  0.35370000  0.79580000  0.12030000  1.0 -0.900559263
O  O62  1  0.19300000  0.66750000  0.38260000  1.0 -0.892487067
O  O63  1  0.99400000  0.45950000  0.32650000  1.0 -0.9488290866
O  O64  1  0.99010000  0.56750000  0.41940000  1.0 -0.8633045932
O  O65  1  0.76100000  0.56130000  0.12050000  1.0 -0.9371545941
O  O66  1  0.93600000  0.67030000  0.07770000  1.0 -0.9371545941
O  O67  1  0.13200000  0.55200000  0.10090000  1.0 -0.9488290866
O  O68  1  0.05120000  0.84570000  0.22740000  1.0 -0.9063525024
O  O69  1  0.71900000  0.69570000  0.17870000  1.0 -0.9371545941
O  O70  1  0.14100000  0.98860000  0.14700000  1.0 -0.97995436
O  O71  1  0.83000000  0.68230000  0.34720000  1.0 -0.9292547584
O  O72  1  0.08900000  0.99510000  0.29630000  1.0 -0.9586152738
O  O73  1  0.78200000  0.38790000  0.29460000  1.0 -0.9488290866
O  O74  1  0.94400000  0.93950000  0.19230000  1.0 -0.9586152738
O  O75  1  0.04000000  0.45200000  0.20430000  1.0 -0.9996899148
O  O76  1  0.27500000  0.08670000  0.24090000  1.0 -0.9709851821
O  O77  1  0.19100000  0.94730000  0.38500000  1.0 -0.9920134028
O  O78  1  0.10300000  0.84510000  0.08690000  1.0 -0.9488290866
O  O79  1  0.99000000  0.85490000  0.35600000  1.0 -0.9586152738
O  O80  1  0.04500000  0.61810000  0.18620000  1.0 -0.9195079287
O  O81  1  0.89900000  0.79290000  0.12590000  1.0 -0.892487067
O  O82  1  0.33200000  0.74150000  0.29710000  1.0 -0.9063525024
O  O83  1  0.38200000  0.88420000  0.34970000  1.0 -0.9371545941
O  O84  1  0.88900000  0.66870000  0.21380000  1.0 -0.900559263
O  O85  1  0.22200000  0.81340000  0.43740000  1.0 -0.9371545941
O  O86  1  0.42800000  0.87830000  0.23510000  1.0 -0.9371545941
O  O87  1  0.83100000  0.38120000  0.17060000  1.0 -0.9195079287
O  O88  1  0.84000000  0.80520000  0.26070000  1.0 -0.9709851821
O  O89  1  0.37200000  0.03480000  0.33310000  1.0 -0.9195079287
O  O90  1  0.91000000  0.51200000  0.09320000  1.0 -0.9586152738
O  O91  1  0.79800000  0.52700000  0.35790000  1.0 -0.9292547584
O  O92  1  0.29780000  0.93460000  0.12370000  1.0 -0.9488290866
O  O93  1  0.15800000  0.79970000  0.31640000  1.0 -0.892487067
O  O94  1  0.99450000  0.62820000  0.30650000  1.0 -0.8827825864
O  O95  1  0.67200000  0.43060000  0.19560000  1.0 -0.97995436
O  O96  1  0.20840000  0.79830000  0.20060000  1.0 -0.900559263
O  O97  1  0.17200000  0.56230000  0.28660000  1.0 -0.900559263
O  O98  1  0.26700000  0.65660000  0.18650000  1.0 -0.9195079287
O  O99  1  0.69800000  0.57210000  0.26520000  1.0 -0.97995436
O  O100  1  0.41800000  0.03410000  0.21230000  1.0 -0.9292547584
O  O101  1  0.15200000  0.71370000  0.08070000  1.0 -0.9063525024
O  O102  1  0.01500000  0.72660000  0.41450000  1.0 -0.9292547584
O  O103  1  0.24500000  0.93180000  0.25220000  1.0 -1.0421856722
O  O104  1  0.87400000  0.52050000  0.22930000  1.0 -1.0267049154
O  O105  1  0.51900000  0.76700000  0.65360000  1.0 -0.5052793404
O  O106  1  0.54700000  0.74800000  0.55040000  1.0 -0.4843236884
O  O107  1  0.59200000  0.71860000  0.82730000  1.0 -0.5472141882
O  O108  1  0.54920000  0.72330000  0.93250000  1.0 -0.5041867276
