# DDEC6 charges by PACMAN v1.1 (https://github.com/mtap-research/PACMAN-charge/)
data_COHYAC_FSR_pacman
_chemical_formula_sum              "Ag18 S12 N6 C110 H144 O16 F72"
_cell_length_a       21.4897
_cell_length_b       21.4897
_cell_length_c       11.2055
_cell_angle_alpha    90
_cell_angle_beta     90
_cell_angle_gamma    120

_symmetry_space_group_name_H-M    "P 1"
_symmetry_Int_Tables_number       1

loop_
  _symmetry_equiv_pos_as_xyz
  'x, y, z'

loop_
  _atom_site_type_symbol
  _atom_site_label
  _atom_site_symmetry_multiplicity
  _atom_site_fract_x
  _atom_site_fract_y
  _atom_site_fract_z
  _atom_site_occupancy
 _atom_site_charge
Ag  Ag1       1.0  0.82326  0.00003  0.49999  1.0000 0.2463575967
Ag  Ag2       1.0  0.90570  0.95284  0.32377  1.0000 0.0881842442
S   S1        1.0  0.92539  0.07449  0.35500  1.0000 -0.0090451306
N   N1        1.0  0.71770  0.00000  0.49930  1.0000 -0.3196021201
C   C1        1.0  0.65320  0.93510  0.49920  1.0000 -0.1101981731
H   H1        1.0  0.65360  0.89150  0.49880  1.0000 0.0995987808
C   C2        1.0  0.58830  0.93460  0.49960  1.0000 -0.2420027462
H   H2        1.0  0.54470  0.89070  0.49950  1.0000 0.1195233033
C   C3        1.0  0.58790  0.99910  0.50020  1.0000 0.1618600589
C   C4        1.0  0.65230  0.06400  0.50030  1.0000 -0.2340999799
H   H3        1.0  0.65200  0.10760  0.50070  1.0000 0.1195233033
C   C5        1.0  0.71720  0.06450  0.49990  1.0000 -0.0992203387
H   H4        1.0  0.76080  0.10840  0.49990  1.0000 0.0995987808
C   C6        1.0  0.89860  0.10200  0.20550  1.0000 0.0718019527
O   O1        1.0  0.74060  0.87030  0.36370  1.0000 -0.2879268062
C   C7        1.0  0.74370  0.87210  0.25430  1.0000 0.1076663192
C   C8        1.0  0.92230  0.07480  0.10600  1.0000 -0.4176156056
H   H5        1.0  0.97430  0.09720  0.10740  1.0000 0.0881842442
H   H6        1.0  0.90730  0.08590  0.03120  1.0000 0.0718019527
H   H7        1.0  0.90110  0.02310  0.11340  1.0000 0.0804205988
C   C9        1.0  0.93050  0.18130  0.21700  1.0000 -0.2841899178
H   H8        1.0  0.91400  0.19230  0.29000  1.0000 0.131328936
H   H9        1.0  0.91570  0.19920  0.14910  1.0000 0.1431923899
H   H10       1.0  0.98240  0.20410  0.21780  1.0000 0.0604727704
C   C10       1.0  0.81890  0.06620  0.21220  1.0000 -0.3078206859
H   H11       1.0  0.79850  0.01470  0.20450  1.0000 0.0604727704
H   H12       1.0  0.80130  0.08360  0.14820  1.0000 0.1431923899
H   H13       1.0  0.80500  0.07700  0.28840  1.0000 0.131328936
F   F1        1.0  0.61750  0.79020  0.25000  1.0000 -0.0401076953
C   C11       1.0  0.67200  0.83470  0.18680  1.0000 0.3918014534
F   F2        1.0  0.67640  0.80110  0.09400  1.0000 -0.0401076953
F   F3        1.0  0.66200  0.88630  0.15100  1.0000 0.0080930713
C   C12       1.0  0.79650  0.89870  0.20420  1.0000 0.0001582587
C   C13       1.0  0.53360  0.02400  0.50000  1.0000 -0.0273341513
H   H14       1.0  0.54830  0.07320  0.50030  1.0000 0.0804205988
O   O2        1.0  0.10130  0.89780  0.20420  1.0000 0.0604727704
Ag  Ag3       1.0  0.95283  0.04717  0.32374  1.0000 0.0804205988
S   S2        1.0  0.85026  0.92527  0.35470  1.0000 -0.0186590653
O   O3        1.0  0.87020  0.12990  0.36190  1.0000 -0.2532082371
C   C14       1.0  0.87100  0.12700  0.25130  1.0000 0.0080930713
C   C15       1.0  0.75030  0.93180  0.21600  1.0000 -0.2841899178
H   H15       1.0  0.72000  0.91250  0.28600  1.0000 0.1076663192
H   H16       1.0  0.72040  0.92090  0.14550  1.0000 0.1754734733
H   H17       1.0  0.78030  0.98340  0.22400  1.0000 0.0718019527
C   C16       1.0  0.84710  0.92110  0.10450  1.0000 -0.3310842893
H   H18       1.0  0.87910  0.97270  0.10760  1.0000 0.0804205988
H   H19       1.0  0.82080  0.90830  0.02980  1.0000 0.0718019527
H   H20       1.0  0.87510  0.89700  0.10990  1.0000 0.0804205988
C   C17       1.0  0.75250  0.81910  0.21510  1.0000 -0.2732950083
H   H21       1.0  0.78390  0.79910  0.22360  1.0000 0.0718019527
H   H22       1.0  0.72310  0.79960  0.14420  1.0000 0.1685610258
H   H23       1.0  0.72170  0.80690  0.28470  1.0000 0.1076663192
F   F4        1.0  0.81180  0.19490  0.25440  1.0000 0.0175981336
F   F5        1.0  0.82600  0.15100  0.07500  1.0000 -0.0401076953
C   C18       1.0  0.83560  0.16390  0.18630  1.0000 0.3832891999
F   F6        1.0  0.88170  0.20790  0.11100  1.0000 -0.0677944928
F   F7        1.0  0.78320  0.11130  0.13200  1.0000 -0.0090451306
F   F8        1.0  0.77210  0.14200  0.22700  1.0000 -0.0479239461
F   F9        1.0  0.86500  0.23050  0.21500  1.0000 -0.0479239461
C   C19       1.0  0.50900  0.97550  0.50000  1.0000 -0.0273341513
H   H24       1.0  0.47390  0.92650  0.49940  1.0000 0.0804205988
F   F10       1.0  0.65300  0.76720  0.17900  1.0000 -0.0090451306
F   F11       1.0  0.62230  0.84010  0.24300  1.0000 -0.0479239461
F   F12       1.0  0.67700  0.85950  0.08000  1.0000 -0.0677944928
Ag  Ag4       1.0  0.99997  0.82323  0.49999  1.0000 0.2555398711
Ag  Ag5       1.0  0.04716  0.95286  0.32377  1.0000 0.0804205988
S   S3        1.0  0.92551  0.85090  0.35500  1.0000 -0.0090451306
N   N2        1.0  0.00000  0.71770  0.49930  1.0000 -0.3196021201
C   C20       1.0  0.06490  0.71810  0.49920  1.0000 -0.1101981731
H   H25       1.0  0.10850  0.76210  0.49880  1.0000 0.0995987808
C   C21       1.0  0.06540  0.65370  0.49960  1.0000 -0.2420027462
H   H26       1.0  0.10930  0.65400  0.49950  1.0000 0.1195233033
C   C22       1.0  0.00090  0.58880  0.50020  1.0000 0.1618600589
C   C23       1.0  0.93600  0.58830  0.50030  1.0000 -0.2340999799
H   H27       1.0  0.89240  0.54440  0.50070  1.0000 0.1195233033
C   C24       1.0  0.93550  0.65270  0.49990  1.0000 -0.0992203387
H   H28       1.0  0.89160  0.65240  0.49990  1.0000 0.0995987808
C   C25       1.0  0.89800  0.79660  0.20550  1.0000 0.0718019527
O   O4        1.0  0.12970  0.87030  0.36370  1.0000 -0.2532082371
C   C26       1.0  0.12790  0.87160  0.25430  1.0000 0.0175981336
C   C27       1.0  0.92520  0.84750  0.10600  1.0000 -0.4135986896
H   H29       1.0  0.90280  0.87710  0.10740  1.0000 0.0804205988
H   H30       1.0  0.91410  0.82140  0.03120  1.0000 0.0718019527
H   H31       1.0  0.97690  0.87800  0.11340  1.0000 0.0881842442
C   C28       1.0  0.81870  0.74920  0.21700  1.0000 -0.2879268062
H   H32       1.0  0.80770  0.72170  0.29000  1.0000 0.131328936
H   H33       1.0  0.80080  0.71650  0.14910  1.0000 0.1431923899
H   H34       1.0  0.79590  0.77830  0.21780  1.0000 0.0604727704
C   C29       1.0  0.93380  0.75270  0.21220  1.0000 -0.2985509753
H   H35       1.0  0.98530  0.78380  0.20450  1.0000 0.0604727704
H   H36       1.0  0.91640  0.71770  0.14820  1.0000 0.1431923899
H   H37       1.0  0.92300  0.72800  0.28840  1.0000 0.131328936
F   F13       1.0  0.20980  0.82730  0.25000  1.0000 -0.0401076953
C   C30       1.0  0.16530  0.83730  0.18680  1.0000 0.3918014534
F   F14       1.0  0.19890  0.87530  0.09400  1.0000 -0.0401076953
F   F15       1.0  0.11370  0.77570  0.15100  1.0000 -0.0021886395
C   C31       1.0  0.97600  0.50960  0.50000  1.0000 -0.0273341513
H   H38       1.0  0.92680  0.47510  0.50030  1.0000 0.0804205988
O   O5        1.0  0.10220  0.20350  0.20420  1.0000 0.0604727704
Ag  Ag6       1.0  0.95283  0.90566  0.32374  1.0000 0.0804205988
S   S4        1.0  0.07473  0.92499  0.35470  1.0000 -0.0021886395
O   O6        1.0  0.87010  0.74030  0.36190  1.0000 -0.2532082371
C   C32       1.0  0.87300  0.74400  0.25130  1.0000 0.0080930713
C   C33       1.0  0.06820  0.81850  0.21600  1.0000 -0.2985509753
H   H39       1.0  0.08750  0.80750  0.28600  1.0000 0.1195233033
H   H40       1.0  0.07910  0.79950  0.14550  1.0000 0.1618600589
H   H41       1.0  0.01660  0.79690  0.22400  1.0000 0.0604727704
C   C34       1.0  0.07890  0.92600  0.10450  1.0000 -0.4007455118
H   H42       1.0  0.02730  0.90640  0.10760  1.0000 0.0881842442
H   H43       1.0  0.09170  0.91250  0.02980  1.0000 0.0718019527
H   H44       1.0  0.10300  0.97810  0.10990  1.0000 0.0804205988
C   C35       1.0  0.18090  0.93340  0.21510  1.0000 -0.2879268062
H   H45       1.0  0.20090  0.98480  0.22360  1.0000 0.0604727704
H   H46       1.0  0.20040  0.92350  0.14420  1.0000 0.1510941305
H   H47       1.0  0.19310  0.91480  0.28470  1.0000 0.1195233033
F   F16       1.0  0.80510  0.61690  0.25440  1.0000 0.0175981336
F   F17       1.0  0.84900  0.67500  0.07500  1.0000 -0.0401076953
C   C36       1.0  0.83610  0.67170  0.18630  1.0000 0.3832891999
F   F18       1.0  0.79210  0.67380  0.11100  1.0000 -0.0677944928
F   F19       1.0  0.88870  0.67190  0.13200  1.0000 -0.0090451306
F   F20       1.0  0.85800  0.63010  0.22700  1.0000 -0.0479239461
F   F21       1.0  0.76950  0.63450  0.21500  1.0000 -0.0479239461
C   C37       1.0  0.02450  0.53350  0.50000  1.0000 -0.0273341513
H   H48       1.0  0.07350  0.54740  0.49940  1.0000 0.0804205988
F   F22       1.0  0.23280  0.88580  0.17900  1.0000 -0.0186590653
F   F23       1.0  0.15990  0.78220  0.24300  1.0000 -0.0479239461
F   F24       1.0  0.14050  0.81750  0.08000  1.0000 -0.0677944928
Ag  Ag7       1.0  0.17677  0.17674  0.49999  1.0000 0.2463575967
Ag  Ag8       1.0  0.04714  0.09430  0.32377  1.0000 0.0804205988
S   S5        1.0  0.14910  0.07461  0.35500  1.0000 -0.0021886395
N   N3        1.0  0.28230  0.28230  0.49930  1.0000 -0.3196021201
C   C38       1.0  0.28190  0.34680  0.49920  1.0000 -0.1101981731
H   H49       1.0  0.23790  0.34640  0.49880  1.0000 0.0995987808
C   C39       1.0  0.34630  0.41170  0.49960  1.0000 -0.2420027462
H   H50       1.0  0.34600  0.45530  0.49950  1.0000 0.1195233033
C   C40       1.0  0.41120  0.41210  0.50020  1.0000 0.1618600589
C   C41       1.0  0.41170  0.34770  0.50030  1.0000 -0.2340999799
H   H51       1.0  0.45560  0.34800  0.50070  1.0000 0.1195233033
C   C42       1.0  0.34730  0.28280  0.49990  1.0000 -0.0992203387
H   H52       1.0  0.34760  0.23920  0.49990  1.0000 0.0995987808
C   C43       1.0  0.20340  0.10140  0.20550  1.0000 0.0718019527
O   O7        1.0  0.12970  0.25940  0.36370  1.0000 -0.2532082371
C   C44       1.0  0.12840  0.25630  0.25430  1.0000 0.0175981336
C   C45       1.0  0.15250  0.07770  0.10600  1.0000 -0.4176156056
H   H53       1.0  0.12290  0.02570  0.10740  1.0000 0.0881842442
H   H54       1.0  0.17860  0.09270  0.03120  1.0000 0.0718019527
H   H55       1.0  0.12200  0.09890  0.11340  1.0000 0.0881842442
C   C46       1.0  0.25080  0.06950  0.21700  1.0000 -0.2879268062
H   H56       1.0  0.27830  0.08600  0.29000  1.0000 0.131328936
H   H57       1.0  0.28350  0.08430  0.14910  1.0000 0.1431923899
H   H58       1.0  0.22170  0.01760  0.21780  1.0000 0.0604727704
C   C47       1.0  0.24730  0.18110  0.21220  1.0000 -0.2985509753
H   H59       1.0  0.21620  0.20150  0.20450  1.0000 0.0604727704
H   H60       1.0  0.28230  0.19870  0.14820  1.0000 0.1431923899
H   H61       1.0  0.27200  0.19500  0.28840  1.0000 0.131328936
F   F25       1.0  0.17270  0.38250  0.25000  1.0000 -0.0401076953
C   C48       1.0  0.16270  0.32800  0.18680  1.0000 0.3918014534
F   F26       1.0  0.12470  0.32360  0.09400  1.0000 -0.0273341513
F   F27       1.0  0.22430  0.33800  0.15100  1.0000 -0.0021886395
C   C49       1.0  0.49040  0.46640  0.50000  1.0000 -0.0273341513
H   H62       1.0  0.52490  0.45170  0.50030  1.0000 0.0804205988
Ag  Ag9       1.0  0.09434  0.04717  0.32374  1.0000 0.0804205988
S   S6        1.0  0.07501  0.14974  0.35470  1.0000 -0.0021886395
O   O8        1.0  0.25970  0.12980  0.36190  1.0000 -0.2532082371
C   C50       1.0  0.25600  0.12900  0.25130  1.0000 0.0080930713
C   C51       1.0  0.18150  0.24970  0.21600  1.0000 -0.2985509753
H   H63       1.0  0.19250  0.28000  0.28600  1.0000 0.1195233033
H   H64       1.0  0.20050  0.27960  0.14550  1.0000 0.1618600589
H   H65       1.0  0.20310  0.21970  0.22400  1.0000 0.0604727704
C   C52       1.0  0.07400  0.15290  0.10450  1.0000 -0.4007455118
H   H66       1.0  0.09360  0.12090  0.10760  1.0000 0.0881842442
H   H67       1.0  0.08750  0.17920  0.02980  1.0000 0.0718019527
H   H68       1.0  0.02190  0.12490  0.10990  1.0000 0.0804205988
C   C53       1.0  0.06660  0.24750  0.21510  1.0000 -0.2841899178
H   H69       1.0  0.01520  0.21610  0.22360  1.0000 0.0604727704
H   H70       1.0  0.07650  0.27690  0.14420  1.0000 0.1510941305
H   H71       1.0  0.08520  0.27830  0.28470  1.0000 0.1195233033
F   F28       1.0  0.38310  0.18820  0.25440  1.0000 0.0175981336
F   F29       1.0  0.32500  0.17400  0.07500  1.0000 -0.0401076953
C   C54       1.0  0.32830  0.16440  0.18630  1.0000 0.3832891999
F   F30       1.0  0.32620  0.11830  0.11100  1.0000 -0.0677944928
F   F31       1.0  0.32810  0.21680  0.13200  1.0000 -0.0090451306
F   F32       1.0  0.36990  0.22790  0.22700  1.0000 -0.0479239461
F   F33       1.0  0.36550  0.13500  0.21500  1.0000 -0.0479239461
C   C55       1.0  0.46650  0.49100  0.50000  1.0000 -0.0273341513
H   H72       1.0  0.45260  0.52610  0.49940  1.0000 0.0804205988
F   F34       1.0  0.11420  0.34700  0.17900  1.0000 -0.0186590653
F   F35       1.0  0.21780  0.37770  0.24300  1.0000 -0.0479239461
F   F36       1.0  0.18250  0.32300  0.08000  1.0000 -0.0645931109
Ag  Ag10      1.0  0.17674  0.99997  0.50001  1.0000 0.2463575967
Ag  Ag11      1.0  0.09430  0.04716  0.67623  1.0000 0.0881842442
S   S7        1.0  0.07461  0.92551  0.64500  1.0000 -0.0186590653
N   N4        1.0  0.28230  0.00000  0.50070  1.0000 -0.3196021201
C   C56       1.0  0.34680  0.06490  0.50080  1.0000 -0.1101981731
H   H73       1.0  0.34640  0.10850  0.50120  1.0000 0.0995987808
C   C57       1.0  0.41170  0.06540  0.50040  1.0000 -0.2420027462
H   H74       1.0  0.45530  0.10930  0.50050  1.0000 0.1195233033
C   C58       1.0  0.41210  0.00090  0.49980  1.0000 0.1618600589
C   C59       1.0  0.34770  0.93600  0.49970  1.0000 -0.2340999799
H   H75       1.0  0.34800  0.89240  0.49930  1.0000 0.1195233033
C   C60       1.0  0.28280  0.93550  0.50010  1.0000 -0.0992203387
H   H76       1.0  0.23920  0.89160  0.50010  1.0000 0.0995987808
C   C61       1.0  0.10140  0.89800  0.79450  1.0000 0.0718019527
O   O9        1.0  0.25940  0.12970  0.63630  1.0000 -0.2879268062
C   C62       1.0  0.25630  0.12790  0.74570  1.0000 0.1076663192
C   C63       1.0  0.07770  0.92520  0.89400  1.0000 -0.4135986896
H   H77       1.0  0.02570  0.90280  0.89260  1.0000 0.0881842442
H   H78       1.0  0.09270  0.91410  0.96880  1.0000 0.0718019527
H   H79       1.0  0.09890  0.97690  0.88660  1.0000 0.0804205988
C   C64       1.0  0.06950  0.81870  0.78300  1.0000 -0.2841899178
H   H80       1.0  0.08600  0.80770  0.71000  1.0000 0.131328936
H   H81       1.0  0.08430  0.80080  0.85090  1.0000 0.1431923899
H   H82       1.0  0.01760  0.79590  0.78220  1.0000 0.0604727704
C   C65       1.0  0.18110  0.93380  0.78780  1.0000 -0.3078206859
H   H83       1.0  0.20150  0.98530  0.79550  1.0000 0.0604727704
H   H84       1.0  0.19870  0.91640  0.85180  1.0000 0.1431923899
H   H85       1.0  0.19500  0.92300  0.71160  1.0000 0.131328936
F   F37       1.0  0.38250  0.20980  0.75000  1.0000 -0.0401076953
C   C66       1.0  0.32800  0.16530  0.81320  1.0000 0.3918014534
F   F38       1.0  0.32360  0.19890  0.90600  1.0000 -0.0401076953
F   F39       1.0  0.33800  0.11370  0.84900  1.0000 0.0080930713
C   C67       1.0  0.20350  0.10130  0.79580  1.0000 -0.0021886395
C   C68       1.0  0.46640  0.97600  0.50000  1.0000 -0.0273341513
H   H86       1.0  0.45170  0.92680  0.49970  1.0000 0.0804205988
O   O10       1.0  0.89870  0.10220  0.79580  1.0000 0.0604727704
Ag  Ag12      1.0  0.04717  0.95283  0.67626  1.0000 0.0804205988
S   S8        1.0  0.14974  0.07473  0.64530  1.0000 -0.0186590653
O   O11       1.0  0.12980  0.87010  0.63810  1.0000 -0.2532082371
C   C69       1.0  0.12900  0.87300  0.74870  1.0000 0.0080930713
C   C70       1.0  0.24970  0.06820  0.78400  1.0000 -0.2841899178
H   H87       1.0  0.28000  0.08750  0.71400  1.0000 0.1076663192
H   H88       1.0  0.27960  0.07910  0.85450  1.0000 0.1685610258
H   H89       1.0  0.21970  0.01660  0.77600  1.0000 0.0718019527
C   C71       1.0  0.15290  0.07890  0.89550  1.0000 -0.3310842893
H   H90       1.0  0.12090  0.02730  0.89240  1.0000 0.0804205988
H   H91       1.0  0.17920  0.09170  0.97020  1.0000 0.0718019527
H   H92       1.0  0.12490  0.10300  0.89010  1.0000 0.0804205988
C   C72       1.0  0.24750  0.18090  0.78490  1.0000 -0.2732950083
H   H93       1.0  0.21610  0.20090  0.77640  1.0000 0.0718019527
H   H94       1.0  0.27690  0.20040  0.85580  1.0000 0.1685610258
H   H95       1.0  0.27830  0.19310  0.71530  1.0000 0.1076663192
F   F40       1.0  0.18820  0.80510  0.74560  1.0000 0.0175981336
F   F41       1.0  0.17400  0.84900  0.92500  1.0000 -0.0401076953
C   C73       1.0  0.16440  0.83610  0.81370  1.0000 0.3832891999
F   F42       1.0  0.11830  0.79210  0.88900  1.0000 -0.0677944928
F   F43       1.0  0.21680  0.88870  0.86800  1.0000 -0.0090451306
F   F44       1.0  0.22790  0.85800  0.77300  1.0000 -0.0479239461
F   F45       1.0  0.13500  0.76950  0.78500  1.0000 -0.0401076953
C   C74       1.0  0.49100  0.02450  0.50000  1.0000 -0.0273341513
H   H96       1.0  0.52610  0.07350  0.50060  1.0000 0.0804205988
F   F46       1.0  0.34700  0.23280  0.82100  1.0000 -0.0090451306
F   F47       1.0  0.37770  0.15990  0.75700  1.0000 -0.0479239461
F   F48       1.0  0.32300  0.14050  0.92000  1.0000 -0.0677944928
Ag  Ag13      1.0  0.00003  0.17677  0.50001  1.0000 0.2555398711
Ag  Ag14      1.0  0.95284  0.04714  0.67623  1.0000 0.0718019527
S   S9        1.0  0.07449  0.14910  0.64500  1.0000 -0.0186590653
N   N5        1.0  0.00000  0.28230  0.50070  1.0000 -0.3196021201
C   C75       1.0  0.93510  0.28190  0.50080  1.0000 -0.1101981731
H   H97       1.0  0.89150  0.23790  0.50120  1.0000 0.0995987808
C   C76       1.0  0.93460  0.34630  0.50040  1.0000 -0.2420027462
H   H98       1.0  0.89070  0.34600  0.50050  1.0000 0.1195233033
C   C77       1.0  0.99910  0.41120  0.49980  1.0000 0.1618600589
C   C78       1.0  0.06400  0.41170  0.49970  1.0000 -0.2340999799
H   H99       1.0  0.10760  0.45560  0.49930  1.0000 0.1195233033
C   C79       1.0  0.06450  0.34730  0.50010  1.0000 -0.0992203387
H   H100      1.0  0.10840  0.34760  0.50010  1.0000 0.0995987808
C   C80       1.0  0.10200  0.20340  0.79450  1.0000 0.0718019527
O   O12       1.0  0.87030  0.12970  0.63630  1.0000 -0.2532082371
C   C81       1.0  0.87210  0.12840  0.74570  1.0000 0.0175981336
C   C82       1.0  0.07480  0.15250  0.89400  1.0000 -0.4135986896
H   H101      1.0  0.09720  0.12290  0.89260  1.0000 0.0804205988
H   H102      1.0  0.08590  0.17860  0.96880  1.0000 0.0718019527
H   H103      1.0  0.02310  0.12200  0.88660  1.0000 0.0881842442
C   C83       1.0  0.18130  0.25080  0.78300  1.0000 -0.2879268062
H   H104      1.0  0.19230  0.27830  0.71000  1.0000 0.131328936
H   H105      1.0  0.19920  0.28350  0.85090  1.0000 0.1431923899
H   H106      1.0  0.20410  0.22170  0.78220  1.0000 0.0604727704
C   C84       1.0  0.06620  0.24730  0.78780  1.0000 -0.2985509753
H   H107      1.0  0.01470  0.21620  0.79550  1.0000 0.0604727704
H   H108      1.0  0.08360  0.28230  0.85180  1.0000 0.1431923899
H   H109      1.0  0.07700  0.27200  0.71160  1.0000 0.131328936
F   F49       1.0  0.79020  0.17270  0.75000  1.0000 -0.0401076953
C   C85       1.0  0.83470  0.16270  0.81320  1.0000 0.3918014534
F   F50       1.0  0.80110  0.12470  0.90600  1.0000 -0.0401076953
F   F51       1.0  0.88630  0.22430  0.84900  1.0000 -0.0021886395
C   C86       1.0  0.02400  0.49040  0.50000  1.0000 -0.0273341513
H   H110      1.0  0.07320  0.52490  0.49970  1.0000 0.0804205988
O   O13       1.0  0.89780  0.79650  0.79580  1.0000 0.0604727704
Ag  Ag15      1.0  0.04717  0.09434  0.67626  1.0000 0.0804205988
S   S10       1.0  0.92527  0.07501  0.64530  1.0000 0.0001582587
O   O14       1.0  0.12990  0.25970  0.63810  1.0000 -0.2532082371
C   C87       1.0  0.12700  0.25600  0.74870  1.0000 0.0080930713
C   C88       1.0  0.93180  0.18150  0.78400  1.0000 -0.2985509753
H   H111      1.0  0.91250  0.19250  0.71400  1.0000 0.1195233033
H   H112      1.0  0.92090  0.20050  0.85450  1.0000 0.1618600589
H   H113      1.0  0.98340  0.20310  0.77600  1.0000 0.0604727704
C   C89       1.0  0.92110  0.07400  0.89550  1.0000 -0.4007455118
H   H114      1.0  0.97270  0.09360  0.89240  1.0000 0.0881842442
H   H115      1.0  0.90830  0.08750  0.97020  1.0000 0.0718019527
H   H116      1.0  0.89700  0.02190  0.89010  1.0000 0.0804205988
C   C90       1.0  0.81910  0.06660  0.78490  1.0000 -0.2841899178
H   H117      1.0  0.79910  0.01520  0.77640  1.0000 0.0604727704
H   H118      1.0  0.79960  0.07650  0.85580  1.0000 0.1510941305
H   H119      1.0  0.80690  0.08520  0.71530  1.0000 0.1195233033
F   F52       1.0  0.19490  0.38310  0.74560  1.0000 0.0175981336
F   F53       1.0  0.15100  0.32500  0.92500  1.0000 -0.0401076953
C   C91       1.0  0.16390  0.32830  0.81370  1.0000 0.3832891999
F   F54       1.0  0.20790  0.32620  0.88900  1.0000 -0.0677944928
F   F55       1.0  0.11130  0.32810  0.86800  1.0000 -0.0090451306
F   F56       1.0  0.14200  0.36990  0.77300  1.0000 -0.0479239461
F   F57       1.0  0.23050  0.36550  0.78500  1.0000 -0.0401076953
C   C92       1.0  0.97550  0.46650  0.50000  1.0000 -0.0273341513
H   H120      1.0  0.92650  0.45260  0.50060  1.0000 0.0804205988
F   F58       1.0  0.76720  0.11420  0.82100  1.0000 -0.0186590653
F   F59       1.0  0.84010  0.21780  0.75700  1.0000 -0.0479239461
F   F60       1.0  0.85950  0.18250  0.92000  1.0000 -0.0677944928
Ag  Ag16      1.0  0.82323  0.82326  0.50001  1.0000 0.2463575967
Ag  Ag17      1.0  0.95286  0.90570  0.67623  1.0000 0.0804205988
S   S11       1.0  0.85090  0.92539  0.64500  1.0000 -0.0021886395
N   N6        1.0  0.71770  0.71770  0.50070  1.0000 -0.3196021201
C   C93       1.0  0.71810  0.65320  0.50080  1.0000 -0.1101981731
H   H121      1.0  0.76210  0.65360  0.50120  1.0000 0.0995987808
C   C94       1.0  0.65370  0.58830  0.50040  1.0000 -0.2420027462
H   H122      1.0  0.65400  0.54470  0.50050  1.0000 0.1195233033
C   C95       1.0  0.58880  0.58790  0.49980  1.0000 0.1685610258
C   C96       1.0  0.58830  0.65230  0.49970  1.0000 -0.2340999799
H   H123      1.0  0.54440  0.65200  0.49930  1.0000 0.1195233033
C   C97       1.0  0.65270  0.71720  0.50010  1.0000 -0.0992203387
H   H124      1.0  0.65240  0.76080  0.50010  1.0000 0.0995987808
C   C98       1.0  0.79660  0.89860  0.79450  1.0000 0.0718019527
O   O15       1.0  0.87030  0.74060  0.63630  1.0000 -0.2532082371
C   C99       1.0  0.87160  0.74370  0.74570  1.0000 0.0175981336
C   C100      1.0  0.84750  0.92230  0.89400  1.0000 -0.4176156056
H   H125      1.0  0.87710  0.97430  0.89260  1.0000 0.0881842442
H   H126      1.0  0.82140  0.90730  0.96880  1.0000 0.0718019527
H   H127      1.0  0.87800  0.90110  0.88660  1.0000 0.0881842442
C   C101      1.0  0.74920  0.93050  0.78300  1.0000 -0.2841899178
H   H128      1.0  0.72170  0.91400  0.71000  1.0000 0.131328936
H   H129      1.0  0.71650  0.91570  0.85090  1.0000 0.1431923899
H   H130      1.0  0.77830  0.98240  0.78220  1.0000 0.0604727704
C   C102      1.0  0.75270  0.81890  0.78780  1.0000 -0.2985509753
H   H131      1.0  0.78380  0.79850  0.79550  1.0000 0.0604727704
H   H132      1.0  0.71770  0.80130  0.85180  1.0000 0.1431923899
H   H133      1.0  0.72800  0.80500  0.71160  1.0000 0.131328936
F   F61       1.0  0.82730  0.61750  0.75000  1.0000 -0.0401076953
C   C103      1.0  0.83730  0.67200  0.81320  1.0000 0.3918014534
F   F62       1.0  0.87530  0.67640  0.90600  1.0000 -0.0401076953
F   F63       1.0  0.77570  0.66200  0.84900  1.0000 -0.0021886395
C   C104      1.0  0.50960  0.53360  0.50000  1.0000 -0.0273341513
H   H134      1.0  0.47510  0.54830  0.49970  1.0000 0.0804205988
Ag  Ag18      1.0  0.90566  0.95283  0.67626  1.0000 0.0804205988
S   S12       1.0  0.92499  0.85026  0.64530  1.0000 0.0001582587
O   O16       1.0  0.74030  0.87020  0.63810  1.0000 -0.2532082371
C   C105      1.0  0.74400  0.87100  0.74870  1.0000 0.0080930713
C   C106      1.0  0.81850  0.75030  0.78400  1.0000 -0.2985509753
H   H135      1.0  0.80750  0.72000  0.71400  1.0000 0.1195233033
H   H136      1.0  0.79950  0.72040  0.85450  1.0000 0.1618600589
H   H137      1.0  0.79690  0.78030  0.77600  1.0000 0.0604727704
C   C107      1.0  0.92600  0.84710  0.89550  1.0000 -0.4007455118
H   H138      1.0  0.90640  0.87910  0.89240  1.0000 0.0881842442
H   H139      1.0  0.91250  0.82080  0.97020  1.0000 0.0718019527
H   H140      1.0  0.97810  0.87510  0.89010  1.0000 0.0804205988
C   C108      1.0  0.93340  0.75250  0.78490  1.0000 -0.2841899178
H   H141      1.0  0.98480  0.78390  0.77640  1.0000 0.0604727704
H   H142      1.0  0.92350  0.72310  0.85580  1.0000 0.1510941305
H   H143      1.0  0.91480  0.72170  0.71530  1.0000 0.1195233033
F   F64       1.0  0.61690  0.81180  0.74560  1.0000 0.0175981336
F   F65       1.0  0.67500  0.82600  0.92500  1.0000 -0.0401076953
C   C109      1.0  0.67170  0.83560  0.81370  1.0000 0.3832891999
F   F66       1.0  0.67380  0.88170  0.88900  1.0000 -0.0677944928
F   F67       1.0  0.67190  0.78320  0.86800  1.0000 -0.0090451306
F   F68       1.0  0.63010  0.77210  0.77300  1.0000 -0.0479239461
F   F69       1.0  0.63450  0.86500  0.78500  1.0000 -0.0401076953
C   C110      1.0  0.53350  0.50900  0.50000  1.0000 -0.0273341513
H   H144      1.0  0.54740  0.47390  0.50060  1.0000 0.0804205988
F   F70       1.0  0.88580  0.65300  0.82100  1.0000 -0.0186590653
F   F71       1.0  0.78220  0.62230  0.75700  1.0000 -0.0479239461
F   F72       1.0  0.81750  0.67700  0.92000  1.0000 -0.0645931109
  O   O17       1.0  0.79650  0.89870  0.20420  1.0000
  C   C111      1.0  0.10130  0.89780  0.20420  1.0000
  C   C112      1.0  0.10220  0.20350  0.20420  1.0000
  O   O18       1.0  0.20350  0.10130  0.79580  1.0000
  C   C113      1.0  0.89870  0.10220  0.79580  1.0000
  C   C114      1.0  0.89780  0.79650  0.79580  1.0000
