# DDEC6 charges by PACMAN v1.1 (https://github.com/mtap-research/PACMAN-charge/)
data_COJMOF02_FSR_pacman
_symmetry_space_group_name_H-M   'P 1'
_cell_length_a   20.14640000
_cell_length_b   20.14640000
_cell_length_c   18.56650000
_cell_angle_alpha   64.31530000
_cell_angle_beta   115.68500000
_cell_angle_gamma   109.48600000
_symmetry_Int_Tables_number   1
_chemical_formula_structural   Zn2H24C43(NO4)2
_chemical_formula_sum   'Zn8 H96 C172 N8 O32'
_cell_volume   6020.78646625
_cell_formula_units_Z   4
loop_
 _symmetry_equiv_pos_site_id
 _symmetry_equiv_pos_as_xyz
  1  'x, y, z'
loop_
 _atom_site_type_symbol
 _atom_site_label
 _atom_site_symmetry_multiplicity
 _atom_site_fract_x
 _atom_site_fract_y
 _atom_site_fract_z
 _atom_site_occupancy
 _atom_site_charge
Zn  Zn1  1  0.32531000  0.14781000  0.48914000  1.0 0.8141681691
Zn  Zn2  1  0.85219000  0.67469000  0.98914000  1.0 0.8141681691
Zn  Zn3  1  0.45488000  0.07132000  0.58746000  1.0 0.8268018057
Zn  Zn4  1  0.92868000  0.54512000  0.08746000  1.0 0.8268018057
Zn  Zn5  1  0.14781000  0.32531000  0.01086000  1.0 0.8141681691
Zn  Zn6  1  0.67469000  0.85219000  0.51086000  1.0 0.8141681691
Zn  Zn7  1  0.07132000  0.45488000  0.91254000  1.0 0.8268018057
Zn  Zn8  1  0.54512000  0.92868000  0.41254000  1.0 0.8268018057
H  H1  1  0.48960000  0.93680000  0.59570000  1.0 0.1200666154
H  H2  1  0.06320000  0.51040000  0.09570000  1.0 0.1200666154
H  H3  1  0.11080000  0.95240000  0.18130000  1.0 0.1200666154
H  H4  1  0.04760000  0.88920000  0.68130000  1.0 0.1200666154
H  H5  1  0.06720000  0.91500000  0.24880000  1.0 0.1361786514
H  H6  1  0.08500000  0.93280000  0.74880000  1.0 0.1361786514
H  H7  1  0.59490000  0.06090000  0.74160000  1.0 0.1200666154
H  H8  1  0.93910000  0.40510000  0.24160000  1.0 0.1200666154
H  H9  1  0.71650000  0.31350000  0.81910000  1.0 0.1361786514
H  H10  1  0.68650000  0.28350000  0.31910000  1.0 0.1361786514
H  H11  1  0.67640000  0.27400000  0.88990000  1.0 0.1361786514
H  H12  1  0.72600000  0.32360000  0.38990000  1.0 0.1361786514
H  H13  1  0.20080000  0.01740000  0.32050000  1.0 0.1291875498
H  H14  1  0.98260000  0.79920000  0.82050000  1.0 0.1291875498
H  H15  1  0.99750000  0.82130000  0.14080000  1.0 0.1291875498
H  H16  1  0.17870000  0.00250000  0.64080000  1.0 0.1291875498
H  H17  1  0.78250000  0.40630000  0.93040000  1.0 0.1291875498
H  H18  1  0.59370000  0.21750000  0.43040000  1.0 0.1291875498
H  H19  1  0.58360000  0.20240000  0.75740000  1.0 0.1291875498
H  H20  1  0.79760000  0.41640000  0.25740000  1.0 0.1291875498
H  H21  1  0.66920000  0.57720000  0.81400000  1.0 0.1200666154
H  H22  1  0.42280000  0.33080000  0.31400000  1.0 0.1200666154
H  H23  1  0.10810000  0.64730000  0.25220000  1.0 0.1200666154
H  H24  1  0.35270000  0.89190000  0.75220000  1.0 0.1200666154
H  H25  1  0.57760000  0.85860000  0.67690000  1.0 0.1291875498
H  H26  1  0.14140000  0.42240000  0.17690000  1.0 0.1291875498
H  H27  1  0.41320000  0.31640000  0.59840000  1.0 0.1291875498
H  H28  1  0.68360000  0.58680000  0.09840000  1.0 0.1291875498
H  H29  1  0.57170000  0.51190000  0.72970000  1.0 0.1094065845
H  H30  1  0.48810000  0.42830000  0.22970000  1.0 0.1094065845
H  H31  1  0.21150000  0.71430000  0.33110000  1.0 0.1200666154
H  H32  1  0.28570000  0.78850000  0.83110000  1.0 0.1200666154
H  H33  1  0.37170000  0.90130000  0.47340000  1.0 0.1291875498
H  H34  1  0.09870000  0.62830000  0.97340000  1.0 0.1291875498
H  H35  1  0.47410000  0.41310000  0.65580000  1.0 0.1200666154
H  H36  1  0.58690000  0.52590000  0.15580000  1.0 0.1200666154
H  H37  1  0.68400000  0.98460000  0.82640000  1.0 0.1291875498
H  H38  1  0.01540000  0.31600000  0.32640000  1.0 0.1291875498
H  H39  1  0.69190000  0.83210000  0.72380000  1.0 0.1291875498
H  H40  1  0.16790000  0.30810000  0.22380000  1.0 0.1291875498
H  H41  1  0.77140000  0.74840000  0.80860000  1.0 0.1094065845
H  H42  1  0.25160000  0.22860000  0.30860000  1.0 0.1094065845
H  H43  1  0.79050000  0.92410000  0.85640000  1.0 0.1291875498
H  H44  1  0.07590000  0.20950000  0.35640000  1.0 0.1291875498
H  H45  1  0.61750000  0.76790000  0.78540000  1.0 0.1291875498
H  H46  1  0.23210000  0.38250000  0.28540000  1.0 0.1291875498
H  H47  1  0.72650000  0.87350000  0.93360000  1.0 0.1291875498
H  H48  1  0.12650000  0.27350000  0.43360000  1.0 0.1291875498
H  H49  1  0.93680000  0.48960000  0.90430000  1.0 0.1200666154
H  H50  1  0.51040000  0.06320000  0.40430000  1.0 0.1200666154
H  H51  1  0.95240000  0.11080000  0.31870000  1.0 0.1200666154
H  H52  1  0.88920000  0.04760000  0.81870000  1.0 0.1200666154
H  H53  1  0.91500000  0.06720000  0.25120000  1.0 0.1361786514
H  H54  1  0.93280000  0.08500000  0.75120000  1.0 0.1361786514
H  H55  1  0.06090000  0.59490000  0.75840000  1.0 0.1200666154
H  H56  1  0.40510000  0.93910000  0.25840000  1.0 0.1200666154
H  H57  1  0.31350000  0.71650000  0.68090000  1.0 0.1361786514
H  H58  1  0.28350000  0.68650000  0.18090000  1.0 0.1361786514
H  H59  1  0.27400000  0.67640000  0.61010000  1.0 0.1361786514
H  H60  1  0.32360000  0.72600000  0.11010000  1.0 0.1361786514
H  H61  1  0.01740000  0.20080000  0.17950000  1.0 0.1291875498
H  H62  1  0.79920000  0.98260000  0.67950000  1.0 0.1291875498
H  H63  1  0.82130000  0.99750000  0.35920000  1.0 0.1291875498
H  H64  1  0.00250000  0.17870000  0.85920000  1.0 0.1291875498
H  H65  1  0.40630000  0.78250000  0.56960000  1.0 0.1291875498
H  H66  1  0.21750000  0.59370000  0.06960000  1.0 0.1291875498
H  H67  1  0.20240000  0.58360000  0.74260000  1.0 0.1291875498
H  H68  1  0.41640000  0.79760000  0.24260000  1.0 0.1291875498
H  H69  1  0.57720000  0.66920000  0.68600000  1.0 0.1200666154
H  H70  1  0.33080000  0.42280000  0.18600000  1.0 0.1200666154
H  H71  1  0.64730000  0.10810000  0.24780000  1.0 0.1200666154
H  H72  1  0.89190000  0.35270000  0.74780000  1.0 0.1200666154
H  H73  1  0.85860000  0.57760000  0.82310000  1.0 0.1291875498
H  H74  1  0.42240000  0.14140000  0.32310000  1.0 0.1291875498
H  H75  1  0.31640000  0.41320000  0.90160000  1.0 0.1291875498
H  H76  1  0.58680000  0.68360000  0.40160000  1.0 0.1291875498
H  H77  1  0.51190000  0.57170000  0.77030000  1.0 0.1094065845
H  H78  1  0.42830000  0.48810000  0.27030000  1.0 0.1094065845
H  H79  1  0.71430000  0.21150000  0.16890000  1.0 0.1200666154
H  H80  1  0.78850000  0.28570000  0.66890000  1.0 0.1200666154
H  H81  1  0.90130000  0.37170000  0.02660000  1.0 0.1291875498
H  H82  1  0.62830000  0.09870000  0.52660000  1.0 0.1291875498
H  H83  1  0.41310000  0.47410000  0.84420000  1.0 0.1200666154
H  H84  1  0.52590000  0.58690000  0.34420000  1.0 0.1200666154
H  H85  1  0.98460000  0.68400000  0.67360000  1.0 0.1291875498
H  H86  1  0.31600000  0.01540000  0.17360000  1.0 0.1291875498
H  H87  1  0.83210000  0.69190000  0.77620000  1.0 0.1291875498
H  H88  1  0.30810000  0.16790000  0.27620000  1.0 0.1291875498
H  H89  1  0.74840000  0.77140000  0.69140000  1.0 0.1094065845
H  H90  1  0.22860000  0.25160000  0.19140000  1.0 0.1094065845
H  H91  1  0.92410000  0.79050000  0.64360000  1.0 0.1291875498
H  H92  1  0.20950000  0.07590000  0.14360000  1.0 0.1291875498
H  H93  1  0.76790000  0.61750000  0.71460000  1.0 0.1291875498
H  H94  1  0.38250000  0.23210000  0.21460000  1.0 0.1291875498
H  H95  1  0.87350000  0.72650000  0.56640000  1.0 0.1291875498
H  H96  1  0.27350000  0.12650000  0.06640000  1.0 0.1291875498
C  C1  1  0.53010000  0.94710000  0.64290000  1.0 0.1094065845
C  C2  1  0.05290000  0.46990000  0.14290000  1.0 0.1094065845
C  C3  1  0.69410000  0.85990000  0.81470000  1.0 0.0492691262
C  C4  1  0.14010000  0.30590000  0.31470000  1.0 0.0492691262
C  C5  1  0.79320000  0.53840000  0.93700000  1.0 0.5728399446
C  C6  1  0.46160000  0.20680000  0.43700000  1.0 0.5728399446
C  C7  1  0.63980000  0.91240000  0.76110000  1.0 0.0970854666
C  C8  1  0.08760000  0.36020000  0.26110000  1.0 0.0970854666
C  C9  1  0.32950000  0.02270000  0.44910000  1.0 0.5778754642
C  C10  1  0.97730000  0.67050000  0.94910000  1.0 0.5778754642
C  C11  1  0.10860000  0.91220000  0.23560000  1.0 -0.2808314333
C  C12  1  0.08780000  0.89140000  0.73560000  1.0 -0.2808314333
C  C13  1  0.98280000  0.68680000  0.13380000  1.0 0.5880173137
C  C14  1  0.31320000  0.01720000  0.63380000  1.0 0.5880173137
C  C15  1  0.59130000  0.01930000  0.72790000  1.0 0.0970854666
C  C16  1  0.98070000  0.40870000  0.22790000  1.0 0.0970854666
C  C17  1  0.67570000  0.31410000  0.83470000  1.0 -0.2808314333
C  C18  1  0.68590000  0.32430000  0.33470000  1.0 -0.2855840037
C  C19  1  0.45530000  0.19350000  0.62940000  1.0 0.5880173137
C  C20  1  0.80650000  0.54470000  0.12940000  1.0 0.5880173137
C  C21  1  0.18220000  0.91740000  0.30680000  1.0 0.0788458409
C  C22  1  0.08260000  0.81780000  0.80680000  1.0 0.0788458409
C  C23  1  0.49410000  0.25170000  0.67100000  1.0 -0.0299870468
C  C24  1  0.74830000  0.50590000  0.17100000  1.0 -0.0299870468
C  C25  1  0.22100000  0.97360000  0.34120000  1.0 -0.1914850669
C  C26  1  0.02640000  0.77900000  0.84120000  1.0 -0.1914850669
C  C27  1  0.04000000  0.79900000  0.18060000  1.0 -0.1671438538
C  C28  1  0.20100000  0.96000000  0.68060000  1.0 -0.1671438538
C  C29  1  0.73320000  0.49660000  0.88130000  1.0 -0.0249379212
C  C30  1  0.50340000  0.26680000  0.38130000  1.0 -0.0249379212
C  C31  1  0.73950000  0.42750000  0.88970000  1.0 -0.1671438538
C  C32  1  0.57250000  0.26050000  0.38970000  1.0 -0.1671438538
C  C33  1  0.60100000  0.30520000  0.76680000  1.0 0.0727061023
C  C34  1  0.69480000  0.39900000  0.26680000  1.0 0.0727061023
C  C35  1  0.04390000  0.72810000  0.18860000  1.0 -0.0299870468
C  C36  1  0.27190000  0.95610000  0.68860000  1.0 -0.0299870468
C  C37  1  0.28970000  0.96570000  0.40640000  1.0 -0.0110836509
C  C38  1  0.03430000  0.71030000  0.90640000  1.0 -0.0110836509
C  C39  1  0.56260000  0.24600000  0.73500000  1.0 -0.1671438538
C  C40  1  0.75400000  0.43740000  0.23500000  1.0 -0.1671438538
C  C41  1  0.21400000  0.85340000  0.33550000  1.0 0.0055180215
C  C42  1  0.14660000  0.78600000  0.83550000  1.0 0.0055180215
C  C43  1  0.56810000  0.36750000  0.73620000  1.0 0.0183780441
C  C44  1  0.63250000  0.43190000  0.23620000  1.0 0.0183780441
C  C45  1  0.67190000  0.52850000  0.82080000  1.0 -0.1398483312
C  C46  1  0.47150000  0.32810000  0.32080000  1.0 -0.1398483312
C  C47  1  0.10650000  0.69610000  0.24620000  1.0 -0.1181013427
C  C48  1  0.30390000  0.89350000  0.74620000  1.0 -0.1181013427
C  C49  1  0.68240000  0.38880000  0.83810000  1.0 0.0727061023
C  C50  1  0.61120000  0.31760000  0.33810000  1.0 0.0727061023
C  C51  1  0.58210000  0.89990000  0.69180000  1.0 -0.1914850669
C  C52  1  0.10010000  0.41790000  0.19180000  1.0 -0.1914850669
C  C53  1  0.62000000  0.42000000  0.77930000  1.0 0.0183780441
C  C54  1  0.58000000  0.38000000  0.27930000  1.0 0.0183780441
C  C55  1  0.09920000  0.83660000  0.23170000  1.0 0.0621318584
C  C56  1  0.16340000  0.90080000  0.73170000  1.0 0.0621318584
C  C57  1  0.46110000  0.31370000  0.64160000  1.0 -0.109744546
C  C58  1  0.68630000  0.53890000  0.14160000  1.0 -0.109744546
C  C59  1  0.16180000  0.80260000  0.29040000  1.0 0.0298219616
C  C60  1  0.19740000  0.83820000  0.79040000  1.0 0.0298219616
C  C61  1  0.61450000  0.49030000  0.77020000  1.0 -0.151967473
C  C62  1  0.50970000  0.38550000  0.27020000  1.0 -0.151967473
C  C63  1  0.16710000  0.73470000  0.29510000  1.0 -0.151967473
C  C64  1  0.26530000  0.83290000  0.79510000  1.0 -0.151967473
C  C65  1  0.32280000  0.90420000  0.43250000  1.0 -0.151967473
C  C66  1  0.09580000  0.67720000  0.93250000  1.0 -0.151967473
C  C67  1  0.49720000  0.37160000  0.67480000  1.0 -0.151967473
C  C68  1  0.62840000  0.50280000  0.17480000  1.0 -0.151967473
C  C69  1  0.78890000  0.80630000  0.94340000  1.0 0.0298219616
C  C70  1  0.19370000  0.21110000  0.44340000  1.0 0.0298219616
C  C71  1  0.64430000  0.97370000  0.77900000  1.0 -0.1914850669
C  C72  1  0.02630000  0.35570000  0.27900000  1.0 -0.1914850669
C  C73  1  0.28400000  0.84740000  0.39820000  1.0 -0.109744546
C  C74  1  0.15260000  0.71600000  0.89820000  1.0 -0.109744546
C  C75  1  0.71230000  0.82310000  0.78330000  1.0 -0.0788683491
C  C76  1  0.17690000  0.28770000  0.28330000  1.0 -0.0788683491
C  C77  1  0.75950000  0.77270000  0.83430000  1.0 0.0183780441
C  C78  1  0.22730000  0.24050000  0.33430000  1.0 0.0183780441
C  C79  1  0.76120000  0.87520000  0.86580000  1.0 -0.0727884518
C  C80  1  0.12480000  0.23880000  0.36580000  1.0 -0.0727884518
C  C81  1  0.66760000  0.78440000  0.81700000  1.0 -0.0974767814
C  C82  1  0.21560000  0.33240000  0.31700000  1.0 -0.0974767814
C  C83  1  0.71730000  0.73750000  0.86500000  1.0 0.0492691262
C  C84  1  0.26250000  0.28270000  0.36500000  1.0 0.0492691262
C  C85  1  0.73570000  0.85050000  0.90450000  1.0 -0.0901936302
C  C86  1  0.14950000  0.26430000  0.40450000  1.0 -0.0901936302
C  C87  1  0.94710000  0.53010000  0.85710000  1.0 0.1094065845
C  C88  1  0.46990000  0.05290000  0.35710000  1.0 0.1094065845
C  C89  1  0.85990000  0.69410000  0.68530000  1.0 0.0492691262
C  C90  1  0.30590000  0.14010000  0.18530000  1.0 0.0492691262
C  C91  1  0.53840000  0.79320000  0.56300000  1.0 0.5728399446
C  C92  1  0.20680000  0.46160000  0.06300000  1.0 0.5728399446
C  C93  1  0.91240000  0.63980000  0.73890000  1.0 0.0970854666
C  C94  1  0.36020000  0.08760000  0.23890000  1.0 0.0970854666
C  C95  1  0.02270000  0.32950000  0.05090000  1.0 0.5778754642
C  C96  1  0.67050000  0.97730000  0.55090000  1.0 0.5778754642
C  C97  1  0.91220000  0.10860000  0.26440000  1.0 -0.2808314333
C  C98  1  0.89140000  0.08780000  0.76440000  1.0 -0.2808314333
C  C99  1  0.68680000  0.98280000  0.36620000  1.0 0.5880173137
C  C100  1  0.01720000  0.31320000  0.86620000  1.0 0.5880173137
C  C101  1  0.01930000  0.59130000  0.77210000  1.0 0.0970854666
C  C102  1  0.40870000  0.98070000  0.27210000  1.0 0.0970854666
C  C103  1  0.31410000  0.67570000  0.66530000  1.0 -0.2855840037
C  C104  1  0.32430000  0.68590000  0.16530000  1.0 -0.2855840037
C  C105  1  0.19350000  0.45530000  0.87060000  1.0 0.5880173137
C  C106  1  0.54470000  0.80650000  0.37060000  1.0 0.5880173137
C  C107  1  0.91740000  0.18220000  0.19320000  1.0 0.0788458409
C  C108  1  0.81780000  0.08260000  0.69320000  1.0 0.0788458409
C  C109  1  0.25170000  0.49410000  0.82900000  1.0 -0.0299870468
C  C110  1  0.50590000  0.74830000  0.32900000  1.0 -0.0299870468
C  C111  1  0.97360000  0.22100000  0.15880000  1.0 -0.1914850669
C  C112  1  0.77900000  0.02640000  0.65880000  1.0 -0.1914850669
C  C113  1  0.79900000  0.04000000  0.31940000  1.0 -0.1671438538
C  C114  1  0.96000000  0.20100000  0.81940000  1.0 -0.1671438538
C  C115  1  0.49660000  0.73320000  0.61870000  1.0 -0.0249379212
C  C116  1  0.26680000  0.50340000  0.11870000  1.0 -0.0249379212
C  C117  1  0.42750000  0.73950000  0.61030000  1.0 -0.1671438538
C  C118  1  0.26050000  0.57250000  0.11030000  1.0 -0.1671438538
C  C119  1  0.30520000  0.60100000  0.73320000  1.0 0.0727061023
C  C120  1  0.39900000  0.69480000  0.23320000  1.0 0.0727061023
C  C121  1  0.72810000  0.04390000  0.31140000  1.0 -0.0299870468
C  C122  1  0.95610000  0.27190000  0.81140000  1.0 -0.0299870468
C  C123  1  0.96570000  0.28970000  0.09360000  1.0 -0.0110836509
C  C124  1  0.71030000  0.03430000  0.59360000  1.0 -0.0110836509
C  C125  1  0.24600000  0.56260000  0.76500000  1.0 -0.1671438538
C  C126  1  0.43740000  0.75400000  0.26500000  1.0 -0.1671438538
C  C127  1  0.85340000  0.21400000  0.16450000  1.0 0.0055180215
C  C128  1  0.78600000  0.14660000  0.66450000  1.0 0.0048634856
C  C129  1  0.36750000  0.56810000  0.76380000  1.0 0.0183780441
C  C130  1  0.43190000  0.63250000  0.26380000  1.0 0.0183780441
C  C131  1  0.52850000  0.67190000  0.67920000  1.0 -0.1398483312
C  C132  1  0.32810000  0.47150000  0.17920000  1.0 -0.1398483312
C  C133  1  0.69610000  0.10650000  0.25380000  1.0 -0.1181013427
C  C134  1  0.89350000  0.30390000  0.75380000  1.0 -0.1181013427
C  C135  1  0.38880000  0.68240000  0.66190000  1.0 0.0727061023
C  C136  1  0.31760000  0.61120000  0.16190000  1.0 0.0727061023
C  C137  1  0.89990000  0.58210000  0.80820000  1.0 -0.1914850669
C  C138  1  0.41790000  0.10010000  0.30820000  1.0 -0.1914850669
C  C139  1  0.42000000  0.62000000  0.72070000  1.0 0.0183780441
C  C140  1  0.38000000  0.58000000  0.22070000  1.0 0.0183780441
C  C141  1  0.83660000  0.09920000  0.26830000  1.0 0.0621318584
C  C142  1  0.90080000  0.16340000  0.76830000  1.0 0.0621318584
C  C143  1  0.31370000  0.46110000  0.85840000  1.0 -0.109744546
C  C144  1  0.53890000  0.68630000  0.35840000  1.0 -0.109744546
C  C145  1  0.80260000  0.16180000  0.20960000  1.0 0.0298219616
C  C146  1  0.83820000  0.19740000  0.70960000  1.0 0.0298219616
C  C147  1  0.49030000  0.61450000  0.72980000  1.0 -0.151967473
C  C148  1  0.38550000  0.50970000  0.22980000  1.0 -0.151967473
C  C149  1  0.73470000  0.16710000  0.20490000  1.0 -0.151967473
C  C150  1  0.83290000  0.26530000  0.70490000  1.0 -0.151967473
C  C151  1  0.90420000  0.32280000  0.06750000  1.0 -0.151967473
C  C152  1  0.67720000  0.09580000  0.56750000  1.0 -0.151967473
C  C153  1  0.37160000  0.49720000  0.82520000  1.0 -0.151967473
C  C154  1  0.50280000  0.62840000  0.32520000  1.0 -0.151967473
C  C155  1  0.80630000  0.78890000  0.55660000  1.0 0.0298219616
C  C156  1  0.21110000  0.19370000  0.05660000  1.0 0.0298219616
C  C157  1  0.97370000  0.64430000  0.72100000  1.0 -0.1914850669
C  C158  1  0.35570000  0.02630000  0.22100000  1.0 -0.1914850669
C  C159  1  0.84740000  0.28400000  0.10180000  1.0 -0.109744546
C  C160  1  0.71600000  0.15260000  0.60180000  1.0 -0.109744546
C  C161  1  0.82310000  0.71230000  0.71670000  1.0 -0.0788683491
C  C162  1  0.28770000  0.17690000  0.21670000  1.0 -0.0788683491
C  C163  1  0.77270000  0.75950000  0.66570000  1.0 0.0183780441
C  C164  1  0.24050000  0.22730000  0.16570000  1.0 0.0183780441
C  C165  1  0.87520000  0.76120000  0.63420000  1.0 -0.0727884518
C  C166  1  0.23880000  0.12480000  0.13420000  1.0 -0.0727884518
C  C167  1  0.78440000  0.66760000  0.68300000  1.0 -0.0974767814
C  C168  1  0.33240000  0.21560000  0.18300000  1.0 -0.0974767814
C  C169  1  0.73750000  0.71730000  0.63500000  1.0 0.0492691262
C  C170  1  0.28270000  0.26250000  0.13500000  1.0 0.0492691262
C  C171  1  0.85050000  0.73570000  0.59550000  1.0 -0.0901936302
C  C172  1  0.26430000  0.14950000  0.09550000  1.0 -0.0901936302
N  N1  1  0.53520000  0.00680000  0.66000000  1.0 -0.2092621932
N  N2  1  0.99320000  0.46480000  0.16000000  1.0 -0.2092621932
N  N3  1  0.78890000  0.75630000  0.91580000  1.0 -0.1398483312
N  N4  1  0.24370000  0.21110000  0.41580000  1.0 -0.1398483312
N  N5  1  0.00680000  0.53520000  0.84000000  1.0 -0.2092621932
N  N6  1  0.46480000  0.99320000  0.34000000  1.0 -0.2092621932
N  N7  1  0.75630000  0.78890000  0.58420000  1.0 -0.1398483312
N  N8  1  0.21110000  0.24370000  0.08420000  1.0 -0.151967473
O  O1  1  0.78790000  0.60370000  0.92210000  1.0 -0.5526188324
O  O2  1  0.39630000  0.21210000  0.42210000  1.0 -0.5526188324
O  O3  1  0.98550000  0.62230000  0.14740000  1.0 -0.5313555608
O  O4  1  0.37770000  0.01450000  0.64740000  1.0 -0.5313555608
O  O5  1  0.49210000  0.14410000  0.65030000  1.0 -0.5417444269
O  O6  1  0.85590000  0.50790000  0.15030000  1.0 -0.5417444269
O  O7  1  0.29650000  0.07450000  0.42750000  1.0 -0.5313555608
O  O8  1  0.92550000  0.70350000  0.92750000  1.0 -0.5313555608
O  O9  1  0.84540000  0.50560000  0.99520000  1.0 -0.5313555608
O  O10  1  0.49440000  0.15460000  0.49520000  1.0 -0.5313555608
O  O11  1  0.39320000  0.01460000  0.50510000  1.0 -0.5417444269
O  O12  1  0.98540000  0.60680000  0.00510000  1.0 -0.5417444269
O  O13  1  0.39180000  0.19860000  0.57640000  1.0 -0.5190083245
O  O14  1  0.80140000  0.60820000  0.07640000  1.0 -0.5190083245
O  O15  1  0.93120000  0.72320000  0.07320000  1.0 -0.5313555608
O  O16  1  0.27680000  0.06880000  0.57320000  1.0 -0.5313555608
O  O17  1  0.60370000  0.78790000  0.57790000  1.0 -0.5526188324
O  O18  1  0.21210000  0.39630000  0.07790000  1.0 -0.5526188324
O  O19  1  0.62230000  0.98550000  0.35260000  1.0 -0.5313555608
O  O20  1  0.01450000  0.37770000  0.85260000  1.0 -0.5313555608
O  O21  1  0.14410000  0.49210000  0.84970000  1.0 -0.5417444269
O  O22  1  0.50790000  0.85590000  0.34970000  1.0 -0.5417444269
O  O23  1  0.07450000  0.29650000  0.07250000  1.0 -0.5313555608
O  O24  1  0.70350000  0.92550000  0.57250000  1.0 -0.5313555608
O  O25  1  0.50560000  0.84540000  0.50480000  1.0 -0.5313555608
O  O26  1  0.15460000  0.49440000  0.00480000  1.0 -0.5313555608
O  O27  1  0.01460000  0.39320000  0.99490000  1.0 -0.5417444269
O  O28  1  0.60680000  0.98540000  0.49490000  1.0 -0.5417444269
O  O29  1  0.19860000  0.39180000  0.92360000  1.0 -0.5190083245
O  O30  1  0.60820000  0.80140000  0.42360000  1.0 -0.5190083245
O  O31  1  0.72320000  0.93120000  0.42680000  1.0 -0.5313555608
O  O32  1  0.06880000  0.27680000  0.92680000  1.0 -0.5313555608
