# DDEC6 charges by PACMAN v1.1 (https://github.com/mtap-research/PACMAN-charge/)
data_COKPEZ_ASR_pacman
_symmetry_space_group_name_H-M   'P 1'
_cell_length_a   15.11220000
_cell_length_b   15.11220000
_cell_length_c   15.11220000
_cell_angle_alpha   117.74600000
_cell_angle_beta   117.74600000
_cell_angle_gamma   117.74600000
_symmetry_Int_Tables_number   1
_chemical_formula_structural   MgHC4O3
_chemical_formula_sum   'Mg6 H6 C24 O18'
_cell_volume   1327.62950768
_cell_formula_units_Z   6
loop_
 _symmetry_equiv_pos_site_id
 _symmetry_equiv_pos_as_xyz
  1  'x, y, z'
loop_
 _atom_site_type_symbol
 _atom_site_label
 _atom_site_symmetry_multiplicity
 _atom_site_fract_x
 _atom_site_fract_y
 _atom_site_fract_z
 _atom_site_occupancy
 _atom_site_charge
Mg  Mg1  1  0.10930000  0.51860000  0.78670000  1.0 1.3680631742
Mg  Mg2  1  0.51860000  0.78670000  0.10930000  1.0 1.3680631742
Mg  Mg3  1  0.78670000  0.10930000  0.51860000  1.0 1.3680631742
Mg  Mg4  1  0.89070000  0.48140000  0.21330000  1.0 1.3680631742
Mg  Mg5  1  0.48140000  0.21330000  0.89070000  1.0 1.3680631742
Mg  Mg6  1  0.21330000  0.89070000  0.48140000  1.0 1.3680631742
H  H1  1  0.65610000  0.18690000  0.63590000  1.0 0.1362486308
H  H2  1  0.18690000  0.63590000  0.65610000  1.0 0.1362486308
H  H3  1  0.63590000  0.65610000  0.18690000  1.0 0.1362486308
H  H4  1  0.34390000  0.81310000  0.36410000  1.0 0.1362486308
H  H5  1  0.81310000  0.36410000  0.34390000  1.0 0.1362486308
H  H6  1  0.36410000  0.34390000  0.81310000  1.0 0.1362486308
C  C1  1  0.35467000  0.73972000  0.17731000  1.0 0.6588160122
C  C2  1  0.73972000  0.17731000  0.35467000  1.0 0.6588160122
C  C3  1  0.17731000  0.35467000  0.73972000  1.0 0.6588160122
C  C4  1  0.64533000  0.26028000  0.82269000  1.0 0.6588160122
C  C5  1  0.26028000  0.82269000  0.64533000  1.0 0.6588160122
C  C6  1  0.82269000  0.64533000  0.26028000  1.0 0.6588160122
C  C7  1  0.16554000  0.61474000  0.07712000  1.0 -0.1655671621
C  C8  1  0.61474000  0.07712000  0.16554000  1.0 -0.1644202048
C  C9  1  0.07712000  0.16554000  0.61474000  1.0 -0.1655671621
C  C10  1  0.83446000  0.38526000  0.92288000  1.0 -0.1644202048
C  C11  1  0.38526000  0.92288000  0.83446000  1.0 -0.1644202048
C  C12  1  0.92288000  0.83446000  0.38526000  1.0 -0.1644202048
C  C13  1  0.96986000  0.43783000  0.86801000  1.0 0.3430424953
C  C14  1  0.43783000  0.86801000  0.96986000  1.0 0.3430424953
C  C15  1  0.86801000  0.96986000  0.43783000  1.0 0.3430424953
C  C16  1  0.03014000  0.56217000  0.13199000  1.0 0.3430424953
C  C17  1  0.56217000  0.13199000  0.03014000  1.0 0.3430424953
C  C18  1  0.13199000  0.03014000  0.56217000  1.0 0.3430424953
C  C19  1  0.80266000  0.32545000  0.79029000  1.0 -0.224218145
C  C20  1  0.32545000  0.79029000  0.80266000  1.0 -0.224218145
C  C21  1  0.79029000  0.80266000  0.32545000  1.0 -0.224218145
C  C22  1  0.19734000  0.67455000  0.20971000  1.0 -0.224218145
C  C23  1  0.67455000  0.20971000  0.19734000  1.0 -0.224218145
C  C24  1  0.20971000  0.19734000  0.67455000  1.0 -0.224218145
O  O1  1  0.33234000  0.68722000  0.06644000  1.0 -0.6837358748
O  O2  1  0.68722000  0.06644000  0.33234000  1.0 -0.6837358748
O  O3  1  0.06644000  0.33234000  0.68722000  1.0 -0.6837358748
O  O4  1  0.66766000  0.31278000  0.93356000  1.0 -0.6837358748
O  O5  1  0.31278000  0.93356000  0.66766000  1.0 -0.6837358748
O  O6  1  0.93356000  0.66766000  0.31278000  1.0 -0.6837358748
O  O7  1  0.52356000  0.90044000  0.36880000  1.0 -0.6047435577
O  O8  1  0.90044000  0.36880000  0.52356000  1.0 -0.6047435577
O  O9  1  0.36880000  0.52356000  0.90044000  1.0 -0.6047435577
O  O10  1  0.47644000  0.09956000  0.63120000  1.0 -0.6047435577
O  O11  1  0.09956000  0.63120000  0.47644000  1.0 -0.6055417831
O  O12  1  0.63120000  0.47644000  0.09956000  1.0 -0.6055417831
O  O13  1  0.92280000  0.35620000  0.72790000  1.0 -0.828404136
O  O14  1  0.35620000  0.72790000  0.92280000  1.0 -0.828404136
O  O15  1  0.72790000  0.92280000  0.35620000  1.0 -0.828404136
O  O16  1  0.07720000  0.64380000  0.27210000  1.0 -0.828404136
O  O17  1  0.64380000  0.27210000  0.07720000  1.0 -0.828404136
O  O18  1  0.27210000  0.07720000  0.64380000  1.0 -0.828404136
