# DDEC6 charges by PACMAN v1.1 (https://github.com/mtap-research/PACMAN-charge/)
data_COLZAG_ASR_pacman
_symmetry_space_group_name_H-M   'P 1'
_cell_length_a   16.62220000
_cell_length_b   16.62220000
_cell_length_c   18.95700000
_cell_angle_alpha   67.73040000
_cell_angle_beta   112.27000000
_cell_angle_gamma   130.46200000
_symmetry_Int_Tables_number   1
_chemical_formula_structural   Zn2H15C28N4O9
_chemical_formula_sum   'Zn8 H60 C112 N16 O36'
_cell_volume   3621.40666217
_cell_formula_units_Z   4
loop_
 _symmetry_equiv_pos_site_id
 _symmetry_equiv_pos_as_xyz
  1  'x, y, z'
loop_
 _atom_site_type_symbol
 _atom_site_label
 _atom_site_symmetry_multiplicity
 _atom_site_fract_x
 _atom_site_fract_y
 _atom_site_fract_z
 _atom_site_occupancy
 _atom_site_charge
Zn  Zn1  1  0.41857000  0.88885000  0.10180000  1.0 0.8722861883
Zn  Zn2  1  0.88885000  0.41857000  0.39820000  1.0 0.8722861883
Zn  Zn3  1  0.58143000  0.11115000  0.89820000  1.0 0.8722861883
Zn  Zn4  1  0.11115000  0.58143000  0.60180000  1.0 0.8722861883
Zn  Zn5  1  0.37583000  0.93703000  0.66576000  1.0 0.8559247878
Zn  Zn6  1  0.93703000  0.37583000  0.83424000  1.0 0.8559247878
Zn  Zn7  1  0.62417000  0.06297000  0.33424000  1.0 0.8559247878
Zn  Zn8  1  0.06297000  0.62417000  0.16576000  1.0 0.8559247878
H  H1  1  0.45740000  0.71560000  0.01000000  1.0 0.120352806
H  H2  1  0.71560000  0.45740000  0.49000000  1.0 0.120352806
H  H3  1  0.54260000  0.28440000  0.99000000  1.0 0.120352806
H  H4  1  0.28440000  0.54260000  0.51000000  1.0 0.120352806
H  H5  1  0.48190000  0.65850000  0.92960000  1.0 0.1007563663
H  H6  1  0.65850000  0.48190000  0.57040000  1.0 0.1007563663
H  H7  1  0.51810000  0.34150000  0.07040000  1.0 0.1007563663
H  H8  1  0.34150000  0.51810000  0.42960000  1.0 0.1007563663
H  H9  1  0.38860000  0.65300000  0.80030000  1.0 0.120352806
H  H10  1  0.65300000  0.38860000  0.69970000  1.0 0.120352806
H  H11  1  0.61140000  0.34700000  0.19970000  1.0 0.120352806
H  H12  1  0.34700000  0.61140000  0.30030000  1.0 0.120352806
H  H13  1  0.96100000  0.67980000  0.78690000  1.0 0.120352806
H  H14  1  0.67980000  0.96100000  0.71310000  1.0 0.120352806
H  H15  1  0.03900000  0.32020000  0.21310000  1.0 0.120352806
H  H16  1  0.32020000  0.03900000  0.28690000  1.0 0.120352806
H  H17  1  0.04240000  0.86240000  0.77120000  1.0 0.1007563663
H  H18  1  0.86240000  0.04240000  0.72880000  1.0 0.1007563663
H  H19  1  0.95760000  0.13760000  0.22880000  1.0 0.1007563663
H  H20  1  0.13760000  0.95760000  0.27120000  1.0 0.1007563663
H  H21  1  0.23130000  0.98490000  0.78900000  1.0 0.1087840866
H  H22  1  0.98490000  0.23130000  0.71100000  1.0 0.1087840866
H  H23  1  0.76870000  0.01510000  0.21100000  1.0 0.1087840866
H  H24  1  0.01510000  0.76870000  0.28900000  1.0 0.1087840866
H  H25  1  0.26390000  0.90390000  0.96370000  1.0 0.120352806
H  H26  1  0.90390000  0.26390000  0.53630000  1.0 0.120352806
H  H27  1  0.73610000  0.09610000  0.03630000  1.0 0.120352806
H  H28  1  0.09610000  0.73610000  0.46370000  1.0 0.120352806
H  H29  1  0.17140000  0.97980000  0.91560000  1.0 0.1286373724
H  H30  1  0.97980000  0.17140000  0.58440000  1.0 0.1286373724
H  H31  1  0.82860000  0.02020000  0.08440000  1.0 0.1286373724
H  H32  1  0.02020000  0.82860000  0.41560000  1.0 0.1286373724
H  H33  1  0.32940000  0.12160000  0.10320000  1.0 0.1286373724
H  H34  1  0.12160000  0.32940000  0.39680000  1.0 0.1286373724
H  H35  1  0.67060000  0.87840000  0.89680000  1.0 0.1286373724
H  H36  1  0.87840000  0.67060000  0.60320000  1.0 0.1286373724
H  H37  1  0.41140000  0.03460000  0.14980000  1.0 0.1286373724
H  H38  1  0.03460000  0.41140000  0.35020000  1.0 0.1286373724
H  H39  1  0.58860000  0.96540000  0.85020000  1.0 0.1286373724
H  H40  1  0.96540000  0.58860000  0.64980000  1.0 0.1286373724
H  H41  1  0.15590000  0.44390000  0.84280000  1.0 0.1286373724
H  H42  1  0.44390000  0.15590000  0.65720000  1.0 0.1286373724
H  H43  1  0.84410000  0.55610000  0.15720000  1.0 0.1286373724
H  H44  1  0.55610000  0.84410000  0.34280000  1.0 0.1286373724
H  H45  1  0.25840000  0.37860000  0.89430000  1.0 0.140638518
H  H46  1  0.37860000  0.25840000  0.60570000  1.0 0.140638518
H  H47  1  0.74160000  0.62140000  0.10570000  1.0 0.140638518
H  H48  1  0.62140000  0.74160000  0.39430000  1.0 0.140638518
H  H49  1  0.98980000  0.08160000  0.94080000  1.0 0.1007563663
H  H50  1  0.08160000  0.98980000  0.55920000  1.0 0.1007563663
H  H51  1  0.01020000  0.91840000  0.05920000  1.0 0.1007563663
H  H52  1  0.91840000  0.01020000  0.44080000  1.0 0.1007563663
H  H53  1  0.89320000  0.15520000  0.88880000  1.0 0.1007563663
H  H54  1  0.15520000  0.89320000  0.61120000  1.0 0.1007563663
H  H55  1  0.10680000  0.84480000  0.11120000  1.0 0.1007563663
H  H56  1  0.84480000  0.10680000  0.38880000  1.0 0.1007563663
H  H57  1  0.10900000  0.06300000  0.92800000  1.0 0.2101991501
H  H58  1  0.06300000  0.10900000  0.57200000  1.0 0.2101991501
H  H59  1  0.89100000  0.93700000  0.07200000  1.0 0.2101991501
H  H60  1  0.93700000  0.89100000  0.42800000  1.0 0.2101991501
C  C1  1  0.32738000  0.76222000  0.98990000  1.0 0.5610244226
C  C2  1  0.76222000  0.32738000  0.51010000  1.0 0.5610244226
C  C3  1  0.67262000  0.23778000  0.01010000  1.0 0.5610244226
C  C4  1  0.23778000  0.67262000  0.48990000  1.0 0.5610244226
C  C5  1  0.34306000  0.73274000  0.93270000  1.0 -0.0506663011
C  C6  1  0.73274000  0.34306000  0.56730000  1.0 -0.0506663011
C  C7  1  0.65694000  0.26726000  0.06730000  1.0 -0.0506663011
C  C8  1  0.26726000  0.65694000  0.43270000  1.0 -0.0506663011
C  C9  1  0.41722000  0.70958000  0.95850000  1.0 -0.1021999789
C  C10  1  0.70958000  0.41722000  0.54150000  1.0 -0.1021999789
C  C11  1  0.58278000  0.29042000  0.04150000  1.0 -0.1021999789
C  C12  1  0.29042000  0.58278000  0.45850000  1.0 -0.1021999789
C  C13  1  0.43360000  0.67780000  0.91060000  1.0 -0.1021999789
C  C14  1  0.67780000  0.43360000  0.58940000  1.0 -0.1021999789
C  C15  1  0.56640000  0.32220000  0.08940000  1.0 -0.1021999789
C  C16  1  0.32220000  0.56640000  0.41060000  1.0 -0.1021999789
C  C17  1  0.37810000  0.67450000  0.83390000  1.0 -0.1021999789
C  C18  1  0.67450000  0.37810000  0.66610000  1.0 -0.1021999789
C  C19  1  0.62190000  0.32550000  0.16610000  1.0 -0.1021999789
C  C20  1  0.32550000  0.62190000  0.33390000  1.0 -0.1021999789
C  C21  1  0.30759000  0.70261000  0.80660000  1.0 -0.0624667081
C  C22  1  0.70261000  0.30759000  0.69340000  1.0 -0.0624667081
C  C23  1  0.69241000  0.29739000  0.19340000  1.0 -0.0624667081
C  C24  1  0.29739000  0.69241000  0.30660000  1.0 -0.0624667081
C  C25  1  0.28638000  0.73002000  0.85550000  1.0 0.0457960487
C  C26  1  0.73002000  0.28638000  0.64450000  1.0 0.0457960487
C  C27  1  0.71362000  0.26998000  0.14450000  1.0 0.0457960487
C  C28  1  0.26998000  0.71362000  0.35550000  1.0 0.0457960487
C  C29  1  0.25361000  0.70059000  0.72300000  1.0 0.6004339334
C  C30  1  0.70059000  0.25361000  0.77700000  1.0 0.6004339334
C  C31  1  0.74639000  0.29941000  0.27700000  1.0 0.6004339334
C  C32  1  0.29941000  0.74639000  0.22300000  1.0 0.6004339334
C  C33  1  0.21134000  0.76286000  0.82680000  1.0 0.0457960487
C  C34  1  0.76286000  0.21134000  0.67320000  1.0 0.0457960487
C  C35  1  0.78866000  0.23714000  0.17320000  1.0 0.0457960487
C  C36  1  0.23714000  0.78866000  0.32680000  1.0 0.0457960487
C  C37  1  0.09908000  0.69052000  0.81710000  1.0 -0.0506663011
C  C38  1  0.69052000  0.09908000  0.68290000  1.0 -0.0506663011
C  C39  1  0.90092000  0.30948000  0.18290000  1.0 -0.0506663011
C  C40  1  0.30948000  0.90092000  0.31710000  1.0 -0.0506663011
C  C41  1  0.03723000  0.72917000  0.79510000  1.0 -0.0940030842
C  C42  1  0.72917000  0.03723000  0.70490000  1.0 -0.0940030842
C  C43  1  0.96277000  0.27083000  0.20490000  1.0 -0.0940030842
C  C44  1  0.27083000  0.96277000  0.29510000  1.0 -0.0940030842
C  C45  1  0.08522000  0.83758000  0.78500000  1.0 -0.1145691323
C  C46  1  0.83758000  0.08522000  0.71500000  1.0 -0.1145691323
C  C47  1  0.91478000  0.16242000  0.21500000  1.0 -0.1145691323
C  C48  1  0.16242000  0.91478000  0.28500000  1.0 -0.1145691323
C  C49  1  0.19726000  0.91014000  0.79540000  1.0 -0.1207166734
C  C50  1  0.91014000  0.19726000  0.70460000  1.0 -0.1207166734
C  C51  1  0.80274000  0.08986000  0.20460000  1.0 -0.1207166734
C  C52  1  0.08986000  0.80274000  0.29540000  1.0 -0.1207166734
C  C53  1  0.25892000  0.87308000  0.81490000  1.0 -0.075928108
C  C54  1  0.87308000  0.25892000  0.68510000  1.0 -0.075928108
C  C55  1  0.74108000  0.12692000  0.18510000  1.0 -0.075928108
C  C56  1  0.12692000  0.74108000  0.31490000  1.0 -0.075928108
C  C57  1  0.37966000  0.95370000  0.82390000  1.0 0.5732284662
C  C58  1  0.95370000  0.37966000  0.67610000  1.0 0.5732284662
C  C59  1  0.62034000  0.04630000  0.17610000  1.0 0.5732284662
C  C60  1  0.04630000  0.62034000  0.32390000  1.0 0.5732284662
C  C61  1  0.04037000  0.57143000  0.83040000  1.0 0.5610244226
C  C62  1  0.57143000  0.04037000  0.66960000  1.0 0.5610244226
C  C63  1  0.95963000  0.42857000  0.16960000  1.0 0.5610244226
C  C64  1  0.42857000  0.95963000  0.33040000  1.0 0.5610244226
C  C65  1  0.27644000  0.94796000  0.99260000  1.0 0.1087840866
C  C66  1  0.94796000  0.27644000  0.50740000  1.0 0.1087840866
C  C67  1  0.72356000  0.05204000  0.00740000  1.0 0.1087840866
C  C68  1  0.05204000  0.72356000  0.49260000  1.0 0.1087840866
C  C69  1  0.22200000  0.99380000  0.96310000  1.0 -0.2221215527
C  C70  1  0.99380000  0.22200000  0.53690000  1.0 -0.2221215527
C  C71  1  0.77800000  0.00620000  0.03690000  1.0 -0.2221215527
C  C72  1  0.00620000  0.77800000  0.46310000  1.0 -0.2221215527
C  C73  1  0.24231000  0.06009000  0.00350000  1.0 0.1509048053
C  C74  1  0.06009000  0.24231000  0.49650000  1.0 0.1509048053
C  C75  1  0.75769000  0.93991000  0.99650000  1.0 0.1509048053
C  C76  1  0.93991000  0.75769000  0.50350000  1.0 0.1509048053
C  C77  1  0.31431000  0.07629000  0.07400000  1.0 -0.2138208869
C  C78  1  0.07629000  0.31431000  0.42600000  1.0 -0.2138208869
C  C79  1  0.68569000  0.92371000  0.92600000  1.0 -0.2138208869
C  C80  1  0.92371000  0.68569000  0.57400000  1.0 -0.2138208869
C  C81  1  0.36366000  0.02514000  0.10090000  1.0 0.1007563663
C  C82  1  0.02514000  0.36366000  0.39910000  1.0 0.1007563663
C  C83  1  0.63634000  0.97486000  0.89910000  1.0 0.1007563663
C  C84  1  0.97486000  0.63634000  0.60090000  1.0 0.1007563663
C  C85  1  0.21820000  0.20000000  0.96940000  1.0 0.2101991501
C  C86  1  0.20000000  0.21820000  0.53060000  1.0 0.2101991501
C  C87  1  0.78180000  0.80000000  0.03060000  1.0 0.2101991501
C  C88  1  0.80000000  0.78180000  0.46940000  1.0 0.2101991501
C  C89  1  0.12191000  0.36929000  0.86410000  1.0 0.1087840866
C  C90  1  0.36929000  0.12191000  0.63590000  1.0 0.1087840866
C  C91  1  0.87809000  0.63071000  0.13590000  1.0 0.1087840866
C  C92  1  0.63071000  0.87809000  0.36410000  1.0 0.1087840866
C  C93  1  0.18340000  0.33080000  0.89470000  1.0 -0.1888690117
C  C94  1  0.33080000  0.18340000  0.60530000  1.0 -0.1888690117
C  C95  1  0.81660000  0.66920000  0.10530000  1.0 -0.1888690117
C  C96  1  0.66920000  0.81660000  0.39470000  1.0 -0.1888690117
C  C97  1  0.13640000  0.22520000  0.92510000  1.0 0.1509048053
C  C98  1  0.22520000  0.13640000  0.57490000  1.0 0.1509048053
C  C99  1  0.86360000  0.77480000  0.07490000  1.0 0.1509048053
C  C100  1  0.77480000  0.86360000  0.42510000  1.0 0.1509048053
C  C101  1  0.02570000  0.15690000  0.92200000  1.0 -0.2829711559
C  C102  1  0.15690000  0.02570000  0.57800000  1.0 -0.2829711559
C  C103  1  0.97430000  0.84310000  0.07800000  1.0 -0.2829711559
C  C104  1  0.84310000  0.97430000  0.42200000  1.0 -0.2829711559
C  C105  1  0.96872000  0.20148000  0.89060000  1.0 0.1007563663
C  C106  1  0.20148000  0.96872000  0.60940000  1.0 0.1007563663
C  C107  1  0.03128000  0.79852000  0.10940000  1.0 0.1007563663
C  C108  1  0.79852000  0.03128000  0.39060000  1.0 0.1007563663
C  C109  1  0.23840000  0.16300000  0.98620000  1.0 0.2199334082
C  C110  1  0.16300000  0.23840000  0.51380000  1.0 0.2199334082
C  C111  1  0.76160000  0.83700000  0.01380000  1.0 0.2199334082
C  C112  1  0.83700000  0.76160000  0.48620000  1.0 0.2199334082
N  N1  1  0.34643000  0.96297000  0.06060000  1.0 -0.2272255245
N  N2  1  0.96297000  0.34643000  0.43940000  1.0 -0.2272255245
N  N3  1  0.65357000  0.03703000  0.93940000  1.0 -0.2272255245
N  N4  1  0.03703000  0.65357000  0.56060000  1.0 -0.2272255245
N  N5  1  0.17630000  0.09730000  0.96900000  1.0 -0.1145691323
N  N6  1  0.09730000  0.17630000  0.53100000  1.0 -0.1145691323
N  N7  1  0.82370000  0.90270000  0.03100000  1.0 -0.1145691323
N  N8  1  0.90270000  0.82370000  0.46900000  1.0 -0.1145691323
N  N9  1  0.01602000  0.30518000  0.86350000  1.0 -0.2272255245
N  N10  1  0.30518000  0.01602000  0.63650000  1.0 -0.2272255245
N  N11  1  0.98398000  0.69482000  0.13650000  1.0 -0.2272255245
N  N12  1  0.69482000  0.98398000  0.36350000  1.0 -0.2272255245
N  N13  1  0.14540000  0.12960000  0.94110000  1.0 -0.1711191285
N  N14  1  0.12960000  0.14540000  0.55890000  1.0 -0.1711191285
N  N15  1  0.85460000  0.87040000  0.05890000  1.0 -0.1711191285
N  N16  1  0.87040000  0.85460000  0.44110000  1.0 -0.1711191285
O  O1  1  0.41391000  0.82869000  0.02969000  1.0 -0.5602193299
O  O2  1  0.82869000  0.41391000  0.47031000  1.0 -0.5602193299
O  O3  1  0.58609000  0.17131000  0.97031000  1.0 -0.5602193299
O  O4  1  0.17131000  0.58609000  0.52969000  1.0 -0.5602193299
O  O5  1  0.23467000  0.72033000  0.99581000  1.0 -0.5502885702
O  O6  1  0.72033000  0.23467000  0.50419000  1.0 -0.5502885702
O  O7  1  0.76533000  0.27967000  0.00419000  1.0 -0.5502885702
O  O8  1  0.27967000  0.76533000  0.49581000  1.0 -0.5502885702
O  O9  1  0.21109000  0.61531000  0.70074000  1.0 -0.5155794147
O  O10  1  0.61531000  0.21109000  0.79926000  1.0 -0.5155794147
O  O11  1  0.78891000  0.38469000  0.29926000  1.0 -0.5155794147
O  O12  1  0.38469000  0.78891000  0.20074000  1.0 -0.5155794147
O  O13  1  0.25144000  0.77816000  0.67944000  1.0 -0.5602193299
O  O14  1  0.77816000  0.25144000  0.82056000  1.0 -0.5602193299
O  O15  1  0.74856000  0.22184000  0.32056000  1.0 -0.5602193299
O  O16  1  0.22184000  0.74856000  0.17944000  1.0 -0.5602193299
O  O17  1  0.42912000  0.96148000  0.78288000  1.0 -0.5502885702
O  O18  1  0.96148000  0.42912000  0.71712000  1.0 -0.5502885702
O  O19  1  0.57088000  0.03852000  0.21712000  1.0 -0.5502885702
O  O20  1  0.03852000  0.57088000  0.28288000  1.0 -0.5502885702
O  O21  1  0.42358000  0.01002000  0.87478000  1.0 -0.5103272322
O  O22  1  0.01002000  0.42358000  0.62522000  1.0 -0.5103272322
O  O23  1  0.57642000  0.98998000  0.12522000  1.0 -0.5103272322
O  O24  1  0.98998000  0.57642000  0.37478000  1.0 -0.5103272322
O  O25  1  0.93696000  0.51084000  0.81583000  1.0 -0.5363730314
O  O26  1  0.51084000  0.93696000  0.68417000  1.0 -0.5363730314
O  O27  1  0.06304000  0.48916000  0.18417000  1.0 -0.5363730314
O  O28  1  0.48916000  0.06304000  0.31583000  1.0 -0.5363730314
O  O29  1  0.09129000  0.53191000  0.85428000  1.0 -0.5302039358
O  O30  1  0.53191000  0.09129000  0.64572000  1.0 -0.5302039358
O  O31  1  0.90871000  0.46809000  0.14572000  1.0 -0.5302039358
O  O32  1  0.46809000  0.90871000  0.35428000  1.0 -0.5302039358
O  O33  1  0.30803000  0.25897000  0.00270000  1.0 -0.2881077502
O  O34  1  0.25897000  0.30803000  0.49730000  1.0 -0.2881077502
O  O35  1  0.69197000  0.74103000  0.99730000  1.0 -0.2881077502
O  O36  1  0.74103000  0.69197000  0.50270000  1.0 -0.2881077502
