# DDEC6 charges by PACMAN v1.1 (https://github.com/mtap-research/PACMAN-charge/)
data_COMZIP_FSR_pacman
_symmetry_space_group_name_H-M   'P 1'
_cell_length_a   9.62170000
_cell_length_b   28.62850000
_cell_length_c   10.48010000
_cell_angle_alpha   90.00000000
_cell_angle_beta   111.37600000
_cell_angle_gamma   90.00000000
_symmetry_Int_Tables_number   1
_chemical_formula_structural   ZnH16C26N4O5
_chemical_formula_sum   'Zn4 H64 C104 N16 O20'
_cell_volume   2688.20755753
_cell_formula_units_Z   4
loop_
 _symmetry_equiv_pos_site_id
 _symmetry_equiv_pos_as_xyz
  1  'x, y, z'
loop_
 _atom_site_type_symbol
 _atom_site_label
 _atom_site_symmetry_multiplicity
 _atom_site_fract_x
 _atom_site_fract_y
 _atom_site_fract_z
 _atom_site_occupancy
 _atom_site_charge
Zn  Zn1  1  0.41669000  0.46026000  0.10992000  1.0 0.791746336
Zn  Zn2  1  0.58331000  0.96026000  0.39008000  1.0 0.791746336
Zn  Zn3  1  0.58331000  0.53974000  0.89008000  1.0 0.791746336
Zn  Zn4  1  0.41669000  0.03974000  0.60992000  1.0 0.791746336
H  H1  1  0.31640000  0.41860000  0.81970000  1.0 0.1117202066
H  H2  1  0.68360000  0.91860000  0.68030000  1.0 0.1117202066
H  H3  1  0.68360000  0.58140000  0.18030000  1.0 0.1117202066
H  H4  1  0.31640000  0.08140000  0.31970000  1.0 0.1117202066
H  H5  1  0.11480000  0.41690000  0.61690000  1.0 0.130983677
H  H6  1  0.88520000  0.91690000  0.88310000  1.0 0.130983677
H  H7  1  0.88520000  0.58310000  0.38310000  1.0 0.130983677
H  H8  1  0.11480000  0.08310000  0.11690000  1.0 0.130983677
H  H9  1  0.91300000  0.51210000  0.77550000  1.0 0.141417901
H  H10  1  0.08700000  0.01210000  0.72450000  1.0 0.141417901
H  H11  1  0.08700000  0.48790000  0.22450000  1.0 0.141417901
H  H12  1  0.91300000  0.98790000  0.27550000  1.0 0.141417901
H  H13  1  0.11980000  0.51020000  0.97490000  1.0 0.1025694916
H  H14  1  0.88020000  0.01020000  0.52510000  1.0 0.1025694916
H  H15  1  0.88020000  0.48980000  0.02510000  1.0 0.1025694916
H  H16  1  0.11980000  0.98980000  0.47490000  1.0 0.1025694916
H  H17  1  0.91270000  0.40670000  0.45740000  1.0 0.1212977497
H  H18  1  0.08730000  0.90670000  0.04260000  1.0 0.1212977497
H  H19  1  0.08730000  0.59330000  0.54260000  1.0 0.1212977497
H  H20  1  0.91270000  0.09330000  0.95740000  1.0 0.1212977497
H  H21  1  0.70710000  0.40670000  0.25780000  1.0 0.1117202066
H  H22  1  0.29290000  0.90670000  0.24220000  1.0 0.1117202066
H  H23  1  0.29290000  0.59330000  0.74220000  1.0 0.1117202066
H  H24  1  0.70710000  0.09330000  0.75780000  1.0 0.1117202066
H  H25  1  0.53740000  0.51270000  0.38190000  1.0 0.1117202066
H  H26  1  0.46260000  0.01270000  0.11810000  1.0 0.1117202066
H  H27  1  0.46260000  0.48730000  0.61810000  1.0 0.1117202066
H  H28  1  0.53740000  0.98730000  0.88190000  1.0 0.1117202066
H  H29  1  0.73830000  0.51610000  0.58560000  1.0 0.141417901
H  H30  1  0.26170000  0.01610000  0.91440000  1.0 0.141417901
H  H31  1  0.26170000  0.48390000  0.41440000  1.0 0.141417901
H  H32  1  0.73830000  0.98390000  0.08560000  1.0 0.141417901
H  H33  1  0.29100000  0.30270000  0.17090000  1.0 0.130983677
H  H34  1  0.70900000  0.80270000  0.32910000  1.0 0.130983677
H  H35  1  0.70900000  0.69730000  0.82910000  1.0 0.130983677
H  H36  1  0.29100000  0.19730000  0.67090000  1.0 0.130983677
H  H37  1  0.15880000  0.24550000  0.23470000  1.0 0.1117202066
H  H38  1  0.84120000  0.74550000  0.26530000  1.0 0.1117202066
H  H39  1  0.84120000  0.75450000  0.76530000  1.0 0.1117202066
H  H40  1  0.15880000  0.25450000  0.73470000  1.0 0.1117202066
H  H41  1  0.92400000  0.34410000  0.33750000  1.0 0.1025694916
H  H42  1  0.07600000  0.84410000  0.16250000  1.0 0.1025694916
H  H43  1  0.07600000  0.65590000  0.66250000  1.0 0.1025694916
H  H44  1  0.92400000  0.15590000  0.83750000  1.0 0.1025694916
H  H45  1  0.05700000  0.40110000  0.27580000  1.0 0.1117202066
H  H46  1  0.94300000  0.90110000  0.22420000  1.0 0.1117202066
H  H47  1  0.94300000  0.59890000  0.72420000  1.0 0.1117202066
H  H48  1  0.05700000  0.09890000  0.77580000  1.0 0.1117202066
H  H49  1  0.93650000  0.14220000  0.28710000  1.0 0.1212977497
H  H50  1  0.06350000  0.64220000  0.21290000  1.0 0.1212977497
H  H51  1  0.06350000  0.85780000  0.71290000  1.0 0.1212977497
H  H52  1  0.93650000  0.35780000  0.78710000  1.0 0.1212977497
H  H53  1  0.80940000  0.07610000  0.30900000  1.0 0.1117202066
H  H54  1  0.19060000  0.57610000  0.19100000  1.0 0.1117202066
H  H55  1  0.19060000  0.92390000  0.69100000  1.0 0.1117202066
H  H56  1  0.80940000  0.42390000  0.80900000  1.0 0.1117202066
H  H57  1  0.61310000  0.14950000  0.52380000  1.0 0.130983677
H  H58  1  0.38690000  0.64950000  0.97620000  1.0 0.130983677
H  H59  1  0.38690000  0.85050000  0.47620000  1.0 0.130983677
H  H60  1  0.61310000  0.35050000  0.02380000  1.0 0.130983677
H  H61  1  0.73600000  0.21640000  0.49460000  1.0 0.1025694916
H  H62  1  0.26400000  0.71640000  0.00540000  1.0 0.1025694916
H  H63  1  0.26400000  0.78360000  0.50540000  1.0 0.1025694916
H  H64  1  0.73600000  0.28360000  0.99460000  1.0 0.1025694916
C  C1  1  0.23260000  0.43774000  0.81070000  1.0 0.0928437998
C  C2  1  0.76740000  0.93774000  0.68930000  1.0 0.0928437998
C  C3  1  0.76740000  0.56226000  0.18930000  1.0 0.0928437998
C  C4  1  0.23260000  0.06226000  0.31070000  1.0 0.0928437998
C  C5  1  0.11250000  0.43649000  0.68930000  1.0 -0.1964359146
C  C6  1  0.88750000  0.93649000  0.81070000  1.0 -0.1964359146
C  C7  1  0.88750000  0.56351000  0.31070000  1.0 -0.1964359146
C  C8  1  0.11250000  0.06351000  0.18930000  1.0 -0.1928517314
C  C9  1  0.98690000  0.46388000  0.67200000  1.0 0.1117202066
C  C10  1  0.01310000  0.96388000  0.82800000  1.0 0.1117202066
C  C11  1  0.01310000  0.53612000  0.32800000  1.0 0.1117202066
C  C12  1  0.98690000  0.03612000  0.17200000  1.0 0.1117202066
C  C13  1  0.99400000  0.49208000  0.78200000  1.0 -0.1964359146
C  C14  1  0.00600000  0.99208000  0.71800000  1.0 -0.1964359146
C  C15  1  0.00600000  0.50792000  0.21800000  1.0 -0.1964359146
C  C16  1  0.99400000  0.00792000  0.28200000  1.0 -0.1964359146
C  C17  1  0.11850000  0.49102000  0.90050000  1.0 0.0791648263
C  C18  1  0.88150000  0.99102000  0.59950000  1.0 0.0791648263
C  C19  1  0.88150000  0.50898000  0.09950000  1.0 0.0791648263
C  C20  1  0.11850000  0.00898000  0.40050000  1.0 0.0791648263
C  C21  1  0.85260000  0.46240000  0.54410000  1.0 0.1025694916
C  C22  1  0.14740000  0.96240000  0.95590000  1.0 0.1025694916
C  C23  1  0.14740000  0.53760000  0.45590000  1.0 0.1025694916
C  C24  1  0.85260000  0.03760000  0.04410000  1.0 0.1025694916
C  C25  1  0.83710000  0.42960000  0.44430000  1.0 -0.1964359146
C  C26  1  0.16290000  0.92960000  0.05570000  1.0 -0.1964359146
C  C27  1  0.16290000  0.57040000  0.55570000  1.0 -0.1964359146
C  C28  1  0.83710000  0.07040000  0.94430000  1.0 -0.1964359146
C  C29  1  0.71320000  0.42953000  0.32550000  1.0 0.0928437998
C  C30  1  0.28680000  0.92953000  0.17450000  1.0 0.0928437998
C  C31  1  0.28680000  0.57047000  0.67450000  1.0 0.0928437998
C  C32  1  0.71320000  0.07047000  0.82550000  1.0 0.0928437998
C  C33  1  0.61570000  0.49067000  0.39730000  1.0 0.0791648263
C  C34  1  0.38430000  0.99067000  0.10270000  1.0 0.0791648263
C  C35  1  0.38430000  0.50933000  0.60270000  1.0 0.0791648263
C  C36  1  0.61570000  0.00933000  0.89730000  1.0 0.0791648263
C  C37  1  0.73590000  0.49321000  0.51920000  1.0 -0.1964359146
C  C38  1  0.26410000  0.99321000  0.98080000  1.0 -0.1964359146
C  C39  1  0.26410000  0.50679000  0.48080000  1.0 -0.1964359146
C  C40  1  0.73590000  0.00679000  0.01920000  1.0 -0.1964359146
C  C41  1  0.27610000  0.39480000  0.18070000  1.0 0.5379657922
C  C42  1  0.72390000  0.89480000  0.31930000  1.0 0.5379657922
C  C43  1  0.72390000  0.60520000  0.81930000  1.0 0.5379657922
C  C44  1  0.27610000  0.10520000  0.68070000  1.0 0.5379657922
C  C45  1  0.19080000  0.35785000  0.22050000  1.0 -0.0110343332
C  C46  1  0.80920000  0.85785000  0.27950000  1.0 -0.0110343332
C  C47  1  0.80920000  0.64215000  0.77950000  1.0 -0.0110343332
C  C48  1  0.19080000  0.14215000  0.72050000  1.0 -0.0110343332
C  C49  1  0.21750000  0.31149000  0.20710000  1.0 -0.0884209843
C  C50  1  0.78250000  0.81149000  0.29290000  1.0 -0.0884209843
C  C51  1  0.78250000  0.68851000  0.79290000  1.0 -0.0884209843
C  C52  1  0.21750000  0.18851000  0.70710000  1.0 -0.0884209843
C  C53  1  0.13930000  0.27740000  0.24550000  1.0 -0.219364631
C  C54  1  0.86070000  0.77740000  0.25450000  1.0 -0.219364631
C  C55  1  0.86070000  0.72260000  0.75450000  1.0 -0.219364631
C  C56  1  0.13930000  0.22260000  0.74550000  1.0 -0.219364631
C  C57  1  0.03220000  0.28930000  0.29980000  1.0 0.130983677
C  C58  1  0.96780000  0.78930000  0.20020000  1.0 0.1212977497
C  C59  1  0.96780000  0.71070000  0.70020000  1.0 0.130983677
C  C60  1  0.03220000  0.21070000  0.79980000  1.0 0.130983677
C  C61  1  0.00140000  0.33520000  0.30630000  1.0 -0.1793741779
C  C62  1  0.99860000  0.83520000  0.19370000  1.0 -0.1793741779
C  C63  1  0.99860000  0.66480000  0.69370000  1.0 -0.1793741779
C  C64  1  0.00140000  0.16480000  0.80630000  1.0 -0.1793741779
C  C65  1  0.07990000  0.36920000  0.26850000  1.0 -0.1129547833
C  C66  1  0.92010000  0.86920000  0.23150000  1.0 -0.1129547833
C  C67  1  0.92010000  0.63080000  0.73150000  1.0 -0.1129547833
C  C68  1  0.07990000  0.13080000  0.76850000  1.0 -0.1129547833
C  C69  1  0.84630000  0.18560000  0.38420000  1.0 0.130983677
C  C70  1  0.15370000  0.68560000  0.11580000  1.0 0.130983677
C  C71  1  0.15370000  0.81440000  0.61580000  1.0 0.130983677
C  C72  1  0.84630000  0.31440000  0.88420000  1.0 0.130983677
C  C73  1  0.86830000  0.14420000  0.33350000  1.0 -0.2056500884
C  C74  1  0.13170000  0.64420000  0.16650000  1.0 -0.2056500884
C  C75  1  0.13170000  0.85580000  0.66650000  1.0 -0.2056500884
C  C76  1  0.86830000  0.35580000  0.83350000  1.0 -0.2056500884
C  C77  1  0.79390000  0.10480000  0.34770000  1.0 -0.0884209843
C  C78  1  0.20610000  0.60480000  0.15230000  1.0 -0.0884209843
C  C79  1  0.20610000  0.89520000  0.65230000  1.0 -0.0884209843
C  C80  1  0.79390000  0.39520000  0.84770000  1.0 -0.0884209843
C  C81  1  0.69700000  0.10613000  0.41750000  1.0 -0.0343328435
C  C82  1  0.30300000  0.60613000  0.08250000  1.0 -0.0343328435
C  C83  1  0.30300000  0.89387000  0.58250000  1.0 -0.0343328435
C  C84  1  0.69700000  0.39387000  0.91750000  1.0 -0.0343328435
C  C85  1  0.67740000  0.14788000  0.47340000  1.0 -0.0884209843
C  C86  1  0.32260000  0.64788000  0.02660000  1.0 -0.0884209843
C  C87  1  0.32260000  0.85212000  0.52660000  1.0 -0.0884209843
C  C88  1  0.67740000  0.35212000  0.97340000  1.0 -0.0884209843
C  C89  1  0.75090000  0.18755000  0.45650000  1.0 -0.1717704656
C  C90  1  0.24910000  0.68755000  0.04350000  1.0 -0.1717704656
C  C91  1  0.24910000  0.81245000  0.54350000  1.0 -0.1717704656
C  C92  1  0.75090000  0.31245000  0.95650000  1.0 -0.1717704656
C  C93  1  0.61860000  0.06253000  0.43320000  1.0 0.5630811034
C  C94  1  0.38140000  0.56253000  0.06680000  1.0 0.5630811034
C  C95  1  0.38140000  0.93747000  0.56680000  1.0 0.5630811034
C  C96  1  0.61860000  0.43747000  0.93320000  1.0 0.5630811034
C  C97  1  0.91500000  0.26320000  0.34100000  1.0 0.2192292018
C  C98  1  0.08500000  0.76320000  0.15900000  1.0 0.2192292018
C  C99  1  0.08500000  0.73680000  0.65900000  1.0 0.2192292018
C  C100  1  0.91500000  0.23680000  0.84100000  1.0 0.2192292018
C  C101  1  0.87530000  0.24140000  0.37000000  1.0 0.1980618713
C  C102  1  0.12470000  0.74140000  0.13000000  1.0 0.1980618713
C  C103  1  0.12470000  0.75860000  0.63000000  1.0 0.1980618713
C  C104  1  0.87530000  0.25860000  0.87000000  1.0 0.1980618713
N  N1  1  0.23770000  0.46442000  0.91640000  1.0 -0.219364631
N  N2  1  0.76230000  0.96442000  0.58360000  1.0 -0.219364631
N  N3  1  0.76230000  0.53558000  0.08360000  1.0 -0.219364631
N  N4  1  0.23770000  0.03558000  0.41640000  1.0 -0.219364631
N  N5  1  0.60240000  0.45953000  0.30050000  1.0 -0.1928517314
N  N6  1  0.39760000  0.95953000  0.19950000  1.0 -0.1928517314
N  N7  1  0.39760000  0.54047000  0.69950000  1.0 -0.1928517314
N  N8  1  0.60240000  0.04047000  0.80050000  1.0 -0.1928517314
N  N9  1  0.95470000  0.21630000  0.35790000  1.0 -0.0774077266
N  N10  1  0.04530000  0.71630000  0.14210000  1.0 -0.0774077266
N  N11  1  0.04530000  0.78370000  0.64210000  1.0 -0.0774077266
N  N12  1  0.95470000  0.28370000  0.85790000  1.0 -0.0774077266
N  N13  1  0.99250000  0.24120000  0.33800000  1.0 -0.0774077266
N  N14  1  0.00750000  0.74120000  0.16200000  1.0 -0.0744343596
N  N15  1  0.00750000  0.75880000  0.66200000  1.0 -0.0774077266
N  N16  1  0.99250000  0.25880000  0.83800000  1.0 -0.0774077266
O  O1  1  0.80810000  0.27682000  0.37350000  1.0 -0.3022439899
O  O2  1  0.19190000  0.77682000  0.12650000  1.0 -0.3022439899
O  O3  1  0.19190000  0.72318000  0.62650000  1.0 -0.3022439899
O  O4  1  0.80810000  0.22318000  0.87350000  1.0 -0.3022439899
O  O5  1  0.36040000  0.38334000  0.11800000  1.0 -0.5228378596
O  O6  1  0.63960000  0.88334000  0.38200000  1.0 -0.5228378596
O  O7  1  0.63960000  0.61666000  0.88200000  1.0 -0.5228378596
O  O8  1  0.36040000  0.11666000  0.61800000  1.0 -0.5228378596
O  O9  1  0.26510000  0.43668000  0.21040000  1.0 -0.5494623206
O  O10  1  0.73490000  0.93668000  0.28960000  1.0 -0.5494623206
O  O11  1  0.73490000  0.56332000  0.78960000  1.0 -0.5494623206
O  O12  1  0.26510000  0.06332000  0.71040000  1.0 -0.5494623206
O  O13  1  0.56210000  0.06297000  0.52320000  1.0 -0.5494623206
O  O14  1  0.43790000  0.56297000  0.97680000  1.0 -0.5494623206
O  O15  1  0.43790000  0.93703000  0.47680000  1.0 -0.5494623206
O  O16  1  0.56210000  0.43703000  0.02320000  1.0 -0.5494623206
O  O17  1  0.61630000  0.02870000  0.35580000  1.0 -0.5494623206
O  O18  1  0.38370000  0.52870000  0.14420000  1.0 -0.5494623206
O  O19  1  0.38370000  0.97130000  0.64420000  1.0 -0.5494623206
O  O20  1  0.61630000  0.47130000  0.85580000  1.0 -0.5494623206
