# DDEC6 charges by PACMAN v1.1 (https://github.com/mtap-research/PACMAN-charge/)
data_COQBOC_ASR_pacman
_symmetry_space_group_name_H-M   'P 1'
_cell_length_a   19.84150000
_cell_length_b   19.84150000
_cell_length_c   7.64510000
_cell_angle_alpha   90.00000000
_cell_angle_beta   90.00000000
_cell_angle_gamma   90.00000000
_symmetry_Int_Tables_number   1
_chemical_formula_structural   CuH8C16(SO6)2
_chemical_formula_sum   'Cu8 H64 C128 S16 O96'
_cell_volume   3009.76212811
_cell_formula_units_Z   8
loop_
 _symmetry_equiv_pos_site_id
 _symmetry_equiv_pos_as_xyz
  1  'x, y, z'
loop_
 _atom_site_type_symbol
 _atom_site_label
 _atom_site_symmetry_multiplicity
 _atom_site_fract_x
 _atom_site_fract_y
 _atom_site_fract_z
 _atom_site_occupancy
 _atom_site_charge
Cu  Cu1  1  0.27150000  0.77150000  0.65584000  1.0 0.5187643688
Cu  Cu2  1  0.72850000  0.22850000  0.65584000  1.0 0.5187643688
Cu  Cu3  1  0.27150000  0.22850000  0.65584000  1.0 0.5187643688
Cu  Cu4  1  0.72850000  0.77150000  0.65584000  1.0 0.5187643688
Cu  Cu5  1  0.77150000  0.72850000  0.34416000  1.0 0.5187643688
Cu  Cu6  1  0.22850000  0.27150000  0.34416000  1.0 0.5187643688
Cu  Cu7  1  0.77150000  0.27150000  0.34416000  1.0 0.5187643688
Cu  Cu8  1  0.22850000  0.72850000  0.34416000  1.0 0.5187643688
H  H1  1  0.30170000  0.54450000  0.18230000  1.0 0.0863025361
H  H2  1  0.37820000  0.54450000  0.14100000  1.0 0.0587989988
H  H3  1  0.34230000  0.55070000  0.15170000  1.0 0.0960261547
H  H4  1  0.26740000  0.55070000  0.21160000  1.0 0.0499703228
H  H5  1  0.69830000  0.45550000  0.18230000  1.0 0.0863025361
H  H6  1  0.62180000  0.45550000  0.14100000  1.0 0.0587989988
H  H7  1  0.65770000  0.44930000  0.15170000  1.0 0.0960261547
H  H8  1  0.73260000  0.44930000  0.21160000  1.0 0.0499703228
H  H9  1  0.04450000  0.19830000  0.18230000  1.0 0.0863025361
H  H10  1  0.04450000  0.12180000  0.14100000  1.0 0.0587989988
H  H11  1  0.05070000  0.15770000  0.15170000  1.0 0.0960261547
H  H12  1  0.05070000  0.23260000  0.21160000  1.0 0.0499703228
H  H13  1  0.95550000  0.80170000  0.18230000  1.0 0.0863025361
H  H14  1  0.95550000  0.87820000  0.14100000  1.0 0.0587989988
H  H15  1  0.94930000  0.84230000  0.15170000  1.0 0.0960261547
H  H16  1  0.94930000  0.76740000  0.21160000  1.0 0.0499703228
H  H17  1  0.80170000  0.95550000  0.81770000  1.0 0.0863025361
H  H18  1  0.87820000  0.95550000  0.85900000  1.0 0.0587989988
H  H19  1  0.84230000  0.94930000  0.84830000  1.0 0.0960261547
H  H20  1  0.76740000  0.94930000  0.78840000  1.0 0.0499703228
H  H21  1  0.19830000  0.04450000  0.81770000  1.0 0.0863025361
H  H22  1  0.12180000  0.04450000  0.85900000  1.0 0.0587989988
H  H23  1  0.15770000  0.05070000  0.84830000  1.0 0.0960261547
H  H24  1  0.23260000  0.05070000  0.78840000  1.0 0.0499703228
H  H25  1  0.54450000  0.30170000  0.81770000  1.0 0.0863025361
H  H26  1  0.54450000  0.37820000  0.85900000  1.0 0.0587989988
H  H27  1  0.55070000  0.34230000  0.84830000  1.0 0.0960261547
H  H28  1  0.55070000  0.26740000  0.78840000  1.0 0.0499703228
H  H29  1  0.45550000  0.69830000  0.81770000  1.0 0.0863025361
H  H30  1  0.45550000  0.62180000  0.85900000  1.0 0.0587989988
H  H31  1  0.44930000  0.65770000  0.84830000  1.0 0.0960261547
H  H32  1  0.44930000  0.73260000  0.78840000  1.0 0.0499703228
H  H33  1  0.19830000  0.95550000  0.81770000  1.0 0.0863025361
H  H34  1  0.12180000  0.95550000  0.85900000  1.0 0.0587989988
H  H35  1  0.15770000  0.94930000  0.84830000  1.0 0.0960261547
H  H36  1  0.23260000  0.94930000  0.78840000  1.0 0.0499703228
H  H37  1  0.80170000  0.04450000  0.81770000  1.0 0.0863025361
H  H38  1  0.87820000  0.04450000  0.85900000  1.0 0.0587989988
H  H39  1  0.84230000  0.05070000  0.84830000  1.0 0.0960261547
H  H40  1  0.76740000  0.05070000  0.78840000  1.0 0.0499703228
H  H41  1  0.45550000  0.30170000  0.81770000  1.0 0.0863025361
H  H42  1  0.45550000  0.37820000  0.85900000  1.0 0.0587989988
H  H43  1  0.44930000  0.34230000  0.84830000  1.0 0.0960261547
H  H44  1  0.44930000  0.26740000  0.78840000  1.0 0.0499703228
H  H45  1  0.54450000  0.69830000  0.81770000  1.0 0.0863025361
H  H46  1  0.54450000  0.62180000  0.85900000  1.0 0.0587989988
H  H47  1  0.55070000  0.65770000  0.84830000  1.0 0.0960261547
H  H48  1  0.55070000  0.73260000  0.78840000  1.0 0.0499703228
H  H49  1  0.69830000  0.54450000  0.18230000  1.0 0.0863025361
H  H50  1  0.62180000  0.54450000  0.14100000  1.0 0.0587989988
H  H51  1  0.65770000  0.55070000  0.15170000  1.0 0.0960261547
H  H52  1  0.73260000  0.55070000  0.21160000  1.0 0.0499703228
H  H53  1  0.30170000  0.45550000  0.18230000  1.0 0.0863025361
H  H54  1  0.37820000  0.45550000  0.14100000  1.0 0.0587989988
H  H55  1  0.34230000  0.44930000  0.15170000  1.0 0.0960261547
H  H56  1  0.26740000  0.44930000  0.21160000  1.0 0.0499703228
H  H57  1  0.95550000  0.19830000  0.18230000  1.0 0.0863025361
H  H58  1  0.95550000  0.12180000  0.14100000  1.0 0.0587989988
H  H59  1  0.94930000  0.15770000  0.15170000  1.0 0.0960261547
H  H60  1  0.94930000  0.23260000  0.21160000  1.0 0.0499703228
H  H61  1  0.04450000  0.80170000  0.18230000  1.0 0.0863025361
H  H62  1  0.04450000  0.87820000  0.14100000  1.0 0.0587989988
H  H63  1  0.05070000  0.84230000  0.15170000  1.0 0.0960261547
H  H64  1  0.05070000  0.76740000  0.21160000  1.0 0.0499703228
C  C1  1  0.30510000  0.53510000  0.80900000  1.0 0.0306654003
C  C2  1  0.27650000  0.63250000  0.59700000  1.0 0.2704053983
C  C3  1  0.33460000  0.53120000  0.09500000  1.0 -0.0542198536
C  C4  1  0.28770000  0.56080000  0.65300000  1.0 -0.1108719375
C  C5  1  0.26120000  0.53680000  0.83700000  1.0 0.0587989988
C  C6  1  0.24230000  0.63310000  0.62000000  1.0 0.2780656885
C  C7  1  0.29730000  0.53660000  0.11800000  1.0 -0.0040562082
C  C8  1  0.24100000  0.56160000  0.68000000  1.0 -0.0577864155
C  C9  1  0.69490000  0.46490000  0.80900000  1.0 0.0306654003
C  C10  1  0.72350000  0.36750000  0.59700000  1.0 0.2704053983
C  C11  1  0.66540000  0.46880000  0.09500000  1.0 -0.0542198536
C  C12  1  0.71230000  0.43920000  0.65300000  1.0 -0.1108719375
C  C13  1  0.73880000  0.46320000  0.83700000  1.0 0.0587989988
C  C14  1  0.75770000  0.36690000  0.62000000  1.0 0.2780656885
C  C15  1  0.70270000  0.46340000  0.11800000  1.0 -0.0040562082
C  C16  1  0.75900000  0.43840000  0.68000000  1.0 -0.0577864155
C  C17  1  0.03510000  0.19490000  0.80900000  1.0 0.0306654003
C  C18  1  0.13250000  0.22350000  0.59700000  1.0 0.2704053983
C  C19  1  0.03120000  0.16540000  0.09500000  1.0 -0.0542198536
C  C20  1  0.06080000  0.21230000  0.65300000  1.0 -0.1108719375
C  C21  1  0.03680000  0.23880000  0.83700000  1.0 0.0587989988
C  C22  1  0.13310000  0.25770000  0.62000000  1.0 0.2780656885
C  C23  1  0.03660000  0.20270000  0.11800000  1.0 -0.0040562082
C  C24  1  0.06160000  0.25900000  0.68000000  1.0 -0.0577864155
C  C25  1  0.96490000  0.80510000  0.80900000  1.0 0.0306654003
C  C26  1  0.86750000  0.77650000  0.59700000  1.0 0.2704053983
C  C27  1  0.96880000  0.83460000  0.09500000  1.0 -0.0542198536
C  C28  1  0.93920000  0.78770000  0.65300000  1.0 -0.1108719375
C  C29  1  0.96320000  0.76120000  0.83700000  1.0 0.0655659656
C  C30  1  0.86690000  0.74230000  0.62000000  1.0 0.2780656885
C  C31  1  0.96340000  0.79730000  0.11800000  1.0 -0.0040562082
C  C32  1  0.93840000  0.74100000  0.68000000  1.0 -0.0577864155
C  C33  1  0.80510000  0.96490000  0.19100000  1.0 0.0306654003
C  C34  1  0.77650000  0.86750000  0.40300000  1.0 0.2704053983
C  C35  1  0.83460000  0.96880000  0.90500000  1.0 -0.0542198536
C  C36  1  0.78770000  0.93920000  0.34700000  1.0 -0.1108719375
C  C37  1  0.76120000  0.96320000  0.16300000  1.0 0.0655659656
C  C38  1  0.74230000  0.86690000  0.38000000  1.0 0.2780656885
C  C39  1  0.79730000  0.96340000  0.88200000  1.0 -0.0040562082
C  C40  1  0.74100000  0.93840000  0.32000000  1.0 -0.0577864155
C  C41  1  0.19490000  0.03510000  0.19100000  1.0 0.0306654003
C  C42  1  0.22350000  0.13250000  0.40300000  1.0 0.2704053983
C  C43  1  0.16540000  0.03120000  0.90500000  1.0 -0.0542198536
C  C44  1  0.21230000  0.06080000  0.34700000  1.0 -0.1108719375
C  C45  1  0.23880000  0.03680000  0.16300000  1.0 0.0587989988
C  C46  1  0.25770000  0.13310000  0.38000000  1.0 0.2780656885
C  C47  1  0.20270000  0.03660000  0.88200000  1.0 -0.0040562082
C  C48  1  0.25900000  0.06160000  0.32000000  1.0 -0.0577864155
C  C49  1  0.53510000  0.30510000  0.19100000  1.0 0.0306654003
C  C50  1  0.63250000  0.27650000  0.40300000  1.0 0.2704053983
C  C51  1  0.53120000  0.33460000  0.90500000  1.0 -0.0542198536
C  C52  1  0.56080000  0.28770000  0.34700000  1.0 -0.1108719375
C  C53  1  0.53680000  0.26120000  0.16300000  1.0 0.0655659656
C  C54  1  0.63310000  0.24230000  0.38000000  1.0 0.2780656885
C  C55  1  0.53660000  0.29730000  0.88200000  1.0 -0.0040562082
C  C56  1  0.56160000  0.24100000  0.32000000  1.0 -0.0577864155
C  C57  1  0.46490000  0.69490000  0.19100000  1.0 0.0306654003
C  C58  1  0.36750000  0.72350000  0.40300000  1.0 0.2704053983
C  C59  1  0.46880000  0.66540000  0.90500000  1.0 -0.0542198536
C  C60  1  0.43920000  0.71230000  0.34700000  1.0 -0.1108719375
C  C61  1  0.46320000  0.73880000  0.16300000  1.0 0.0655659656
C  C62  1  0.36690000  0.75770000  0.38000000  1.0 0.2780656885
C  C63  1  0.46340000  0.70270000  0.88200000  1.0 -0.0040562082
C  C64  1  0.43840000  0.75900000  0.32000000  1.0 -0.0577864155
C  C65  1  0.19490000  0.96490000  0.19100000  1.0 0.0306654003
C  C66  1  0.22350000  0.86750000  0.40300000  1.0 0.2704053983
C  C67  1  0.16540000  0.96880000  0.90500000  1.0 -0.0577864155
C  C68  1  0.21230000  0.93920000  0.34700000  1.0 -0.1108719375
C  C69  1  0.23880000  0.96320000  0.16300000  1.0 0.0655659656
C  C70  1  0.25770000  0.86690000  0.38000000  1.0 0.2780656885
C  C71  1  0.20270000  0.96340000  0.88200000  1.0 -0.0040562082
C  C72  1  0.25900000  0.93840000  0.32000000  1.0 -0.0577864155
C  C73  1  0.80510000  0.03510000  0.19100000  1.0 0.0306654003
C  C74  1  0.77650000  0.13250000  0.40300000  1.0 0.2704053983
C  C75  1  0.83460000  0.03120000  0.90500000  1.0 -0.0542198536
C  C76  1  0.78770000  0.06080000  0.34700000  1.0 -0.1108719375
C  C77  1  0.76120000  0.03680000  0.16300000  1.0 0.0655659656
C  C78  1  0.74230000  0.13310000  0.38000000  1.0 0.2780656885
C  C79  1  0.79730000  0.03660000  0.88200000  1.0 -0.0040562082
C  C80  1  0.74100000  0.06160000  0.32000000  1.0 -0.0577864155
C  C81  1  0.46490000  0.30510000  0.19100000  1.0 0.0306654003
C  C82  1  0.36750000  0.27650000  0.40300000  1.0 0.2704053983
C  C83  1  0.46880000  0.33460000  0.90500000  1.0 -0.0542198536
C  C84  1  0.43920000  0.28770000  0.34700000  1.0 -0.1108719375
C  C85  1  0.46320000  0.26120000  0.16300000  1.0 0.0655659656
C  C86  1  0.36690000  0.24230000  0.38000000  1.0 0.2780656885
C  C87  1  0.46340000  0.29730000  0.88200000  1.0 -0.0040562082
C  C88  1  0.43840000  0.24100000  0.32000000  1.0 -0.0577864155
C  C89  1  0.53510000  0.69490000  0.19100000  1.0 0.0306654003
C  C90  1  0.63250000  0.72350000  0.40300000  1.0 0.2704053983
C  C91  1  0.53120000  0.66540000  0.90500000  1.0 -0.0542198536
C  C92  1  0.56080000  0.71230000  0.34700000  1.0 -0.1108719375
C  C93  1  0.53680000  0.73880000  0.16300000  1.0 0.0655659656
C  C94  1  0.63310000  0.75770000  0.38000000  1.0 0.2780656885
C  C95  1  0.53660000  0.70270000  0.88200000  1.0 -0.0040562082
C  C96  1  0.56160000  0.75900000  0.32000000  1.0 -0.0577864155
C  C97  1  0.69490000  0.53510000  0.80900000  1.0 0.0306654003
C  C98  1  0.72350000  0.63250000  0.59700000  1.0 0.2704053983
C  C99  1  0.66540000  0.53120000  0.09500000  1.0 -0.0542198536
C  C100  1  0.71230000  0.56080000  0.65300000  1.0 -0.1108719375
C  C101  1  0.73880000  0.53680000  0.83700000  1.0 0.0655659656
C  C102  1  0.75770000  0.63310000  0.62000000  1.0 0.2780656885
C  C103  1  0.70270000  0.53660000  0.11800000  1.0 -0.0040562082
C  C104  1  0.75900000  0.56160000  0.68000000  1.0 -0.0577864155
C  C105  1  0.30510000  0.46490000  0.80900000  1.0 0.0306654003
C  C106  1  0.27650000  0.36750000  0.59700000  1.0 0.2704053983
C  C107  1  0.33460000  0.46880000  0.09500000  1.0 -0.0542198536
C  C108  1  0.28770000  0.43920000  0.65300000  1.0 -0.1108719375
C  C109  1  0.26120000  0.46320000  0.83700000  1.0 0.0587989988
C  C110  1  0.24230000  0.36690000  0.62000000  1.0 0.2780656885
C  C111  1  0.29730000  0.46340000  0.11800000  1.0 -0.0040562082
C  C112  1  0.24100000  0.43840000  0.68000000  1.0 -0.0577864155
C  C113  1  0.96490000  0.19490000  0.80900000  1.0 0.0306654003
C  C114  1  0.86750000  0.22350000  0.59700000  1.0 0.2704053983
C  C115  1  0.96880000  0.16540000  0.09500000  1.0 -0.0542198536
C  C116  1  0.93920000  0.21230000  0.65300000  1.0 -0.1108719375
C  C117  1  0.96320000  0.23880000  0.83700000  1.0 0.0587989988
C  C118  1  0.86690000  0.25770000  0.62000000  1.0 0.2780656885
C  C119  1  0.96340000  0.20270000  0.11800000  1.0 -0.0040562082
C  C120  1  0.93840000  0.25900000  0.68000000  1.0 -0.0577864155
C  C121  1  0.03510000  0.80510000  0.80900000  1.0 0.0306654003
C  C122  1  0.13250000  0.77650000  0.59700000  1.0 0.2704053983
C  C123  1  0.03120000  0.83460000  0.09500000  1.0 -0.0542198536
C  C124  1  0.06080000  0.78770000  0.65300000  1.0 -0.1108719375
C  C125  1  0.03680000  0.76120000  0.83700000  1.0 0.0587989988
C  C126  1  0.13310000  0.74230000  0.62000000  1.0 0.2780656885
C  C127  1  0.03660000  0.79730000  0.11800000  1.0 -0.0040562082
C  C128  1  0.06160000  0.74100000  0.68000000  1.0 -0.0577864155
S  S1  1  0.26580000  0.50000000  0.50500000  1.0 0.0306654003
S  S2  1  0.21860000  0.50000000  0.53310000  1.0 0.0211689785
S  S3  1  0.73420000  0.50000000  0.50500000  1.0 0.0306654003
S  S4  1  0.78140000  0.50000000  0.53310000  1.0 0.0211689785
S  S5  1  0.00000000  0.23420000  0.50500000  1.0 0.0306654003
S  S6  1  0.00000000  0.28140000  0.53310000  1.0 0.0211689785
S  S7  1  0.00000000  0.76580000  0.50500000  1.0 0.0306654003
S  S8  1  0.00000000  0.71860000  0.53310000  1.0 0.0211689785
S  S9  1  0.76580000  0.00000000  0.49500000  1.0 0.0306654003
S  S10  1  0.71860000  0.00000000  0.46690000  1.0 0.0211689785
S  S11  1  0.23420000  0.00000000  0.49500000  1.0 0.0306654003
S  S12  1  0.28140000  0.00000000  0.46690000  1.0 0.0211689785
S  S13  1  0.50000000  0.26580000  0.49500000  1.0 0.0306654003
S  S14  1  0.50000000  0.21860000  0.46690000  1.0 0.0211689785
S  S15  1  0.50000000  0.73420000  0.49500000  1.0 0.0306654003
S  S16  1  0.50000000  0.78140000  0.46690000  1.0 0.0211689785
O  O1  1  0.29420000  0.67720000  0.71100000  1.0 -0.2462665865
O  O2  1  0.32320000  0.57220000  0.95300000  1.0 -0.0997167848
O  O3  1  0.25610000  0.64130000  0.44450000  1.0 -0.1897062887
O  O4  1  0.28050000  0.57310000  0.97640000  1.0 -0.0663613425
O  O5  1  0.22490000  0.64330000  0.46300000  1.0 -0.1652877261
O  O6  1  0.25820000  0.67640000  0.73050000  1.0 -0.2245657262
O  O7  1  0.70580000  0.32280000  0.71100000  1.0 -0.2447203626
O  O8  1  0.67680000  0.42780000  0.95300000  1.0 -0.0997167848
O  O9  1  0.74390000  0.35870000  0.44450000  1.0 -0.1897062887
O  O10  1  0.71950000  0.42690000  0.97640000  1.0 -0.0663613425
O  O11  1  0.77510000  0.35670000  0.46300000  1.0 -0.1652877261
O  O12  1  0.74180000  0.32360000  0.73050000  1.0 -0.2245657262
O  O13  1  0.17720000  0.20580000  0.71100000  1.0 -0.2447203626
O  O14  1  0.07220000  0.17680000  0.95300000  1.0 -0.0997167848
O  O15  1  0.14130000  0.24390000  0.44450000  1.0 -0.1897062887
O  O16  1  0.07310000  0.21950000  0.97640000  1.0 -0.0663613425
O  O17  1  0.14330000  0.27510000  0.46300000  1.0 -0.1652877261
O  O18  1  0.17640000  0.24180000  0.73050000  1.0 -0.2245657262
O  O19  1  0.82280000  0.79420000  0.71100000  1.0 -0.2462665865
O  O20  1  0.92780000  0.82320000  0.95300000  1.0 -0.0997167848
O  O21  1  0.85870000  0.75610000  0.44450000  1.0 -0.1897062887
O  O22  1  0.92690000  0.78050000  0.97640000  1.0 -0.0663613425
O  O23  1  0.85670000  0.72490000  0.46300000  1.0 -0.1652877261
O  O24  1  0.82360000  0.75820000  0.73050000  1.0 -0.2245657262
O  O25  1  0.79420000  0.82280000  0.28900000  1.0 -0.2462665865
O  O26  1  0.82320000  0.92780000  0.04700000  1.0 -0.0997167848
O  O27  1  0.75610000  0.85870000  0.55550000  1.0 -0.1897062887
O  O28  1  0.78050000  0.92690000  0.02360000  1.0 -0.0577864155
O  O29  1  0.72490000  0.85670000  0.53700000  1.0 -0.1652877261
O  O30  1  0.75820000  0.82360000  0.26950000  1.0 -0.2245657262
O  O31  1  0.20580000  0.17720000  0.28900000  1.0 -0.2462665865
O  O32  1  0.17680000  0.07220000  0.04700000  1.0 -0.0997167848
O  O33  1  0.24390000  0.14130000  0.55550000  1.0 -0.1897062887
O  O34  1  0.21950000  0.07310000  0.02360000  1.0 -0.0663613425
O  O35  1  0.27510000  0.14330000  0.53700000  1.0 -0.1652877261
O  O36  1  0.24180000  0.17640000  0.26950000  1.0 -0.2245657262
O  O37  1  0.67720000  0.29420000  0.28900000  1.0 -0.2462665865
O  O38  1  0.57220000  0.32320000  0.04700000  1.0 -0.0997167848
O  O39  1  0.64130000  0.25610000  0.55550000  1.0 -0.1897062887
O  O40  1  0.57310000  0.28050000  0.02360000  1.0 -0.0663613425
O  O41  1  0.64330000  0.22490000  0.53700000  1.0 -0.1652877261
O  O42  1  0.67640000  0.25820000  0.26950000  1.0 -0.2245657262
O  O43  1  0.32280000  0.70580000  0.28900000  1.0 -0.2462665865
O  O44  1  0.42780000  0.67680000  0.04700000  1.0 -0.0997167848
O  O45  1  0.35870000  0.74390000  0.55550000  1.0 -0.1897062887
O  O46  1  0.42690000  0.71950000  0.02360000  1.0 -0.0663613425
O  O47  1  0.35670000  0.77510000  0.53700000  1.0 -0.1652877261
O  O48  1  0.32360000  0.74180000  0.26950000  1.0 -0.2245657262
O  O49  1  0.20580000  0.82280000  0.28900000  1.0 -0.2462665865
O  O50  1  0.17680000  0.92780000  0.04700000  1.0 -0.0997167848
O  O51  1  0.24390000  0.85870000  0.55550000  1.0 -0.1897062887
O  O52  1  0.21950000  0.92690000  0.02360000  1.0 -0.0663613425
O  O53  1  0.27510000  0.85670000  0.53700000  1.0 -0.1652877261
O  O54  1  0.24180000  0.82360000  0.26950000  1.0 -0.2245657262
O  O55  1  0.79420000  0.17720000  0.28900000  1.0 -0.2462665865
O  O56  1  0.82320000  0.07220000  0.04700000  1.0 -0.0997167848
O  O57  1  0.75610000  0.14130000  0.55550000  1.0 -0.1897062887
O  O58  1  0.78050000  0.07310000  0.02360000  1.0 -0.0663613425
O  O59  1  0.72490000  0.14330000  0.53700000  1.0 -0.1652877261
O  O60  1  0.75820000  0.17640000  0.26950000  1.0 -0.2245657262
O  O61  1  0.32280000  0.29420000  0.28900000  1.0 -0.2462665865
O  O62  1  0.42780000  0.32320000  0.04700000  1.0 -0.0997167848
O  O63  1  0.35870000  0.25610000  0.55550000  1.0 -0.1897062887
O  O64  1  0.42690000  0.28050000  0.02360000  1.0 -0.0663613425
O  O65  1  0.35670000  0.22490000  0.53700000  1.0 -0.1652877261
O  O66  1  0.32360000  0.25820000  0.26950000  1.0 -0.2245657262
O  O67  1  0.67720000  0.70580000  0.28900000  1.0 -0.2462665865
O  O68  1  0.57220000  0.67680000  0.04700000  1.0 -0.0997167848
O  O69  1  0.64130000  0.74390000  0.55550000  1.0 -0.1897062887
O  O70  1  0.57310000  0.71950000  0.02360000  1.0 -0.0663613425
O  O71  1  0.64330000  0.77510000  0.53700000  1.0 -0.1652877261
O  O72  1  0.67640000  0.74180000  0.26950000  1.0 -0.2245657262
O  O73  1  0.70580000  0.67720000  0.71100000  1.0 -0.2462665865
O  O74  1  0.67680000  0.57220000  0.95300000  1.0 -0.0997167848
O  O75  1  0.74390000  0.64130000  0.44450000  1.0 -0.1897062887
O  O76  1  0.71950000  0.57310000  0.97640000  1.0 -0.0663613425
O  O77  1  0.77510000  0.64330000  0.46300000  1.0 -0.1652877261
O  O78  1  0.74180000  0.67640000  0.73050000  1.0 -0.2245657262
O  O79  1  0.29420000  0.32280000  0.71100000  1.0 -0.2447203626
O  O80  1  0.32320000  0.42780000  0.95300000  1.0 -0.0997167848
O  O81  1  0.25610000  0.35870000  0.44450000  1.0 -0.1897062887
O  O82  1  0.28050000  0.42690000  0.97640000  1.0 -0.0663613425
O  O83  1  0.22490000  0.35670000  0.46300000  1.0 -0.1652877261
O  O84  1  0.25820000  0.32360000  0.73050000  1.0 -0.2245657262
O  O85  1  0.82280000  0.20580000  0.71100000  1.0 -0.2447203626
O  O86  1  0.92780000  0.17680000  0.95300000  1.0 -0.0997167848
O  O87  1  0.85870000  0.24390000  0.44450000  1.0 -0.1897062887
O  O88  1  0.92690000  0.21950000  0.97640000  1.0 -0.0663613425
O  O89  1  0.85670000  0.27510000  0.46300000  1.0 -0.1652877261
O  O90  1  0.82360000  0.24180000  0.73050000  1.0 -0.2245657262
O  O91  1  0.17720000  0.79420000  0.71100000  1.0 -0.2462665865
O  O92  1  0.07220000  0.82320000  0.95300000  1.0 -0.0997167848
O  O93  1  0.14130000  0.75610000  0.44450000  1.0 -0.1897062887
O  O94  1  0.07310000  0.78050000  0.97640000  1.0 -0.0663613425
O  O95  1  0.14330000  0.72490000  0.46300000  1.0 -0.1652877261
O  O96  1  0.17640000  0.75820000  0.73050000  1.0 -0.2245657262
