# DDEC6 charges by PACMAN v1.1 (https://github.com/mtap-research/PACMAN-charge/)
data_COQGAS_ASR_pacman
_symmetry_space_group_name_H-M   'P 1'
_cell_length_a   14.26240000
_cell_length_b   14.26240000
_cell_length_c   16.25300000
_cell_angle_alpha   78.10890000
_cell_angle_beta   101.89100000
_cell_angle_gamma   62.98020000
_symmetry_Int_Tables_number   1
_chemical_formula_structural   ZnH15C23N2O5
_chemical_formula_sum   'Zn4 H60 C92 N8 O20'
_cell_volume   2706.42363633
_cell_formula_units_Z   4
loop_
 _symmetry_equiv_pos_site_id
 _symmetry_equiv_pos_as_xyz
  1  'x, y, z'
loop_
 _atom_site_type_symbol
 _atom_site_label
 _atom_site_symmetry_multiplicity
 _atom_site_fract_x
 _atom_site_fract_y
 _atom_site_fract_z
 _atom_site_occupancy
 _atom_site_charge
Zn  Zn1  1  0.56790000  0.40520000  0.36224000  1.0 0.8391275336
Zn  Zn2  1  0.40520000  0.56790000  0.13776000  1.0 0.8391275336
Zn  Zn3  1  0.43210000  0.59480000  0.63776000  1.0 0.8391275336
Zn  Zn4  1  0.59480000  0.43210000  0.86224000  1.0 0.8391275336
H  H1  1  0.62920000  0.68620000  0.37820000  1.0 0.117080322
H  H2  1  0.68620000  0.62920000  0.12180000  1.0 0.117080322
H  H3  1  0.37080000  0.31380000  0.62180000  1.0 0.117080322
H  H4  1  0.31380000  0.37080000  0.87820000  1.0 0.117080322
H  H5  1  0.72760000  0.77940000  0.38710000  1.0 0.1366363564
H  H6  1  0.77940000  0.72760000  0.11290000  1.0 0.1366363564
H  H7  1  0.27240000  0.22060000  0.61290000  1.0 0.1366363564
H  H8  1  0.22060000  0.27240000  0.88710000  1.0 0.1366363564
H  H9  1  0.97940000  0.53140000  0.34120000  1.0 0.1277068471
H  H10  1  0.53140000  0.97940000  0.15880000  1.0 0.1277068471
H  H11  1  0.02060000  0.46860000  0.65880000  1.0 0.1277068471
H  H12  1  0.46860000  0.02060000  0.84120000  1.0 0.1277068471
H  H13  1  0.88020000  0.43760000  0.33550000  1.0 0.117080322
H  H14  1  0.43760000  0.88020000  0.16450000  1.0 0.117080322
H  H15  1  0.11980000  0.56240000  0.66450000  1.0 0.117080322
H  H16  1  0.56240000  0.11980000  0.83550000  1.0 0.117080322
H  H17  1  0.94050000  0.76670000  0.21390000  1.0 0.1366363564
H  H18  1  0.76670000  0.94050000  0.28610000  1.0 0.1366363564
H  H19  1  0.05950000  0.23330000  0.78610000  1.0 0.1366363564
H  H20  1  0.23330000  0.05950000  0.71390000  1.0 0.1366363564
H  H21  1  0.10730000  0.69650000  0.18360000  1.0 0.117080322
H  H22  1  0.69650000  0.10730000  0.31640000  1.0 0.117080322
H  H23  1  0.89270000  0.30350000  0.81640000  1.0 0.117080322
H  H24  1  0.30350000  0.89270000  0.68360000  1.0 0.117080322
H  H25  1  0.28410000  0.51430000  0.44670000  1.0 0.117080322
H  H26  1  0.51430000  0.28410000  0.05330000  1.0 0.117080322
H  H27  1  0.71590000  0.48570000  0.55330000  1.0 0.117080322
H  H28  1  0.48570000  0.71590000  0.94670000  1.0 0.117080322
H  H29  1  0.11720000  0.58860000  0.47820000  1.0 0.1277068471
H  H30  1  0.58860000  0.11720000  0.02180000  1.0 0.1277068471
H  H31  1  0.88280000  0.41140000  0.52180000  1.0 0.1277068471
H  H32  1  0.41140000  0.88280000  0.97820000  1.0 0.1277068471
H  H33  1  0.50390000  0.37330000  0.52590000  1.0 0.117080322
H  H34  1  0.37330000  0.50390000  0.97410000  1.0 0.117080322
H  H35  1  0.49610000  0.62670000  0.47410000  1.0 0.117080322
H  H36  1  0.62670000  0.49610000  0.02590000  1.0 0.117080322
H  H37  1  0.58460000  0.28160000  0.67770000  1.0 0.1477903207
H  H38  1  0.28160000  0.58460000  0.82230000  1.0 0.1477903207
H  H39  1  0.41540000  0.71840000  0.32230000  1.0 0.1477903207
H  H40  1  0.71840000  0.41540000  0.17770000  1.0 0.1477903207
H  H41  1  0.88290000  0.11370000  0.64340000  1.0 0.1277068471
H  H42  1  0.11370000  0.88290000  0.85660000  1.0 0.1277068471
H  H43  1  0.11710000  0.88630000  0.35660000  1.0 0.1277068471
H  H44  1  0.88630000  0.11710000  0.14340000  1.0 0.1277068471
H  H45  1  0.79290000  0.20930000  0.49050000  1.0 0.1094316025
H  H46  1  0.20930000  0.79290000  0.00950000  1.0 0.1094316025
H  H47  1  0.20710000  0.79070000  0.50950000  1.0 0.1094316025
H  H48  1  0.79070000  0.20710000  0.99050000  1.0 0.1094316025
H  H49  1  0.75290000  0.14830000  0.81300000  1.0 0.1043689107
H  H50  1  0.14830000  0.75290000  0.68700000  1.0 0.1043689107
H  H51  1  0.24710000  0.85170000  0.18700000  1.0 0.1043689107
H  H52  1  0.85170000  0.24710000  0.31300000  1.0 0.1043689107
H  H53  1  0.07420000  0.07460000  0.90860000  1.0 0.1277068471
H  H54  1  0.07460000  0.07420000  0.59140000  1.0 0.1277068471
H  H55  1  0.92580000  0.92540000  0.09140000  1.0 0.1277068471
H  H56  1  0.92540000  0.92580000  0.40860000  1.0 0.1277068471
H  H57  1  0.84380000  0.98880000  0.93610000  1.0 0.1277068471
H  H58  1  0.98880000  0.84380000  0.56390000  1.0 0.1277068471
H  H59  1  0.15620000  0.01120000  0.06390000  1.0 0.1277068471
H  H60  1  0.01120000  0.15620000  0.43610000  1.0 0.1277068471
C  C1  1  0.74570000  0.55290000  0.35690000  1.0 -0.0572718973
C  C2  1  0.55290000  0.74570000  0.14310000  1.0 -0.0572718973
C  C3  1  0.25430000  0.44710000  0.64310000  1.0 -0.0572718973
C  C4  1  0.44710000  0.25430000  0.85690000  1.0 -0.0572718973
C  C5  1  0.70064000  0.65464000  0.37140000  1.0 -0.0791299021
C  C6  1  0.65464000  0.70064000  0.12860000  1.0 -0.0791299021
C  C7  1  0.29936000  0.34536000  0.62860000  1.0 -0.0791299021
C  C8  1  0.34536000  0.29936000  0.87140000  1.0 -0.0791299021
C  C9  1  0.75816000  0.71056000  0.37590000  1.0 -0.2167920689
C  C10  1  0.71056000  0.75816000  0.12410000  1.0 -0.2167920689
C  C11  1  0.24184000  0.28944000  0.62410000  1.0 -0.2167920689
C  C12  1  0.28944000  0.24184000  0.87590000  1.0 -0.2167920689
C  C13  1  0.86197000  0.66437000  0.36370000  1.0 0.2717459132
C  C14  1  0.66437000  0.86197000  0.13630000  1.0 0.2717459132
C  C15  1  0.13803000  0.33563000  0.63630000  1.0 0.2717459132
C  C16  1  0.33563000  0.13803000  0.86370000  1.0 0.2717459132
C  C17  1  0.90853000  0.56253000  0.34890000  1.0 -0.2340412806
C  C18  1  0.56253000  0.90853000  0.15110000  1.0 -0.2340412806
C  C19  1  0.09147000  0.43747000  0.65110000  1.0 -0.2340412806
C  C20  1  0.43747000  0.09147000  0.84890000  1.0 -0.2340412806
C  C21  1  0.84944000  0.50704000  0.34560000  1.0 -0.0791299021
C  C22  1  0.50704000  0.84944000  0.15440000  1.0 -0.0791299021
C  C23  1  0.15056000  0.49296000  0.65440000  1.0 -0.0791299021
C  C24  1  0.49296000  0.15056000  0.84560000  1.0 -0.0791299021
C  C25  1  0.68607000  0.49047000  0.35580000  1.0 0.5457526376
C  C26  1  0.49047000  0.68607000  0.14420000  1.0 0.5457526376
C  C27  1  0.31393000  0.50953000  0.64420000  1.0 0.5457526376
C  C28  1  0.50953000  0.31393000  0.85580000  1.0 0.5457526376
C  C29  1  0.01441000  0.68241000  0.34900000  1.0 0.2527630856
C  C30  1  0.68241000  0.01441000  0.15100000  1.0 0.2527630856
C  C31  1  0.98559000  0.31759000  0.65100000  1.0 0.2527630856
C  C32  1  0.31759000  0.98559000  0.84900000  1.0 0.2527630856
C  C33  1  0.01016000  0.71556000  0.26090000  1.0 -0.2057293593
C  C34  1  0.71556000  0.01016000  0.23910000  1.0 -0.2057293593
C  C35  1  0.98984000  0.28444000  0.73910000  1.0 -0.2057293593
C  C36  1  0.28444000  0.98984000  0.76090000  1.0 -0.2057293593
C  C37  1  0.10878000  0.67278000  0.24320000  1.0 -0.0791299021
C  C38  1  0.67278000  0.10878000  0.25680000  1.0 -0.0791299021
C  C39  1  0.89122000  0.32722000  0.75680000  1.0 -0.0791299021
C  C40  1  0.32722000  0.89122000  0.74320000  1.0 -0.0791299021
C  C41  1  0.21119000  0.59479000  0.31160000  1.0 -0.0464901156
C  C42  1  0.59479000  0.21119000  0.18840000  1.0 -0.0464901156
C  C43  1  0.78881000  0.40521000  0.68840000  1.0 -0.0464901156
C  C44  1  0.40521000  0.78881000  0.81160000  1.0 -0.0464901156
C  C45  1  0.21441000  0.56481000  0.39950000  1.0 -0.0791299021
C  C46  1  0.56481000  0.21441000  0.10050000  1.0 -0.0791299021
C  C47  1  0.78559000  0.43519000  0.60050000  1.0 -0.0791299021
C  C48  1  0.43519000  0.78559000  0.89950000  1.0 -0.0791299021
C  C49  1  0.11560000  0.60880000  0.41820000  1.0 -0.2057293593
C  C50  1  0.60880000  0.11560000  0.08180000  1.0 -0.2057293593
C  C51  1  0.88440000  0.39120000  0.58180000  1.0 -0.2057293593
C  C52  1  0.39120000  0.88440000  0.91820000  1.0 -0.2057293593
C  C53  1  0.31691000  0.54751000  0.28980000  1.0 0.5937582781
C  C54  1  0.54751000  0.31691000  0.21020000  1.0 0.5937582781
C  C55  1  0.68309000  0.45249000  0.71020000  1.0 0.5937582781
C  C56  1  0.45249000  0.68309000  0.78980000  1.0 0.5937582781
C  C57  1  0.58216000  0.32016000  0.55020000  1.0 0.0912509416
C  C58  1  0.32016000  0.58216000  0.94980000  1.0 0.0912509416
C  C59  1  0.41784000  0.67984000  0.44980000  1.0 0.0912509416
C  C60  1  0.67984000  0.41784000  0.05020000  1.0 0.0912509416
C  C61  1  0.62910000  0.26610000  0.64050000  1.0 -0.1657929788
C  C62  1  0.26610000  0.62910000  0.85950000  1.0 -0.1657929788
C  C63  1  0.37090000  0.73390000  0.35950000  1.0 -0.1657929788
C  C64  1  0.73390000  0.37090000  0.14050000  1.0 -0.1657929788
C  C65  1  0.74356000  0.18776000  0.67700000  1.0 0.117080322
C  C66  1  0.18776000  0.74356000  0.82300000  1.0 0.117080322
C  C67  1  0.25644000  0.81224000  0.32300000  1.0 0.117080322
C  C68  1  0.81224000  0.25644000  0.17700000  1.0 0.117080322
C  C69  1  0.80467000  0.16707000  0.62020000  1.0 -0.1613227645
C  C70  1  0.16707000  0.80467000  0.87980000  1.0 -0.1613227645
C  C71  1  0.19533000  0.83293000  0.37980000  1.0 -0.1613227645
C  C72  1  0.83293000  0.19533000  0.12020000  1.0 -0.1613227645
C  C73  1  0.75068000  0.22488000  0.52930000  1.0 0.0766952956
C  C74  1  0.22488000  0.75068000  0.97070000  1.0 0.0766952956
C  C75  1  0.24932000  0.77512000  0.47070000  1.0 0.0766952956
C  C76  1  0.77512000  0.24932000  0.02930000  1.0 0.0766952956
C  C77  1  0.79797000  0.13757000  0.77610000  1.0 0.0662420248
C  C78  1  0.13757000  0.79797000  0.72390000  1.0 0.0662420248
C  C79  1  0.20203000  0.86243000  0.22390000  1.0 0.0662420248
C  C80  1  0.86243000  0.20203000  0.27610000  1.0 0.0662420248
C  C81  1  0.94911000  0.03891000  0.90680000  1.0 0.1860527625
C  C82  1  0.03891000  0.94911000  0.59320000  1.0 0.1860527625
C  C83  1  0.05089000  0.96109000  0.09320000  1.0 0.1860527625
C  C84  1  0.96109000  0.05089000  0.40680000  1.0 0.1860527625
C  C85  1  0.04411000  0.04451000  0.94590000  1.0 -0.1613227645
C  C86  1  0.04451000  0.04411000  0.55410000  1.0 -0.1613227645
C  C87  1  0.95589000  0.95549000  0.05410000  1.0 -0.1613227645
C  C88  1  0.95549000  0.95589000  0.44590000  1.0 -0.1613227645
C  C89  1  0.90684000  0.99364000  0.96180000  1.0 -0.1851836662
C  C90  1  0.99364000  0.90684000  0.53820000  1.0 -0.1851836662
C  C91  1  0.09316000  0.00636000  0.03820000  1.0 -0.1851836662
C  C92  1  0.00636000  0.09316000  0.46180000  1.0 -0.1851836662
N  N1  1  0.63925000  0.30325000  0.49330000  1.0 -0.2406581859
N  N2  1  0.30325000  0.63925000  0.00670000  1.0 -0.2406581859
N  N3  1  0.36075000  0.69675000  0.50670000  1.0 -0.2406581859
N  N4  1  0.69675000  0.36075000  0.99330000  1.0 -0.2406581859
N  N5  1  0.90337000  0.08077000  0.81160000  1.0 -0.2711358736
N  N6  1  0.08077000  0.90337000  0.68840000  1.0 -0.2711358736
N  N7  1  0.09663000  0.91923000  0.18840000  1.0 -0.2711358736
N  N8  1  0.91923000  0.09663000  0.31160000  1.0 -0.2711358736
O  O1  1  0.91529000  0.72489000  0.36860000  1.0 -0.2340412806
O  O2  1  0.72489000  0.91529000  0.13140000  1.0 -0.2340412806
O  O3  1  0.08471000  0.27511000  0.63140000  1.0 -0.2340412806
O  O4  1  0.27511000  0.08471000  0.86860000  1.0 -0.2340412806
O  O5  1  0.58488000  0.53848000  0.35710000  1.0 -0.5603389214
O  O6  1  0.53848000  0.58488000  0.14290000  1.0 -0.5603389214
O  O7  1  0.41512000  0.46152000  0.64290000  1.0 -0.5603389214
O  O8  1  0.46152000  0.41512000  0.85710000  1.0 -0.5603389214
O  O9  1  0.73242000  0.39222000  0.35530000  1.0 -0.5506405304
O  O10  1  0.39222000  0.73242000  0.14470000  1.0 -0.5506405304
O  O11  1  0.26758000  0.60778000  0.64470000  1.0 -0.5506405304
O  O12  1  0.60778000  0.26758000  0.85530000  1.0 -0.5506405304
O  O13  1  0.40736000  0.47596000  0.35390000  1.0 -0.5506405304
O  O14  1  0.47596000  0.40736000  0.14610000  1.0 -0.5506405304
O  O15  1  0.59264000  0.52404000  0.64610000  1.0 -0.5506405304
O  O16  1  0.52404000  0.59264000  0.85390000  1.0 -0.5506405304
O  O17  1  0.30741000  0.58241000  0.20960000  1.0 -0.5356170009
O  O18  1  0.58241000  0.30741000  0.29040000  1.0 -0.5356170009
O  O19  1  0.69259000  0.41759000  0.79040000  1.0 -0.5356170009
O  O20  1  0.41759000  0.69259000  0.70960000  1.0 -0.5356170009
