# DDEC6 charges by PACMAN v1.1 (https://github.com/mtap-research/PACMAN-charge/)
data_COQJUP_ASR_pacman
_symmetry_space_group_name_H-M   'P 1'
_cell_length_a   12.35200000
_cell_length_b   33.72500000
_cell_length_c   13.03000000
_cell_angle_alpha   90.00000000
_cell_angle_beta   96.63000000
_cell_angle_gamma   90.00000000
_symmetry_Int_Tables_number   1
_chemical_formula_structural   Mn3H74RhC89(N6O7)2
_chemical_formula_sum   'Mn6 H148 Rh2 C178 N24 O28'
_cell_volume   5391.62322307
_cell_formula_units_Z   2
loop_
 _symmetry_equiv_pos_site_id
 _symmetry_equiv_pos_as_xyz
  1  'x, y, z'
loop_
 _atom_site_type_symbol
 _atom_site_label
 _atom_site_symmetry_multiplicity
 _atom_site_fract_x
 _atom_site_fract_y
 _atom_site_fract_z
 _atom_site_occupancy
 _atom_site_charge
Mn  Mn1  1  0.29072000  0.56545000  0.89373000  1.0 0.8592539474
Mn  Mn2  1  0.70928000  0.06545000  0.10627000  1.0 0.8592539474
Mn  Mn3  1  0.70928000  0.43455000  0.10627000  1.0 0.8592539474
Mn  Mn4  1  0.29072000  0.93455000  0.89373000  1.0 0.8592539474
Mn  Mn5  1  0.50000000  0.50000000  0.00000000  1.0 1.0544946834
Mn  Mn6  1  0.50000000  0.00000000  0.00000000  1.0 1.0544946834
H  H1  1  0.18200000  0.66960000  0.72560000  1.0 0.1283161296
H  H2  1  0.81800000  0.16960000  0.27440000  1.0 0.1283161296
H  H3  1  0.81800000  0.33040000  0.27440000  1.0 0.1283161296
H  H4  1  0.18200000  0.83040000  0.72560000  1.0 0.1283161296
H  H5  1  0.26250000  0.64930000  0.81560000  1.0 0.1492210024
H  H6  1  0.73750000  0.14930000  0.18440000  1.0 0.1492210024
H  H7  1  0.73750000  0.35070000  0.18440000  1.0 0.1492210024
H  H8  1  0.26250000  0.85070000  0.81560000  1.0 0.1492210024
H  H9  1  0.81950000  0.25000000  0.61500000  1.0 0.1402110077
H  H10  1  0.18050000  0.75000000  0.38500000  1.0 0.1402110077
H  H11  1  0.93460000  0.25000000  0.56940000  1.0 0.1283161296
H  H12  1  0.06540000  0.75000000  0.43060000  1.0 0.1283161296
H  H13  1  0.31530000  0.50390000  0.65520000  1.0 0.159316574
H  H14  1  0.68470000  0.00390000  0.34480000  1.0 0.159316574
H  H15  1  0.68470000  0.49610000  0.34480000  1.0 0.159316574
H  H16  1  0.31530000  0.99610000  0.65520000  1.0 0.159316574
H  H17  1  0.40320000  0.51910000  0.58310000  1.0 0.1402110077
H  H18  1  0.59680000  0.01910000  0.41690000  1.0 0.1402110077
H  H19  1  0.59680000  0.48090000  0.41690000  1.0 0.1402110077
H  H20  1  0.40320000  0.98090000  0.58310000  1.0 0.1402110077
H  H21  1  0.42520000  0.52470000  0.70570000  1.0 0.1680137411
H  H22  1  0.57480000  0.02470000  0.29430000  1.0 0.1680137411
H  H23  1  0.57480000  0.47530000  0.29430000  1.0 0.1680137411
H  H24  1  0.42520000  0.97530000  0.70570000  1.0 0.1680137411
H  H25  1  0.25310000  0.68100000  0.55580000  1.0 0.1402110077
H  H26  1  0.74690000  0.18100000  0.44420000  1.0 0.1402110077
H  H27  1  0.74690000  0.31900000  0.44420000  1.0 0.1402110077
H  H28  1  0.25310000  0.81900000  0.55580000  1.0 0.1402110077
H  H29  1  0.21840000  0.65600000  0.45290000  1.0 0.1402110077
H  H30  1  0.78160000  0.15600000  0.54710000  1.0 0.1402110077
H  H31  1  0.78160000  0.34400000  0.54710000  1.0 0.1402110077
H  H32  1  0.21840000  0.84400000  0.45290000  1.0 0.1402110077
H  H33  1  0.13210000  0.66370000  0.53340000  1.0 0.1283161296
H  H34  1  0.86790000  0.16370000  0.46660000  1.0 0.1283161296
H  H35  1  0.86790000  0.33630000  0.46660000  1.0 0.1283161296
H  H36  1  0.13210000  0.83630000  0.53340000  1.0 0.1283161296
H  H37  1  0.15660000  0.59060000  0.37800000  1.0 0.0998725472
H  H38  1  0.84340000  0.09060000  0.62200000  1.0 0.094943729
H  H39  1  0.84340000  0.40940000  0.62200000  1.0 0.094943729
H  H40  1  0.15660000  0.90940000  0.37800000  1.0 0.0998725472
H  H41  1  0.18460000  0.58450000  0.20950000  1.0 0.1185421057
H  H42  1  0.81540000  0.08450000  0.79050000  1.0 0.1185421057
H  H43  1  0.81540000  0.41550000  0.79050000  1.0 0.1185421057
H  H44  1  0.18460000  0.91550000  0.20950000  1.0 0.1185421057
H  H45  1  0.49050000  0.55050000  0.29460000  1.0 0.1185421057
H  H46  1  0.50950000  0.05050000  0.70540000  1.0 0.1185421057
H  H47  1  0.50950000  0.44950000  0.70540000  1.0 0.1185421057
H  H48  1  0.49050000  0.94950000  0.29460000  1.0 0.1185421057
H  H49  1  0.46970000  0.56500000  0.46500000  1.0 0.0998725472
H  H50  1  0.53030000  0.06500000  0.53500000  1.0 0.0998725472
H  H51  1  0.53030000  0.43500000  0.53500000  1.0 0.0998725472
H  H52  1  0.46970000  0.93500000  0.46500000  1.0 0.0998725472
H  H53  1  0.00750000  0.66920000  0.65410000  1.0 0.1283161296
H  H54  1  0.99250000  0.16920000  0.34590000  1.0 0.1283161296
H  H55  1  0.99250000  0.33080000  0.34590000  1.0 0.1283161296
H  H56  1  0.00750000  0.83080000  0.65410000  1.0 0.1283161296
H  H57  1  0.88660000  0.65760000  0.67570000  1.0 0.1492210024
H  H58  1  0.11340000  0.15760000  0.32430000  1.0 0.1492210024
H  H59  1  0.11340000  0.34240000  0.32430000  1.0 0.1492210024
H  H60  1  0.88660000  0.84240000  0.67570000  1.0 0.1492210024
H  H61  1  0.95280000  0.69090000  0.74440000  1.0 0.1402110077
H  H62  1  0.04720000  0.19090000  0.25560000  1.0 0.1402110077
H  H63  1  0.04720000  0.30910000  0.25560000  1.0 0.1402110077
H  H64  1  0.95280000  0.80910000  0.74440000  1.0 0.1402110077
H  H65  1  0.08830000  0.54870000  0.01100000  1.0 0.159316574
H  H66  1  0.91170000  0.04870000  0.98900000  1.0 0.159316574
H  H67  1  0.91170000  0.45130000  0.98900000  1.0 0.159316574
H  H68  1  0.08830000  0.95130000  0.01100000  1.0 0.159316574
H  H69  1  0.95980000  0.55640000  0.00340000  1.0 0.1492210024
H  H70  1  0.04020000  0.05640000  0.99660000  1.0 0.1492210024
H  H71  1  0.04020000  0.44360000  0.99660000  1.0 0.1492210024
H  H72  1  0.95980000  0.94360000  0.00340000  1.0 0.1492210024
H  H73  1  0.00780000  0.52660000  0.92440000  1.0 0.1492210024
H  H74  1  0.99220000  0.02660000  0.07560000  1.0 0.1492210024
H  H75  1  0.99220000  0.47340000  0.07560000  1.0 0.1492210024
H  H76  1  0.00780000  0.97340000  0.92440000  1.0 0.1492210024
H  H77  1  0.79700000  0.66190000  0.87070000  1.0 0.1101549648
H  H78  1  0.20300000  0.16190000  0.12930000  1.0 0.1101549648
H  H79  1  0.20300000  0.33810000  0.12930000  1.0 0.1101549648
H  H80  1  0.79700000  0.83810000  0.87070000  1.0 0.1101549648
H  H81  1  0.61420000  0.65240000  0.89100000  1.0 0.1185421057
H  H82  1  0.38580000  0.15240000  0.10900000  1.0 0.1185421057
H  H83  1  0.38580000  0.34760000  0.10900000  1.0 0.1185421057
H  H84  1  0.61420000  0.84760000  0.89100000  1.0 0.1185421057
H  H85  1  0.63960000  0.53660000  0.82690000  1.0 0.1185421057
H  H86  1  0.36040000  0.03660000  0.17310000  1.0 0.1185421057
H  H87  1  0.36040000  0.46340000  0.17310000  1.0 0.1185421057
H  H88  1  0.63960000  0.96340000  0.82690000  1.0 0.1185421057
H  H89  1  0.82550000  0.54520000  0.81170000  1.0 0.1185421057
H  H90  1  0.17450000  0.04520000  0.18830000  1.0 0.1185421057
H  H91  1  0.17450000  0.45480000  0.18830000  1.0 0.1185421057
H  H92  1  0.82550000  0.95480000  0.81170000  1.0 0.1185421057
H  H93  1  0.93920000  0.32860000  0.98230000  1.0 0.1492210024
H  H94  1  0.06080000  0.82860000  0.01770000  1.0 0.1492210024
H  H95  1  0.06080000  0.67140000  0.01770000  1.0 0.1492210024
H  H96  1  0.93920000  0.17140000  0.98230000  1.0 0.1492210024
H  H97  1  0.90150000  0.36910000  0.92490000  1.0 0.1492210024
H  H98  1  0.09850000  0.86910000  0.07510000  1.0 0.1492210024
H  H99  1  0.09850000  0.63090000  0.07510000  1.0 0.1492210024
H  H100  1  0.90150000  0.13090000  0.92490000  1.0 0.1492210024
H  H101  1  0.81650000  0.33333333  0.92910000  1.0 0.1492210024
H  H102  1  0.18350000  0.83333000  0.07090000  1.0 0.1492210024
H  H103  1  0.18350000  0.66666667  0.07090000  1.0 0.1492210024
H  H104  1  0.81650000  0.16667000  0.92910000  1.0 0.1492210024
H  H105  1  0.04670000  0.31460000  0.53820000  1.0 0.1402110077
H  H106  1  0.95330000  0.81460000  0.46180000  1.0 0.1402110077
H  H107  1  0.95330000  0.68540000  0.46180000  1.0 0.1402110077
H  H108  1  0.04670000  0.18540000  0.53820000  1.0 0.1402110077
H  H109  1  0.14120000  0.33220000  0.61970000  1.0 0.1492210024
H  H110  1  0.85880000  0.83220000  0.38030000  1.0 0.1492210024
H  H111  1  0.85880000  0.66780000  0.38030000  1.0 0.1492210024
H  H112  1  0.14120000  0.16780000  0.61970000  1.0 0.1492210024
H  H113  1  0.12520000  0.28530000  0.60900000  1.0 0.1402110077
H  H114  1  0.87480000  0.78530000  0.39100000  1.0 0.1402110077
H  H115  1  0.87480000  0.71470000  0.39100000  1.0 0.1402110077
H  H116  1  0.12520000  0.21470000  0.60900000  1.0 0.1402110077
H  H117  1  0.20180000  0.34520000  0.87590000  1.0 0.1185421057
H  H118  1  0.79820000  0.84520000  0.12410000  1.0 0.1185421057
H  H119  1  0.79820000  0.65480000  0.12410000  1.0 0.1185421057
H  H120  1  0.20180000  0.15480000  0.87590000  1.0 0.1185421057
H  H121  1  0.30880000  0.40080000  0.91760000  1.0 0.1185421057
H  H122  1  0.69120000  0.90080000  0.08240000  1.0 0.1185421057
H  H123  1  0.69120000  0.59920000  0.08240000  1.0 0.1185421057
H  H124  1  0.30880000  0.09920000  0.91760000  1.0 0.1185421057
H  H125  1  0.08180000  0.46770000  0.76100000  1.0 0.1283161296
H  H126  1  0.91820000  0.96770000  0.23900000  1.0 0.1283161296
H  H127  1  0.91820000  0.53230000  0.23900000  1.0 0.1283161296
H  H128  1  0.08180000  0.03230000  0.76100000  1.0 0.1283161296
H  H129  1  0.98080000  0.41250000  0.71730000  1.0 0.1185421057
H  H130  1  0.01920000  0.91250000  0.28270000  1.0 0.1185421057
H  H131  1  0.01920000  0.58750000  0.28270000  1.0 0.1185421057
H  H132  1  0.98080000  0.08750000  0.71730000  1.0 0.1185421057
H  H133  1  0.37380000  0.63170000  0.40790000  1.0 0.0998725472
H  H134  1  0.62620000  0.13170000  0.59210000  1.0 0.0998725472
H  H135  1  0.62620000  0.36830000  0.59210000  1.0 0.0998725472
H  H136  1  0.37380000  0.86830000  0.40790000  1.0 0.0998725472
H  H137  1  0.37540000  0.62170000  0.23040000  1.0 0.1101549648
H  H138  1  0.62460000  0.12170000  0.76960000  1.0 0.1101549648
H  H139  1  0.62460000  0.37830000  0.76960000  1.0 0.1101549648
H  H140  1  0.37540000  0.87830000  0.23040000  1.0 0.1101549648
H  H141  1  0.23360000  0.51430000  0.25420000  1.0 0.0998725472
H  H142  1  0.76640000  0.01430000  0.74580000  1.0 0.0998725472
H  H143  1  0.76640000  0.48570000  0.74580000  1.0 0.0998725472
H  H144  1  0.23360000  0.98570000  0.25420000  1.0 0.0998725472
H  H145  1  0.23200000  0.52430000  0.43180000  1.0 0.0998725472
H  H146  1  0.76800000  0.02430000  0.56820000  1.0 0.0998725472
H  H147  1  0.76800000  0.47570000  0.56820000  1.0 0.0998725472
H  H148  1  0.23200000  0.97570000  0.43180000  1.0 0.0998725472
Rh  Rh1  1  0.76679000  0.25000000  0.81852000  1.0 0.0623542134
Rh  Rh2  1  0.23321000  0.75000000  0.18148000  1.0 0.0623542134
C  C1  1  0.20310000  0.64407000  0.75950000  1.0 -0.0887228452
C  C2  1  0.79690000  0.14407000  0.24050000  1.0 -0.0887228452
C  C3  1  0.79690000  0.35593000  0.24050000  1.0 -0.0887228452
C  C4  1  0.20310000  0.85593000  0.75950000  1.0 -0.0887228452
C  C5  1  0.89940000  0.25000000  0.63390000  1.0 -0.0887228452
C  C6  1  0.10060000  0.75000000  0.36610000  1.0 -0.0887228452
C  C7  1  0.24510000  0.62133000  0.58230000  1.0 0.0623542134
C  C8  1  0.75490000  0.12133000  0.41770000  1.0 0.0654559627
C  C9  1  0.75490000  0.37867000  0.41770000  1.0 0.0654559627
C  C10  1  0.24510000  0.87867000  0.58230000  1.0 0.0623542134
C  C11  1  0.29130000  0.58779000  0.54850000  1.0 -0.0887228452
C  C12  1  0.70870000  0.08779000  0.45150000  1.0 -0.0887228452
C  C13  1  0.70870000  0.41221000  0.45150000  1.0 -0.0887228452
C  C14  1  0.29130000  0.91221000  0.54850000  1.0 -0.0887228452
C  C15  1  0.31470000  0.56373000  0.63680000  1.0 0.1909378812
C  C16  1  0.68530000  0.06373000  0.36320000  1.0 0.1909378812
C  C17  1  0.68530000  0.43627000  0.36320000  1.0 0.1909378812
C  C18  1  0.31470000  0.93627000  0.63680000  1.0 0.1909378812
C  C19  1  0.36920000  0.52456000  0.64590000  1.0 -0.4912575032
C  C20  1  0.63080000  0.02456000  0.35410000  1.0 -0.4912575032
C  C21  1  0.63080000  0.47544000  0.35410000  1.0 -0.4912575032
C  C22  1  0.36920000  0.97544000  0.64590000  1.0 -0.4912575032
C  C23  1  0.20900000  0.65880000  0.52620000  1.0 -0.5121487235
C  C24  1  0.79100000  0.15880000  0.47380000  1.0 -0.5121487235
C  C25  1  0.79100000  0.34120000  0.47380000  1.0 -0.5121487235
C  C26  1  0.20900000  0.84120000  0.52620000  1.0 -0.5121487235
C  C27  1  0.34850000  0.55357000  0.12290000  1.0 0.4653721496
C  C28  1  0.65150000  0.05357000  0.87710000  1.0 0.4653721496
C  C29  1  0.65150000  0.44643000  0.87710000  1.0 0.4653721496
C  C30  1  0.34850000  0.94643000  0.12290000  1.0 0.4653721496
C  C31  1  0.30940000  0.57887000  0.44310000  1.0 0.0288988571
C  C32  1  0.69060000  0.07887000  0.55690000  1.0 0.0288988571
C  C33  1  0.69060000  0.42113000  0.55690000  1.0 0.0288988571
C  C34  1  0.30940000  0.92113000  0.44310000  1.0 0.0288988571
C  C35  1  0.22710000  0.58330000  0.36220000  1.0 -0.0568064688
C  C36  1  0.77290000  0.08330000  0.63780000  1.0 -0.0568064688
C  C37  1  0.77290000  0.41670000  0.63780000  1.0 -0.0568064688
C  C38  1  0.22710000  0.91670000  0.36220000  1.0 -0.0568064688
C  C39  1  0.24160000  0.57780000  0.26200000  1.0 -0.0321031671
C  C40  1  0.75840000  0.07780000  0.73800000  1.0 -0.0321031671
C  C41  1  0.75840000  0.42220000  0.73800000  1.0 -0.0321031671
C  C42  1  0.24160000  0.92220000  0.26200000  1.0 -0.0321031671
C  C43  1  0.42150000  0.55900000  0.31150000  1.0 -0.1302750066
C  C44  1  0.57850000  0.05900000  0.68850000  1.0 -0.1302750066
C  C45  1  0.57850000  0.44100000  0.68850000  1.0 -0.1302750066
C  C46  1  0.42150000  0.94100000  0.31150000  1.0 -0.1302750066
C  C47  1  0.40870000  0.56730000  0.41380000  1.0 -0.0673415829
C  C48  1  0.59130000  0.06730000  0.58620000  1.0 -0.0673415829
C  C49  1  0.59130000  0.43270000  0.58620000  1.0 -0.0568064688
C  C50  1  0.40870000  0.93270000  0.41380000  1.0 -0.0673415829
C  C51  1  0.33710000  0.56272000  0.23510000  1.0 0.0233808023
C  C52  1  0.66290000  0.06272000  0.76490000  1.0 0.0233808023
C  C53  1  0.66290000  0.43728000  0.76490000  1.0 0.0233808023
C  C54  1  0.33710000  0.93728000  0.23510000  1.0 0.0233808023
C  C55  1  0.00340000  0.63523000  0.78110000  1.0 0.1402110077
C  C56  1  0.99660000  0.13523000  0.21890000  1.0 0.1402110077
C  C57  1  0.99660000  0.36477000  0.21890000  1.0 0.1402110077
C  C58  1  0.00340000  0.86477000  0.78110000  1.0 0.1402110077
C  C59  1  0.94970000  0.60814000  0.83640000  1.0 -0.1851182535
C  C60  1  0.05030000  0.10814000  0.16360000  1.0 -0.1811253682
C  C61  1  0.05030000  0.39186000  0.16360000  1.0 -0.1811253682
C  C62  1  0.94970000  0.89186000  0.83640000  1.0 -0.1851182535
C  C63  1  0.03190000  0.58496000  0.89060000  1.0 0.2181016662
C  C64  1  0.96810000  0.08496000  0.10940000  1.0 0.2181016662
C  C65  1  0.96810000  0.41504000  0.10940000  1.0 0.2181016662
C  C66  1  0.03190000  0.91504000  0.89060000  1.0 0.2181016662
C  C67  1  0.95890000  0.66580000  0.70770000  1.0 -0.5006982971
C  C68  1  0.04110000  0.16580000  0.29230000  1.0 -0.5006982971
C  C69  1  0.04110000  0.33420000  0.29230000  1.0 -0.5006982971
C  C70  1  0.95890000  0.83420000  0.70770000  1.0 -0.5006982971
C  C71  1  0.02100000  0.55124000  0.96370000  1.0 -0.5121487235
C  C72  1  0.97900000  0.05124000  0.03630000  1.0 -0.5121487235
C  C73  1  0.97900000  0.44876000  0.03630000  1.0 -0.5121487235
C  C74  1  0.02100000  0.94876000  0.96370000  1.0 -0.5121487235
C  C75  1  0.83060000  0.60395000  0.84040000  1.0 0.1101549648
C  C76  1  0.16940000  0.10395000  0.15960000  1.0 0.1101549648
C  C77  1  0.16940000  0.39605000  0.15960000  1.0 0.1101549648
C  C78  1  0.83060000  0.89605000  0.84040000  1.0 0.1101549648
C  C79  1  0.76620000  0.63610000  0.86330000  1.0 -0.1660232425
C  C80  1  0.23380000  0.13610000  0.13670000  1.0 -0.1660232425
C  C81  1  0.23380000  0.36390000  0.13670000  1.0 -0.1660232425
C  C82  1  0.76620000  0.86390000  0.86330000  1.0 -0.1660232425
C  C83  1  0.65720000  0.63034000  0.87520000  1.0 -0.1067525551
C  C84  1  0.34280000  0.13034000  0.12480000  1.0 -0.1067525551
C  C85  1  0.34280000  0.36966000  0.12480000  1.0 -0.1067525551
C  C86  1  0.65720000  0.86966000  0.87520000  1.0 -0.1067525551
C  C87  1  0.61050000  0.59374000  0.86460000  1.0 -0.0321031671
C  C88  1  0.38950000  0.09374000  0.13540000  1.0 -0.0321031671
C  C89  1  0.38950000  0.40626000  0.13540000  1.0 -0.0321031671
C  C90  1  0.61050000  0.90626000  0.86460000  1.0 -0.0321031671
C  C91  1  0.67210000  0.56202000  0.83810000  1.0 -0.1014676621
C  C92  1  0.32790000  0.06202000  0.16190000  1.0 -0.1014676621
C  C93  1  0.32790000  0.43798000  0.16190000  1.0 -0.1014676621
C  C94  1  0.67210000  0.93798000  0.83810000  1.0 -0.1014676621
C  C95  1  0.78280000  0.56736000  0.82770000  1.0 -0.1519391343
C  C96  1  0.21720000  0.06736000  0.17230000  1.0 -0.1519391343
C  C97  1  0.21720000  0.43264000  0.17230000  1.0 -0.1519391343
C  C98  1  0.78280000  0.93264000  0.82770000  1.0 -0.1519391343
C  C99  1  0.49540000  0.58676000  0.88460000  1.0 0.5647637293
C  C100  1  0.50460000  0.08676000  0.11540000  1.0 0.5647637293
C  C101  1  0.50460000  0.41324000  0.11540000  1.0 0.5647637293
C  C102  1  0.49540000  0.91324000  0.88460000  1.0 0.5647637293
C  C103  1  0.01180000  0.31182000  0.68590000  1.0 0.1402110077
C  C104  1  0.98820000  0.81182000  0.31410000  1.0 0.1402110077
C  C105  1  0.98820000  0.68818000  0.31410000  1.0 0.1402110077
C  C106  1  0.01180000  0.18818000  0.68590000  1.0 0.1402110077
C  C107  1  0.00980000  0.33773000  0.76900000  1.0 -0.1811253682
C  C108  1  0.99020000  0.83773000  0.23100000  1.0 -0.1811253682
C  C109  1  0.99020000  0.66227000  0.23100000  1.0 -0.1811253682
C  C110  1  0.00980000  0.16227000  0.76900000  1.0 -0.1811253682
C  C111  1  0.92590000  0.32389000  0.82390000  1.0 0.1909378812
C  C112  1  0.07410000  0.82389000  0.17610000  1.0 0.1909378812
C  C113  1  0.07410000  0.67611000  0.17610000  1.0 0.1909378812
C  C114  1  0.92590000  0.17611000  0.82390000  1.0 0.1909378812
C  C115  1  0.89290000  0.34020000  0.92380000  1.0 -0.5121487235
C  C116  1  0.10710000  0.84020000  0.07620000  1.0 -0.5121487235
C  C117  1  0.10710000  0.65980000  0.07620000  1.0 -0.5121487235
C  C118  1  0.89290000  0.15980000  0.92380000  1.0 -0.5121487235
C  C119  1  0.08760000  0.31090000  0.60660000  1.0 -0.5006982971
C  C120  1  0.91240000  0.81090000  0.39340000  1.0 -0.5006982971
C  C121  1  0.91240000  0.68910000  0.39340000  1.0 -0.5006982971
C  C122  1  0.08760000  0.18910000  0.60660000  1.0 -0.5006982971
C  C123  1  0.07910000  0.37283000  0.79260000  1.0 0.1101549648
C  C124  1  0.92090000  0.87283000  0.20740000  1.0 0.1101549648
C  C125  1  0.92090000  0.62717000  0.20740000  1.0 0.1101549648
C  C126  1  0.07910000  0.12717000  0.79260000  1.0 0.1101549648
C  C127  1  0.17620000  0.37043000  0.85150000  1.0 -0.1595300093
C  C128  1  0.82380000  0.87043000  0.14850000  1.0 -0.1595300093
C  C129  1  0.82380000  0.62957000  0.14850000  1.0 -0.1595300093
C  C130  1  0.17620000  0.12957000  0.85150000  1.0 -0.1595300093
C  C131  1  0.24000000  0.40371000  0.87760000  1.0 -0.1014676621
C  C132  1  0.76000000  0.90371000  0.12240000  1.0 -0.1014676621
C  C133  1  0.76000000  0.59629000  0.12240000  1.0 -0.1014676621
C  C134  1  0.24000000  0.09629000  0.87760000  1.0 -0.1014676621
C  C135  1  0.20420000  0.44034000  0.84620000  1.0 -0.0321031671
C  C136  1  0.79580000  0.94034000  0.15380000  1.0 -0.0321031671
C  C137  1  0.79580000  0.55966000  0.15380000  1.0 -0.0321031671
C  C138  1  0.20420000  0.05966000  0.84620000  1.0 -0.0321031671
C  C139  1  0.10790000  0.44263000  0.78590000  1.0 -0.1014676621
C  C140  1  0.89210000  0.94263000  0.21410000  1.0 -0.1014676621
C  C141  1  0.89210000  0.55737000  0.21410000  1.0 -0.1014676621
C  C142  1  0.10790000  0.05737000  0.78590000  1.0 -0.1014676621
C  C143  1  0.04790000  0.40962000  0.76020000  1.0 -0.1595300093
C  C144  1  0.95210000  0.90962000  0.23980000  1.0 -0.1595300093
C  C145  1  0.95210000  0.59038000  0.23980000  1.0 -0.1595300093
C  C146  1  0.04790000  0.09038000  0.76020000  1.0 -0.1595300093
C  C147  1  0.26910000  0.47664000  0.88120000  1.0 0.5753852174
C  C148  1  0.73090000  0.97664000  0.11880000  1.0 0.5753852174
C  C149  1  0.73090000  0.52336000  0.11880000  1.0 0.5753852174
C  C150  1  0.26910000  0.02336000  0.88120000  1.0 0.5753852174
C  C151  1  0.66930000  0.28850000  0.84860000  1.0 -0.0030433707
C  C152  1  0.33070000  0.78850000  0.15140000  1.0 -0.0059535807
C  C153  1  0.33070000  0.71150000  0.15140000  1.0 -0.0059535807
C  C154  1  0.66930000  0.21150000  0.84860000  1.0 -0.0030433707
C  C155  1  0.30280000  0.57893000  0.43650000  1.0 0.0288988571
C  C156  1  0.69720000  0.07893000  0.56350000  1.0 0.0288988571
C  C157  1  0.69720000  0.42107000  0.56350000  1.0 0.0288988571
C  C158  1  0.30280000  0.92107000  0.43650000  1.0 0.0288988571
C  C159  1  0.34530000  0.60788000  0.37670000  1.0 -0.0456237301
C  C160  1  0.65470000  0.10788000  0.62330000  1.0 -0.0456237301
C  C161  1  0.65470000  0.39212000  0.62330000  1.0 -0.0456237301
C  C162  1  0.34530000  0.89212000  0.37670000  1.0 -0.0456237301
C  C163  1  0.34630000  0.60194000  0.27120000  1.0 -0.0568064688
C  C164  1  0.65370000  0.10194000  0.72880000  1.0 -0.0568064688
C  C165  1  0.65370000  0.39806000  0.72880000  1.0 -0.0568064688
C  C166  1  0.34630000  0.89806000  0.27120000  1.0 -0.0568064688
C  C167  1  0.30460000  0.56705000  0.22560000  1.0 0.0438270427
C  C168  1  0.69540000  0.06705000  0.77440000  1.0 0.0438270427
C  C169  1  0.69540000  0.43295000  0.77440000  1.0 0.0438270427
C  C170  1  0.30460000  0.93295000  0.22560000  1.0 0.0438270427
C  C171  1  0.26210000  0.53810000  0.28540000  1.0 -0.0818423286
C  C172  1  0.73790000  0.03810000  0.71460000  1.0 -0.0818423286
C  C173  1  0.73790000  0.46190000  0.71460000  1.0 -0.0818423286
C  C174  1  0.26210000  0.96190000  0.28540000  1.0 -0.0818423286
C  C175  1  0.26110000  0.54400000  0.39090000  1.0 -0.0673415829
C  C176  1  0.73890000  0.04400000  0.60910000  1.0 -0.0673415829
C  C177  1  0.73890000  0.45600000  0.60910000  1.0 -0.0673415829
C  C178  1  0.26110000  0.95600000  0.39090000  1.0 -0.0673415829
N  N1  1  0.28420000  0.58202000  0.71870000  1.0 -0.2741798714
N  N2  1  0.71580000  0.08202000  0.28130000  1.0 -0.2741798714
N  N3  1  0.71580000  0.41798000  0.28130000  1.0 -0.2741798714
N  N4  1  0.28420000  0.91798000  0.71870000  1.0 -0.2741798714
N  N5  1  0.24180000  0.61733000  0.68490000  1.0 0.0813774847
N  N6  1  0.75820000  0.11733000  0.31510000  1.0 0.0813774847
N  N7  1  0.75820000  0.38267000  0.31510000  1.0 0.0813774847
N  N8  1  0.24180000  0.88267000  0.68490000  1.0 0.0813774847
N  N9  1  0.12930000  0.59710000  0.87030000  1.0 -0.2881579652
N  N10  1  0.87070000  0.09710000  0.12970000  1.0 -0.2881579652
N  N11  1  0.87070000  0.40290000  0.12970000  1.0 -0.2881579652
N  N12  1  0.12930000  0.90290000  0.87030000  1.0 -0.2881579652
N  N13  1  0.11060000  0.62741000  0.80290000  1.0 0.0813774847
N  N14  1  0.88940000  0.12741000  0.19710000  1.0 0.0813774847
N  N15  1  0.88940000  0.37259000  0.19710000  1.0 0.0813774847
N  N16  1  0.11060000  0.87259000  0.80290000  1.0 0.0813774847
N  N17  1  0.87920000  0.29142000  0.77860000  1.0 -0.2017403051
N  N18  1  0.12080000  0.79142000  0.22140000  1.0 -0.2017403051
N  N19  1  0.12080000  0.70858000  0.22140000  1.0 -0.2017403051
N  N20  1  0.87920000  0.20858000  0.77860000  1.0 -0.2017403051
N  N21  1  0.93140000  0.28505000  0.69330000  1.0 0.0438270427
N  N22  1  0.06860000  0.78505000  0.30670000  1.0 0.0438270427
N  N23  1  0.06860000  0.71495000  0.30670000  1.0 0.0438270427
N  N24  1  0.93140000  0.21495000  0.69330000  1.0 0.0438270427
O  O1  1  0.28610000  0.56995000  0.05470000  1.0 -0.4912575032
O  O2  1  0.71390000  0.06995000  0.94530000  1.0 -0.4912575032
O  O3  1  0.71390000  0.43005000  0.94530000  1.0 -0.4912575032
O  O4  1  0.28610000  0.93005000  0.05470000  1.0 -0.4912575032
O  O5  1  0.42250000  0.53104000  0.11030000  1.0 -0.4912575032
O  O6  1  0.57750000  0.03104000  0.88970000  1.0 -0.4912575032
O  O7  1  0.57750000  0.46896000  0.88970000  1.0 -0.5006982971
O  O8  1  0.42250000  0.96896000  0.11030000  1.0 -0.4912575032
O  O9  1  0.46230000  0.55072000  0.89000000  1.0 -0.5928923741
O  O10  1  0.53770000  0.05072000  0.11000000  1.0 -0.5928923741
O  O11  1  0.53770000  0.44928000  0.11000000  1.0 -0.5928923741
O  O12  1  0.46230000  0.94928000  0.89000000  1.0 -0.5928923741
O  O13  1  0.43280000  0.61520000  0.89460000  1.0 -0.5370053753
O  O14  1  0.56720000  0.11520000  0.10540000  1.0 -0.5370053753
O  O15  1  0.56720000  0.38480000  0.10540000  1.0 -0.5370053753
O  O16  1  0.43280000  0.88480000  0.89460000  1.0 -0.5370053753
O  O17  1  0.35750000  0.47182000  0.93300000  1.0 -0.5370053753
O  O18  1  0.64250000  0.97182000  0.06700000  1.0 -0.5370053753
O  O19  1  0.64250000  0.52818000  0.06700000  1.0 -0.5370053753
O  O20  1  0.35750000  0.02818000  0.93300000  1.0 -0.5370053753
O  O21  1  0.22660000  0.50924000  0.85680000  1.0 -0.5309943214
O  O22  1  0.77340000  0.00924000  0.14320000  1.0 -0.5309943214
O  O23  1  0.77340000  0.49076000  0.14320000  1.0 -0.5309943214
O  O24  1  0.22660000  0.99076000  0.85680000  1.0 -0.5309943214
O  O25  1  0.60510000  0.31160000  0.86220000  1.0 -0.1397610113
O  O26  1  0.39490000  0.81160000  0.13780000  1.0 -0.1397610113
O  O27  1  0.39490000  0.68840000  0.13780000  1.0 -0.1397610113
O  O28  1  0.60510000  0.18840000  0.86220000  1.0 -0.1397610113
