# DDEC6 charges by PACMAN v1.1 (https://github.com/mtap-research/PACMAN-charge/)
data_COQJID_ASR_pacman
_symmetry_space_group_name_H-M   'P 1'
_cell_length_a   12.35820000
_cell_length_b   33.95090000
_cell_length_c   12.95070000
_cell_angle_alpha   90.00000000
_cell_angle_beta   99.89000000
_cell_angle_gamma   90.00000000
_symmetry_Int_Tables_number   1
_chemical_formula_structural   Mn3H66RhC75(NO)12
_chemical_formula_sum   'Mn6 H132 Rh2 C150 N24 O24'
_cell_volume   5353.00201356
_cell_formula_units_Z   2
loop_
 _symmetry_equiv_pos_site_id
 _symmetry_equiv_pos_as_xyz
  1  'x, y, z'
loop_
 _atom_site_type_symbol
 _atom_site_label
 _atom_site_symmetry_multiplicity
 _atom_site_fract_x
 _atom_site_fract_y
 _atom_site_fract_z
 _atom_site_occupancy
 _atom_site_charge
Mn  Mn1  1  0.19724000  0.07062000  0.11366000  1.0 0.7952325219
Mn  Mn2  1  0.80276000  0.92938000  0.88634000  1.0 0.7901330465
Mn  Mn3  1  0.80276000  0.57062000  0.88634000  1.0 0.7901330465
Mn  Mn4  1  0.19724000  0.42938000  0.11366000  1.0 0.7952325219
Mn  Mn5  1  0.00000000  0.00000000  0.00000000  1.0 1.1414706582
Mn  Mn6  1  0.00000000  0.50000000  0.00000000  1.0 1.1414706582
H  H1  1  0.32367000  0.17223000  0.28552000  1.0 0.1005802737
H  H2  1  0.67633000  0.82777000  0.71448000  1.0 0.1005802737
H  H3  1  0.67633000  0.67223000  0.71448000  1.0 0.1005802737
H  H4  1  0.32367000  0.32777000  0.28552000  1.0 0.1005802737
H  H5  1  0.22343000  0.15212000  0.18141000  1.0 0.1244016165
H  H6  1  0.77657000  0.84788000  0.81859000  1.0 0.1244016165
H  H7  1  0.77657000  0.65212000  0.81859000  1.0 0.1244016165
H  H8  1  0.22343000  0.34788000  0.18141000  1.0 0.1244016165
H  H9  1  0.45152000  0.02289000  0.06403000  1.0 0.1414762411
H  H10  1  0.54848000  0.97711000  0.93597000  1.0 0.1414762411
H  H11  1  0.54848000  0.52289000  0.93597000  1.0 0.1414762411
H  H12  1  0.45152000  0.47711000  0.06403000  1.0 0.1414762411
H  H13  1  0.53304000  0.05360000  0.99477000  1.0 0.1299296362
H  H14  1  0.46696000  0.94640000  0.00523000  1.0 0.1299296362
H  H15  1  0.46696000  0.55360000  0.00523000  1.0 0.1299296362
H  H16  1  0.53304000  0.44640000  0.99477000  1.0 0.1299296362
H  H17  1  0.38565000  0.05397000  0.96213000  1.0 0.1414762411
H  H18  1  0.61435000  0.94603000  0.03787000  1.0 0.1414762411
H  H19  1  0.61435000  0.55397000  0.03787000  1.0 0.1414762411
H  H20  1  0.38565000  0.44603000  0.96213000  1.0 0.1414762411
H  H21  1  0.63469000  0.16811000  0.28490000  1.0 0.1498278279
H  H22  1  0.36531000  0.83189000  0.71510000  1.0 0.1498278279
H  H23  1  0.36531000  0.66811000  0.71510000  1.0 0.1498278279
H  H24  1  0.63469000  0.33189000  0.28490000  1.0 0.1498278279
H  H25  1  0.53346000  0.16112000  0.36545000  1.0 0.1299296362
H  H26  1  0.46654000  0.83888000  0.63455000  1.0 0.1299296362
H  H27  1  0.46654000  0.66112000  0.63455000  1.0 0.1299296362
H  H28  1  0.53346000  0.33888000  0.36545000  1.0 0.1299296362
H  H29  1  0.51438000  0.19791000  0.26511000  1.0 0.1244016165
H  H30  1  0.48562000  0.80209000  0.73489000  1.0 0.1244016165
H  H31  1  0.48562000  0.69791000  0.73489000  1.0 0.1244016165
H  H32  1  0.51438000  0.30209000  0.26511000  1.0 0.1244016165
H  H33  1  0.66522000  0.04248000  0.16686000  1.0 0.1005802737
H  H34  1  0.33478000  0.95752000  0.83314000  1.0 0.1005802737
H  H35  1  0.33478000  0.54248000  0.83314000  1.0 0.1005802737
H  H36  1  0.66522000  0.45752000  0.16686000  1.0 0.1005802737
H  H37  1  0.85603000  0.03413000  0.14010000  1.0 0.1005802737
H  H38  1  0.14397000  0.96587000  0.85990000  1.0 0.1005802737
H  H39  1  0.14397000  0.53413000  0.85990000  1.0 0.1005802737
H  H40  1  0.85603000  0.46587000  0.14010000  1.0 0.1005802737
H  H41  1  0.88407000  0.15945000  0.09188000  1.0 0.1005802737
H  H42  1  0.11593000  0.84055000  0.90812000  1.0 0.1005802737
H  H43  1  0.11593000  0.65945000  0.90812000  1.0 0.1005802737
H  H44  1  0.88407000  0.34055000  0.09188000  1.0 0.1005802737
H  H45  1  0.69108000  0.16839000  0.11094000  1.0 0.0928977761
H  H46  1  0.30892000  0.83161000  0.88906000  1.0 0.0928977761
H  H47  1  0.30892000  0.66839000  0.88906000  1.0 0.0928977761
H  H48  1  0.69108000  0.33161000  0.11094000  1.0 0.0928977761
H  H49  1  0.09307000  0.01911000  0.26261000  1.0 0.1498278279
H  H50  1  0.90693000  0.98089000  0.73739000  1.0 0.1498278279
H  H51  1  0.90693000  0.51911000  0.73739000  1.0 0.1498278279
H  H52  1  0.09307000  0.48089000  0.26261000  1.0 0.1498278279
H  H53  1  0.04978000  0.02563000  0.38644000  1.0 0.1299296362
H  H54  1  0.95022000  0.97437000  0.61356000  1.0 0.1299296362
H  H55  1  0.95022000  0.52563000  0.61356000  1.0 0.1299296362
H  H56  1  0.04978000  0.47437000  0.38644000  1.0 0.1299296362
H  H57  1  0.17431000  0.99998000  0.37873000  1.0 0.1299296362
H  H58  1  0.82569000  0.00002000  0.62127000  1.0 0.1299296362
H  H59  1  0.82569000  0.49998000  0.62127000  1.0 0.1299296362
H  H60  1  0.17431000  0.50002000  0.37873000  1.0 0.1299296362
H  H61  1  0.36301000  0.17269000  0.43742000  1.0 0.1093499625
H  H62  1  0.63699000  0.82731000  0.56258000  1.0 0.1093499625
H  H63  1  0.63699000  0.67269000  0.56258000  1.0 0.1093499625
H  H64  1  0.36301000  0.32731000  0.43742000  1.0 0.1093499625
H  H65  1  0.38528000  0.14084000  0.54786000  1.0 0.1414762411
H  H66  1  0.61472000  0.85916000  0.45214000  1.0 0.1414762411
H  H67  1  0.61472000  0.64084000  0.45214000  1.0 0.1414762411
H  H68  1  0.38528000  0.35916000  0.54786000  1.0 0.1414762411
H  H69  1  0.26734000  0.17131000  0.52509000  1.0 0.1414762411
H  H70  1  0.73266000  0.82869000  0.47491000  1.0 0.1414762411
H  H71  1  0.73266000  0.67131000  0.47491000  1.0 0.1414762411
H  H72  1  0.26734000  0.32869000  0.52509000  1.0 0.1414762411
H  H73  1  0.21642000  0.01324000  0.55362000  1.0 0.1005802737
H  H74  1  0.78358000  0.98676000  0.44638000  1.0 0.1005802737
H  H75  1  0.78358000  0.51324000  0.44638000  1.0 0.1005802737
H  H76  1  0.21642000  0.48676000  0.55362000  1.0 0.1005802737
H  H77  1  0.18166000  0.99918000  0.73095000  1.0 0.1005802737
H  H78  1  0.81834000  0.00082000  0.26905000  1.0 0.1005802737
H  H79  1  0.81834000  0.49918000  0.26905000  1.0 0.1005802737
H  H80  1  0.18166000  0.50082000  0.73095000  1.0 0.1005802737
H  H81  1  0.14394000  0.12353000  0.78700000  1.0 0.1093499625
H  H82  1  0.85606000  0.87647000  0.21300000  1.0 0.1093499625
H  H83  1  0.85606000  0.62353000  0.21300000  1.0 0.1093499625
H  H84  1  0.14394000  0.37647000  0.78700000  1.0 0.1093499625
H  H85  1  0.16698000  0.13821000  0.60777000  1.0 0.0928977761
H  H86  1  0.83302000  0.86179000  0.39223000  1.0 0.1005802737
H  H87  1  0.83302000  0.63821000  0.39223000  1.0 0.1005802737
H  H88  1  0.16698000  0.36179000  0.60777000  1.0 0.0928977761
H  H89  1  0.67850000  0.75000000  0.40077000  1.0 0.0928977761
H  H90  1  0.32150000  0.25000000  0.59923000  1.0 0.0928977761
H  H91  1  0.54074000  0.75000000  0.43320000  1.0 0.1005802737
H  H92  1  0.45926000  0.25000000  0.56680000  1.0 0.1005802737
H  H93  1  0.69080000  0.86807000  0.11630000  1.0 0.1414762411
H  H94  1  0.30920000  0.13193000  0.88370000  1.0 0.1414762411
H  H95  1  0.30920000  0.36807000  0.88370000  1.0 0.1414762411
H  H96  1  0.69080000  0.63193000  0.11630000  1.0 0.1414762411
H  H97  1  0.55861000  0.86032000  0.04077000  1.0 0.1414762411
H  H98  1  0.44139000  0.13968000  0.95923000  1.0 0.1414762411
H  H99  1  0.44139000  0.36032000  0.95923000  1.0 0.1414762411
H  H100  1  0.55861000  0.63968000  0.04077000  1.0 0.1414762411
H  H101  1  0.65946000  0.82197000  0.05117000  1.0 0.1299296362
H  H102  1  0.34054000  0.17803000  0.94883000  1.0 0.1299296362
H  H103  1  0.34054000  0.32197000  0.94883000  1.0 0.1299296362
H  H104  1  0.65946000  0.67803000  0.05117000  1.0 0.1299296362
H  H105  1  0.34227000  0.78852000  0.36486000  1.0 0.1299296362
H  H106  1  0.65773000  0.21148000  0.63514000  1.0 0.1299296362
H  H107  1  0.65773000  0.28852000  0.63514000  1.0 0.1299296362
H  H108  1  0.34227000  0.71148000  0.36486000  1.0 0.1299296362
H  H109  1  0.36200000  0.84005000  0.38770000  1.0 0.1498278279
H  H110  1  0.63800000  0.15995000  0.61230000  1.0 0.1498278279
H  H111  1  0.63800000  0.34005000  0.61230000  1.0 0.1498278279
H  H112  1  0.36200000  0.65995000  0.38770000  1.0 0.1498278279
H  H113  1  0.44711000  0.80534000  0.46746000  1.0 0.1093499625
H  H114  1  0.55289000  0.19466000  0.53254000  1.0 0.1093499625
H  H115  1  0.55289000  0.30534000  0.53254000  1.0 0.1093499625
H  H116  1  0.44711000  0.69466000  0.46746000  1.0 0.1093499625
H  H117  1  0.27344000  0.84717000  0.16265000  1.0 0.1005802737
H  H118  1  0.72656000  0.15283000  0.83735000  1.0 0.1005802737
H  H119  1  0.72656000  0.34717000  0.83735000  1.0 0.1005802737
H  H120  1  0.27344000  0.65283000  0.16265000  1.0 0.1005802737
H  H121  1  0.16086000  0.90707000  0.12113000  1.0 0.1093499625
H  H122  1  0.83914000  0.09293000  0.87887000  1.0 0.1093499625
H  H123  1  0.83914000  0.40707000  0.87887000  1.0 0.1093499625
H  H124  1  0.16086000  0.59293000  0.12113000  1.0 0.1093499625
H  H125  1  0.44711000  0.98021000  0.21018000  1.0 0.1005802737
H  H126  1  0.55289000  0.01979000  0.78982000  1.0 0.1005802737
H  H127  1  0.55289000  0.48021000  0.78982000  1.0 0.1005802737
H  H128  1  0.44711000  0.51979000  0.21018000  1.0 0.1005802737
H  H129  1  0.56297000  0.92090000  0.25167000  1.0 0.1005802737
H  H130  1  0.43703000  0.07910000  0.74833000  1.0 0.1005802737
H  H131  1  0.43703000  0.42090000  0.74833000  1.0 0.1005802737
H  H132  1  0.56297000  0.57910000  0.25167000  1.0 0.1005802737
Rh  Rh1  1  0.71729000  0.75000000  0.18963000  1.0 0.1005802737
Rh  Rh2  1  0.28271000  0.25000000  0.81037000  1.0 0.1005802737
C  C1  1  0.29456000  0.14516000  0.24323000  1.0 -0.0284393695
C  C2  1  0.70544000  0.85484000  0.75677000  1.0 -0.0284393695
C  C3  1  0.70544000  0.64516000  0.75677000  1.0 -0.0284393695
C  C4  1  0.29456000  0.35484000  0.24323000  1.0 -0.0284393695
C  C5  1  0.45208000  0.08479000  0.10224000  1.0 0.2290453711
C  C6  1  0.54792000  0.91521000  0.89776000  1.0 0.2290453711
C  C7  1  0.54792000  0.58479000  0.89776000  1.0 0.2290453711
C  C8  1  0.45208000  0.41521000  0.10224000  1.0 0.2290453711
C  C9  1  0.54117000  0.10974000  0.14957000  1.0 -0.1770997694
C  C10  1  0.45883000  0.89026000  0.85043000  1.0 -0.1770997694
C  C11  1  0.45883000  0.60974000  0.85043000  1.0 -0.1770997694
C  C12  1  0.54117000  0.39026000  0.14957000  1.0 -0.1770997694
C  C13  1  0.49301000  0.13710000  0.20931000  1.0 0.1498278279
C  C14  1  0.50699000  0.86290000  0.79069000  1.0 0.1498278279
C  C15  1  0.50699000  0.63710000  0.79069000  1.0 0.1498278279
C  C16  1  0.49301000  0.36290000  0.20931000  1.0 0.1498278279
C  C17  1  0.45616000  0.05201000  0.02692000  1.0 -0.4283775812
C  C18  1  0.54384000  0.94799000  0.97308000  1.0 -0.4283775812
C  C19  1  0.54384000  0.55201000  0.97308000  1.0 -0.4283775812
C  C20  1  0.45616000  0.44799000  0.02692000  1.0 -0.4283775812
C  C21  1  0.54541000  0.16776000  0.28454000  1.0 -0.4176199785
C  C22  1  0.45459000  0.83224000  0.71546000  1.0 -0.4176199785
C  C23  1  0.45459000  0.66776000  0.71546000  1.0 -0.4176199785
C  C24  1  0.54541000  0.33224000  0.28454000  1.0 -0.4176199785
C  C25  1  0.65909000  0.10613000  0.13977000  1.0 0.1093499625
C  C26  1  0.34091000  0.89387000  0.86023000  1.0 0.1093499625
C  C27  1  0.34091000  0.60613000  0.86023000  1.0 0.1093499625
C  C28  1  0.65909000  0.39387000  0.13977000  1.0 0.1093499625
C  C29  1  0.71065000  0.06863000  0.14795000  1.0 -0.1419428995
C  C30  1  0.28935000  0.93137000  0.85205000  1.0 -0.1419428995
C  C31  1  0.28935000  0.56863000  0.85205000  1.0 -0.1419428995
C  C32  1  0.71065000  0.43137000  0.14795000  1.0 -0.1419428995
C  C33  1  0.81924000  0.06357000  0.13425000  1.0 -0.0910378373
C  C34  1  0.18076000  0.93643000  0.86575000  1.0 -0.0910378373
C  C35  1  0.18076000  0.56357000  0.86575000  1.0 -0.0910378373
C  C36  1  0.81924000  0.43643000  0.13425000  1.0 -0.0910378373
C  C37  1  0.88490000  0.09561000  0.11273000  1.0 -0.0552592701
C  C38  1  0.11510000  0.90439000  0.88727000  1.0 -0.0552592701
C  C39  1  0.11510000  0.59561000  0.88727000  1.0 -0.0552592701
C  C40  1  0.88490000  0.40439000  0.11273000  1.0 -0.0552592701
C  C41  1  0.83621000  0.13351000  0.10790000  1.0 -0.0910378373
C  C42  1  0.16379000  0.86649000  0.89210000  1.0 -0.0910378373
C  C43  1  0.16379000  0.63351000  0.89210000  1.0 -0.0910378373
C  C44  1  0.83621000  0.36649000  0.10790000  1.0 -0.0910378373
C  C45  1  0.72615000  0.13850000  0.12014000  1.0 -0.1505364305
C  C46  1  0.27385000  0.86150000  0.87986000  1.0 -0.1505364305
C  C47  1  0.27385000  0.63850000  0.87986000  1.0 -0.1505364305
C  C48  1  0.72615000  0.36150000  0.12014000  1.0 -0.1505364305
C  C49  1  0.99980000  0.08807000  0.10016000  1.0 0.5572897071
C  C50  1  0.00020000  0.91193000  0.89984000  1.0 0.5572897071
C  C51  1  0.00020000  0.58807000  0.89984000  1.0 0.5572897071
C  C52  1  0.99980000  0.41193000  0.10016000  1.0 0.5572897071
C  C53  1  0.18148000  0.06336000  0.36055000  1.0 0.2290453711
C  C54  1  0.81852000  0.93664000  0.63945000  1.0 0.2290453711
C  C55  1  0.81852000  0.56336000  0.63945000  1.0 0.2290453711
C  C56  1  0.18148000  0.43664000  0.36055000  1.0 0.2290453711
C  C57  1  0.21217000  0.08611000  0.45464000  1.0 -0.1724076098
C  C58  1  0.78783000  0.91389000  0.54536000  1.0 -0.1724076098
C  C59  1  0.78783000  0.58611000  0.54536000  1.0 -0.1724076098
C  C60  1  0.21217000  0.41389000  0.45464000  1.0 -0.1724076098
C  C61  1  0.26241000  0.12016000  0.42256000  1.0 0.1498278279
C  C62  1  0.73759000  0.87984000  0.57744000  1.0 0.1498278279
C  C63  1  0.73759000  0.62016000  0.57744000  1.0 0.1498278279
C  C64  1  0.26241000  0.37984000  0.42256000  1.0 0.1498278279
C  C65  1  0.12200000  0.02508000  0.34640000  1.0 -0.4176199785
C  C66  1  0.87800000  0.97492000  0.65360000  1.0 -0.4176199785
C  C67  1  0.87800000  0.52508000  0.65360000  1.0 -0.4176199785
C  C68  1  0.12200000  0.47492000  0.34640000  1.0 -0.4176199785
C  C69  1  0.32152000  0.15291000  0.48563000  1.0 -0.4176199785
C  C70  1  0.67848000  0.84709000  0.51437000  1.0 -0.4176199785
C  C71  1  0.67848000  0.65291000  0.51437000  1.0 -0.4176199785
C  C72  1  0.32152000  0.34709000  0.48563000  1.0 -0.4176199785
C  C73  1  0.19620000  0.07716000  0.56313000  1.0 0.1005802737
C  C74  1  0.80380000  0.92284000  0.43687000  1.0 0.1005802737
C  C75  1  0.80380000  0.57716000  0.43687000  1.0 0.1005802737
C  C76  1  0.19620000  0.42284000  0.56313000  1.0 0.1005802737
C  C77  1  0.19949000  0.03808000  0.60309000  1.0 -0.1419428995
C  C78  1  0.80051000  0.96192000  0.39691000  1.0 -0.1419428995
C  C79  1  0.80051000  0.53808000  0.39691000  1.0 -0.1419428995
C  C80  1  0.19949000  0.46192000  0.60309000  1.0 -0.1419428995
C  C81  1  0.18078000  0.02996000  0.70439000  1.0 -0.1019936143
C  C82  1  0.81922000  0.97004000  0.29561000  1.0 -0.1019936143
C  C83  1  0.81922000  0.52996000  0.29561000  1.0 -0.1019936143
C  C84  1  0.18078000  0.47004000  0.70439000  1.0 -0.1019936143
C  C85  1  0.16196000  0.06016000  0.77418000  1.0 -0.0494820731
C  C86  1  0.83804000  0.93984000  0.22582000  1.0 -0.0494820731
C  C87  1  0.83804000  0.56016000  0.22582000  1.0 -0.0494820731
C  C88  1  0.16196000  0.43984000  0.77418000  1.0 -0.0494820731
C  C89  1  0.16051000  0.09916000  0.73624000  1.0 -0.1019936143
C  C90  1  0.83949000  0.90084000  0.26376000  1.0 -0.1019936143
C  C91  1  0.83949000  0.59916000  0.26376000  1.0 -0.1019936143
C  C92  1  0.16051000  0.40084000  0.73624000  1.0 -0.1019936143
C  C93  1  0.17536000  0.10731000  0.63362000  1.0 -0.1419428995
C  C94  1  0.82464000  0.89269000  0.36638000  1.0 -0.1419428995
C  C95  1  0.82464000  0.60731000  0.36638000  1.0 -0.1419428995
C  C96  1  0.17536000  0.39269000  0.63362000  1.0 -0.1419428995
C  C97  1  0.14178000  0.05050000  0.88338000  1.0 0.5779441171
C  C98  1  0.85822000  0.94950000  0.11662000  1.0 0.5779441171
C  C99  1  0.85822000  0.55050000  0.11662000  1.0 0.5779441171
C  C100  1  0.14178000  0.44950000  0.88338000  1.0 0.5779441171
C  C101  1  0.58916000  0.75000000  0.36915000  1.0 -0.0026843263
C  C102  1  0.41084000  0.25000000  0.63085000  1.0 -0.0026843263
C  C103  1  0.58407000  0.82898000  0.18628000  1.0 0.2021561885
C  C104  1  0.41593000  0.17102000  0.81372000  1.0 0.2021561885
C  C105  1  0.41593000  0.32898000  0.81372000  1.0 0.2021561885
C  C106  1  0.58407000  0.67102000  0.18628000  1.0 0.2021561885
C  C107  1  0.49567000  0.84253000  0.23542000  1.0 -0.1897629625
C  C108  1  0.50433000  0.15747000  0.76458000  1.0 -0.1897629625
C  C109  1  0.50433000  0.34253000  0.76458000  1.0 -0.1897629625
C  C110  1  0.49567000  0.65747000  0.23542000  1.0 -0.1897629625
C  C111  1  0.48344000  0.81402000  0.31097000  1.0 0.1498278279
C  C112  1  0.51656000  0.18598000  0.68903000  1.0 0.1498278279
C  C113  1  0.51656000  0.31402000  0.68903000  1.0 0.1498278279
C  C114  1  0.48344000  0.68598000  0.31097000  1.0 0.1498278279
C  C115  1  0.62565000  0.84576000  0.09467000  1.0 -0.4060193872
C  C116  1  0.37435000  0.15424000  0.90533000  1.0 -0.4060193872
C  C117  1  0.37435000  0.34576000  0.90533000  1.0 -0.4060193872
C  C118  1  0.62565000  0.65424000  0.09467000  1.0 -0.4060193872
C  C119  1  0.40523000  0.81168000  0.38652000  1.0 -0.4176199785
C  C120  1  0.59477000  0.18832000  0.61348000  1.0 -0.4176199785
C  C121  1  0.59477000  0.31168000  0.61348000  1.0 -0.4176199785
C  C122  1  0.40523000  0.68832000  0.38652000  1.0 -0.4176199785
C  C123  1  0.42826000  0.87877000  0.21110000  1.0 0.1005802737
C  C124  1  0.57174000  0.12123000  0.78890000  1.0 0.1005802737
C  C125  1  0.57174000  0.37877000  0.78890000  1.0 0.1005802737
C  C126  1  0.42826000  0.62123000  0.21110000  1.0 0.1005802737
C  C127  1  0.31348000  0.87617000  0.17500000  1.0 -0.1419428995
C  C128  1  0.68652000  0.12383000  0.82500000  1.0 -0.1419428995
C  C129  1  0.68652000  0.37617000  0.82500000  1.0 -0.1419428995
C  C130  1  0.31348000  0.62383000  0.17500000  1.0 -0.1419428995
C  C131  1  0.24908000  0.90981000  0.15066000  1.0 -0.0812841108
C  C132  1  0.75092000  0.09019000  0.84934000  1.0 -0.0812841108
C  C133  1  0.75092000  0.40981000  0.84934000  1.0 -0.0812841108
C  C134  1  0.24908000  0.59019000  0.15066000  1.0 -0.0812841108
C  C135  1  0.29552000  0.94793000  0.16038000  1.0 -0.0494820731
C  C136  1  0.70448000  0.05207000  0.83962000  1.0 -0.0494820731
C  C137  1  0.70448000  0.44793000  0.83962000  1.0 -0.0494820731
C  C138  1  0.29552000  0.55207000  0.16038000  1.0 -0.0494820731
C  C139  1  0.40895000  0.95094000  0.19978000  1.0 -0.0910378373
C  C140  1  0.59105000  0.04906000  0.80022000  1.0 -0.0910378373
C  C141  1  0.59105000  0.45094000  0.80022000  1.0 -0.0910378373
C  C142  1  0.40895000  0.54906000  0.19978000  1.0 -0.0910378373
C  C143  1  0.47444000  0.91716000  0.22344000  1.0 -0.1419428995
C  C144  1  0.52556000  0.08284000  0.77656000  1.0 -0.1419428995
C  C145  1  0.52556000  0.41716000  0.77656000  1.0 -0.1419428995
C  C146  1  0.47444000  0.58284000  0.22344000  1.0 -0.1419428995
C  C147  1  0.22466000  0.98280000  0.12286000  1.0 0.5779441171
C  C148  1  0.77534000  0.01720000  0.87714000  1.0 0.5779441171
C  C149  1  0.77534000  0.48280000  0.87714000  1.0 0.5779441171
C  C150  1  0.22466000  0.51720000  0.12286000  1.0 0.5779441171
N  N1  1  0.38232000  0.12870000  0.19444000  1.0 0.0488201534
N  N2  1  0.61768000  0.87130000  0.80556000  1.0 0.0488201534
N  N3  1  0.61768000  0.62870000  0.80556000  1.0 0.0488201534
N  N4  1  0.38232000  0.37130000  0.19444000  1.0 0.0488201534
N  N5  1  0.35479000  0.09604000  0.13005000  1.0 -0.292725665
N  N6  1  0.64521000  0.90396000  0.86995000  1.0 -0.292725665
N  N7  1  0.64521000  0.59604000  0.86995000  1.0 -0.292725665
N  N8  1  0.35479000  0.40396000  0.13005000  1.0 -0.292725665
N  N9  1  0.25848000  0.11715000  0.31611000  1.0 0.0488201534
N  N10  1  0.74152000  0.88285000  0.68389000  1.0 0.0488201534
N  N11  1  0.74152000  0.61715000  0.68389000  1.0 0.0488201534
N  N12  1  0.25848000  0.38285000  0.31611000  1.0 0.0488201534
N  N13  1  0.21003000  0.08205000  0.27603000  1.0 -0.2975015095
N  N14  1  0.78997000  0.91795000  0.72397000  1.0 -0.2975015095
N  N15  1  0.78997000  0.58205000  0.72397000  1.0 -0.2975015095
N  N16  1  0.21003000  0.41795000  0.27603000  1.0 -0.2975015095
N  N17  1  0.56390000  0.78598000  0.30803000  1.0 0.0042590188
N  N18  1  0.43610000  0.21402000  0.69197000  1.0 0.0042590188
N  N19  1  0.43610000  0.28598000  0.69197000  1.0 0.0042590188
N  N20  1  0.56390000  0.71402000  0.30803000  1.0 0.0042590188
N  N21  1  0.62629000  0.79448000  0.23080000  1.0 -0.1897629625
N  N22  1  0.37371000  0.20552000  0.76920000  1.0 -0.1897629625
N  N23  1  0.37371000  0.29448000  0.76920000  1.0 -0.1897629625
N  N24  1  0.62629000  0.70552000  0.23080000  1.0 -0.1897629625
O  O1  1  0.03835000  0.05195000  0.09062000  1.0 -0.5466789431
O  O2  1  0.96165000  0.94805000  0.90938000  1.0 -0.5466789431
O  O3  1  0.96165000  0.55195000  0.90938000  1.0 -0.5466789431
O  O4  1  0.03835000  0.44805000  0.09062000  1.0 -0.5466789431
O  O5  1  0.07506000  0.11477000  0.10703000  1.0 -0.5068966276
O  O6  1  0.92494000  0.88523000  0.89297000  1.0 -0.5068966276
O  O7  1  0.92494000  0.61477000  0.89297000  1.0 -0.5068966276
O  O8  1  0.07506000  0.38523000  0.10703000  1.0 -0.5068966276
O  O9  1  0.07811000  0.02084000  0.89020000  1.0 -0.5419624945
O  O10  1  0.92189000  0.97916000  0.10980000  1.0 -0.5419624945
O  O11  1  0.92189000  0.52084000  0.10980000  1.0 -0.5419624945
O  O12  1  0.07811000  0.47916000  0.89020000  1.0 -0.5419624945
O  O13  1  0.19145000  0.07165000  0.95984000  1.0 -0.5202339566
O  O14  1  0.80855000  0.92835000  0.04016000  1.0 -0.5202339566
O  O15  1  0.80855000  0.57165000  0.04016000  1.0 -0.5202339566
O  O16  1  0.19145000  0.42835000  0.95984000  1.0 -0.5202339566
O  O17  1  0.26456000  0.01797000  0.14074000  1.0 -0.5202339566
O  O18  1  0.73544000  0.98203000  0.85926000  1.0 -0.5202339566
O  O19  1  0.73544000  0.51797000  0.85926000  1.0 -0.5202339566
O  O20  1  0.26456000  0.48203000  0.14074000  1.0 -0.5202339566
O  O21  1  0.12832000  0.97368000  0.07270000  1.0 -0.5419624945
O  O22  1  0.87168000  0.02632000  0.92730000  1.0 -0.5419624945
O  O23  1  0.87168000  0.47368000  0.92730000  1.0 -0.5419624945
O  O24  1  0.12832000  0.52632000  0.07270000  1.0 -0.5419624945
