# DDEC6 charges by PACMAN v1.1 (https://github.com/mtap-research/PACMAN-charge/)
data_COQNIF_FSR_pacman
_symmetry_space_group_name_H-M   'P 1'
_cell_length_a   12.74600000
_cell_length_b   12.74600000
_cell_length_c   9.14000000
_cell_angle_alpha   90.00000000
_cell_angle_beta   90.00000000
_cell_angle_gamma   120.00000000
_symmetry_Int_Tables_number   1
_chemical_formula_structural   MnAl3(PO4)4
_chemical_formula_sum   'Mn2 Al6 P8 O32'
_cell_volume   1285.95169647
_cell_formula_units_Z   2
loop_
 _symmetry_equiv_pos_site_id
 _symmetry_equiv_pos_as_xyz
  1  'x, y, z'
loop_
 _atom_site_type_symbol
 _atom_site_label
 _atom_site_symmetry_multiplicity
 _atom_site_fract_x
 _atom_site_fract_y
 _atom_site_fract_z
 _atom_site_occupancy
 _atom_site_charge
Mn  Mn1  1  0.66666667  0.33333333  0.82170000  1.0 1.2376597176
Mn  Mn2  1  0.33333333  0.66666667  0.17830000  1.0 1.2337842236
Al  Al1  1  0.67320000  0.53040000  0.41720000  1.0 1.7485475789
Al  Al2  1  0.46960000  0.14280000  0.41720000  1.0 1.7485475789
Al  Al3  1  0.85720000  0.32680000  0.41720000  1.0 1.7485475789
Al  Al4  1  0.32680000  0.46960000  0.58280000  1.0 1.7485475789
Al  Al5  1  0.53040000  0.85720000  0.58280000  1.0 1.7485475789
Al  Al6  1  0.14280000  0.67320000  0.58280000  1.0 1.7485475789
P  P1  1  0.45530000  0.32170000  0.61760000  1.0 1.4759700547
P  P2  1  0.67830000  0.13360000  0.61760000  1.0 1.473926867
P  P3  1  0.86640000  0.54470000  0.61760000  1.0 1.473926867
P  P4  1  0.54470000  0.67830000  0.38240000  1.0 1.473926867
P  P5  1  0.32170000  0.86640000  0.38240000  1.0 1.473926867
P  P6  1  0.13360000  0.45530000  0.38240000  1.0 1.4759700547
P  P7  1  0.66666667  0.33333333  0.20190000  1.0 1.4882470617
P  P8  1  0.33333333  0.66666667  0.79810000  1.0 1.4882470617
O  O1  1  0.55970000  0.42140000  0.53020000  1.0 -0.8502186686
O  O2  1  0.57860000  0.13830000  0.53020000  1.0 -0.8502186686
O  O3  1  0.86170000  0.44030000  0.53020000  1.0 -0.8502186686
O  O4  1  0.44030000  0.57860000  0.46980000  1.0 -0.8502186686
O  O5  1  0.42140000  0.86170000  0.46980000  1.0 -0.8502186686
O  O6  1  0.13830000  0.55970000  0.46980000  1.0 -0.8502186686
O  O7  1  0.39980000  0.20780000  0.52290000  1.0 -0.7882241557
O  O8  1  0.79220000  0.19200000  0.52290000  1.0 -0.7882241557
O  O9  1  0.80800000  0.60020000  0.52290000  1.0 -0.7882241557
O  O10  1  0.60020000  0.79220000  0.47710000  1.0 -0.7882241557
O  O11  1  0.20780000  0.80800000  0.47710000  1.0 -0.7882241557
O  O12  1  0.19200000  0.39980000  0.47710000  1.0 -0.7882241557
O  O13  1  0.36030000  0.35930000  0.64170000  1.0 -0.7560301771
O  O14  1  0.64070000  0.00100000  0.64170000  1.0 -0.7560301771
O  O15  1  0.99900000  0.63970000  0.64170000  1.0 -0.7560301771
O  O16  1  0.63970000  0.64070000  0.35830000  1.0 -0.754479443
O  O17  1  0.35930000  0.99900000  0.35830000  1.0 -0.7560301771
O  O18  1  0.00100000  0.36030000  0.35830000  1.0 -0.7560301771
O  O19  1  0.68090000  0.45250000  0.26000000  1.0 -0.8093628735
O  O20  1  0.54750000  0.22840000  0.26000000  1.0 -0.8093628735
O  O21  1  0.77160000  0.31910000  0.26000000  1.0 -0.8093628735
O  O22  1  0.31910000  0.54750000  0.74000000  1.0 -0.8093628735
O  O23  1  0.45250000  0.77160000  0.74000000  1.0 -0.8093628735
O  O24  1  0.22840000  0.68090000  0.74000000  1.0 -0.8093628735
O  O25  1  0.50050000  0.30510000  0.76170000  1.0 -0.708840554
O  O26  1  0.69490000  0.19540000  0.76170000  1.0 -0.708840554
O  O27  1  0.80460000  0.49950000  0.76170000  1.0 -0.708840554
O  O28  1  0.49950000  0.69490000  0.23830000  1.0 -0.708840554
O  O29  1  0.30510000  0.80460000  0.23830000  1.0 -0.708840554
O  O30  1  0.19540000  0.50050000  0.23830000  1.0 -0.708840554
O  O31  1  0.66666667  0.33333333  0.04090000  1.0 -0.6561816385
O  O32  1  0.33333333  0.66666667  0.95910000  1.0 -0.6561816385
