# DDEC6 charges by PACMAN v1.1 (https://github.com/mtap-research/PACMAN-charge/)
data_COQTEJ_ASR_pacman
_symmetry_space_group_name_H-M   'P 1'
_cell_length_a   17.73820000
_cell_length_b   10.04470000
_cell_length_c   34.34130000
_cell_angle_alpha   90.00000000
_cell_angle_beta   96.23400000
_cell_angle_gamma   90.00000000
_symmetry_Int_Tables_number   1
_chemical_formula_structural   MgH5C15NO6
_chemical_formula_sum   'Mg8 H40 C120 N8 O48'
_cell_volume   6082.57556460
_cell_formula_units_Z   8
loop_
 _symmetry_equiv_pos_site_id
 _symmetry_equiv_pos_as_xyz
  1  'x, y, z'
loop_
 _atom_site_type_symbol
 _atom_site_label
 _atom_site_symmetry_multiplicity
 _atom_site_fract_x
 _atom_site_fract_y
 _atom_site_fract_z
 _atom_site_occupancy
 _atom_site_charge
Mg  Mg1  1  0.76319000  0.06213000  0.77419000  1.0 1.3181174789
Mg  Mg2  1  0.73681000  0.06213000  0.22581000  1.0 1.3181174789
Mg  Mg3  1  0.23681000  0.93787000  0.22581000  1.0 1.3181174789
Mg  Mg4  1  0.26319000  0.93787000  0.77419000  1.0 1.3181174789
Mg  Mg5  1  0.72383000  0.28265000  0.69643000  1.0 1.3834101949
Mg  Mg6  1  0.77617000  0.28265000  0.30357000  1.0 1.3834101949
Mg  Mg7  1  0.27617000  0.71735000  0.30357000  1.0 1.3834101949
Mg  Mg8  1  0.22383000  0.71735000  0.69643000  1.0 1.3834101949
H  H1  1  0.50340000  0.96600000  0.75170000  1.0 0.1382325378
H  H2  1  0.99660000  0.96600000  0.24830000  1.0 0.1382325378
H  H3  1  0.49660000  0.03400000  0.24830000  1.0 0.1382325378
H  H4  1  0.00340000  0.03400000  0.75170000  1.0 0.1382325378
H  H5  1  0.85140000  0.75980000  0.87130000  1.0 0.1382325378
H  H6  1  0.64860000  0.75980000  0.12870000  1.0 0.1382325378
H  H7  1  0.14860000  0.24020000  0.12870000  1.0 0.1382325378
H  H8  1  0.35140000  0.24020000  0.87130000  1.0 0.1382325378
H  H9  1  0.40110000  0.89140000  0.64350000  1.0 0.1303693671
H  H10  1  0.09890000  0.89140000  0.35650000  1.0 0.1303693671
H  H11  1  0.59890000  0.10860000  0.35650000  1.0 0.1303693671
H  H12  1  0.90110000  0.10860000  0.64350000  1.0 0.1303693671
H  H13  1  0.75490000  0.60520000  0.77070000  1.0 0.1382325378
H  H14  1  0.74510000  0.60520000  0.22930000  1.0 0.1382325378
H  H15  1  0.24510000  0.39480000  0.22930000  1.0 0.1382325378
H  H16  1  0.25490000  0.39480000  0.77070000  1.0 0.1382325378
H  H17  1  0.83320000  0.36420000  0.85900000  1.0 0.1382325378
H  H18  1  0.66680000  0.36420000  0.14100000  1.0 0.1382325378
H  H19  1  0.16680000  0.63580000  0.14100000  1.0 0.1382325378
H  H20  1  0.33320000  0.63580000  0.85900000  1.0 0.1382325378
H  H21  1  0.60340000  0.04850000  0.65890000  1.0 0.1209961217
H  H22  1  0.89660000  0.04850000  0.34110000  1.0 0.1209961217
H  H23  1  0.39660000  0.95150000  0.34110000  1.0 0.1303693671
H  H24  1  0.10340000  0.95150000  0.65890000  1.0 0.1303693671
H  H25  1  0.81250000  0.54590000  0.01020000  1.0 0.1209961217
H  H26  1  0.68750000  0.54590000  0.98980000  1.0 0.1209961217
H  H27  1  0.18750000  0.45410000  0.98980000  1.0 0.1209961217
H  H28  1  0.31250000  0.45410000  0.01020000  1.0 0.1209961217
H  H29  1  0.11420000  0.47030000  0.92680000  1.0 0.1382325378
H  H30  1  0.38580000  0.47030000  0.07320000  1.0 0.1382325378
H  H31  1  0.88580000  0.52970000  0.07320000  1.0 0.1382325378
H  H32  1  0.61420000  0.52970000  0.92680000  1.0 0.1382325378
H  H33  1  0.58810000  0.73580000  0.46730000  1.0 0.1209961217
H  H34  1  0.91190000  0.73580000  0.53270000  1.0 0.1209961217
H  H35  1  0.41190000  0.26420000  0.53270000  1.0 0.1209961217
H  H36  1  0.08810000  0.26420000  0.46730000  1.0 0.1209961217
H  H37  1  0.62540000  0.76310000  0.53490000  1.0 0.1303693671
H  H38  1  0.87460000  0.76310000  0.46510000  1.0 0.1303693671
H  H39  1  0.37460000  0.23690000  0.46510000  1.0 0.1303693671
H  H40  1  0.12540000  0.23690000  0.53490000  1.0 0.1303693671
C  C1  1  0.50410000  0.96820000  0.72463000  1.0 -0.0904570927
C  C2  1  0.99590000  0.96820000  0.27537000  1.0 -0.0904570927
C  C3  1  0.49590000  0.03180000  0.27537000  1.0 -0.0904570927
C  C4  1  0.00410000  0.03180000  0.72463000  1.0 -0.0904570927
C  C5  1  0.83540000  0.68600000  0.85618000  1.0 -0.1512883709
C  C6  1  0.66460000  0.68600000  0.14382000  1.0 -0.1512883709
C  C7  1  0.16460000  0.31400000  0.14382000  1.0 -0.1512883709
C  C8  1  0.33540000  0.31400000  0.85618000  1.0 -0.1512883709
C  C9  1  0.63620000  0.05450000  0.73559000  1.0 0.5916663502
C  C10  1  0.86380000  0.05450000  0.26441000  1.0 0.5916663502
C  C11  1  0.36380000  0.94550000  0.26441000  1.0 0.5916663502
C  C12  1  0.13620000  0.94550000  0.73559000  1.0 0.5916663502
C  C13  1  0.78920000  0.46450000  0.81149000  1.0 -0.0028201589
C  C14  1  0.71080000  0.46450000  0.18851000  1.0 -0.0028201589
C  C15  1  0.21080000  0.53550000  0.18851000  1.0 -0.0071329051
C  C16  1  0.28920000  0.53550000  0.81149000  1.0 -0.0071329051
C  C17  1  0.78650000  0.84070000  0.80168000  1.0 0.5537926052
C  C18  1  0.71350000  0.84070000  0.19832000  1.0 0.5537926052
C  C19  1  0.21350000  0.15930000  0.19832000  1.0 0.5537926052
C  C20  1  0.28650000  0.15930000  0.80168000  1.0 0.5537926052
C  C21  1  0.76540000  0.34700000  0.78569000  1.0 0.6264794413
C  C22  1  0.73460000  0.34700000  0.21431000  1.0 0.6264794413
C  C23  1  0.23460000  0.65300000  0.21431000  1.0 0.6264794413
C  C24  1  0.26540000  0.65300000  0.78569000  1.0 0.6264794413
C  C25  1  0.44170000  0.92480000  0.66005000  1.0 -0.1410543006
C  C26  1  0.05830000  0.92480000  0.33995000  1.0 -0.1410543006
C  C27  1  0.55830000  0.07520000  0.33995000  1.0 -0.1410543006
C  C28  1  0.94170000  0.07520000  0.66005000  1.0 -0.1410543006
C  C29  1  0.50050000  0.99670000  0.52076000  1.0 0.0289436207
C  C30  1  0.99950000  0.99670000  0.47924000  1.0 0.0289436207
C  C31  1  0.49950000  0.00330000  0.47924000  1.0 0.0289436207
C  C32  1  0.00050000  0.00330000  0.52076000  1.0 0.0289436207
C  C33  1  0.50350000  0.97700000  0.64530000  1.0 0.161252996
C  C34  1  0.99650000  0.97700000  0.35470000  1.0 0.161252996
C  C35  1  0.49650000  0.02300000  0.35470000  1.0 0.161252996
C  C36  1  0.00350000  0.02300000  0.64530000  1.0 0.161252996
C  C37  1  0.90130000  0.53260000  0.97998000  1.0 -0.0637772036
C  C38  1  0.59870000  0.53260000  0.02002000  1.0 -0.0637772036
C  C39  1  0.09870000  0.46740000  0.02002000  1.0 -0.0637772036
C  C40  1  0.40130000  0.46740000  0.97998000  1.0 -0.0637772036
C  C41  1  0.77740000  0.59350000  0.79626000  1.0 -0.0904570927
C  C42  1  0.72260000  0.59350000  0.20374000  1.0 -0.0904570927
C  C43  1  0.22260000  0.40650000  0.20374000  1.0 -0.0904570927
C  C44  1  0.27740000  0.40650000  0.79626000  1.0 -0.0904570927
C  C45  1  0.96880000  0.51640000  0.90868000  1.0 0.4210117665
C  C46  1  0.53120000  0.51640000  0.09132000  1.0 0.4210117665
C  C47  1  0.03120000  0.48360000  0.09132000  1.0 0.4210117665
C  C48  1  0.46880000  0.48360000  0.90868000  1.0 0.4210117665
C  C49  1  0.97760000  0.50690000  0.98137000  1.0 0.0289436207
C  C50  1  0.52240000  0.50690000  0.01863000  1.0 0.0289436207
C  C51  1  0.02240000  0.49310000  0.01863000  1.0 0.0289436207
C  C52  1  0.47760000  0.49310000  0.98137000  1.0 0.0289436207
C  C53  1  0.84800000  0.55810000  0.87091000  1.0 0.1713593845
C  C54  1  0.65200000  0.55810000  0.12909000  1.0 0.1713593845
C  C55  1  0.15200000  0.44190000  0.12909000  1.0 0.1713593845
C  C56  1  0.34800000  0.44190000  0.87091000  1.0 0.1713593845
C  C57  1  0.54410000  0.89750000  0.54123000  1.0 -0.0637772036
C  C58  1  0.95590000  0.89750000  0.45877000  1.0 -0.0637772036
C  C59  1  0.45590000  0.10250000  0.45877000  1.0 -0.0637772036
C  C60  1  0.04410000  0.10250000  0.54123000  1.0 -0.0637772036
C  C61  1  0.79890000  0.70220000  0.81884000  1.0 0.0104382635
C  C62  1  0.70110000  0.70220000  0.18116000  1.0 0.0104382635
C  C63  1  0.20110000  0.29780000  0.18116000  1.0 0.0104382635
C  C64  1  0.29890000  0.29780000  0.81884000  1.0 0.0104382635
C  C65  1  0.56760000  0.01660000  0.70915000  1.0 -0.0204574018
C  C66  1  0.93240000  0.01660000  0.29085000  1.0 -0.0204574018
C  C67  1  0.43240000  0.98340000  0.29085000  1.0 -0.0204574018
C  C68  1  0.06760000  0.98340000  0.70915000  1.0 -0.0204574018
C  C69  1  0.44090000  0.92250000  0.70025000  1.0 -0.0028201589
C  C70  1  0.05910000  0.92250000  0.29975000  1.0 -0.0028201589
C  C71  1  0.55910000  0.07750000  0.29975000  1.0 -0.0028201589
C  C72  1  0.94090000  0.07750000  0.70025000  1.0 -0.0028201589
C  C73  1  0.82480000  0.44920000  0.84871000  1.0 -0.1512883709
C  C74  1  0.67520000  0.44920000  0.15129000  1.0 -0.1512883709
C  C75  1  0.17520000  0.55080000  0.15129000  1.0 -0.1512883709
C  C76  1  0.32480000  0.55080000  0.84871000  1.0 -0.1512883709
C  C77  1  0.37090000  0.87330000  0.71735000  1.0 0.636932442
C  C78  1  0.12910000  0.87330000  0.28265000  1.0 0.636932442
C  C79  1  0.62910000  0.12670000  0.28265000  1.0 0.636932442
C  C80  1  0.87090000  0.12670000  0.71735000  1.0 0.636932442
C  C81  1  0.54610000  0.88990000  0.58467000  1.0 0.426726075
C  C82  1  0.95390000  0.88990000  0.41533000  1.0 0.426726075
C  C83  1  0.45390000  0.11010000  0.41533000  1.0 0.426726075
C  C84  1  0.04610000  0.11010000  0.58467000  1.0 0.426726075
C  C85  1  0.56670000  0.01980000  0.66873000  1.0 -0.1512883709
C  C86  1  0.93330000  0.01980000  0.33127000  1.0 -0.1512883709
C  C87  1  0.43330000  0.98020000  0.33127000  1.0 -0.1512883709
C  C88  1  0.06670000  0.98020000  0.66873000  1.0 -0.1512883709
C  C89  1  0.86590000  0.53590000  0.01466000  1.0 -0.0904570927
C  C90  1  0.63410000  0.53590000  0.98534000  1.0 -0.0904570927
C  C91  1  0.13410000  0.46410000  0.98534000  1.0 -0.0904570927
C  C92  1  0.36590000  0.46410000  0.01466000  1.0 -0.0904570927
C  C93  1  0.09090000  0.47760000  0.94970000  1.0 -0.0684609021
C  C94  1  0.40910000  0.47760000  0.05030000  1.0 -0.0684609021
C  C95  1  0.90910000  0.52240000  0.05030000  1.0 -0.0684609021
C  C96  1  0.59090000  0.52240000  0.94970000  1.0 -0.0684609021
C  C97  1  0.01420000  0.50170000  0.94719000  1.0 -0.0637772036
C  C98  1  0.48580000  0.50170000  0.05281000  1.0 -0.0637772036
C  C99  1  0.98580000  0.49830000  0.05281000  1.0 -0.0637772036
C  C100  1  0.51420000  0.49830000  0.94719000  1.0 -0.0637772036
C  C101  1  0.85360000  0.54500000  0.94173000  1.0 0.4210117665
C  C102  1  0.64640000  0.54500000  0.05827000  1.0 0.4210117665
C  C103  1  0.14640000  0.45500000  0.05827000  1.0 0.4210117665
C  C104  1  0.35360000  0.45500000  0.94173000  1.0 0.4210117665
C  C105  1  0.46030000  0.08650000  0.58343000  1.0 0.426726075
C  C106  1  0.03970000  0.08650000  0.41657000  1.0 0.426726075
C  C107  1  0.53970000  0.91350000  0.41657000  1.0 0.426726075
C  C108  1  0.96030000  0.91350000  0.58343000  1.0 0.426726075
C  C109  1  0.46040000  0.09040000  0.53965000  1.0 -0.0684609021
C  C110  1  0.03960000  0.09040000  0.46035000  1.0 -0.0684609021
C  C111  1  0.53960000  0.90960000  0.46035000  1.0 -0.0684609021
C  C112  1  0.96040000  0.90960000  0.53965000  1.0 -0.0684609021
C  C113  1  0.58290000  0.81390000  0.48153000  1.0 -0.096675938
C  C114  1  0.91710000  0.81390000  0.51847000  1.0 -0.096675938
C  C115  1  0.41710000  0.18610000  0.51847000  1.0 -0.096675938
C  C116  1  0.08290000  0.18610000  0.48153000  1.0 -0.096675938
C  C117  1  0.58450000  0.80820000  0.52180000  1.0 -0.0904570927
C  C118  1  0.91550000  0.80820000  0.47820000  1.0 -0.0904570927
C  C119  1  0.41550000  0.19180000  0.47820000  1.0 -0.0849798973
C  C120  1  0.08450000  0.19180000  0.52180000  1.0 -0.0849798973
N  N1  1  0.89215000  0.54110000  0.90895000  1.0 -0.2124598641
N  N2  1  0.60785000  0.54110000  0.09105000  1.0 -0.2124598641
N  N3  1  0.10785000  0.45890000  0.09105000  1.0 -0.2124598641
N  N4  1  0.39215000  0.45890000  0.90895000  1.0 -0.2124598641
N  N5  1  0.50370000  0.98490000  0.60218000  1.0 -0.2198198605
N  N6  1  0.99630000  0.98490000  0.39782000  1.0 -0.2198198605
N  N7  1  0.49630000  0.01510000  0.39782000  1.0 -0.2198198605
N  N8  1  0.00370000  0.01510000  0.60218000  1.0 -0.2198198605
O  O1  1  0.74485000  0.36650000  0.75078000  1.0 -0.6622300353
O  O2  1  0.75515000  0.36650000  0.24922000  1.0 -0.6622300353
O  O3  1  0.25515000  0.63350000  0.24922000  1.0 -0.6622300353
O  O4  1  0.24485000  0.63350000  0.75078000  1.0 -0.6622300353
O  O5  1  0.32960000  0.79450000  0.69594000  1.0 -0.674102446
O  O6  1  0.17040000  0.79450000  0.30406000  1.0 -0.674102446
O  O7  1  0.67040000  0.20550000  0.30406000  1.0 -0.674102446
O  O8  1  0.82960000  0.20550000  0.69594000  1.0 -0.674102446
O  O9  1  0.58000000  0.80360000  0.60369000  1.0 -0.3942606594
O  O10  1  0.92000000  0.80360000  0.39631000  1.0 -0.3942606594
O  O11  1  0.42000000  0.19640000  0.39631000  1.0 -0.3977382047
O  O12  1  0.08000000  0.19640000  0.60369000  1.0 -0.3942606594
O  O13  1  0.42730000  0.16410000  0.60189000  1.0 -0.3942606594
O  O14  1  0.07270000  0.16410000  0.39811000  1.0 -0.3942606594
O  O15  1  0.57270000  0.83590000  0.39811000  1.0 -0.3977382047
O  O16  1  0.92730000  0.83590000  0.60189000  1.0 -0.3977382047
O  O17  1  0.69290000  0.09950000  0.71998000  1.0 -0.7282269802
O  O18  1  0.80710000  0.09950000  0.28002000  1.0 -0.7282269802
O  O19  1  0.30710000  0.90050000  0.28002000  1.0 -0.7282269802
O  O20  1  0.19290000  0.90050000  0.71998000  1.0 -0.7282269802
O  O21  1  0.63973000  0.03470000  0.77160000  1.0 -0.5564772095
O  O22  1  0.86027000  0.03470000  0.22840000  1.0 -0.5564772095
O  O23  1  0.36027000  0.96530000  0.22840000  1.0 -0.5547436084
O  O24  1  0.13973000  0.96530000  0.77160000  1.0 -0.5564772095
O  O25  1  0.35994000  0.91510000  0.75026000  1.0 -0.6285788174
O  O26  1  0.14006000  0.91510000  0.24974000  1.0 -0.6285788174
O  O27  1  0.64006000  0.08490000  0.24974000  1.0 -0.6285788174
O  O28  1  0.85994000  0.08490000  0.75026000  1.0 -0.6285788174
O  O29  1  0.76958000  0.23450000  0.80235000  1.0 -0.6489167865
O  O30  1  0.73042000  0.23450000  0.19765000  1.0 -0.6489167865
O  O31  1  0.23042000  0.76550000  0.19765000  1.0 -0.6489167865
O  O32  1  0.26958000  0.76550000  0.80235000  1.0 -0.6489167865
O  O33  1  0.79729000  0.94100000  0.82291000  1.0 -0.6012879665
O  O34  1  0.70271000  0.94100000  0.17709000  1.0 -0.6012879665
O  O35  1  0.20271000  0.05900000  0.17709000  1.0 -0.6012879665
O  O36  1  0.29729000  0.05900000  0.82291000  1.0 -0.6012879665
O  O37  1  0.76474000  0.85010000  0.76603000  1.0 -0.583802944
O  O38  1  0.73526000  0.85010000  0.23397000  1.0 -0.583802944
O  O39  1  0.23526000  0.14990000  0.23397000  1.0 -0.583802944
O  O40  1  0.26474000  0.14990000  0.76603000  1.0 -0.583802944
O  O41  1  0.78580000  0.56680000  0.93812000  1.0 -0.4154838081
O  O42  1  0.71420000  0.56680000  0.06188000  1.0 -0.4142335262
O  O43  1  0.21420000  0.43320000  0.06188000  1.0 -0.4142335262
O  O44  1  0.28580000  0.43320000  0.93812000  1.0 -0.4154838081
O  O45  1  0.99680000  0.51010000  0.87773000  1.0 -0.3977382047
O  O46  1  0.50320000  0.51010000  0.12227000  1.0 -0.3977382047
O  O47  1  0.00320000  0.48990000  0.12227000  1.0 -0.3977382047
O  O48  1  0.49680000  0.48990000  0.87773000  1.0 -0.3977382047
