# DDEC6 charges by PACMAN v1.1 (https://github.com/mtap-research/PACMAN-charge/)
data_COSWEO_ASR_pacman
_symmetry_space_group_name_H-M   'P 1'
_cell_length_a   6.64950000
_cell_length_b   20.81200000
_cell_length_c   20.86500000
_cell_angle_alpha   90.00000000
_cell_angle_beta   90.00000000
_cell_angle_gamma   90.00000000
_symmetry_Int_Tables_number   1
_chemical_formula_structural   BaH2(CO)6
_chemical_formula_sum   'Ba12 H24 C72 O72'
_cell_volume   2887.49470581
_cell_formula_units_Z   12
loop_
 _symmetry_equiv_pos_site_id
 _symmetry_equiv_pos_as_xyz
  1  'x, y, z'
loop_
 _atom_site_type_symbol
 _atom_site_label
 _atom_site_symmetry_multiplicity
 _atom_site_fract_x
 _atom_site_fract_y
 _atom_site_fract_z
 _atom_site_occupancy
 _atom_site_charge
Ba  Ba1  1  0.13785000  0.00000000  0.25000000  1.0 1.4033766085
Ba  Ba2  1  0.36215000  0.50000000  0.75000000  1.0 1.4033766085
Ba  Ba3  1  0.86215000  0.00000000  0.75000000  1.0 1.4033766085
Ba  Ba4  1  0.63785000  0.50000000  0.25000000  1.0 1.4033766085
Ba  Ba5  1  0.39394000  0.13996000  0.11495000  1.0 1.4344144756
Ba  Ba6  1  0.10606000  0.36004000  0.61495000  1.0 1.4344144756
Ba  Ba7  1  0.39394000  0.86004000  0.38505000  1.0 1.4344144756
Ba  Ba8  1  0.10606000  0.63996000  0.88505000  1.0 1.4344144756
Ba  Ba9  1  0.60606000  0.86004000  0.88505000  1.0 1.4344144756
Ba  Ba10  1  0.89394000  0.63996000  0.38505000  1.0 1.4344144756
Ba  Ba11  1  0.60606000  0.13996000  0.61495000  1.0 1.4344144756
Ba  Ba12  1  0.89394000  0.36004000  0.11495000  1.0 1.4344144756
H  H1  1  0.23360000  0.19600000  0.41400000  1.0 0.1309776722
H  H2  1  0.26640000  0.30400000  0.91400000  1.0 0.1309776722
H  H3  1  0.23360000  0.80400000  0.08600000  1.0 0.1309776722
H  H4  1  0.26640000  0.69600000  0.58600000  1.0 0.1309776722
H  H5  1  0.76640000  0.80400000  0.58600000  1.0 0.1309776722
H  H6  1  0.73360000  0.69600000  0.08600000  1.0 0.1309776722
H  H7  1  0.76640000  0.19600000  0.91400000  1.0 0.1309776722
H  H8  1  0.73360000  0.30400000  0.41400000  1.0 0.1309776722
H  H9  1  0.25100000  0.38300000  0.36870000  1.0 0.1309776722
H  H10  1  0.24900000  0.11700000  0.86870000  1.0 0.1309776722
H  H11  1  0.25100000  0.61700000  0.13130000  1.0 0.1309776722
H  H12  1  0.24900000  0.88300000  0.63130000  1.0 0.1309776722
H  H13  1  0.74900000  0.61700000  0.63130000  1.0 0.1309776722
H  H14  1  0.75100000  0.88300000  0.13130000  1.0 0.1309776722
H  H15  1  0.74900000  0.38300000  0.86870000  1.0 0.1309776722
H  H16  1  0.75100000  0.11700000  0.36870000  1.0 0.1309776722
H  H17  1  0.25620000  0.25020000  0.22940000  1.0 0.1309776722
H  H18  1  0.24380000  0.24980000  0.72940000  1.0 0.1309776722
H  H19  1  0.25620000  0.74980000  0.27060000  1.0 0.1309776722
H  H20  1  0.24380000  0.75020000  0.77060000  1.0 0.1309776722
H  H21  1  0.74380000  0.74980000  0.77060000  1.0 0.1309776722
H  H22  1  0.75620000  0.75020000  0.27060000  1.0 0.1309776722
H  H23  1  0.74380000  0.25020000  0.72940000  1.0 0.1309776722
H  H24  1  0.75620000  0.24980000  0.22940000  1.0 0.1309776722
C  C1  1  0.25220000  0.14310000  0.29710000  1.0 0.5688294278
C  C2  1  0.24780000  0.35690000  0.79710000  1.0 0.5688294278
C  C3  1  0.25220000  0.85690000  0.20290000  1.0 0.5688294278
C  C4  1  0.24780000  0.64310000  0.70290000  1.0 0.5688294278
C  C5  1  0.74780000  0.85690000  0.70290000  1.0 0.5688294278
C  C6  1  0.75220000  0.64310000  0.20290000  1.0 0.5688294278
C  C7  1  0.74780000  0.14310000  0.79710000  1.0 0.5688294278
C  C8  1  0.75220000  0.35690000  0.29710000  1.0 0.5688294278
C  C9  1  0.25000000  0.21150000  0.31820000  1.0 -0.0198745809
C  C10  1  0.25000000  0.28850000  0.81820000  1.0 -0.0198745809
C  C11  1  0.25000000  0.78850000  0.18180000  1.0 -0.0198745809
C  C12  1  0.25000000  0.71150000  0.68180000  1.0 -0.0198745809
C  C13  1  0.75000000  0.78850000  0.68180000  1.0 -0.0198745809
C  C14  1  0.75000000  0.71150000  0.18180000  1.0 -0.0198745809
C  C15  1  0.75000000  0.21150000  0.81820000  1.0 -0.0198745809
C  C16  1  0.75000000  0.28850000  0.31820000  1.0 -0.0198745809
C  C17  1  0.23930000  0.22820000  0.38310000  1.0 -0.0798176682
C  C18  1  0.26070000  0.27180000  0.88310000  1.0 -0.0798176682
C  C19  1  0.23930000  0.77180000  0.11690000  1.0 -0.0798176682
C  C20  1  0.26070000  0.72820000  0.61690000  1.0 -0.0798176682
C  C21  1  0.76070000  0.77180000  0.61690000  1.0 -0.0798176682
C  C22  1  0.73930000  0.72820000  0.11690000  1.0 -0.0798176682
C  C23  1  0.76070000  0.22820000  0.88310000  1.0 -0.0798176682
C  C24  1  0.73930000  0.27180000  0.38310000  1.0 -0.0798176682
C  C25  1  0.23700000  0.29240000  0.40220000  1.0 -0.0105334185
C  C26  1  0.26300000  0.20760000  0.90220000  1.0 -0.0105334185
C  C27  1  0.23700000  0.70760000  0.09780000  1.0 -0.0105334185
C  C28  1  0.26300000  0.79240000  0.59780000  1.0 -0.0105334185
C  C29  1  0.76300000  0.70760000  0.59780000  1.0 -0.0105334185
C  C30  1  0.73700000  0.79240000  0.09780000  1.0 -0.0105334185
C  C31  1  0.76300000  0.29240000  0.90220000  1.0 -0.0105334185
C  C32  1  0.73700000  0.20760000  0.40220000  1.0 -0.0105334185
C  C33  1  0.24800000  0.34010000  0.35630000  1.0 -0.0902866094
C  C34  1  0.25200000  0.15990000  0.85630000  1.0 -0.0902866094
C  C35  1  0.24800000  0.65990000  0.14370000  1.0 -0.0902866094
C  C36  1  0.25200000  0.84010000  0.64370000  1.0 -0.0902866094
C  C37  1  0.75200000  0.65990000  0.64370000  1.0 -0.0902866094
C  C38  1  0.74800000  0.84010000  0.14370000  1.0 -0.0902866094
C  C39  1  0.75200000  0.34010000  0.85630000  1.0 -0.0902866094
C  C40  1  0.74800000  0.15990000  0.35630000  1.0 -0.0902866094
C  C41  1  0.25460000  0.32430000  0.29090000  1.0 -0.0198745809
C  C42  1  0.24540000  0.17570000  0.79090000  1.0 -0.0198745809
C  C43  1  0.25460000  0.67570000  0.20910000  1.0 -0.0198745809
C  C44  1  0.24540000  0.82430000  0.70910000  1.0 -0.0198745809
C  C45  1  0.74540000  0.67570000  0.70910000  1.0 -0.0198745809
C  C46  1  0.75460000  0.82430000  0.20910000  1.0 -0.0198745809
C  C47  1  0.74540000  0.32430000  0.79090000  1.0 -0.0198745809
C  C48  1  0.75460000  0.17570000  0.29090000  1.0 -0.0198745809
C  C49  1  0.25400000  0.26060000  0.27270000  1.0 -0.1143500904
C  C50  1  0.24600000  0.23940000  0.77270000  1.0 -0.1143500904
C  C51  1  0.25400000  0.73940000  0.22730000  1.0 -0.1143500904
C  C52  1  0.24600000  0.76060000  0.72730000  1.0 -0.1143500904
C  C53  1  0.74600000  0.73940000  0.72730000  1.0 -0.1143500904
C  C54  1  0.75400000  0.76060000  0.22730000  1.0 -0.1143500904
C  C55  1  0.74600000  0.26060000  0.77270000  1.0 -0.1143500904
C  C56  1  0.75400000  0.23940000  0.27270000  1.0 -0.1143500904
C  C57  1  0.22040000  0.30870000  0.47200000  1.0 0.5688294278
C  C58  1  0.27960000  0.19130000  0.97200000  1.0 0.5688294278
C  C59  1  0.22040000  0.69130000  0.02800000  1.0 0.5688294278
C  C60  1  0.27960000  0.80870000  0.52800000  1.0 0.5688294278
C  C61  1  0.77960000  0.69130000  0.52800000  1.0 0.5688294278
C  C62  1  0.72040000  0.80870000  0.02800000  1.0 0.5688294278
C  C63  1  0.77960000  0.30870000  0.97200000  1.0 0.5688294278
C  C64  1  0.72040000  0.19130000  0.47200000  1.0 0.5688294278
C  C65  1  0.26540000  0.37590000  0.24050000  1.0 0.5917353326
C  C66  1  0.23460000  0.12410000  0.74050000  1.0 0.5917353326
C  C67  1  0.26540000  0.62410000  0.25950000  1.0 0.5917353326
C  C68  1  0.23460000  0.87590000  0.75950000  1.0 0.5917353326
C  C69  1  0.73460000  0.62410000  0.75950000  1.0 0.5917353326
C  C70  1  0.76540000  0.87590000  0.25950000  1.0 0.5917353326
C  C71  1  0.73460000  0.37590000  0.74050000  1.0 0.5917353326
C  C72  1  0.76540000  0.12410000  0.24050000  1.0 0.5917353326
O  O1  1  0.24350000  0.09872000  0.33854000  1.0 -0.4903631887
O  O2  1  0.25650000  0.40128000  0.83854000  1.0 -0.4903631887
O  O3  1  0.24350000  0.90128000  0.16146000  1.0 -0.4903631887
O  O4  1  0.25650000  0.59872000  0.66146000  1.0 -0.4903631887
O  O5  1  0.75650000  0.90128000  0.66146000  1.0 -0.4903631887
O  O6  1  0.74350000  0.59872000  0.16146000  1.0 -0.4903631887
O  O7  1  0.75650000  0.09872000  0.83854000  1.0 -0.4903631887
O  O8  1  0.74350000  0.40128000  0.33854000  1.0 -0.4903631887
O  O9  1  0.26270000  0.13074000  0.23789000  1.0 -0.6243135935
O  O10  1  0.23730000  0.36926000  0.73789000  1.0 -0.6243135935
O  O11  1  0.26270000  0.86926000  0.26211000  1.0 -0.6243135935
O  O12  1  0.23730000  0.63074000  0.76211000  1.0 -0.6243135935
O  O13  1  0.73730000  0.86926000  0.76211000  1.0 -0.6243135935
O  O14  1  0.76270000  0.63074000  0.26211000  1.0 -0.6243135935
O  O15  1  0.73730000  0.13074000  0.73789000  1.0 -0.6243135935
O  O16  1  0.76270000  0.36926000  0.23789000  1.0 -0.6243135935
O  O17  1  0.25660000  0.36610000  0.48943000  1.0 -0.5714067525
O  O18  1  0.24340000  0.13390000  0.98943000  1.0 -0.5714067525
O  O19  1  0.25660000  0.63390000  0.01057000  1.0 -0.5714067525
O  O20  1  0.24340000  0.86610000  0.51057000  1.0 -0.5714067525
O  O21  1  0.74340000  0.63390000  0.51057000  1.0 -0.5714067525
O  O22  1  0.75660000  0.86610000  0.01057000  1.0 -0.5714067525
O  O23  1  0.74340000  0.36610000  0.98943000  1.0 -0.5714067525
O  O24  1  0.75660000  0.13390000  0.48943000  1.0 -0.5714067525
O  O25  1  0.16800000  0.26650000  0.51095000  1.0 -0.4828617579
O  O26  1  0.33200000  0.23350000  0.01095000  1.0 -0.4828617579
O  O27  1  0.16800000  0.73350000  0.98905000  1.0 -0.4828617579
O  O28  1  0.33200000  0.76650000  0.48905000  1.0 -0.4828617579
O  O29  1  0.83200000  0.73350000  0.48905000  1.0 -0.4828617579
O  O30  1  0.66800000  0.76650000  0.98905000  1.0 -0.4828617579
O  O31  1  0.83200000  0.26650000  0.01095000  1.0 -0.4828617579
O  O32  1  0.66800000  0.23350000  0.51095000  1.0 -0.4828617579
O  O33  1  0.25180000  0.35963000  0.18230000  1.0 -0.4903631887
O  O34  1  0.24820000  0.14037000  0.68230000  1.0 -0.4903631887
O  O35  1  0.25180000  0.64037000  0.31770000  1.0 -0.4903631887
O  O36  1  0.24820000  0.85963000  0.81770000  1.0 -0.4903631887
O  O37  1  0.74820000  0.64037000  0.81770000  1.0 -0.4903631887
O  O38  1  0.75180000  0.85963000  0.31770000  1.0 -0.4903631887
O  O39  1  0.74820000  0.35963000  0.68230000  1.0 -0.4903631887
O  O40  1  0.75180000  0.14037000  0.18230000  1.0 -0.4903631887
O  O41  1  0.28790000  0.43290000  0.25900000  1.0 -0.4903631887
O  O42  1  0.21210000  0.06710000  0.75900000  1.0 -0.4903631887
O  O43  1  0.28790000  0.56710000  0.24100000  1.0 -0.4903631887
O  O44  1  0.21210000  0.93290000  0.74100000  1.0 -0.4903631887
O  O45  1  0.71210000  0.56710000  0.74100000  1.0 -0.4903631887
O  O46  1  0.78790000  0.93290000  0.24100000  1.0 -0.4903631887
O  O47  1  0.71210000  0.43290000  0.75900000  1.0 -0.4903631887
O  O48  1  0.78790000  0.06710000  0.25900000  1.0 -0.4903631887
O  O49  1  0.04920000  0.05530000  0.12580000  1.0 -0.3623744442
O  O50  1  0.45080000  0.44470000  0.62580000  1.0 -0.3623744442
O  O51  1  0.04920000  0.94470000  0.37420000  1.0 -0.3623744442
O  O52  1  0.45080000  0.55530000  0.87420000  1.0 -0.3623744442
O  O53  1  0.95080000  0.94470000  0.87420000  1.0 -0.3623744442
O  O54  1  0.54920000  0.55530000  0.37420000  1.0 -0.3623744442
O  O55  1  0.95080000  0.05530000  0.62580000  1.0 -0.3623744442
O  O56  1  0.54920000  0.44470000  0.12580000  1.0 -0.3623744442
O  O57  1  0.03430000  0.22157000  0.12414000  1.0 -0.1818332939
O  O58  1  0.46570000  0.27843000  0.62414000  1.0 -0.1818332939
O  O59  1  0.03430000  0.77843000  0.37586000  1.0 -0.1818332939
O  O60  1  0.46570000  0.72157000  0.87586000  1.0 -0.1818332939
O  O61  1  0.96570000  0.77843000  0.87586000  1.0 -0.1818332939
O  O62  1  0.53430000  0.72157000  0.37586000  1.0 -0.1818332939
O  O63  1  0.96570000  0.22157000  0.62414000  1.0 -0.1818332939
O  O64  1  0.53430000  0.27843000  0.12414000  1.0 -0.1818332939
O  O65  1  0.49480000  0.01660000  0.16750000  1.0 -0.2298136285
O  O66  1  0.00520000  0.48340000  0.66750000  1.0 -0.2298136285
O  O67  1  0.49480000  0.98340000  0.33250000  1.0 -0.2298136285
O  O68  1  0.00520000  0.51660000  0.83250000  1.0 -0.2298136285
O  O69  1  0.50520000  0.98340000  0.83250000  1.0 -0.2298136285
O  O70  1  0.99480000  0.51660000  0.33250000  1.0 -0.2298136285
O  O71  1  0.50520000  0.01660000  0.66750000  1.0 -0.2298136285
O  O72  1  0.99480000  0.48340000  0.16750000  1.0 -0.2298136285
