# DDEC6 charges by PACMAN v1.1 (https://github.com/mtap-research/PACMAN-charge/)
data_COTVIS_FSR_pacman
_symmetry_space_group_name_H-M   'P 1'
_cell_length_a   14.59520000
_cell_length_b   16.73290000
_cell_length_c   20.63370000
_cell_angle_alpha   90.00000000
_cell_angle_beta   115.12500000
_cell_angle_gamma   90.00000000
_symmetry_Int_Tables_number   1
_chemical_formula_structural   Nd2H24C31O16
_chemical_formula_sum   'Nd8 H96 C124 O64'
_cell_volume   4562.37534409
_cell_formula_units_Z   4
loop_
 _symmetry_equiv_pos_site_id
 _symmetry_equiv_pos_as_xyz
  1  'x, y, z'
loop_
 _atom_site_type_symbol
 _atom_site_label
 _atom_site_symmetry_multiplicity
 _atom_site_fract_x
 _atom_site_fract_y
 _atom_site_fract_z
 _atom_site_occupancy
 _atom_site_charge
Nd  Nd1  1  0.99267000  0.34308000  0.66885000  1.0 2.0170326345
Nd  Nd2  1  0.00733000  0.84308000  0.83115000  1.0 2.0170326345
Nd  Nd3  1  0.00733000  0.65692000  0.33115000  1.0 2.0170326345
Nd  Nd4  1  0.99267000  0.15692000  0.16885000  1.0 2.0170326345
Nd  Nd5  1  0.69315000  0.36419000  0.77086000  1.0 1.8866601103
Nd  Nd6  1  0.30685000  0.86419000  0.72914000  1.0 1.8866601103
Nd  Nd7  1  0.30685000  0.63581000  0.22914000  1.0 1.8866601103
Nd  Nd8  1  0.69315000  0.13581000  0.27086000  1.0 1.8866601103
H  H1  1  0.92960000  0.30460000  0.93710000  1.0 0.1464353713
H  H2  1  0.07040000  0.80460000  0.56290000  1.0 0.1464353713
H  H3  1  0.07040000  0.69540000  0.06290000  1.0 0.1464353713
H  H4  1  0.92960000  0.19540000  0.43710000  1.0 0.1464353713
H  H5  1  0.21100000  0.22140000  0.04870000  1.0 0.1396955774
H  H6  1  0.78900000  0.72140000  0.45130000  1.0 0.1396955774
H  H7  1  0.78900000  0.77860000  0.95130000  1.0 0.1396955774
H  H8  1  0.21100000  0.27860000  0.54870000  1.0 0.1396955774
H  H9  1  0.14040000  0.33050000  0.85830000  1.0 0.1294700595
H  H10  1  0.85960000  0.83050000  0.64170000  1.0 0.1245594882
H  H11  1  0.85960000  0.66950000  0.14170000  1.0 0.1245594882
H  H12  1  0.14040000  0.16950000  0.35830000  1.0 0.1294700595
H  H13  1  0.53970000  0.19480000  0.07600000  1.0 0.1294700595
H  H14  1  0.46030000  0.69480000  0.42400000  1.0 0.1294700595
H  H15  1  0.46030000  0.80520000  0.92400000  1.0 0.1294700595
H  H16  1  0.53970000  0.30520000  0.57600000  1.0 0.1294700595
H  H17  1  0.75900000  0.25460000  0.01450000  1.0 0.1464353713
H  H18  1  0.24100000  0.75460000  0.48550000  1.0 0.1464353713
H  H19  1  0.24100000  0.74540000  0.98550000  1.0 0.1464353713
H  H20  1  0.75900000  0.24540000  0.51450000  1.0 0.1464353713
H  H21  1  0.46670000  0.30770000  0.88810000  1.0 0.1464353713
H  H22  1  0.53330000  0.80770000  0.61190000  1.0 0.1464353713
H  H23  1  0.53330000  0.69230000  0.11190000  1.0 0.1464353713
H  H24  1  0.46670000  0.19230000  0.38810000  1.0 0.1464353713
H  H25  1  0.32160000  0.42260000  0.87770000  1.0 0.1294700595
H  H26  1  0.67840000  0.92260000  0.62230000  1.0 0.1294700595
H  H27  1  0.67840000  0.57740000  0.12230000  1.0 0.1294700595
H  H28  1  0.32160000  0.07740000  0.37770000  1.0 0.1294700595
H  H29  1  0.45120000  0.63600000  0.89360000  1.0 0.1294700595
H  H30  1  0.54880000  0.13600000  0.60640000  1.0 0.1294700595
H  H31  1  0.54880000  0.36400000  0.10640000  1.0 0.1294700595
H  H32  1  0.45120000  0.86400000  0.39360000  1.0 0.1294700595
H  H33  1  0.20140000  0.58380000  0.71550000  1.0 0.1396955774
H  H34  1  0.79860000  0.08380000  0.78450000  1.0 0.1396955774
H  H35  1  0.79860000  0.41620000  0.28450000  1.0 0.1396955774
H  H36  1  0.20140000  0.91620000  0.21550000  1.0 0.1396955774
H  H37  1  0.74940000  0.45830000  0.51700000  1.0 0.1048354619
H  H38  1  0.25060000  0.95830000  0.98300000  1.0 0.1048354619
H  H39  1  0.25060000  0.54170000  0.48300000  1.0 0.1048354619
H  H40  1  0.74940000  0.04170000  0.01700000  1.0 0.1048354619
H  H41  1  0.82030000  0.48450000  0.48120000  1.0 0.1294700595
H  H42  1  0.17970000  0.98450000  0.01880000  1.0 0.1294700595
H  H43  1  0.17970000  0.51550000  0.51880000  1.0 0.1294700595
H  H44  1  0.82030000  0.01550000  0.98120000  1.0 0.1294700595
H  H45  1  0.78920000  0.39460000  0.47940000  1.0 0.1108866446
H  H46  1  0.21080000  0.89460000  0.02060000  1.0 0.1108866446
H  H47  1  0.21080000  0.60540000  0.52060000  1.0 0.1108866446
H  H48  1  0.78920000  0.10540000  0.97940000  1.0 0.1108866446
H  H49  1  0.95110000  0.12010000  0.69390000  1.0 0.1396955774
H  H50  1  0.04890000  0.62010000  0.80610000  1.0 0.1396955774
H  H51  1  0.04890000  0.87990000  0.30610000  1.0 0.1396955774
H  H52  1  0.95110000  0.37990000  0.19390000  1.0 0.1396955774
H  H53  1  0.04720000  0.10720000  0.76600000  1.0 0.1396955774
H  H54  1  0.95280000  0.60720000  0.73400000  1.0 0.1396955774
H  H55  1  0.95280000  0.89280000  0.23400000  1.0 0.1396955774
H  H56  1  0.04720000  0.39280000  0.26600000  1.0 0.1396955774
H  H57  1  0.95680000  0.15900000  0.76460000  1.0 0.1294700595
H  H58  1  0.04320000  0.65900000  0.73540000  1.0 0.1294700595
H  H59  1  0.04320000  0.84100000  0.23540000  1.0 0.1294700595
H  H60  1  0.95680000  0.34100000  0.26460000  1.0 0.1294700595
H  H61  1  0.82280000  0.53910000  0.90950000  1.0 0.1396955774
H  H62  1  0.17720000  0.03910000  0.59050000  1.0 0.1396955774
H  H63  1  0.17720000  0.46090000  0.09050000  1.0 0.1396955774
H  H64  1  0.82280000  0.96090000  0.40950000  1.0 0.1396955774
H  H65  1  0.75110000  0.60620000  0.86140000  1.0 0.1294700595
H  H66  1  0.24890000  0.10620000  0.63860000  1.0 0.1294700595
H  H67  1  0.24890000  0.39380000  0.13860000  1.0 0.1294700595
H  H68  1  0.75110000  0.89380000  0.36140000  1.0 0.1294700595
H  H69  1  0.71850000  0.55530000  0.91190000  1.0 0.1294700595
H  H70  1  0.28150000  0.05530000  0.58810000  1.0 0.1294700595
H  H71  1  0.28150000  0.44470000  0.08810000  1.0 0.1294700595
H  H72  1  0.71850000  0.94470000  0.41190000  1.0 0.1294700595
H  H73  1  0.53850000  0.50970000  0.60730000  1.0 0.1245594882
H  H74  1  0.46150000  0.00970000  0.89270000  1.0 0.1245594882
H  H75  1  0.46150000  0.49030000  0.39270000  1.0 0.1245594882
H  H76  1  0.53850000  0.99030000  0.10730000  1.0 0.1245594882
H  H77  1  0.43040000  0.48280000  0.59720000  1.0 0.1294700595
H  H78  1  0.56960000  0.98280000  0.90280000  1.0 0.1294700595
H  H79  1  0.56960000  0.51720000  0.40280000  1.0 0.1294700595
H  H80  1  0.43040000  0.01720000  0.09720000  1.0 0.1294700595
H  H81  1  0.49040000  0.54640000  0.65560000  1.0 0.1294700595
H  H82  1  0.50960000  0.04640000  0.84440000  1.0 0.1294700595
H  H83  1  0.50960000  0.45360000  0.34440000  1.0 0.1294700595
H  H84  1  0.49040000  0.95360000  0.15560000  1.0 0.1294700595
H  H85  1  0.09650000  0.22770000  0.76040000  1.0 0.3490641602
H  H86  1  0.90350000  0.72770000  0.73960000  1.0 0.3490641602
H  H87  1  0.90350000  0.77230000  0.23960000  1.0 0.3490641602
H  H88  1  0.09650000  0.27230000  0.26040000  1.0 0.3490641602
H  H89  1  0.64790000  0.50390000  0.78320000  1.0 0.3553293758
H  H90  1  0.35210000  0.00390000  0.71680000  1.0 0.3553293758
H  H91  1  0.35210000  0.49610000  0.21680000  1.0 0.3553293758
H  H92  1  0.64790000  0.99610000  0.28320000  1.0 0.3553293758
H  H93  1  0.57950000  0.40070000  0.67350000  1.0 0.328845393
H  H94  1  0.42050000  0.90070000  0.82650000  1.0 0.328845393
H  H95  1  0.42050000  0.59930000  0.32650000  1.0 0.328845393
H  H96  1  0.57950000  0.09930000  0.17350000  1.0 0.328845393
C  C1  1  0.02150000  0.32530000  0.88710000  1.0 -0.0337493074
C  C2  1  0.97850000  0.82530000  0.61290000  1.0 -0.0337493074
C  C3  1  0.97850000  0.67470000  0.11290000  1.0 -0.0337493074
C  C4  1  0.02150000  0.17470000  0.38710000  1.0 -0.0337493074
C  C5  1  0.99560000  0.29780000  0.94220000  1.0 -0.0890152374
C  C6  1  0.00440000  0.79780000  0.55780000  1.0 -0.0890152374
C  C7  1  0.00440000  0.70220000  0.05780000  1.0 -0.0890152374
C  C8  1  0.99560000  0.20220000  0.44220000  1.0 -0.0890152374
C  C9  1  0.06720000  0.26030000  0.00480000  1.0 -0.0102445125
C  C10  1  0.93280000  0.76030000  0.49520000  1.0 -0.0102445125
C  C11  1  0.93280000  0.73970000  0.99520000  1.0 -0.0102445125
C  C12  1  0.06720000  0.23970000  0.50480000  1.0 -0.0102445125
C  C13  1  0.16360000  0.24830000  0.00930000  1.0 -0.1507476176
C  C14  1  0.83640000  0.74830000  0.49070000  1.0 -0.1507476176
C  C15  1  0.83640000  0.75170000  0.99070000  1.0 -0.1507476176
C  C16  1  0.16360000  0.25170000  0.50930000  1.0 -0.1507476176
C  C17  1  0.19140000  0.27560000  0.95610000  1.0 0.1294700595
C  C18  1  0.80860000  0.77560000  0.54390000  1.0 0.1294700595
C  C19  1  0.80860000  0.72440000  0.04390000  1.0 0.1294700595
C  C20  1  0.19140000  0.22440000  0.45610000  1.0 0.1294700595
C  C21  1  0.12160000  0.31360000  0.89390000  1.0 -0.1793467141
C  C22  1  0.87840000  0.81360000  0.60610000  1.0 -0.1793467141
C  C23  1  0.87840000  0.68640000  0.10610000  1.0 -0.1793467141
C  C24  1  0.12160000  0.18640000  0.39390000  1.0 -0.1793467141
C  C25  1  0.95080000  0.37150000  0.82360000  1.0 0.6612257325
C  C26  1  0.04920000  0.87150000  0.67640000  1.0 0.6612257325
C  C27  1  0.04920000  0.62850000  0.17640000  1.0 0.6612257325
C  C28  1  0.95080000  0.12850000  0.32360000  1.0 0.6612257325
C  C29  1  0.03950000  0.22470000  0.05990000  1.0 0.5552514904
C  C30  1  0.96050000  0.72470000  0.44010000  1.0 0.5552514904
C  C31  1  0.96050000  0.77530000  0.94010000  1.0 0.5552514904
C  C32  1  0.03950000  0.27530000  0.55990000  1.0 0.5552514904
C  C33  1  0.29470000  0.26190000  0.96340000  1.0 -0.0890152374
C  C34  1  0.70530000  0.76190000  0.53660000  1.0 -0.0890152374
C  C35  1  0.70530000  0.73810000  0.03660000  1.0 -0.0890152374
C  C36  1  0.29470000  0.23810000  0.46340000  1.0 -0.0890152374
C  C37  1  0.37900000  0.25210000  0.97040000  1.0 -0.0987792424
C  C38  1  0.62100000  0.75210000  0.52960000  1.0 -0.0987792424
C  C39  1  0.62100000  0.74790000  0.02960000  1.0 -0.0987792424
C  C40  1  0.37900000  0.24790000  0.47040000  1.0 -0.0987792424
C  C41  1  0.48150000  0.25060000  0.97780000  1.0 0.1294700595
C  C42  1  0.51850000  0.75060000  0.52220000  1.0 0.1294700595
C  C43  1  0.51850000  0.74940000  0.02220000  1.0 0.1294700595
C  C44  1  0.48150000  0.24940000  0.47780000  1.0 0.1294700595
C  C45  1  0.55760000  0.21750000  0.04180000  1.0 -0.1636078543
C  C46  1  0.44240000  0.71750000  0.45820000  1.0 -0.1636078543
C  C47  1  0.44240000  0.78250000  0.95820000  1.0 -0.1636078543
C  C48  1  0.55760000  0.28250000  0.54180000  1.0 -0.1636078543
C  C49  1  0.65940000  0.21900000  0.05320000  1.0 -0.0513509548
C  C50  1  0.34060000  0.71900000  0.44680000  1.0 -0.0513509548
C  C51  1  0.34060000  0.78100000  0.94680000  1.0 -0.0513509548
C  C52  1  0.65940000  0.28100000  0.55320000  1.0 -0.0513509548
C  C53  1  0.69090000  0.25340000  0.00530000  1.0 -0.0890152374
C  C54  1  0.30910000  0.75340000  0.49470000  1.0 -0.0890152374
C  C55  1  0.30910000  0.74660000  0.99470000  1.0 -0.0890152374
C  C56  1  0.69090000  0.24660000  0.50530000  1.0 -0.0890152374
C  C57  1  0.61540000  0.28710000  0.94080000  1.0 -0.0102445125
C  C58  1  0.38460000  0.78710000  0.55920000  1.0 -0.0102445125
C  C59  1  0.38460000  0.71290000  0.05920000  1.0 -0.0102445125
C  C60  1  0.61540000  0.21290000  0.44080000  1.0 -0.0102445125
C  C61  1  0.51480000  0.28500000  0.92980000  1.0 -0.1507476176
C  C62  1  0.48520000  0.78500000  0.57020000  1.0 -0.1507476176
C  C63  1  0.48520000  0.71500000  0.07020000  1.0 -0.1507476176
C  C64  1  0.51480000  0.21500000  0.42980000  1.0 -0.1507476176
C  C65  1  0.73750000  0.18660000  0.12090000  1.0 0.6612257325
C  C66  1  0.26250000  0.68660000  0.37910000  1.0 0.6612257325
C  C67  1  0.26250000  0.81340000  0.87910000  1.0 0.6612257325
C  C68  1  0.73750000  0.31340000  0.62090000  1.0 0.6612257325
C  C69  1  0.64220000  0.32280000  0.88580000  1.0 0.5443768018
C  C70  1  0.35780000  0.82280000  0.61420000  1.0 0.5443768018
C  C71  1  0.35780000  0.67720000  0.11420000  1.0 0.5443768018
C  C72  1  0.64220000  0.17720000  0.38580000  1.0 0.5443768018
C  C73  1  0.24600000  0.49210000  0.78960000  1.0 0.0155930408
C  C74  1  0.75400000  0.99210000  0.71040000  1.0 0.0155930408
C  C75  1  0.75400000  0.50790000  0.21040000  1.0 0.0155930408
C  C76  1  0.24600000  0.00790000  0.28960000  1.0 0.0155930408
C  C77  1  0.32240000  0.47290000  0.85870000  1.0 -0.1507476176
C  C78  1  0.67760000  0.97290000  0.64130000  1.0 -0.1507476176
C  C79  1  0.67760000  0.52710000  0.14130000  1.0 -0.1507476176
C  C80  1  0.32240000  0.02710000  0.35870000  1.0 -0.1507476176
C  C81  1  0.39790000  0.52670000  0.89850000  1.0 0.1294700595
C  C82  1  0.60210000  0.02670000  0.60150000  1.0 0.1294700595
C  C83  1  0.60210000  0.47330000  0.10150000  1.0 0.1294700595
C  C84  1  0.39790000  0.97330000  0.39850000  1.0 0.1294700595
C  C85  1  0.39970000  0.60020000  0.86810000  1.0 -0.1507476176
C  C86  1  0.60030000  0.10020000  0.63190000  1.0 -0.1507476176
C  C87  1  0.60030000  0.39980000  0.13190000  1.0 -0.1507476176
C  C88  1  0.39970000  0.89980000  0.36810000  1.0 -0.1507476176
C  C89  1  0.32530000  0.62290000  0.79920000  1.0 -0.0102445125
C  C90  1  0.67470000  0.12290000  0.70080000  1.0 -0.0102445125
C  C91  1  0.67470000  0.37710000  0.20080000  1.0 -0.0102445125
C  C92  1  0.32530000  0.87710000  0.29920000  1.0 -0.0102445125
C  C93  1  0.25000000  0.56960000  0.76060000  1.0 -0.1221348159
C  C94  1  0.75000000  0.06960000  0.73940000  1.0 -0.1221348159
C  C95  1  0.75000000  0.43040000  0.23940000  1.0 -0.1221348159
C  C96  1  0.25000000  0.93040000  0.26060000  1.0 -0.1221348159
C  C97  1  0.16100000  0.43730000  0.74330000  1.0 0.5652651303
C  C98  1  0.83900000  0.93730000  0.75670000  1.0 0.5652651303
C  C99  1  0.83900000  0.56270000  0.25670000  1.0 0.5652651303
C  C100  1  0.16100000  0.06270000  0.24330000  1.0 0.5652651303
C  C101  1  0.31990000  0.70270000  0.76660000  1.0 0.552925896
C  C102  1  0.68010000  0.20270000  0.73340000  1.0 0.552925896
C  C103  1  0.68010000  0.29730000  0.23340000  1.0 0.552925896
C  C104  1  0.31990000  0.79730000  0.26660000  1.0 0.552925896
C  C105  1  0.47100000  0.50800000  0.97090000  1.0 -0.0890152374
C  C106  1  0.52900000  0.00800000  0.52910000  1.0 -0.0890152374
C  C107  1  0.52900000  0.49200000  0.02910000  1.0 -0.0890152374
C  C108  1  0.47100000  0.99200000  0.47090000  1.0 -0.0890152374
C  C109  1  0.80560000  0.44280000  0.50730000  1.0 -0.1706145293
C  C110  1  0.19440000  0.94280000  0.99270000  1.0 -0.1706145293
C  C111  1  0.19440000  0.55720000  0.49270000  1.0 -0.1706145293
C  C112  1  0.80560000  0.05720000  0.00730000  1.0 -0.1706145293
C  C113  1  0.99510000  0.14440000  0.73840000  1.0 -0.1706145293
C  C114  1  0.00490000  0.64440000  0.76160000  1.0 -0.1706145293
C  C115  1  0.00490000  0.85560000  0.26160000  1.0 -0.1706145293
C  C116  1  0.99510000  0.35560000  0.23840000  1.0 -0.1706145293
C  C117  1  0.75360000  0.55410000  0.88170000  1.0 -0.1904943771
C  C118  1  0.24640000  0.05410000  0.61830000  1.0 -0.1904943771
C  C119  1  0.24640000  0.44590000  0.11830000  1.0 -0.1904943771
C  C120  1  0.75360000  0.94590000  0.38170000  1.0 -0.1904943771
C  C121  1  0.49630000  0.49900000  0.63150000  1.0 -0.1904943771
C  C122  1  0.50370000  0.99900000  0.86850000  1.0 -0.1904943771
C  C123  1  0.50370000  0.50100000  0.36850000  1.0 -0.1951597071
C  C124  1  0.49630000  0.00100000  0.13150000  1.0 -0.1904943771
O  O1  1  0.97400000  0.38460000  0.77330000  1.0 -0.6389081564
O  O2  1  0.02600000  0.88460000  0.72670000  1.0 -0.6389081564
O  O3  1  0.02600000  0.61540000  0.22670000  1.0 -0.6389081564
O  O4  1  0.97400000  0.11540000  0.27330000  1.0 -0.6389081564
O  O5  1  0.86420000  0.38850000  0.82130000  1.0 -0.6552017815
O  O6  1  0.13580000  0.88850000  0.67870000  1.0 -0.6506962834
O  O7  1  0.13580000  0.61150000  0.17870000  1.0 -0.6552017815
O  O8  1  0.86420000  0.11150000  0.32130000  1.0 -0.6552017815
O  O9  1  0.95580000  0.24290000  0.06140000  1.0 -0.5929099507
O  O10  1  0.04420000  0.74290000  0.43860000  1.0 -0.5929099507
O  O11  1  0.04420000  0.75710000  0.93860000  1.0 -0.5929099507
O  O12  1  0.95580000  0.25710000  0.56140000  1.0 -0.5929099507
O  O13  1  0.09990000  0.18140000  0.10610000  1.0 -0.5686640627
O  O14  1  0.90010000  0.68140000  0.39390000  1.0 -0.5686640627
O  O15  1  0.90010000  0.81860000  0.89390000  1.0 -0.5686640627
O  O16  1  0.09990000  0.31860000  0.60610000  1.0 -0.5686640627
O  O17  1  0.71240000  0.13890000  0.16240000  1.0 -0.7276567704
O  O18  1  0.28760000  0.63890000  0.33760000  1.0 -0.7276567704
O  O19  1  0.28760000  0.86110000  0.83760000  1.0 -0.7276567704
O  O20  1  0.71240000  0.36110000  0.66240000  1.0 -0.7276567704
O  O21  1  0.83260000  0.20580000  0.14030000  1.0 -0.6681876666
O  O22  1  0.16740000  0.70580000  0.35970000  1.0 -0.6681876666
O  O23  1  0.16740000  0.79420000  0.85970000  1.0 -0.6681876666
O  O24  1  0.83260000  0.29420000  0.64030000  1.0 -0.6681876666
O  O25  1  0.73130000  0.32540000  0.89740000  1.0 -0.5125124267
O  O26  1  0.26870000  0.82540000  0.60260000  1.0 -0.5125124267
O  O27  1  0.26870000  0.67460000  0.10260000  1.0 -0.5125124267
O  O28  1  0.73130000  0.17460000  0.39740000  1.0 -0.5125124267
O  O29  1  0.58170000  0.34750000  0.82760000  1.0 -0.5512912161
O  O30  1  0.41830000  0.84750000  0.67240000  1.0 -0.5512912161
O  O31  1  0.41830000  0.65250000  0.17240000  1.0 -0.5512912161
O  O32  1  0.58170000  0.15250000  0.32760000  1.0 -0.5512912161
O  O33  1  0.17050000  0.36430000  0.76110000  1.0 -0.6506962834
O  O34  1  0.82950000  0.86430000  0.73890000  1.0 -0.6389081564
O  O35  1  0.82950000  0.63570000  0.23890000  1.0 -0.6389081564
O  O36  1  0.17050000  0.13570000  0.26110000  1.0 -0.6506962834
O  O37  1  0.08150000  0.46600000  0.69620000  1.0 -0.5929099507
O  O38  1  0.91850000  0.96600000  0.80380000  1.0 -0.5929099507
O  O39  1  0.91850000  0.53400000  0.30380000  1.0 -0.5929099507
O  O40  1  0.08150000  0.03400000  0.19620000  1.0 -0.5929099507
O  O41  1  0.24390000  0.72970000  0.72080000  1.0 -0.5279380567
O  O42  1  0.75610000  0.22970000  0.77920000  1.0 -0.5279380567
O  O43  1  0.75610000  0.27030000  0.27920000  1.0 -0.5279380567
O  O44  1  0.24390000  0.77030000  0.22080000  1.0 -0.5279380567
O  O45  1  0.40530000  0.74480000  0.79020000  1.0 -0.6506962834
O  O46  1  0.59470000  0.24480000  0.70980000  1.0 -0.6506962834
O  O47  1  0.59470000  0.25520000  0.20980000  1.0 -0.6506962834
O  O48  1  0.40530000  0.75520000  0.29020000  1.0 -0.6506962834
O  O49  1  0.89260000  0.42910000  0.57370000  1.0 -0.5125124267
O  O50  1  0.10740000  0.92910000  0.92630000  1.0 -0.5125124267
O  O51  1  0.10740000  0.57090000  0.42630000  1.0 -0.5125124267
O  O52  1  0.89260000  0.07090000  0.07370000  1.0 -0.5125124267
O  O53  1  0.04210000  0.21700000  0.72400000  1.0 -0.4941179342
O  O54  1  0.95790000  0.71700000  0.77600000  1.0 -0.4941179342
O  O55  1  0.95790000  0.78300000  0.27600000  1.0 -0.4941179342
O  O56  1  0.04210000  0.28300000  0.22400000  1.0 -0.4941179342
O  O57  1  0.70220000  0.49260000  0.82070000  1.0 -0.4734859131
O  O58  1  0.29780000  0.99260000  0.67930000  1.0 -0.4734859131
O  O59  1  0.29780000  0.50740000  0.17930000  1.0 -0.4734859131
O  O60  1  0.70220000  0.00740000  0.32070000  1.0 -0.4734859131
O  O61  1  0.54430000  0.43080000  0.68720000  1.0 -0.4787101484
O  O62  1  0.45570000  0.93080000  0.81280000  1.0 -0.4787101484
O  O63  1  0.45570000  0.56920000  0.31280000  1.0 -0.4787101484
O  O64  1  0.54430000  0.06920000  0.18720000  1.0 -0.4787101484
