# DDEC6 charges by PACMAN v1.1 (https://github.com/mtap-research/PACMAN-charge/)
data_COVPAG_ASR_pacman
_symmetry_space_group_name_H-M   'P 1'
_cell_length_a   14.04050000
_cell_length_b   14.04050000
_cell_length_c   12.03900000
_cell_angle_alpha   90.00000000
_cell_angle_beta   90.00000000
_cell_angle_gamma   90.53090000
_symmetry_Int_Tables_number   1
_chemical_formula_structural   K4Zn2H16C32O17
_chemical_formula_sum   'K8 Zn4 H32 C64 O34'
_cell_volume   2373.21408975
_cell_formula_units_Z   2
loop_
 _symmetry_equiv_pos_site_id
 _symmetry_equiv_pos_as_xyz
  1  'x, y, z'
loop_
 _atom_site_type_symbol
 _atom_site_label
 _atom_site_symmetry_multiplicity
 _atom_site_fract_x
 _atom_site_fract_y
 _atom_site_fract_z
 _atom_site_occupancy
 _atom_site_charge
K  K1  1  0.25215000  0.14029000  0.28540000  1.0 0.8915969687
K  K2  1  0.74785000  0.85971000  0.78540000  1.0 0.8915969687
K  K3  1  0.85971000  0.74785000  0.28540000  1.0 0.8915969687
K  K4  1  0.14029000  0.25215000  0.78540000  1.0 0.8915969687
K  K5  1  0.45734000  0.25866000  0.77280000  1.0 0.8543412196
K  K6  1  0.54266000  0.74134000  0.27280000  1.0 0.8543412196
K  K7  1  0.74134000  0.54266000  0.77280000  1.0 0.8543412196
K  K8  1  0.25866000  0.45734000  0.27280000  1.0 0.8543412196
Zn  Zn1  1  0.26618000  0.25024000  0.03076000  1.0 0.8915969687
Zn  Zn2  1  0.73382000  0.74976000  0.53076000  1.0 0.8915969687
Zn  Zn3  1  0.74976000  0.73382000  0.03076000  1.0 0.8915969687
Zn  Zn4  1  0.25024000  0.26618000  0.53076000  1.0 0.8915969687
H  H1  1  0.56650000  0.05210000  0.40060000  1.0 0.1212811837
H  H2  1  0.43350000  0.94790000  0.90060000  1.0 0.1212811837
H  H3  1  0.94790000  0.43350000  0.40060000  1.0 0.1212811837
H  H4  1  0.05210000  0.56650000  0.90060000  1.0 0.1212811837
H  H5  1  0.56500000  0.03840000  0.01530000  1.0 0.1272621373
H  H6  1  0.43500000  0.96160000  0.51530000  1.0 0.1272621373
H  H7  1  0.96160000  0.43500000  0.01530000  1.0 0.1272621373
H  H8  1  0.03840000  0.56500000  0.51530000  1.0 0.1272621373
H  H9  1  0.46130000  0.14750000  0.29810000  1.0 0.1108608995
H  H10  1  0.53870000  0.85250000  0.79810000  1.0 0.1108608995
H  H11  1  0.85250000  0.53870000  0.29810000  1.0 0.1108608995
H  H12  1  0.14750000  0.46130000  0.79810000  1.0 0.1108608995
H  H13  1  0.16360000  0.03920000  0.77590000  1.0 0.1108608995
H  H14  1  0.83640000  0.96080000  0.27590000  1.0 0.1108608995
H  H15  1  0.96080000  0.83640000  0.77590000  1.0 0.1108608995
H  H16  1  0.03920000  0.16360000  0.27590000  1.0 0.1108608995
H  H17  1  0.65590000  0.93590000  0.30830000  1.0 0.1212811837
H  H18  1  0.34410000  0.06410000  0.80830000  1.0 0.1212811837
H  H19  1  0.06410000  0.34410000  0.30830000  1.0 0.1212811837
H  H20  1  0.93590000  0.65590000  0.80830000  1.0 0.1212811837
H  H21  1  0.05750000  0.94250000  0.06320000  1.0 0.1272621373
H  H22  1  0.94250000  0.05750000  0.56320000  1.0 0.1272621373
H  H23  1  0.06920000  0.93080000  0.68050000  1.0 0.1272621373
H  H24  1  0.93080000  0.06920000  0.18050000  1.0 0.1272621373
H  H25  1  0.45650000  0.54350000  0.02830000  1.0 0.1212811837
H  H26  1  0.54350000  0.45650000  0.52830000  1.0 0.1212811837
H  H27  1  0.34530000  0.45250000  0.73770000  1.0 0.1212811837
H  H28  1  0.65470000  0.54750000  0.23770000  1.0 0.1212811837
H  H29  1  0.54750000  0.65470000  0.73770000  1.0 0.1212811837
H  H30  1  0.45250000  0.34530000  0.23770000  1.0 0.1212811837
H  H31  1  0.43940000  0.56060000  0.64150000  1.0 0.1212811837
H  H32  1  0.56060000  0.43940000  0.14150000  1.0 0.1212811837
C  C1  1  0.56340000  0.04660000  0.32370000  1.0 -0.0851269556
C  C2  1  0.43660000  0.95340000  0.82370000  1.0 -0.0851269556
C  C3  1  0.95340000  0.43660000  0.32370000  1.0 -0.0851269556
C  C4  1  0.04660000  0.56340000  0.82370000  1.0 -0.0851269556
C  C5  1  0.56320000  0.03940000  0.09250000  1.0 -0.1043305315
C  C6  1  0.43680000  0.96060000  0.59250000  1.0 -0.1043305315
C  C7  1  0.96060000  0.43680000  0.09250000  1.0 -0.1043305315
C  C8  1  0.03940000  0.56320000  0.59250000  1.0 -0.1043305315
C  C9  1  0.61960000  0.97660000  0.15220000  1.0 -0.0359022013
C  C10  1  0.38040000  0.02340000  0.65220000  1.0 -0.0359022013
C  C11  1  0.02340000  0.38040000  0.15220000  1.0 -0.0359022013
C  C12  1  0.97660000  0.61960000  0.65220000  1.0 -0.0359022013
C  C13  1  0.50500000  0.10280000  0.14620000  1.0 -0.0206003167
C  C14  1  0.49500000  0.89720000  0.64620000  1.0 -0.0206003167
C  C15  1  0.89720000  0.49500000  0.14620000  1.0 -0.0206003167
C  C16  1  0.10280000  0.50500000  0.64620000  1.0 -0.0206003167
C  C17  1  0.50250000  0.10630000  0.26200000  1.0 -0.1111367663
C  C18  1  0.49750000  0.89370000  0.76200000  1.0 -0.1111367663
C  C19  1  0.89370000  0.49750000  0.26200000  1.0 -0.1111367663
C  C20  1  0.10630000  0.50250000  0.76200000  1.0 -0.1111367663
C  C21  1  0.12220000  0.99900000  0.81450000  1.0 -0.1111367663
C  C22  1  0.87780000  0.00100000  0.31450000  1.0 -0.1111367663
C  C23  1  0.00100000  0.87780000  0.81450000  1.0 -0.1111367663
C  C24  1  0.99900000  0.12220000  0.31450000  1.0 -0.1111367663
C  C25  1  0.11790000  0.00290000  0.92880000  1.0 -0.0297963059
C  C26  1  0.88210000  0.99710000  0.42880000  1.0 -0.0297963059
C  C27  1  0.99710000  0.88210000  0.92880000  1.0 -0.0297963059
C  C28  1  0.00290000  0.11790000  0.42880000  1.0 -0.0297963059
C  C29  1  0.67260000  0.90020000  0.09030000  1.0 0.5917387115
C  C30  1  0.32740000  0.09980000  0.59030000  1.0 0.5917387115
C  C31  1  0.09980000  0.32740000  0.09030000  1.0 0.5917387115
C  C32  1  0.90020000  0.67260000  0.59030000  1.0 0.5917387115
C  C33  1  0.43750000  0.16550000  0.07740000  1.0 0.5917387115
C  C34  1  0.56250000  0.83450000  0.57740000  1.0 0.5917387115
C  C35  1  0.83450000  0.56250000  0.07740000  1.0 0.5917387115
C  C36  1  0.16550000  0.43750000  0.57740000  1.0 0.5917387115
C  C37  1  0.17850000  0.07110000  0.99580000  1.0 0.5963796632
C  C38  1  0.82150000  0.92890000  0.49580000  1.0 0.5963796632
C  C39  1  0.92890000  0.82150000  0.99580000  1.0 0.5963796632
C  C40  1  0.07110000  0.17850000  0.49580000  1.0 0.5963796632
C  C41  1  0.61940000  0.97880000  0.26810000  1.0 -0.141599421
C  C42  1  0.38060000  0.02120000  0.76810000  1.0 -0.141599421
C  C43  1  0.02120000  0.38060000  0.26810000  1.0 -0.141599421
C  C44  1  0.97880000  0.61940000  0.76810000  1.0 -0.141599421
C  C45  1  0.05750000  0.94250000  0.98590000  1.0 -0.1043305315
C  C46  1  0.94250000  0.05750000  0.48590000  1.0 -0.1043305315
C  C47  1  0.06480000  0.93520000  0.75740000  1.0 -0.0835287613
C  C48  1  0.93520000  0.06480000  0.25740000  1.0 -0.0835287613
C  C49  1  0.33790000  0.41270000  0.96240000  1.0 0.5735726612
C  C50  1  0.66210000  0.58730000  0.46240000  1.0 0.5735726612
C  C51  1  0.58730000  0.66210000  0.96240000  1.0 0.5735726612
C  C52  1  0.41270000  0.33790000  0.46240000  1.0 0.5735726612
C  C53  1  0.39060000  0.48540000  0.89160000  1.0 -0.0297963059
C  C54  1  0.60940000  0.51460000  0.39160000  1.0 -0.0297963059
C  C55  1  0.51460000  0.60940000  0.89160000  1.0 -0.0297963059
C  C56  1  0.48540000  0.39060000  0.39160000  1.0 -0.0297963059
C  C57  1  0.45430000  0.54570000  0.95110000  1.0 -0.1111367663
C  C58  1  0.54570000  0.45430000  0.45110000  1.0 -0.1111367663
C  C59  1  0.38700000  0.49200000  0.77670000  1.0 -0.1162065757
C  C60  1  0.61300000  0.50800000  0.27670000  1.0 -0.1162065757
C  C61  1  0.50800000  0.61300000  0.77670000  1.0 -0.1162065757
C  C62  1  0.49200000  0.38700000  0.27670000  1.0 -0.1162065757
C  C63  1  0.44400000  0.55600000  0.71840000  1.0 -0.0851269556
C  C64  1  0.55600000  0.44400000  0.21840000  1.0 -0.0851269556
O  O1  1  0.36940000  0.20240000  0.12670000  1.0 -0.5883281422
O  O2  1  0.63060000  0.79760000  0.62670000  1.0 -0.5883281422
O  O3  1  0.79760000  0.63060000  0.12670000  1.0 -0.5883281422
O  O4  1  0.20240000  0.36940000  0.62670000  1.0 -0.5883281422
O  O5  1  0.18220000  0.06740000  0.09700000  1.0 -0.5785121067
O  O6  1  0.81780000  0.93260000  0.59700000  1.0 -0.5785121067
O  O7  1  0.93260000  0.81780000  0.09700000  1.0 -0.5785121067
O  O8  1  0.06740000  0.18220000  0.59700000  1.0 -0.5785121067
O  O9  1  0.45880000  0.17860000  0.97770000  1.0 -0.5883281422
O  O10  1  0.54120000  0.82140000  0.47770000  1.0 -0.5883281422
O  O11  1  0.82140000  0.54120000  0.97770000  1.0 -0.5883281422
O  O12  1  0.17860000  0.45880000  0.47770000  1.0 -0.5883281422
O  O13  1  0.68230000  0.90750000  0.98750000  1.0 -0.5998932315
O  O14  1  0.31770000  0.09250000  0.48750000  1.0 -0.5998932315
O  O15  1  0.09250000  0.31770000  0.98750000  1.0 -0.5998932315
O  O16  1  0.90750000  0.68230000  0.48750000  1.0 -0.5998932315
O  O17  1  0.21540000  0.14020000  0.93910000  1.0 -0.622583468
O  O18  1  0.78460000  0.85980000  0.43910000  1.0 -0.622583468
O  O19  1  0.85980000  0.78460000  0.93910000  1.0 -0.622583468
O  O20  1  0.14020000  0.21540000  0.43910000  1.0 -0.622583468
O  O21  1  0.70590000  0.82990000  0.14470000  1.0 -0.622583468
O  O22  1  0.29410000  0.17010000  0.64470000  1.0 -0.622583468
O  O23  1  0.17010000  0.29410000  0.14470000  1.0 -0.622583468
O  O24  1  0.82990000  0.70590000  0.64470000  1.0 -0.622583468
O  O25  1  0.30580000  0.34020000  0.90960000  1.0 -0.6117077811
O  O26  1  0.69420000  0.65980000  0.40960000  1.0 -0.6117077811
O  O27  1  0.65980000  0.69420000  0.90960000  1.0 -0.6117077811
O  O28  1  0.34020000  0.30580000  0.40960000  1.0 -0.6117077811
O  O29  1  0.32830000  0.42170000  0.06110000  1.0 -0.5224896861
O  O30  1  0.67170000  0.57830000  0.56110000  1.0 -0.5224896861
O  O31  1  0.57830000  0.67170000  0.06110000  1.0 -0.5224896861
O  O32  1  0.42170000  0.32830000  0.56110000  1.0 -0.5224896861
O  O33  1  0.62310000  0.37690000  0.82900000  1.0 -0.4804320676
O  O34  1  0.37690000  0.62310000  0.32900000  1.0 -0.4804320676
