# DDEC6 charges by PACMAN v1.1 (https://github.com/mtap-research/PACMAN-charge/)
data_COVYIX_ASR_pacman
_symmetry_space_group_name_H-M   'P 1'
_cell_length_a   10.55260000
_cell_length_b   10.87490000
_cell_length_c   15.36430000
_cell_angle_alpha   76.54500000
_cell_angle_beta   82.10100000
_cell_angle_gamma   79.92700000
_symmetry_Int_Tables_number   1
_chemical_formula_structural   Cu5H18C24(N6O5)2
_chemical_formula_sum   'Cu10 H36 C48 N24 O20'
_cell_volume   1679.72058167
_cell_formula_units_Z   2
loop_
 _symmetry_equiv_pos_site_id
 _symmetry_equiv_pos_as_xyz
  1  'x, y, z'
loop_
 _atom_site_type_symbol
 _atom_site_label
 _atom_site_symmetry_multiplicity
 _atom_site_fract_x
 _atom_site_fract_y
 _atom_site_fract_z
 _atom_site_occupancy
 _atom_site_charge
Cu  Cu1  1  0.15906000  0.51020000  0.15969000  1.0 0.7011766848
Cu  Cu2  1  0.84094000  0.48980000  0.84031000  1.0 0.7011766848
Cu  Cu3  1  0.92689000  0.76119000  0.09159000  1.0 0.7734068153
Cu  Cu4  1  0.07311000  0.23881000  0.90841000  1.0 0.7734068153
Cu  Cu5  1  0.00000000  0.50000000  0.00000000  1.0 0.8116822657
Cu  Cu6  1  0.32016000  0.49567000  0.34245000  1.0 0.7334626731
Cu  Cu7  1  0.67984000  0.50433000  0.65755000  1.0 0.7334626731
Cu  Cu8  1  0.50000000  0.50000000  0.50000000  1.0 0.7868567524
Cu  Cu9  1  0.61937000  0.60361000  0.28462000  1.0 0.7753797588
Cu  Cu10  1  0.38063000  0.39639000  0.71538000  1.0 0.7753797588
H  H1  1  0.92110000  0.49690000  0.16420000  1.0 0.3875215394
H  H2  1  0.07890000  0.50310000  0.83580000  1.0 0.3875215394
H  H3  1  0.39960000  0.66710000  0.38550000  1.0 0.3875215394
H  H4  1  0.60040000  0.33290000  0.61450000  1.0 0.3875215394
H  H5  1  0.15030000  0.82760000  0.34100000  1.0 0.1209437243
H  H6  1  0.84970000  0.17240000  0.65900000  1.0 0.1209437243
H  H7  1  0.99540000  0.93030000  0.23070000  1.0 0.1369735864
H  H8  1  0.00460000  0.06970000  0.76930000  1.0 0.1369735864
H  H9  1  0.59980000  0.64710000  0.06690000  1.0 0.1369735864
H  H10  1  0.40020000  0.35290000  0.93310000  1.0 0.1369735864
H  H11  1  0.40480000  0.60000000  0.01490000  1.0 0.1292848512
H  H12  1  0.59520000  0.40000000  0.98510000  1.0 0.1292848512
H  H13  1  0.30340000  0.09620000  0.05350000  1.0 0.1369735864
H  H14  1  0.69660000  0.90380000  0.94650000  1.0 0.1369735864
H  H15  1  0.33860000  0.21560000  0.16390000  1.0 0.1292848512
H  H16  1  0.66140000  0.78440000  0.83610000  1.0 0.1292848512
H  H17  1  0.91950000  0.62300000  0.50760000  1.0 0.1292848512
H  H18  1  0.08050000  0.37700000  0.49240000  1.0 0.1292848512
H  H19  1  0.88500000  0.67640000  0.34650000  1.0 0.1292848512
H  H20  1  0.11500000  0.32360000  0.65350000  1.0 0.1292848512
H  H21  1  0.98230000  0.39000000  0.30800000  1.0 0.1209437243
H  H22  1  0.01770000  0.61000000  0.69200000  1.0 0.1209437243
H  H23  1  0.77580000  0.10060000  0.38680000  1.0 0.1292848512
H  H24  1  0.22420000  0.89940000  0.61320000  1.0 0.1292848512
H  H25  1  0.96440000  0.95990000  0.40890000  1.0 0.1103602988
H  H26  1  0.03560000  0.04010000  0.59110000  1.0 0.1103602988
H  H27  1  0.16030000  0.03440000  0.38610000  1.0 0.1103602988
H  H28  1  0.83970000  0.96560000  0.61390000  1.0 0.1103602988
H  H29  1  0.18250000  0.00320000  0.91630000  1.0 0.1103602988
H  H30  1  0.81750000  0.99680000  0.08370000  1.0 0.1103602988
H  H31  1  0.47240000  0.98580000  0.71920000  1.0 0.1292848512
H  H32  1  0.52760000  0.01420000  0.28080000  1.0 0.1292848512
H  H33  1  0.47180000  0.76910000  0.73830000  1.0 0.1292848512
H  H34  1  0.52820000  0.23090000  0.26170000  1.0 0.1292848512
H  H35  1  0.32960000  0.66850000  0.84880000  1.0 0.1209437243
H  H36  1  0.67040000  0.33150000  0.15120000  1.0 0.1209437243
C  C1  1  0.12560000  0.78970000  0.29890000  1.0 -0.0431307221
C  C2  1  0.87440000  0.21030000  0.70110000  1.0 -0.0431307221
C  C3  1  0.03940000  0.84730000  0.23800000  1.0 -0.0505811362
C  C4  1  0.96060000  0.15270000  0.76200000  1.0 -0.0505811362
C  C5  1  0.53080000  0.61270000  0.10290000  1.0 -0.0293225585
C  C6  1  0.46920000  0.38730000  0.89710000  1.0 -0.0293225585
C  C7  1  0.42260000  0.58610000  0.07430000  1.0 -0.0293225585
C  C8  1  0.57740000  0.41390000  0.92570000  1.0 -0.0293225585
C  C9  1  0.26110000  0.17670000  0.05980000  1.0 -0.0505811362
C  C10  1  0.73890000  0.82330000  0.94020000  1.0 -0.0505811362
C  C11  1  0.28030000  0.24290000  0.12060000  1.0 -0.0293225585
C  C12  1  0.71970000  0.75710000  0.87940000  1.0 -0.0293225585
C  C13  1  0.84680000  0.61320000  0.48330000  1.0 -0.0212057408
C  C14  1  0.15320000  0.38680000  0.51670000  1.0 -0.0212057408
C  C15  1  0.82720000  0.64310000  0.39390000  1.0 -0.0212057408
C  C16  1  0.17280000  0.35690000  0.60610000  1.0 -0.0212057408
C  C17  1  0.09160000  0.22060000  0.34560000  1.0 -0.0293225585
C  C18  1  0.90840000  0.77940000  0.65440000  1.0 -0.0293225585
C  C19  1  0.97860000  0.30320000  0.32910000  1.0 -0.1440185192
C  C20  1  0.02140000  0.69680000  0.67090000  1.0 -0.1440185192
C  C21  1  0.85950000  0.26090000  0.34290000  1.0 0.0006245188
C  C22  1  0.14050000  0.73910000  0.65710000  1.0 0.0006245188
C  C23  1  0.85500000  0.13080000  0.37510000  1.0 -0.0986063289
C  C24  1  0.14500000  0.86920000  0.62490000  1.0 -0.0986063289
C  C25  1  0.96740000  0.04700000  0.38960000  1.0 -0.1052321396
C  C26  1  0.03260000  0.95300000  0.61040000  1.0 -0.1052321396
C  C27  1  0.08480000  0.09180000  0.37540000  1.0 -0.1182403783
C  C28  1  0.91520000  0.90820000  0.62460000  1.0 -0.1182403783
C  C29  1  0.21680000  0.27120000  0.33760000  1.0 0.541500133
C  C30  1  0.78320000  0.72880000  0.66240000  1.0 0.541500133
C  C31  1  0.73840000  0.35880000  0.33040000  1.0 0.5517889974
C  C32  1  0.26160000  0.64120000  0.66960000  1.0 0.5517889974
C  C33  1  0.24230000  0.82450000  0.89290000  1.0 -0.0212057408
C  C34  1  0.75770000  0.17550000  0.10710000  1.0 -0.0212057408
C  C35  1  0.24100000  0.95600000  0.88100000  1.0 -0.1504879279
C  C36  1  0.75900000  0.04400000  0.11900000  1.0 -0.1504879279
C  C37  1  0.32920000  0.01580000  0.81490000  1.0 -0.0293225585
C  C38  1  0.67080000  0.98420000  0.18510000  1.0 -0.0293225585
C  C39  1  0.41410000  0.94560000  0.76290000  1.0 -0.0947744134
C  C40  1  0.58590000  0.05440000  0.23710000  1.0 -0.0947744134
C  C41  1  0.41440000  0.81590000  0.77440000  1.0 -0.079397935
C  C42  1  0.58560000  0.18410000  0.22560000  1.0 -0.079397935
C  C43  1  0.32870000  0.75620000  0.84020000  1.0 -0.1052321396
C  C44  1  0.67130000  0.24380000  0.15980000  1.0 -0.1052321396
C  C45  1  0.15010000  0.75680000  0.96380000  1.0 0.5738778529
C  C46  1  0.84990000  0.24320000  0.03620000  1.0 0.5738778529
C  C47  1  0.32970000  0.15860000  0.79780000  1.0 0.5517889974
C  C48  1  0.67030000  0.84140000  0.20220000  1.0 0.5517889974
N  N1  1  0.03050000  0.76030000  0.19060000  1.0 -0.166789386
N  N2  1  0.96950000  0.23970000  0.80940000  1.0 -0.166789386
N  N3  1  0.10830000  0.65410000  0.22150000  1.0 -0.0431307221
N  N4  1  0.89170000  0.34590000  0.77850000  1.0 -0.0431307221
N  N5  1  0.16930000  0.67010000  0.28870000  1.0 -0.2144303801
N  N6  1  0.83070000  0.32990000  0.71130000  1.0 -0.2144303801
N  N7  1  0.34860000  0.53720000  0.14610000  1.0 -0.166789386
N  N8  1  0.65140000  0.46280000  0.85390000  1.0 -0.166789386
N  N9  1  0.40740000  0.53310000  0.21830000  1.0 -0.0431307221
N  N10  1  0.59260000  0.46690000  0.78170000  1.0 -0.0431307221
N  N11  1  0.51700000  0.57940000  0.19280000  1.0 -0.1504879279
N  N12  1  0.48300000  0.42060000  0.80720000  1.0 -0.1504879279
N  N13  1  0.20130000  0.35330000  0.10760000  1.0 -0.1606465536
N  N14  1  0.79870000  0.64670000  0.89240000  1.0 -0.1606465536
N  N15  1  0.13360000  0.35740000  0.03960000  1.0 -0.0505811362
N  N16  1  0.86640000  0.64260000  0.96040000  1.0 -0.0505811362
N  N17  1  0.16910000  0.25050000  0.01030000  1.0 -0.1606465536
N  N18  1  0.83090000  0.74950000  0.98970000  1.0 -0.1606465536
N  N19  1  0.71140000  0.61660000  0.38640000  1.0 -0.1504879279
N  N20  1  0.28860000  0.38340000  0.61360000  1.0 -0.1504879279
N  N21  1  0.66040000  0.57180000  0.46840000  1.0 -0.0505811362
N  N22  1  0.33960000  0.42820000  0.53160000  1.0 -0.0505811362
N  N23  1  0.74270000  0.56750000  0.52850000  1.0 -0.166789386
N  N24  1  0.25730000  0.43250000  0.47150000  1.0 -0.166789386
O  O1  1  0.20890000  0.39440000  0.30450000  1.0 -0.5928892675
O  O2  1  0.79110000  0.60560000  0.69550000  1.0 -0.5928892675
O  O3  1  0.31380000  0.20350000  0.36240000  1.0 -0.4973291936
O  O4  1  0.68620000  0.79650000  0.63760000  1.0 -0.4973291936
O  O5  1  0.75200000  0.45720000  0.26860000  1.0 -0.53629877
O  O6  1  0.24800000  0.54280000  0.73140000  1.0 -0.53629877
O  O7  1  0.63880000  0.34100000  0.38130000  1.0 -0.5799517813
O  O8  1  0.36120000  0.65900000  0.61870000  1.0 -0.5799517813
O  O9  1  0.16300000  0.63800000  0.98110000  1.0 -0.6103769126
O  O10  1  0.83700000  0.36200000  0.01890000  1.0 -0.6103769126
O  O11  1  0.06190000  0.82850000  0.00260000  1.0 -0.5316423359
O  O12  1  0.93810000  0.17150000  0.99740000  1.0 -0.5316423359
O  O13  1  0.23840000  0.23190000  0.82890000  1.0 -0.5577992382
O  O14  1  0.76160000  0.76810000  0.17110000  1.0 -0.5577992382
O  O15  1  0.42360000  0.20170000  0.74930000  1.0 -0.4973291936
O  O16  1  0.57640000  0.79830000  0.25070000  1.0 -0.4973291936
O  O17  1  0.98330000  0.54210000  0.12050000  1.0 -0.8110788348
O  O18  1  0.01670000  0.45790000  0.87950000  1.0 -0.8110788348
O  O19  1  0.44330000  0.58090000  0.38190000  1.0 -0.7974462691
O  O20  1  0.55670000  0.41910000  0.61810000  1.0 -0.7974462691
