# DDEC6 charges by PACMAN v1.1 (https://github.com/mtap-research/PACMAN-charge/)
data_COWDEZ_ASR_pacman
_symmetry_space_group_name_H-M   'P 1'
_cell_length_a   18.34860000
_cell_length_b   18.34860000
_cell_length_c   18.34860000
_cell_angle_alpha   117.97800000
_cell_angle_beta   110.24500000
_cell_angle_gamma   100.65100000
_symmetry_Int_Tables_number   1
_chemical_formula_structural   KCo2P5H40W20C44N16O73
_chemical_formula_sum   'K2 Co4 P10 H80 W40 C88 N32 O146'
_cell_volume   4647.49748060
_cell_formula_units_Z   2
loop_
 _symmetry_equiv_pos_site_id
 _symmetry_equiv_pos_as_xyz
  1  'x, y, z'
loop_
 _atom_site_type_symbol
 _atom_site_label
 _atom_site_symmetry_multiplicity
 _atom_site_fract_x
 _atom_site_fract_y
 _atom_site_fract_z
 _atom_site_occupancy
 _atom_site_charge
K  K1  1  0.50000000  0.58640000  0.08640000  1.0 0.654746699
K  K2  1  0.50000000  0.41360000  0.91360000  1.0 0.654746699
Co  Co1  1  0.50000000  0.50000000  0.50000000  1.0 0.6591609594
Co  Co2  1  0.00000000  0.00000000  0.50000000  1.0 0.6591609594
Co  Co3  1  0.00000000  0.50000000  0.00000000  1.0 0.6591609594
Co  Co4  1  0.50000000  0.00000000  0.00000000  1.0 0.6591609594
P  P1  1  0.66270000  0.50000000  0.16270000  1.0 0.4994246539
P  P2  1  0.33730000  0.50000000  0.83730000  1.0 0.4994246539
P  P3  1  0.54970000  0.41370000  0.13600000  1.0 0.5097199854
P  P4  1  0.27770000  0.41370000  0.86400000  1.0 0.5097199854
P  P5  1  0.72230000  0.58630000  0.13600000  1.0 0.5097199854
P  P6  1  0.45030000  0.58630000  0.86400000  1.0 0.5097199854
P  P7  1  0.40710000  0.35850000  0.04860000  1.0 0.5157189097
P  P8  1  0.30990000  0.35850000  0.95140000  1.0 0.5157189097
P  P9  1  0.69010000  0.64150000  0.04860000  1.0 0.5157189097
P  P10  1  0.59290000  0.64150000  0.95140000  1.0 0.5157189097
H  H1  1  0.81300000  0.54400000  0.68500000  1.0 0.0721332388
H  H2  1  0.85900000  0.12800000  0.31500000  1.0 0.0721332388
H  H3  1  0.14100000  0.45600000  0.26900000  1.0 0.0721332388
H  H4  1  0.18700000  0.87200000  0.73100000  1.0 0.0721332388
H  H5  1  0.18700000  0.45600000  0.31500000  1.0 0.0721332388
H  H6  1  0.14100000  0.87200000  0.68500000  1.0 0.0721332388
H  H7  1  0.85900000  0.54400000  0.73100000  1.0 0.0721332388
H  H8  1  0.81300000  0.12800000  0.26900000  1.0 0.0721332388
H  H9  1  0.69760000  0.60260000  0.68740000  1.0 0.0919356067
H  H10  1  0.91520000  0.01020000  0.31260000  1.0 0.0919356067
H  H11  1  0.08480000  0.39740000  0.09500000  1.0 0.0919356067
H  H12  1  0.30240000  0.98980000  0.90500000  1.0 0.0919356067
H  H13  1  0.30240000  0.39740000  0.31260000  1.0 0.0919356067
H  H14  1  0.08480000  0.98980000  0.68740000  1.0 0.0919356067
H  H15  1  0.91520000  0.60260000  0.90500000  1.0 0.0919356067
H  H16  1  0.69760000  0.01020000  0.09500000  1.0 0.0919356067
H  H17  1  0.58960000  0.35430000  0.42970000  1.0 0.0789432484
H  H18  1  0.92460000  0.15990000  0.57030000  1.0 0.0789432484
H  H19  1  0.07540000  0.64570000  0.23530000  1.0 0.0789432484
H  H20  1  0.41040000  0.84010000  0.76470000  1.0 0.0789432484
H  H21  1  0.41040000  0.64570000  0.57030000  1.0 0.0789432484
H  H22  1  0.07540000  0.84010000  0.42970000  1.0 0.0789432484
H  H23  1  0.92460000  0.35430000  0.76470000  1.0 0.0789432484
H  H24  1  0.58960000  0.15990000  0.23530000  1.0 0.0789432484
H  H25  1  0.65300000  0.27980000  0.37320000  1.0 0.0789432484
H  H26  1  0.90660000  0.27980000  0.62680000  1.0 0.0789432484
H  H27  1  0.09340000  0.72020000  0.37320000  1.0 0.0789432484
H  H28  1  0.34700000  0.72020000  0.62680000  1.0 0.0789432484
H  H29  1  0.88140000  0.43450000  0.63090000  1.0 0.0919356067
H  H30  1  0.80360000  0.25050000  0.36910000  1.0 0.0919356067
H  H31  1  0.19640000  0.56550000  0.44690000  1.0 0.0919356067
H  H32  1  0.11860000  0.74950000  0.55310000  1.0 0.0919356067
H  H33  1  0.11860000  0.56550000  0.36910000  1.0 0.0919356067
H  H34  1  0.19640000  0.74950000  0.63090000  1.0 0.0919356067
H  H35  1  0.80360000  0.43450000  0.55310000  1.0 0.0919356067
H  H36  1  0.88140000  0.25050000  0.44690000  1.0 0.0919356067
H  H37  1  0.77250000  0.35490000  0.41760000  1.0 0.0789432484
H  H38  1  0.93730000  0.35490000  0.58240000  1.0 0.0789432484
H  H39  1  0.06270000  0.64510000  0.41760000  1.0 0.0789432484
H  H40  1  0.22750000  0.64510000  0.58240000  1.0 0.0789432484
H  H41  1  0.71360000  0.42160000  0.68340000  1.0 0.0789432484
H  H42  1  0.73820000  0.03020000  0.31660000  1.0 0.0789432484
H  H43  1  0.26180000  0.57840000  0.29200000  1.0 0.0789432484
H  H44  1  0.28640000  0.96980000  0.70800000  1.0 0.0789432484
H  H45  1  0.28640000  0.57840000  0.31660000  1.0 0.0789432484
H  H46  1  0.26180000  0.96980000  0.68340000  1.0 0.0789432484
H  H47  1  0.73820000  0.42160000  0.70800000  1.0 0.0789432484
H  H48  1  0.71360000  0.03020000  0.29200000  1.0 0.0789432484
H  H49  1  0.60650000  0.23540000  0.37110000  1.0 0.0721332388
H  H50  1  0.86430000  0.23540000  0.62890000  1.0 0.0721332388
H  H51  1  0.13570000  0.76460000  0.37110000  1.0 0.0721332388
H  H52  1  0.39350000  0.76460000  0.62890000  1.0 0.0721332388
H  H53  1  0.68980000  0.24880000  0.63160000  1.0 0.0721332388
H  H54  1  0.61720000  0.05820000  0.36840000  1.0 0.0721332388
H  H55  1  0.38280000  0.75120000  0.44100000  1.0 0.0721332388
H  H56  1  0.31020000  0.94180000  0.55900000  1.0 0.0721332388
H  H57  1  0.31020000  0.75120000  0.36840000  1.0 0.0721332388
H  H58  1  0.38280000  0.94180000  0.63160000  1.0 0.0721332388
H  H59  1  0.61720000  0.24880000  0.55900000  1.0 0.0721332388
H  H60  1  0.68980000  0.05820000  0.44100000  1.0 0.0721332388
H  H61  1  0.55580000  0.10740000  0.44840000  1.0 0.0919356067
H  H62  1  0.65900000  0.10740000  0.55160000  1.0 0.0919356067
H  H63  1  0.34100000  0.89260000  0.44840000  1.0 0.0919356067
H  H64  1  0.44420000  0.89260000  0.55160000  1.0 0.0919356067
H  H65  1  0.51970000  0.31590000  0.41640000  1.0 0.0919356067
H  H66  1  0.89950000  0.10330000  0.58360000  1.0 0.0919356067
H  H67  1  0.10050000  0.68410000  0.20380000  1.0 0.0919356067
H  H68  1  0.48030000  0.89670000  0.79620000  1.0 0.0919356067
H  H69  1  0.48030000  0.68410000  0.58360000  1.0 0.0919356067
H  H70  1  0.10050000  0.89670000  0.41640000  1.0 0.0919356067
H  H71  1  0.89950000  0.31590000  0.79620000  1.0 0.0919356067
H  H72  1  0.51970000  0.10330000  0.20380000  1.0 0.0919356067
H  H73  1  0.65990000  0.53780000  0.68050000  1.0 0.0919356067
H  H74  1  0.85730000  0.97940000  0.31950000  1.0 0.0919356067
H  H75  1  0.14270000  0.46220000  0.12210000  1.0 0.0919356067
H  H76  1  0.34010000  0.02060000  0.87790000  1.0 0.0919356067
H  H77  1  0.34010000  0.46220000  0.31950000  1.0 0.0919356067
H  H78  1  0.14270000  0.02060000  0.68050000  1.0 0.0919356067
H  H79  1  0.85730000  0.53780000  0.87790000  1.0 0.0919356067
H  H80  1  0.65990000  0.97940000  0.12210000  1.0 0.0919356067
W  W1  1  0.23895000  0.32673000  0.08778000  1.0 2.166373479
W  W2  1  0.23895000  0.15117000  0.91222000  1.0 2.166373479
W  W3  1  0.76105000  0.67327000  0.91222000  1.0 2.166373479
W  W4  1  0.76105000  0.84883000  0.08778000  1.0 2.166373479
W  W5  1  0.46075000  0.37687000  0.25774000  1.0 2.2472827311
W  W6  1  0.11913000  0.20301000  0.74226000  1.0 2.2472827311
W  W7  1  0.88087000  0.62313000  0.08388000  1.0 2.2472827311
W  W8  1  0.53925000  0.79699000  0.91612000  1.0 2.2472827311
W  W9  1  0.53925000  0.62313000  0.74226000  1.0 2.2472827311
W  W10  1  0.88087000  0.79699000  0.25774000  1.0 2.2472827311
W  W11  1  0.11913000  0.37687000  0.91612000  1.0 2.2472827311
W  W12  1  0.46075000  0.20301000  0.08388000  1.0 2.2472827311
W  W13  1  0.69670000  0.50690000  0.36426000  1.0 2.0827560728
W  W14  1  0.14264000  0.33244000  0.63574000  1.0 2.0827560728
W  W15  1  0.85736000  0.49310000  0.18980000  1.0 2.0827560728
W  W16  1  0.30330000  0.66756000  0.81020000  1.0 2.0827560728
W  W17  1  0.30330000  0.49310000  0.63574000  1.0 2.0827560728
W  W18  1  0.85736000  0.66756000  0.36426000  1.0 2.0827560728
W  W19  1  0.14264000  0.50690000  0.81020000  1.0 2.0827560728
W  W20  1  0.69670000  0.33244000  0.18980000  1.0 2.085217404
W  W21  1  0.64881000  0.67931000  0.32812000  1.0 0.8726430115
W  W22  1  0.35119000  0.32069000  0.67188000  1.0 0.8726430115
W  W23  1  0.64881000  0.32069000  0.96950000  1.0 0.8726430115
W  W24  1  0.35119000  0.67931000  0.03050000  1.0 0.8726430115
W  W25  1  0.54557000  0.60060000  0.30497000  1.0 1.1691147861
W  W26  1  0.29563000  0.24060000  0.69503000  1.0 1.1691147861
W  W27  1  0.70437000  0.39940000  0.94497000  1.0 1.1691147861
W  W28  1  0.45443000  0.75940000  0.05503000  1.0 1.1691147861
W  W29  1  0.45443000  0.39940000  0.69503000  1.0 1.1691147861
W  W30  1  0.70437000  0.75940000  0.30497000  1.0 1.1691147861
W  W31  1  0.29563000  0.60060000  0.05503000  1.0 1.1691147861
W  W32  1  0.54557000  0.24060000  0.94497000  1.0 1.1691147861
W  W33  1  0.41501000  0.55138000  0.22449000  1.0 1.1186231848
W  W34  1  0.32689000  0.19052000  0.77551000  1.0 1.1186231848
W  W35  1  0.67311000  0.44862000  0.86363000  1.0 1.1186231848
W  W36  1  0.58499000  0.80948000  0.13637000  1.0 1.1186231848
W  W37  1  0.58499000  0.44862000  0.77551000  1.0 1.1186231848
W  W38  1  0.67311000  0.80948000  0.22449000  1.0 1.1186231848
W  W39  1  0.32689000  0.55138000  0.13637000  1.0 1.1186231848
W  W40  1  0.41501000  0.19052000  0.86363000  1.0 1.1186231848
C  C1  1  0.75490000  0.51440000  0.63430000  1.0 -0.1517439198
C  C2  1  0.88010000  0.12060000  0.36570000  1.0 -0.1517439198
C  C3  1  0.11990000  0.48560000  0.24050000  1.0 -0.1517439198
C  C4  1  0.24510000  0.87940000  0.75950000  1.0 -0.1517439198
C  C5  1  0.24510000  0.48560000  0.36570000  1.0 -0.1517439198
C  C6  1  0.11990000  0.87940000  0.63430000  1.0 -0.1517439198
C  C7  1  0.88010000  0.51440000  0.75950000  1.0 -0.1517439198
C  C8  1  0.75490000  0.12060000  0.24050000  1.0 -0.1517439198
C  C9  1  0.69040000  0.54640000  0.63600000  1.0 -0.075758097
C  C10  1  0.91040000  0.05440000  0.36400000  1.0 -0.075758097
C  C11  1  0.08960000  0.45360000  0.14400000  1.0 -0.075758097
C  C12  1  0.30960000  0.94560000  0.85600000  1.0 -0.075758097
C  C13  1  0.30960000  0.45360000  0.36400000  1.0 -0.075758097
C  C14  1  0.08960000  0.94560000  0.63600000  1.0 -0.075758097
C  C15  1  0.91040000  0.54640000  0.85600000  1.0 -0.075758097
C  C16  1  0.69040000  0.05440000  0.14400000  1.0 -0.075758097
C  C17  1  0.63020000  0.40810000  0.49250000  1.0 0.0919356067
C  C18  1  0.91560000  0.13770000  0.50750000  1.0 0.0919356067
C  C19  1  0.08440000  0.59190000  0.22210000  1.0 0.0919356067
C  C20  1  0.36980000  0.86230000  0.77790000  1.0 0.0919356067
C  C21  1  0.36980000  0.59190000  0.50750000  1.0 0.0919356067
C  C22  1  0.08440000  0.86230000  0.49250000  1.0 0.0919356067
C  C23  1  0.91560000  0.40810000  0.77790000  1.0 0.0919356067
C  C24  1  0.63020000  0.13770000  0.22210000  1.0 0.0919356067
C  C25  1  0.71200000  0.29700000  0.41500000  1.0 -0.1915650341
C  C26  1  0.88200000  0.29700000  0.58500000  1.0 -0.1915650341
C  C27  1  0.11800000  0.70300000  0.41500000  1.0 -0.1915650341
C  C28  1  0.28800000  0.70300000  0.58500000  1.0 -0.1915650341
C  C29  1  0.75470000  0.37550000  0.51180000  1.0 0.0789432484
C  C30  1  0.86370000  0.24290000  0.48820000  1.0 0.0789432484
C  C31  1  0.13630000  0.62450000  0.37920000  1.0 0.0789432484
C  C32  1  0.24530000  0.75710000  0.62080000  1.0 0.0789432484
C  C33  1  0.24530000  0.62450000  0.48820000  1.0 0.0789432484
C  C34  1  0.13630000  0.75710000  0.51180000  1.0 0.0789432484
C  C35  1  0.86370000  0.37550000  0.62080000  1.0 0.0789432484
C  C36  1  0.75470000  0.24290000  0.37920000  1.0 0.0789432484
C  C37  1  0.83510000  0.40200000  0.56690000  1.0 -0.181839538
C  C38  1  0.83510000  0.26820000  0.43310000  1.0 -0.181839538
C  C39  1  0.16490000  0.59800000  0.43310000  1.0 -0.181839538
C  C40  1  0.16490000  0.73180000  0.56690000  1.0 -0.181839538
C  C41  1  0.80400000  0.34300000  0.46100000  1.0 0.0136568628
C  C42  1  0.88200000  0.34300000  0.53900000  1.0 0.0136568628
C  C43  1  0.11800000  0.65700000  0.46100000  1.0 0.0136568628
C  C44  1  0.19600000  0.65700000  0.53900000  1.0 0.0136568628
C  C45  1  0.66760000  0.41290000  0.63030000  1.0 -0.095985952
C  C46  1  0.78260000  0.03730000  0.36970000  1.0 -0.095985952
C  C47  1  0.21740000  0.58710000  0.25470000  1.0 -0.095985952
C  C48  1  0.33240000  0.96270000  0.74530000  1.0 -0.095985952
C  C49  1  0.33240000  0.58710000  0.36970000  1.0 -0.095985952
C  C50  1  0.21740000  0.96270000  0.63030000  1.0 -0.095985952
C  C51  1  0.78260000  0.41290000  0.74530000  1.0 -0.095985952
C  C52  1  0.66760000  0.03730000  0.25470000  1.0 -0.095985952
C  C53  1  0.61500000  0.20900000  0.40600000  1.0 -0.3009162891
C  C54  1  0.80300000  0.20900000  0.59400000  1.0 -0.3009162891
C  C55  1  0.19700000  0.79100000  0.40600000  1.0 -0.3009162891
C  C56  1  0.38500000  0.79100000  0.59400000  1.0 -0.3009162891
C  C57  1  0.65750000  0.22230000  0.56480000  1.0 -0.1173740823
C  C58  1  0.65750000  0.09270000  0.43520000  1.0 -0.1173740823
C  C59  1  0.34250000  0.77770000  0.43520000  1.0 -0.1173740823
C  C60  1  0.34250000  0.90730000  0.56480000  1.0 -0.1173740823
C  C61  1  0.61700000  0.13700000  0.48000000  1.0 -0.071751266
C  C62  1  0.65700000  0.13700000  0.52000000  1.0 -0.071751266
C  C63  1  0.34300000  0.86300000  0.48000000  1.0 -0.071751266
C  C64  1  0.38300000  0.86300000  0.52000000  1.0 -0.071751266
C  C65  1  0.55930000  0.35650000  0.48360000  1.0 0.0721332388
C  C66  1  0.87290000  0.07570000  0.51640000  1.0 0.0721332388
C  C67  1  0.12710000  0.64350000  0.20280000  1.0 0.0721332388
C  C68  1  0.44070000  0.92430000  0.79720000  1.0 0.0721332388
C  C69  1  0.44070000  0.64350000  0.51640000  1.0 0.0721332388
C  C70  1  0.12710000  0.92430000  0.48360000  1.0 0.0721332388
C  C71  1  0.87290000  0.35650000  0.79720000  1.0 0.0721332388
C  C72  1  0.55930000  0.07570000  0.20280000  1.0 0.0721332388
C  C73  1  0.63780000  0.47620000  0.62660000  1.0 0.0265850051
C  C74  1  0.84960000  0.01120000  0.37340000  1.0 0.0265850051
C  C75  1  0.15040000  0.52380000  0.16160000  1.0 0.0265850051
C  C76  1  0.36220000  0.98880000  0.83840000  1.0 0.0265850051
C  C77  1  0.36220000  0.52380000  0.37340000  1.0 0.0265850051
C  C78  1  0.15040000  0.98880000  0.62660000  1.0 0.0265850051
C  C79  1  0.84960000  0.47620000  0.83840000  1.0 0.0265850051
C  C80  1  0.63780000  0.01120000  0.16160000  1.0 0.0265850051
C  C81  1  0.62160000  0.25150000  0.49690000  1.0 0.0965655323
C  C82  1  0.75460000  0.12470000  0.50310000  1.0 0.0965655323
C  C83  1  0.24540000  0.74850000  0.37010000  1.0 0.0965655323
C  C84  1  0.37840000  0.87530000  0.62990000  1.0 0.0965655323
C  C85  1  0.37840000  0.74850000  0.50310000  1.0 0.0965655323
C  C86  1  0.24540000  0.87530000  0.49690000  1.0 0.0965655323
C  C87  1  0.75460000  0.25150000  0.62990000  1.0 0.0965655323
C  C88  1  0.62160000  0.12470000  0.37010000  1.0 0.0965655323
N  N1  1  0.61330000  0.48070000  0.54840000  1.0 0.0439547885
N  N2  1  0.93230000  0.06490000  0.45160000  1.0 0.0439547885
N  N3  1  0.06770000  0.51930000  0.13260000  1.0 0.0439547885
N  N4  1  0.38670000  0.93510000  0.86740000  1.0 0.0439547885
N  N5  1  0.38670000  0.51930000  0.45160000  1.0 0.0439547885
N  N6  1  0.06770000  0.93510000  0.54840000  1.0 0.0439547885
N  N7  1  0.93230000  0.48070000  0.86740000  1.0 0.0439547885
N  N8  1  0.61330000  0.06490000  0.13260000  1.0 0.0439547885
N  N9  1  0.71780000  0.42890000  0.54550000  1.0 -0.2092053194
N  N10  1  0.88340000  0.17230000  0.45450000  1.0 -0.2092053194
N  N11  1  0.11660000  0.57110000  0.28890000  1.0 -0.2092053194
N  N12  1  0.28220000  0.82770000  0.71110000  1.0 -0.2092053194
N  N13  1  0.28220000  0.57110000  0.45450000  1.0 -0.2092053194
N  N14  1  0.11660000  0.82770000  0.54550000  1.0 -0.2092053194
N  N15  1  0.88340000  0.42890000  0.71110000  1.0 -0.2092053194
N  N16  1  0.71780000  0.17230000  0.28890000  1.0 -0.2092053194
N  N17  1  0.57290000  0.43810000  0.53500000  1.0 0.0468798119
N  N18  1  0.90310000  0.03790000  0.46500000  1.0 0.0468798119
N  N19  1  0.09690000  0.56190000  0.13480000  1.0 0.0468798119
N  N20  1  0.42710000  0.96210000  0.86520000  1.0 0.0468798119
N  N21  1  0.42710000  0.56190000  0.46500000  1.0 0.0468798119
N  N22  1  0.09690000  0.96210000  0.53500000  1.0 0.0468798119
N  N23  1  0.90310000  0.43810000  0.86520000  1.0 0.0468798119
N  N24  1  0.57290000  0.03790000  0.13480000  1.0 0.0468798119
N  N25  1  0.61510000  0.33230000  0.53620000  1.0 -0.1517439198
N  N26  1  0.79610000  0.07890000  0.46380000  1.0 -0.1517439198
N  N27  1  0.20390000  0.66770000  0.28280000  1.0 -0.1517439198
N  N28  1  0.38490000  0.92110000  0.71720000  1.0 -0.1517439198
N  N29  1  0.38490000  0.66770000  0.46380000  1.0 -0.1517439198
N  N30  1  0.20390000  0.92110000  0.53620000  1.0 -0.1517439198
N  N31  1  0.79610000  0.33230000  0.71720000  1.0 -0.1517439198
N  N32  1  0.61510000  0.07890000  0.28280000  1.0 -0.1517439198
O  O1  1  0.50000000  0.54600000  0.04600000  1.0 -0.2326444137
O  O2  1  0.50000000  0.45400000  0.95400000  1.0 -0.2326444137
O  O3  1  0.79550000  0.58140000  0.37690000  1.0 -0.9303667867
O  O4  1  0.20450000  0.41860000  0.62310000  1.0 -0.9303667867
O  O5  1  0.79550000  0.41860000  0.21410000  1.0 -0.9303667867
O  O6  1  0.20450000  0.58140000  0.78590000  1.0 -0.9303667867
O  O7  1  0.72950000  0.40850000  0.32100000  1.0 -0.852486116
O  O8  1  0.08750000  0.40850000  0.67900000  1.0 -0.852486116
O  O9  1  0.91250000  0.59150000  0.32100000  1.0 -0.852486116
O  O10  1  0.27050000  0.59150000  0.67900000  1.0 -0.852486116
O  O11  1  0.58460000  0.42530000  0.31910000  1.0 -0.9007734779
O  O12  1  0.10620000  0.26550000  0.68090000  1.0 -0.9007734779
O  O13  1  0.89380000  0.57470000  0.15930000  1.0 -0.9007734779
O  O14  1  0.41540000  0.73450000  0.84070000  1.0 -0.9007734779
O  O15  1  0.41540000  0.57470000  0.68090000  1.0 -0.9007734779
O  O16  1  0.89380000  0.73450000  0.31910000  1.0 -0.9007734779
O  O17  1  0.10620000  0.42530000  0.84070000  1.0 -0.9007734779
O  O18  1  0.58460000  0.26550000  0.15930000  1.0 -0.9007734779
O  O19  1  0.45430000  0.39250000  0.35580000  1.0 -0.7501938168
O  O20  1  0.03670000  0.09850000  0.64420000  1.0 -0.7501938168
O  O21  1  0.96330000  0.60750000  0.06180000  1.0 -0.7501938168
O  O22  1  0.54570000  0.90150000  0.93820000  1.0 -0.7501938168
O  O23  1  0.54570000  0.60750000  0.64420000  1.0 -0.7501938168
O  O24  1  0.96330000  0.90150000  0.35580000  1.0 -0.7501938168
O  O25  1  0.03670000  0.39250000  0.93820000  1.0 -0.7501938168
O  O26  1  0.45430000  0.09850000  0.06180000  1.0 -0.7501938168
O  O27  1  0.45150000  0.25400000  0.19750000  1.0 -0.852486116
O  O28  1  0.05650000  0.25400000  0.80250000  1.0 -0.852486116
O  O29  1  0.94350000  0.74600000  0.19750000  1.0 -0.852486116
O  O30  1  0.54850000  0.74600000  0.80250000  1.0 -0.852486116
O  O31  1  0.33880000  0.32880000  0.17320000  1.0 -0.9169902328
O  O32  1  0.15560000  0.16560000  0.82680000  1.0 -0.9169902328
O  O33  1  0.84440000  0.67120000  0.01000000  1.0 -0.9169902328
O  O34  1  0.66120000  0.83440000  0.99000000  1.0 -0.9169902328
O  O35  1  0.66120000  0.67120000  0.82680000  1.0 -0.9169902328
O  O36  1  0.84440000  0.83440000  0.17320000  1.0 -0.9169902328
O  O37  1  0.15560000  0.32880000  0.99000000  1.0 -0.9169902328
O  O38  1  0.33880000  0.16560000  0.01000000  1.0 -0.9169902328
O  O39  1  0.19670000  0.19670000  0.00000000  1.0 -0.9303667867
O  O40  1  0.80330000  0.80330000  0.00000000  1.0 -0.9303667867
O  O41  1  0.30470000  0.30470000  0.00000000  1.0 -0.6333935384
O  O42  1  0.69530000  0.69530000  0.00000000  1.0 -0.6333935384
O  O43  1  0.47000000  0.34260000  0.12740000  1.0 -0.6496615533
O  O44  1  0.21520000  0.34260000  0.87260000  1.0 -0.6496615533
O  O45  1  0.78480000  0.65740000  0.12740000  1.0 -0.6496615533
O  O46  1  0.53000000  0.65740000  0.87260000  1.0 -0.6496615533
O  O47  1  0.47150000  0.48920000  0.27850000  1.0 -0.7602647269
O  O48  1  0.21070000  0.19300000  0.72150000  1.0 -0.7602647269
O  O49  1  0.78930000  0.51080000  0.98230000  1.0 -0.7602647269
O  O50  1  0.52850000  0.80700000  0.01770000  1.0 -0.7602647269
O  O51  1  0.52850000  0.51080000  0.72150000  1.0 -0.7602647269
O  O52  1  0.78930000  0.80700000  0.27850000  1.0 -0.7602647269
O  O53  1  0.21070000  0.48920000  0.01770000  1.0 -0.7602647269
O  O54  1  0.47150000  0.19300000  0.98230000  1.0 -0.7602647269
O  O55  1  0.64870000  0.58830000  0.35920000  1.0 -0.7283319358
O  O56  1  0.22910000  0.28950000  0.64080000  1.0 -0.7283319358
O  O57  1  0.77090000  0.41170000  0.06040000  1.0 -0.7283319358
O  O58  1  0.35130000  0.71050000  0.93960000  1.0 -0.7283319358
O  O59  1  0.35130000  0.41170000  0.64080000  1.0 -0.7283319358
O  O60  1  0.77090000  0.71050000  0.35920000  1.0 -0.7283319358
O  O61  1  0.22910000  0.58830000  0.93960000  1.0 -0.7283319358
O  O62  1  0.64870000  0.28950000  0.06040000  1.0 -0.7283319358
O  O63  1  0.64680000  0.43930000  0.20750000  1.0 -0.6392678592
O  O64  1  0.23180000  0.43930000  0.79250000  1.0 -0.6392678592
O  O65  1  0.76820000  0.56070000  0.20750000  1.0 -0.6392678592
O  O66  1  0.35320000  0.56070000  0.79250000  1.0 -0.6392678592
O  O67  1  0.55190000  0.67350000  0.41120000  1.0 -0.5426658962
O  O68  1  0.26230000  0.14070000  0.58880000  1.0 -0.5426658962
O  O69  1  0.73770000  0.32650000  0.87840000  1.0 -0.5426658962
O  O70  1  0.44810000  0.85930000  0.12160000  1.0 -0.5426658962
O  O71  1  0.44810000  0.32650000  0.58880000  1.0 -0.5426658962
O  O72  1  0.73770000  0.85930000  0.41120000  1.0 -0.5426658962
O  O73  1  0.26230000  0.67350000  0.12160000  1.0 -0.5426658962
O  O74  1  0.55190000  0.14070000  0.87840000  1.0 -0.5426658962
O  O75  1  0.66860000  0.76870000  0.43730000  1.0 -0.3714452956
O  O76  1  0.33140000  0.23130000  0.56270000  1.0 -0.3714452956
O  O77  1  0.66860000  0.23130000  0.89990000  1.0 -0.3714452956
O  O78  1  0.33140000  0.76870000  0.10010000  1.0 -0.3714452956
O  O79  1  0.61400000  0.68680000  0.30080000  1.0 -0.1304894622
O  O80  1  0.38600000  0.31320000  0.69920000  1.0 -0.1304894622
O  O81  1  0.61400000  0.31320000  0.92720000  1.0 -0.1304894622
O  O82  1  0.38600000  0.68680000  0.07280000  1.0 -0.1304894622
O  O83  1  0.52610000  0.62430000  0.26560000  1.0 -0.2092053194
O  O84  1  0.35870000  0.26050000  0.73440000  1.0 -0.2092053194
O  O85  1  0.64130000  0.37570000  0.90180000  1.0 -0.2092053194
O  O86  1  0.47390000  0.73950000  0.09820000  1.0 -0.2092053194
O  O87  1  0.47390000  0.37570000  0.73440000  1.0 -0.2092053194
O  O88  1  0.64130000  0.73950000  0.26560000  1.0 -0.2092053194
O  O89  1  0.35870000  0.62430000  0.09820000  1.0 -0.2092053194
O  O90  1  0.52610000  0.26050000  0.90180000  1.0 -0.2092053194
O  O91  1  0.44250000  0.59300000  0.22170000  1.0 -0.1915650341
O  O92  1  0.37130000  0.22080000  0.77830000  1.0 -0.1915650341
O  O93  1  0.62870000  0.40700000  0.84950000  1.0 -0.1915650341
O  O94  1  0.55750000  0.77920000  0.15050000  1.0 -0.1915650341
O  O95  1  0.55750000  0.40700000  0.77830000  1.0 -0.1915650341
O  O96  1  0.62870000  0.77920000  0.22170000  1.0 -0.1915650341
O  O97  1  0.37130000  0.59300000  0.15050000  1.0 -0.1915650341
O  O98  1  0.44250000  0.22080000  0.84950000  1.0 -0.1915650341
O  O99  1  0.42730000  0.45820000  0.10070000  1.0 -0.3089047495
O  O100  1  0.35750000  0.32660000  0.89930000  1.0 -0.3089047495
O  O101  1  0.64250000  0.54180000  0.96910000  1.0 -0.3089047495
O  O102  1  0.57270000  0.67340000  0.03090000  1.0 -0.3089047495
O  O103  1  0.57270000  0.54180000  0.89930000  1.0 -0.3089047495
O  O104  1  0.64250000  0.67340000  0.10070000  1.0 -0.3089047495
O  O105  1  0.35750000  0.45820000  0.03090000  1.0 -0.3089047495
O  O106  1  0.42730000  0.32660000  0.96910000  1.0 -0.3089047495
O  O107  1  0.53840000  0.50010000  0.17010000  1.0 -0.3182850901
O  O108  1  0.33000000  0.36830000  0.82990000  1.0 -0.3182850901
O  O109  1  0.67000000  0.49990000  0.03830000  1.0 -0.3182850901
O  O110  1  0.46160000  0.63170000  0.96170000  1.0 -0.3182850901
O  O111  1  0.46160000  0.49990000  0.82990000  1.0 -0.3182850901
O  O112  1  0.67000000  0.63170000  0.17010000  1.0 -0.3182850901
O  O113  1  0.33000000  0.50010000  0.96170000  1.0 -0.3182850901
O  O114  1  0.53840000  0.36830000  0.03830000  1.0 -0.3182850901
O  O115  1  0.62200000  0.56620000  0.18820000  1.0 -0.2600174669
O  O116  1  0.37800000  0.43380000  0.81180000  1.0 -0.2600174669
O  O117  1  0.62200000  0.43380000  0.05580000  1.0 -0.2600174669
O  O118  1  0.37800000  0.56620000  0.94420000  1.0 -0.2600174669
O  O119  1  0.29990000  0.44990000  0.15000000  1.0 -0.7602647269
O  O120  1  0.29990000  0.14990000  0.85000000  1.0 -0.7602647269
O  O121  1  0.70010000  0.55010000  0.85000000  1.0 -0.7602647269
O  O122  1  0.70010000  0.85010000  0.15000000  1.0 -0.7602647269
O  O123  1  0.40930000  0.62290000  0.32200000  1.0 -0.5426658962
O  O124  1  0.30090000  0.08730000  0.67800000  1.0 -0.5426658962
O  O125  1  0.69910000  0.37710000  0.78640000  1.0 -0.5426658962
O  O126  1  0.59070000  0.91270000  0.21360000  1.0 -0.5426658962
O  O127  1  0.59070000  0.37710000  0.67800000  1.0 -0.5426658962
O  O128  1  0.69910000  0.91270000  0.32200000  1.0 -0.5426658962
O  O129  1  0.30090000  0.62290000  0.21360000  1.0 -0.5426658962
O  O130  1  0.40930000  0.08730000  0.78640000  1.0 -0.5426658962
O  O131  1  0.43460000  0.40040000  0.51420000  1.0 -0.071751266
O  O132  1  0.88620000  0.92040000  0.48580000  1.0 -0.071751266
O  O133  1  0.11380000  0.59960000  0.03420000  1.0 -0.071751266
O  O134  1  0.56540000  0.07960000  0.96580000  1.0 -0.071751266
O  O135  1  0.56540000  0.59960000  0.48580000  1.0 -0.071751266
O  O136  1  0.11380000  0.07960000  0.51420000  1.0 -0.071751266
O  O137  1  0.88620000  0.40040000  0.96580000  1.0 -0.071751266
O  O138  1  0.43460000  0.92040000  0.03420000  1.0 -0.071751266
O  O139  1  0.39360000  0.40490000  0.48110000  1.0 -0.0330325567
O  O140  1  0.92380000  0.91250000  0.51890000  1.0 -0.0330325567
O  O141  1  0.07620000  0.59510000  0.98870000  1.0 -0.0330325567
O  O142  1  0.60640000  0.08750000  0.01130000  1.0 -0.0330325567
O  O143  1  0.60640000  0.59510000  0.51890000  1.0 -0.0330325567
O  O144  1  0.07620000  0.08750000  0.48110000  1.0 -0.0330325567
O  O145  1  0.92380000  0.40490000  0.01130000  1.0 -0.0330325567
O  O146  1  0.39360000  0.91250000  0.98870000  1.0 -0.0330325567
