# DDEC6 charges by PACMAN v1.1 (https://github.com/mtap-research/PACMAN-charge/)
data_COXDIE_FSR_pacman
_symmetry_space_group_name_H-M   'P 1'
_cell_length_a   14.25960000
_cell_length_b   14.25960000
_cell_length_c   15.49700000
_cell_angle_alpha   65.78070000
_cell_angle_beta   114.21900000
_cell_angle_gamma   115.71500000
_symmetry_Int_Tables_number   1
_chemical_formula_structural   Cu4H16C14N12O
_chemical_formula_sum   'Cu16 H64 C56 N48 O4'
_cell_volume   2483.57742210
_cell_formula_units_Z   4
loop_
 _symmetry_equiv_pos_site_id
 _symmetry_equiv_pos_as_xyz
  1  'x, y, z'
loop_
 _atom_site_type_symbol
 _atom_site_label
 _atom_site_symmetry_multiplicity
 _atom_site_fract_x
 _atom_site_fract_y
 _atom_site_fract_z
 _atom_site_occupancy
 _atom_site_charge
Cu  Cu1  1  0.29230000  0.29230000  0.25000000  1.0 0.2958504171
Cu  Cu2  1  0.70770000  0.70770000  0.75000000  1.0 0.2958504171
Cu  Cu3  1  0.62112000  0.09260000  0.54530000  1.0 0.2648456008
Cu  Cu4  1  0.09260000  0.62112000  0.95470000  1.0 0.2648456008
Cu  Cu5  1  0.37888000  0.90740000  0.45470000  1.0 0.2648456008
Cu  Cu6  1  0.90740000  0.37888000  0.04530000  1.0 0.2648456008
Cu  Cu7  1  0.45314000  0.08398000  0.67189000  1.0 0.2394724847
Cu  Cu8  1  0.08398000  0.45314000  0.82811000  1.0 0.2394724847
Cu  Cu9  1  0.54686000  0.91602000  0.32811000  1.0 0.2394724847
Cu  Cu10  1  0.91602000  0.54686000  0.17189000  1.0 0.2394724847
Cu  Cu11  1  0.04286000  0.17870000  0.48631000  1.0 0.2863921881
Cu  Cu12  1  0.17870000  0.04286000  0.01369000  1.0 0.2863921881
Cu  Cu13  1  0.95714000  0.82130000  0.51369000  1.0 0.2863921881
Cu  Cu14  1  0.82130000  0.95714000  0.98631000  1.0 0.2863921881
Cu  Cu15  1  0.06740000  0.06740000  0.75000000  1.0 0.2682680399
Cu  Cu16  1  0.93260000  0.93260000  0.25000000  1.0 0.2682680399
H  H1  1  0.55570000  0.17710000  0.31950000  1.0 0.1497699656
H  H2  1  0.17710000  0.55570000  0.18050000  1.0 0.1497699656
H  H3  1  0.44430000  0.82290000  0.68050000  1.0 0.1497699656
H  H4  1  0.82290000  0.44430000  0.81950000  1.0 0.1497699656
H  H5  1  0.44870000  0.20090000  0.23760000  1.0 0.1581077839
H  H6  1  0.20090000  0.44870000  0.26240000  1.0 0.1581077839
H  H7  1  0.55130000  0.79910000  0.76240000  1.0 0.1581077839
H  H8  1  0.79910000  0.55130000  0.73760000  1.0 0.1581077839
H  H9  1  0.54640000  0.29640000  0.28000000  1.0 0.1661977487
H  H10  1  0.29640000  0.54640000  0.22000000  1.0 0.1661977487
H  H11  1  0.45360000  0.70360000  0.72000000  1.0 0.1661977487
H  H12  1  0.70360000  0.45360000  0.78000000  1.0 0.1661977487
H  H13  1  0.26160000  0.25400000  0.44180000  1.0 0.2328230277
H  H14  1  0.25400000  0.26160000  0.05820000  1.0 0.2328230277
H  H15  1  0.73840000  0.74600000  0.55820000  1.0 0.2328230277
H  H16  1  0.74600000  0.73840000  0.94180000  1.0 0.2328230277
H  H17  1  0.19710000  0.13470000  0.42990000  1.0 0.2051517278
H  H18  1  0.13470000  0.19710000  0.07010000  1.0 0.2051517278
H  H19  1  0.80290000  0.86530000  0.57010000  1.0 0.2051517278
H  H20  1  0.86530000  0.80290000  0.92990000  1.0 0.2051517278
H  H21  1  0.32800000  0.96920000  0.84590000  1.0 0.1581077839
H  H22  1  0.96920000  0.32800000  0.65410000  1.0 0.1581077839
H  H23  1  0.67200000  0.03080000  0.15410000  1.0 0.1581077839
H  H24  1  0.03080000  0.67200000  0.34590000  1.0 0.1581077839
H  H25  1  0.38650000  0.09070000  0.85470000  1.0 0.1581077839
H  H26  1  0.09070000  0.38650000  0.64530000  1.0 0.1581077839
H  H27  1  0.61350000  0.90930000  0.14530000  1.0 0.1581077839
H  H28  1  0.90930000  0.61350000  0.35470000  1.0 0.1581077839
H  H29  1  0.26630000  0.02550000  0.86610000  1.0 0.1497699656
H  H30  1  0.02550000  0.26630000  0.63390000  1.0 0.1497699656
H  H31  1  0.73370000  0.97450000  0.13390000  1.0 0.1497699656
H  H32  1  0.97450000  0.73370000  0.36610000  1.0 0.1497699656
H  H33  1  0.81500000  0.15700000  0.35350000  1.0 0.1581077839
H  H34  1  0.15700000  0.81500000  0.14650000  1.0 0.1581077839
H  H35  1  0.18500000  0.84300000  0.64650000  1.0 0.1581077839
H  H36  1  0.84300000  0.18500000  0.85350000  1.0 0.1581077839
H  H37  1  0.69570000  0.09750000  0.36780000  1.0 0.1497699656
H  H38  1  0.09750000  0.69570000  0.13220000  1.0 0.1497699656
H  H39  1  0.30430000  0.90250000  0.63220000  1.0 0.1497699656
H  H40  1  0.90250000  0.30430000  0.86780000  1.0 0.1497699656
H  H41  1  0.75720000  0.22180000  0.36800000  1.0 0.1581077839
H  H42  1  0.22180000  0.75720000  0.13200000  1.0 0.1661977487
H  H43  1  0.24280000  0.77820000  0.63200000  1.0 0.1661977487
H  H44  1  0.77820000  0.24280000  0.86800000  1.0 0.1661977487
H  H45  1  0.88240000  0.03560000  0.79910000  1.0 0.1497699656
H  H46  1  0.03560000  0.88240000  0.70090000  1.0 0.1497699656
H  H47  1  0.11760000  0.96440000  0.20090000  1.0 0.1497699656
H  H48  1  0.96440000  0.11760000  0.29910000  1.0 0.1497699656
H  H49  1  0.80340000  0.92560000  0.77140000  1.0 0.1497699656
H  H50  1  0.92560000  0.80340000  0.72860000  1.0 0.1497699656
H  H51  1  0.19660000  0.07440000  0.22860000  1.0 0.1497699656
H  H52  1  0.07440000  0.19660000  0.27140000  1.0 0.1497699656
H  H53  1  0.61377000  0.05297000  0.94060000  1.0 0.1581077839
H  H54  1  0.05297000  0.61377000  0.55940000  1.0 0.1581077839
H  H55  1  0.38623000  0.94703000  0.05940000  1.0 0.1581077839
H  H56  1  0.94703000  0.38623000  0.44060000  1.0 0.1581077839
H  H57  1  0.50240000  0.97040000  0.89420000  1.0 0.1497699656
H  H58  1  0.97040000  0.50240000  0.60580000  1.0 0.1497699656
H  H59  1  0.49760000  0.02960000  0.10580000  1.0 0.1497699656
H  H60  1  0.02960000  0.49760000  0.39420000  1.0 0.1497699656
H  H61  1  0.59920000  0.92640000  0.97540000  1.0 0.1497699656
H  H62  1  0.92640000  0.59920000  0.52460000  1.0 0.1581077839
H  H63  1  0.40080000  0.07360000  0.02460000  1.0 0.1497699656
H  H64  1  0.07360000  0.40080000  0.47540000  1.0 0.1497699656
C  C1  1  0.50620000  0.21860000  0.29640000  1.0 -0.5037726253
C  C2  1  0.21860000  0.50620000  0.20360000  1.0 -0.5037726253
C  C3  1  0.49380000  0.78140000  0.70360000  1.0 -0.5037726253
C  C4  1  0.78140000  0.49380000  0.79640000  1.0 -0.5037726253
C  C5  1  0.45560000  0.18980000  0.37720000  1.0 0.381018287
C  C6  1  0.18980000  0.45560000  0.12280000  1.0 0.381018287
C  C7  1  0.54440000  0.81020000  0.62280000  1.0 0.381018287
C  C8  1  0.81020000  0.54440000  0.87720000  1.0 0.381018287
C  C9  1  0.35780000  0.17680000  0.45510000  1.0 0.2156354659
C  C10  1  0.17680000  0.35780000  0.04490000  1.0 0.2156354659
C  C11  1  0.64220000  0.82320000  0.54490000  1.0 0.2156354659
C  C12  1  0.82320000  0.64220000  0.95510000  1.0 0.2156354659
C  C13  1  0.26320000  0.17880000  0.46960000  1.0 -0.0100343009
C  C14  1  0.17880000  0.26320000  0.03040000  1.0 -0.0100343009
C  C15  1  0.73680000  0.82120000  0.53040000  1.0 -0.0100343009
C  C16  1  0.82120000  0.73680000  0.96960000  1.0 -0.0100343009
C  C17  1  0.25350000  0.13850000  0.57130000  1.0 0.2464942545
C  C18  1  0.13850000  0.25350000  0.92870000  1.0 0.2464942545
C  C19  1  0.74650000  0.86150000  0.42870000  1.0 0.2464942545
C  C20  1  0.86150000  0.74650000  0.07130000  1.0 0.2464942545
C  C21  1  0.27060000  0.08080000  0.72240000  1.0 0.4028876186
C  C22  1  0.08080000  0.27060000  0.77760000  1.0 0.4028876186
C  C23  1  0.72940000  0.91920000  0.27760000  1.0 0.4028876186
C  C24  1  0.91920000  0.72940000  0.22240000  1.0 0.4028876186
C  C25  1  0.31690000  0.03770000  0.83180000  1.0 -0.5402950733
C  C26  1  0.03770000  0.31690000  0.66820000  1.0 -0.5402950733
C  C27  1  0.68310000  0.96230000  0.16820000  1.0 -0.5402950733
C  C28  1  0.96230000  0.68310000  0.33180000  1.0 -0.5402950733
C  C29  1  0.76650000  0.15110000  0.38690000  1.0 -0.5458408683
C  C30  1  0.15110000  0.76650000  0.11310000  1.0 -0.5458408683
C  C31  1  0.23350000  0.84890000  0.61310000  1.0 -0.5402950733
C  C32  1  0.84890000  0.23350000  0.88690000  1.0 -0.5402950733
C  C33  1  0.81470000  0.11570000  0.49640000  1.0 0.381018287
C  C34  1  0.11570000  0.81470000  0.00360000  1.0 0.381018287
C  C35  1  0.18530000  0.88430000  0.50360000  1.0 0.381018287
C  C36  1  0.88430000  0.18530000  0.99640000  1.0 0.381018287
C  C37  1  0.83360000  0.05320000  0.65140000  1.0 0.3603516319
C  C38  1  0.05320000  0.83360000  0.84860000  1.0 0.3603516319
C  C39  1  0.16640000  0.94680000  0.34860000  1.0 0.3603516319
C  C40  1  0.94680000  0.16640000  0.15140000  1.0 0.3603516319
C  C41  1  0.81460000  0.00420000  0.75200000  1.0 -0.4224246382
C  C42  1  0.00420000  0.81460000  0.74800000  1.0 -0.4224246382
C  C43  1  0.18540000  0.99580000  0.24800000  1.0 -0.4224246382
C  C44  1  0.99580000  0.18540000  0.25200000  1.0 -0.4224246382
C  C45  1  0.72650000  0.01590000  0.76600000  1.0 0.329894437
C  C46  1  0.01590000  0.72650000  0.73400000  1.0 0.329894437
C  C47  1  0.27350000  0.98410000  0.23400000  1.0 0.329894437
C  C48  1  0.98410000  0.27350000  0.26600000  1.0 0.329894437
C  C49  1  0.62470000  0.00390000  0.84070000  1.0 0.3603516319
C  C50  1  0.00390000  0.62470000  0.65930000  1.0 0.3603516319
C  C51  1  0.37530000  0.99610000  0.15930000  1.0 0.3603516319
C  C52  1  0.99610000  0.37530000  0.34070000  1.0 0.3603516319
C  C53  1  0.58140000  0.98700000  0.91930000  1.0 -0.5341742277
C  C54  1  0.98700000  0.58140000  0.58070000  1.0 -0.5341742277
C  C55  1  0.41860000  0.01300000  0.08070000  1.0 -0.5341742277
C  C56  1  0.01300000  0.41860000  0.41930000  1.0 -0.5341742277
N  N1  1  0.37050000  0.21470000  0.36410000  1.0 -0.3960301444
N  N2  1  0.21470000  0.37050000  0.13590000  1.0 -0.3960301444
N  N3  1  0.62950000  0.78530000  0.63590000  1.0 -0.3960301444
N  N4  1  0.78530000  0.62950000  0.86410000  1.0 -0.3960301444
N  N5  1  0.49690000  0.14030000  0.47310000  1.0 -0.2460229783
N  N6  1  0.14030000  0.49690000  0.02690000  1.0 -0.2460229783
N  N7  1  0.50310000  0.85970000  0.52690000  1.0 -0.2460229783
N  N8  1  0.85970000  0.50310000  0.97310000  1.0 -0.2460229783
N  N9  1  0.43260000  0.13300000  0.52110000  1.0 -0.1932556867
N  N10  1  0.13300000  0.43260000  0.97890000  1.0 -0.1932556867
N  N11  1  0.56740000  0.86700000  0.47890000  1.0 -0.1932556867
N  N12  1  0.86700000  0.56740000  0.02110000  1.0 -0.1932556867
N  N13  1  0.32400000  0.10680000  0.65700000  1.0 -0.3902153536
N  N14  1  0.10680000  0.32400000  0.84300000  1.0 -0.3902153536
N  N15  1  0.67600000  0.89320000  0.34300000  1.0 -0.3902153536
N  N16  1  0.89320000  0.67600000  0.15700000  1.0 -0.3902153536
N  N17  1  0.16740000  0.13900000  0.58300000  1.0 -0.2394134584
N  N18  1  0.13900000  0.16740000  0.91700000  1.0 -0.2394134584
N  N19  1  0.83260000  0.86100000  0.41700000  1.0 -0.2394134584
N  N20  1  0.86100000  0.83260000  0.08300000  1.0 -0.2394134584
N  N21  1  0.17830000  0.09870000  0.68380000  1.0 -0.2258872181
N  N22  1  0.09870000  0.17830000  0.81620000  1.0 -0.2258872181
N  N23  1  0.82170000  0.90130000  0.31620000  1.0 -0.2258872181
N  N24  1  0.90130000  0.82170000  0.18380000  1.0 -0.2258872181
N  N25  1  0.92480000  0.07000000  0.64050000  1.0 -0.2712815195
N  N26  1  0.07000000  0.92480000  0.85950000  1.0 -0.2712815195
N  N27  1  0.07520000  0.93000000  0.35950000  1.0 -0.2712815195
N  N28  1  0.93000000  0.07520000  0.14050000  1.0 -0.2712815195
N  N29  1  0.91330000  0.11210000  0.53730000  1.0 -0.257121855
N  N30  1  0.11210000  0.91330000  0.96270000  1.0 -0.257121855
N  N31  1  0.08670000  0.88790000  0.46270000  1.0 -0.257121855
N  N32  1  0.88790000  0.08670000  0.03730000  1.0 -0.257121855
N  N33  1  0.75850000  0.07970000  0.56320000  1.0 -0.4284135788
N  N34  1  0.07970000  0.75850000  0.93680000  1.0 -0.4284135788
N  N35  1  0.24150000  0.92030000  0.43680000  1.0 -0.4284135788
N  N36  1  0.92030000  0.24150000  0.06320000  1.0 -0.4284135788
N  N37  1  0.71740000  0.98860000  0.85740000  1.0 -0.3902153536
N  N38  1  0.98860000  0.71740000  0.64260000  1.0 -0.3902153536
N  N39  1  0.28260000  0.01140000  0.14260000  1.0 -0.3902153536
N  N40  1  0.01140000  0.28260000  0.35740000  1.0 -0.3902153536
N  N41  1  0.57860000  0.04080000  0.74350000  1.0 -0.2394134584
N  N42  1  0.04080000  0.57860000  0.75650000  1.0 -0.2394134584
N  N43  1  0.42140000  0.95920000  0.25650000  1.0 -0.2394134584
N  N44  1  0.95920000  0.42140000  0.24350000  1.0 -0.2394134584
N  N45  1  0.64470000  0.04730000  0.69620000  1.0 -0.2258872181
N  N46  1  0.04730000  0.64470000  0.80380000  1.0 -0.2258872181
N  N47  1  0.35530000  0.95270000  0.30380000  1.0 -0.2258872181
N  N48  1  0.95270000  0.35530000  0.19620000  1.0 -0.2258872181
O  O1  1  0.20500000  0.23300000  0.41400000  1.0 -0.3028553515
O  O2  1  0.23300000  0.20500000  0.08600000  1.0 -0.3028553515
O  O3  1  0.79500000  0.76700000  0.58600000  1.0 -0.3028553515
O  O4  1  0.76700000  0.79500000  0.91400000  1.0 -0.3028553515
