# DDEC6 charges by PACMAN v1.1 (https://github.com/mtap-research/PACMAN-charge/)
data_COYCEZ_FSR_pacman
_symmetry_space_group_name_H-M   'P 1'
_cell_length_a   9.99980000
_cell_length_b   27.29400000
_cell_length_c   17.66400000
_cell_angle_alpha   90.00000000
_cell_angle_beta   100.51000000
_cell_angle_gamma   90.00000000
_symmetry_Int_Tables_number   1
_chemical_formula_structural   Cu3MoH20C26S4N6O
_chemical_formula_sum   'Cu12 Mo4 H80 C104 S16 N24 O4'
_cell_volume   4740.23229403
_cell_formula_units_Z   4
loop_
 _symmetry_equiv_pos_site_id
 _symmetry_equiv_pos_as_xyz
  1  'x, y, z'
loop_
 _atom_site_type_symbol
 _atom_site_label
 _atom_site_symmetry_multiplicity
 _atom_site_fract_x
 _atom_site_fract_y
 _atom_site_fract_z
 _atom_site_occupancy
 _atom_site_charge
Cu  Cu1  1  0.75405000  0.59216000  0.17626000  1.0 0.3808630087
Cu  Cu2  1  0.24595000  0.09216000  0.32374000  1.0 0.3808630087
Cu  Cu3  1  0.24595000  0.40784000  0.82374000  1.0 0.3808630087
Cu  Cu4  1  0.75405000  0.90784000  0.67626000  1.0 0.3808630087
Cu  Cu5  1  0.11531000  0.54955000  0.18053000  1.0 0.270364055
Cu  Cu6  1  0.88469000  0.04955000  0.31947000  1.0 0.270364055
Cu  Cu7  1  0.88469000  0.45045000  0.81947000  1.0 0.270364055
Cu  Cu8  1  0.11531000  0.95045000  0.68053000  1.0 0.270364055
Cu  Cu9  1  0.05419000  0.65788000  0.29837000  1.0 0.270364055
Cu  Cu10  1  0.94581000  0.15788000  0.20163000  1.0 0.270364055
Cu  Cu11  1  0.94581000  0.34212000  0.70163000  1.0 0.270364055
Cu  Cu12  1  0.05419000  0.84212000  0.79837000  1.0 0.270364055
Mo  Mo1  1  0.98427000  0.63556000  0.14879000  1.0 1.0698536538
Mo  Mo2  1  0.01573000  0.13556000  0.35121000  1.0 1.0698536538
Mo  Mo3  1  0.01573000  0.36444000  0.85121000  1.0 1.0698536538
Mo  Mo4  1  0.98427000  0.86444000  0.64879000  1.0 1.0698536538
H  H1  1  0.14910000  0.55390000  0.01790000  1.0 0.10985333
H  H2  1  0.85090000  0.05390000  0.48210000  1.0 0.10985333
H  H3  1  0.85090000  0.44610000  0.98210000  1.0 0.10985333
H  H4  1  0.14910000  0.94610000  0.51790000  1.0 0.10985333
H  H5  1  0.31070000  0.53930000  0.94060000  1.0 0.1296723854
H  H6  1  0.68930000  0.03930000  0.55940000  1.0 0.1296723854
H  H7  1  0.68930000  0.46070000  0.05940000  1.0 0.1296723854
H  H8  1  0.31070000  0.96070000  0.44060000  1.0 0.1296723854
H  H9  1  0.54170000  0.47390000  0.12330000  1.0 0.1296723854
H  H10  1  0.45830000  0.97390000  0.37670000  1.0 0.1296723854
H  H11  1  0.45830000  0.52610000  0.87670000  1.0 0.1296723854
H  H12  1  0.54170000  0.02610000  0.62330000  1.0 0.1296723854
H  H13  1  0.37340000  0.48990000  0.19330000  1.0 0.1009952983
H  H14  1  0.62660000  0.98990000  0.30670000  1.0 0.1009952983
H  H15  1  0.62660000  0.51010000  0.80670000  1.0 0.1009952983
H  H16  1  0.37340000  0.01010000  0.69330000  1.0 0.1009952983
H  H17  1  0.32780000  0.79490000  0.81290000  1.0 0.10985333
H  H18  1  0.67220000  0.29490000  0.68710000  1.0 0.10985333
H  H19  1  0.67220000  0.20510000  0.18710000  1.0 0.10985333
H  H20  1  0.32780000  0.70510000  0.31290000  1.0 0.10985333
H  H21  1  0.46110000  0.73750000  0.88700000  1.0 0.1296723854
H  H22  1  0.53890000  0.23750000  0.61300000  1.0 0.1296723854
H  H23  1  0.53890000  0.26250000  0.11300000  1.0 0.1296723854
H  H24  1  0.46110000  0.76250000  0.38700000  1.0 0.1296723854
H  H25  1  0.13360000  0.69630000  0.97590000  1.0 0.142659267
H  H26  1  0.86640000  0.19630000  0.52410000  1.0 0.142659267
H  H27  1  0.86640000  0.30370000  0.02410000  1.0 0.142659267
H  H28  1  0.13360000  0.80370000  0.47590000  1.0 0.142659267
H  H29  1  0.00890000  0.75450000  0.89850000  1.0 0.10985333
H  H30  1  0.99110000  0.25450000  0.60150000  1.0 0.10985333
H  H31  1  0.99110000  0.24550000  0.10150000  1.0 0.10985333
H  H32  1  0.00890000  0.74550000  0.39850000  1.0 0.10985333
H  H33  1  0.30440000  0.67650000  0.08280000  1.0 0.142659267
H  H34  1  0.69560000  0.17650000  0.41720000  1.0 0.142659267
H  H35  1  0.69560000  0.32350000  0.91720000  1.0 0.142659267
H  H36  1  0.30440000  0.82350000  0.58280000  1.0 0.142659267
H  H37  1  0.45940000  0.62800000  0.16340000  1.0 0.10985333
H  H38  1  0.54060000  0.12800000  0.33660000  1.0 0.10985333
H  H39  1  0.54060000  0.37200000  0.83660000  1.0 0.10985333
H  H40  1  0.45940000  0.87200000  0.66340000  1.0 0.10985333
H  H41  1  0.67770000  0.61140000  0.00250000  1.0 0.10985333
H  H42  1  0.32230000  0.11140000  0.49750000  1.0 0.10985333
H  H43  1  0.32230000  0.38860000  0.99750000  1.0 0.10985333
H  H44  1  0.67770000  0.88860000  0.50250000  1.0 0.10985333
H  H45  1  0.53040000  0.65890000  0.91770000  1.0 0.1296723854
H  H46  1  0.46960000  0.15890000  0.58230000  1.0 0.1296723854
H  H47  1  0.46960000  0.34110000  0.08230000  1.0 0.1296723854
H  H48  1  0.53040000  0.84110000  0.41770000  1.0 0.1296723854
H  H49  1  0.28150000  0.51670000  0.33370000  1.0 0.1009952983
H  H50  1  0.71850000  0.01670000  0.16630000  1.0 0.1009952983
H  H51  1  0.71850000  0.48330000  0.66630000  1.0 0.1009952983
H  H52  1  0.28150000  0.98330000  0.83370000  1.0 0.1009952983
H  H53  1  0.25140000  0.47320000  0.44310000  1.0 0.1296723854
H  H54  1  0.74860000  0.97320000  0.05690000  1.0 0.1296723854
H  H55  1  0.74860000  0.52680000  0.55690000  1.0 0.1296723854
H  H56  1  0.25140000  0.02680000  0.94310000  1.0 0.1296723854
H  H57  1  0.86880000  0.44250000  0.33460000  1.0 0.1296723854
H  H58  1  0.13120000  0.94250000  0.16540000  1.0 0.1296723854
H  H59  1  0.13120000  0.55750000  0.66540000  1.0 0.1296723854
H  H60  1  0.86880000  0.05750000  0.83460000  1.0 0.1296723854
H  H61  1  0.91220000  0.48430000  0.22890000  1.0 0.10985333
H  H62  1  0.08780000  0.98430000  0.27110000  1.0 0.10985333
H  H63  1  0.08780000  0.51570000  0.77110000  1.0 0.10985333
H  H64  1  0.91220000  0.01570000  0.72890000  1.0 0.10985333
H  H65  1  0.17050000  0.46190000  0.55110000  1.0 0.1296723854
H  H66  1  0.82950000  0.96190000  0.94890000  1.0 0.1296723854
H  H67  1  0.82950000  0.53810000  0.44890000  1.0 0.1296723854
H  H68  1  0.17050000  0.03810000  0.05110000  1.0 0.1296723854
H  H69  1  0.11760000  0.42170000  0.65730000  1.0 0.1009952983
H  H70  1  0.88240000  0.92170000  0.84270000  1.0 0.1009952983
H  H71  1  0.88240000  0.57830000  0.34270000  1.0 0.1009952983
H  H72  1  0.11760000  0.07830000  0.15730000  1.0 0.1009952983
H  H73  1  0.82940000  0.34660000  0.52680000  1.0 0.1009952983
H  H74  1  0.17060000  0.84660000  0.97320000  1.0 0.1009952983
H  H75  1  0.17060000  0.65340000  0.47320000  1.0 0.1009952983
H  H76  1  0.82940000  0.15340000  0.02680000  1.0 0.1009952983
H  H77  1  0.86370000  0.38840000  0.41920000  1.0 0.1296723854
H  H78  1  0.13630000  0.88840000  0.08080000  1.0 0.1296723854
H  H79  1  0.13630000  0.61160000  0.58080000  1.0 0.1296723854
H  H80  1  0.86370000  0.11160000  0.91920000  1.0 0.1296723854
C  C1  1  0.63690000  0.52030000  0.28320000  1.0 0.2496700786
C  C2  1  0.36310000  0.02030000  0.21680000  1.0 0.2496700786
C  C3  1  0.36310000  0.47970000  0.71680000  1.0 0.2496700786
C  C4  1  0.63690000  0.97970000  0.78320000  1.0 0.2496700786
C  C5  1  0.23090000  0.53750000  0.03980000  1.0 0.0899577562
C  C6  1  0.76910000  0.03750000  0.46020000  1.0 0.0899577562
C  C7  1  0.76910000  0.46250000  0.96020000  1.0 0.0899577562
C  C8  1  0.23090000  0.96250000  0.53980000  1.0 0.0899577562
C  C9  1  0.32710000  0.52890000  0.99280000  1.0 -0.1802153483
C  C10  1  0.67290000  0.02890000  0.50720000  1.0 -0.1802153483
C  C11  1  0.67290000  0.47110000  0.00720000  1.0 -0.1802153483
C  C12  1  0.32710000  0.97110000  0.49280000  1.0 -0.1802153483
C  C13  1  0.44690000  0.50480000  0.02380000  1.0 0.1009952983
C  C14  1  0.55310000  0.00480000  0.47620000  1.0 0.10985333
C  C15  1  0.55310000  0.49520000  0.97620000  1.0 0.1009952983
C  C16  1  0.44690000  0.99520000  0.52380000  1.0 0.1009952983
C  C17  1  0.46170000  0.49060000  0.09950000  1.0 -0.1802153483
C  C18  1  0.53830000  0.99060000  0.40050000  1.0 -0.1802153483
C  C19  1  0.53830000  0.50940000  0.90050000  1.0 -0.1802153483
C  C20  1  0.46170000  0.00940000  0.59950000  1.0 -0.1802153483
C  C21  1  0.36050000  0.50060000  0.14130000  1.0 0.0899577562
C  C22  1  0.63950000  0.00060000  0.35870000  1.0 0.0899577562
C  C23  1  0.63950000  0.49940000  0.85870000  1.0 0.0899577562
C  C24  1  0.36050000  0.99940000  0.64130000  1.0 0.0899577562
C  C25  1  0.28810000  0.77500000  0.84710000  1.0 0.0805084469
C  C26  1  0.71190000  0.27500000  0.65290000  1.0 0.0805084469
C  C27  1  0.71190000  0.22500000  0.15290000  1.0 0.0805084469
C  C28  1  0.28810000  0.72500000  0.34710000  1.0 0.0805084469
C  C29  1  0.36800000  0.74070000  0.89110000  1.0 -0.1891903
C  C30  1  0.63200000  0.24070000  0.60890000  1.0 -0.1891903
C  C31  1  0.63200000  0.25930000  0.10890000  1.0 -0.1891903
C  C32  1  0.36800000  0.75930000  0.39110000  1.0 -0.1891903
C  C33  1  0.31430000  0.71090000  0.94090000  1.0 0.10985333
C  C34  1  0.68570000  0.21090000  0.55910000  1.0 0.10985333
C  C35  1  0.68570000  0.28910000  0.05910000  1.0 0.10985333
C  C36  1  0.31430000  0.78910000  0.44090000  1.0 0.10985333
C  C37  1  0.17610000  0.71640000  0.94320000  1.0 -0.1891903
C  C38  1  0.82390000  0.21640000  0.55680000  1.0 -0.1891903
C  C39  1  0.82390000  0.28360000  0.05680000  1.0 -0.1891903
C  C40  1  0.17610000  0.78360000  0.44320000  1.0 -0.1891903
C  C41  1  0.10310000  0.75140000  0.89710000  1.0 0.0689119274
C  C42  1  0.89690000  0.25140000  0.60290000  1.0 0.0689119274
C  C43  1  0.89690000  0.24860000  0.10290000  1.0 0.0689119274
C  C44  1  0.10310000  0.74860000  0.39710000  1.0 0.0689119274
C  C45  1  0.40290000  0.67600000  0.99240000  1.0 0.10985333
C  C46  1  0.59710000  0.17600000  0.50760000  1.0 0.10985333
C  C47  1  0.59710000  0.32400000  0.00760000  1.0 0.10985333
C  C48  1  0.40290000  0.82400000  0.49240000  1.0 0.10985333
C  C49  1  0.38240000  0.66450000  0.06530000  1.0 -0.1743787475
C  C50  1  0.61760000  0.16450000  0.43470000  1.0 -0.1743787475
C  C51  1  0.61760000  0.33550000  0.93470000  1.0 -0.1743787475
C  C52  1  0.38240000  0.83550000  0.56530000  1.0 -0.1743787475
C  C53  1  0.47550000  0.63530000  0.11320000  1.0 0.0899577562
C  C54  1  0.52450000  0.13530000  0.38680000  1.0 0.0899577562
C  C55  1  0.52450000  0.36470000  0.88680000  1.0 0.0899577562
C  C56  1  0.47550000  0.86470000  0.61320000  1.0 0.0899577562
C  C57  1  0.60200000  0.62570000  0.01980000  1.0 0.0805084469
C  C58  1  0.39800000  0.12570000  0.48020000  1.0 0.0805084469
C  C59  1  0.39800000  0.37430000  0.98020000  1.0 0.0805084469
C  C60  1  0.60200000  0.87430000  0.51980000  1.0 0.0805084469
C  C61  1  0.51480000  0.65420000  0.96870000  1.0 -0.2030145474
C  C62  1  0.48520000  0.15420000  0.53130000  1.0 -0.2030145474
C  C63  1  0.48520000  0.34580000  0.03130000  1.0 -0.2030145474
C  C64  1  0.51480000  0.84580000  0.46870000  1.0 -0.2030145474
C  C65  1  0.19650000  0.50130000  0.33400000  1.0 0.0899577562
C  C66  1  0.80350000  0.00130000  0.16600000  1.0 0.0899577562
C  C67  1  0.80350000  0.49870000  0.66600000  1.0 0.0899577562
C  C68  1  0.19650000  0.99870000  0.83400000  1.0 0.0899577562
C  C69  1  0.17870000  0.47580000  0.40040000  1.0 -0.1891903
C  C70  1  0.82130000  0.97580000  0.09960000  1.0 -0.1891903
C  C71  1  0.82130000  0.52420000  0.59960000  1.0 -0.1891903
C  C72  1  0.17870000  0.02420000  0.90040000  1.0 -0.1891903
C  C73  1  0.05340000  0.45420000  0.40320000  1.0 0.1009952983
C  C74  1  0.94660000  0.95420000  0.09680000  1.0 0.1009952983
C  C75  1  0.94660000  0.54580000  0.59680000  1.0 0.1009952983
C  C76  1  0.05340000  0.04580000  0.90320000  1.0 0.1009952983
C  C77  1  0.95490000  0.45760000  0.33650000  1.0 -0.1891903
C  C78  1  0.04510000  0.95760000  0.16350000  1.0 -0.1891903
C  C79  1  0.04510000  0.54240000  0.66350000  1.0 -0.1891903
C  C80  1  0.95490000  0.04240000  0.83650000  1.0 -0.1891903
C  C81  1  0.98170000  0.48270000  0.27340000  1.0 0.0899577562
C  C82  1  0.01830000  0.98270000  0.22660000  1.0 0.0899577562
C  C83  1  0.01830000  0.51730000  0.72660000  1.0 0.0899577562
C  C84  1  0.98170000  0.01730000  0.77340000  1.0 0.0899577562
C  C85  1  0.02530000  0.42900000  0.47240000  1.0 0.1009952983
C  C86  1  0.97470000  0.92900000  0.02760000  1.0 0.1009952983
C  C87  1  0.97470000  0.57100000  0.52760000  1.0 0.1009952983
C  C88  1  0.02530000  0.07100000  0.97240000  1.0 0.1009952983
C  C89  1  0.09850000  0.43870000  0.54460000  1.0 -0.1891903
C  C90  1  0.90150000  0.93870000  0.95540000  1.0 -0.1891903
C  C91  1  0.90150000  0.56130000  0.45540000  1.0 -0.1891903
C  C92  1  0.09850000  0.06130000  0.04460000  1.0 -0.1891903
C  C93  1  0.06620000  0.41420000  0.60800000  1.0 0.1009952983
C  C94  1  0.93380000  0.91420000  0.89200000  1.0 0.1009952983
C  C95  1  0.93380000  0.58580000  0.39200000  1.0 0.1009952983
C  C96  1  0.06620000  0.08580000  0.10800000  1.0 0.1009952983
C  C97  1  0.89760000  0.37120000  0.53230000  1.0 0.0689119274
C  C98  1  0.10240000  0.87120000  0.96770000  1.0 0.0689119274
C  C99  1  0.10240000  0.62880000  0.46770000  1.0 0.0689119274
C  C100  1  0.89760000  0.12880000  0.03230000  1.0 0.0689119274
C  C101  1  0.92000000  0.39500000  0.46750000  1.0 -0.1891903
C  C102  1  0.08000000  0.89500000  0.03250000  1.0 -0.1891903
C  C103  1  0.08000000  0.60500000  0.53250000  1.0 -0.1891903
C  C104  1  0.92000000  0.10500000  0.96750000  1.0 -0.1891903
S  S1  1  0.84400000  0.66642000  0.22417000  1.0 -0.5974790252
S  S2  1  0.15600000  0.16642000  0.27583000  1.0 -0.5974790252
S  S3  1  0.15600000  0.33358000  0.77583000  1.0 -0.5974790252
S  S4  1  0.84400000  0.83358000  0.72417000  1.0 -0.5974790252
S  S5  1  0.19222000  0.62498000  0.22288000  1.0 -0.6207443019
S  S6  1  0.80778000  0.12498000  0.27712000  1.0 -0.6207443019
S  S7  1  0.80778000  0.37502000  0.77712000  1.0 -0.6207443019
S  S8  1  0.19222000  0.87502000  0.72288000  1.0 -0.6207443019
S  S9  1  0.90556000  0.56050000  0.10606000  1.0 -0.6276675261
S  S10  1  0.09444000  0.06050000  0.39394000  1.0 -0.6207443019
S  S11  1  0.09444000  0.43950000  0.89394000  1.0 -0.6207443019
S  S12  1  0.90556000  0.93950000  0.60606000  1.0 -0.6207443019
S  S13  1  0.58130000  0.47899000  0.33830000  1.0 -0.4241475559
S  S14  1  0.41870000  0.97899000  0.16170000  1.0 -0.4241475559
S  S15  1  0.41870000  0.52101000  0.66170000  1.0 -0.4241475559
S  S16  1  0.58130000  0.02101000  0.83830000  1.0 -0.4241475559
N  N1  1  0.24740000  0.52410000  0.11320000  1.0 -0.1802153483
N  N2  1  0.75260000  0.02410000  0.38680000  1.0 -0.1802153483
N  N3  1  0.75260000  0.47590000  0.88680000  1.0 -0.1802153483
N  N4  1  0.24740000  0.97590000  0.61320000  1.0 -0.1802153483
N  N5  1  0.15600000  0.78150000  0.85050000  1.0 -0.1802153483
N  N6  1  0.84400000  0.28150000  0.64950000  1.0 -0.1802153483
N  N7  1  0.84400000  0.21850000  0.14950000  1.0 -0.1802153483
N  N8  1  0.15600000  0.71850000  0.35050000  1.0 -0.1802153483
N  N9  1  0.58760000  0.61680000  0.09150000  1.0 -0.1891903
N  N10  1  0.41240000  0.11680000  0.40850000  1.0 -0.1891903
N  N11  1  0.41240000  0.38320000  0.90850000  1.0 -0.1891903
N  N12  1  0.58760000  0.88320000  0.59150000  1.0 -0.1891903
N  N13  1  0.10010000  0.50490000  0.27110000  1.0 -0.1891903
N  N14  1  0.89990000  0.00490000  0.22890000  1.0 -0.1891903
N  N15  1  0.89990000  0.49510000  0.72890000  1.0 -0.1891903
N  N16  1  0.10010000  0.99510000  0.77110000  1.0 -0.1891903
N  N17  1  0.96790000  0.38110000  0.60380000  1.0 -0.1802153483
N  N18  1  0.03210000  0.88110000  0.89620000  1.0 -0.1802153483
N  N19  1  0.03210000  0.61890000  0.39620000  1.0 -0.1802153483
N  N20  1  0.96790000  0.11890000  0.10380000  1.0 -0.1802153483
N  N21  1  0.67550000  0.54860000  0.24420000  1.0 -0.4432609551
N  N22  1  0.32450000  0.04860000  0.25580000  1.0 -0.4432609551
N  N23  1  0.32450000  0.45140000  0.75580000  1.0 -0.4432609551
N  N24  1  0.67550000  0.95140000  0.74420000  1.0 -0.4432609551
O  O1  1  0.99290000  0.67330000  0.07220000  1.0 -0.5013461507
O  O2  1  0.00710000  0.17330000  0.42780000  1.0 -0.5013461507
O  O3  1  0.00710000  0.32670000  0.92780000  1.0 -0.5013461507
O  O4  1  0.99290000  0.82670000  0.57220000  1.0 -0.5013461507
