# DDEC6 charges by PACMAN v1.1 (https://github.com/mtap-research/PACMAN-charge/)
data_COYCID_ASR_pacman
_symmetry_space_group_name_H-M   'P 1'
_cell_length_a   17.10420000
_cell_length_b   18.30520000
_cell_length_c   20.23600000
_cell_angle_alpha   104.69500000
_cell_angle_beta   86.88200000
_cell_angle_gamma   112.59100000
_symmetry_Int_Tables_number   1
_chemical_formula_structural   Cu6Mo2H36C47S8N11
_chemical_formula_sum   'Cu12 Mo4 H72 C94 S16 N22'
_cell_volume   5651.74091263
_cell_formula_units_Z   2
loop_
 _symmetry_equiv_pos_site_id
 _symmetry_equiv_pos_as_xyz
  1  'x, y, z'
loop_
 _atom_site_type_symbol
 _atom_site_label
 _atom_site_symmetry_multiplicity
 _atom_site_fract_x
 _atom_site_fract_y
 _atom_site_fract_z
 _atom_site_occupancy
 _atom_site_charge
Cu  Cu1  1  0.07860000  0.84796000  0.67788000  1.0 0.2793220229
Cu  Cu2  1  0.92140000  0.15204000  0.32212000  1.0 0.2793220229
Cu  Cu3  1  0.01278000  0.69872000  0.77457000  1.0 0.3059402205
Cu  Cu4  1  0.98722000  0.30128000  0.22543000  1.0 0.3059402205
Cu  Cu5  1  0.19708000  0.70844000  0.66860000  1.0 0.4207134194
Cu  Cu6  1  0.80292000  0.29156000  0.33140000  1.0 0.4207134194
Cu  Cu7  1  0.37374000  0.30457000  0.21973000  1.0 0.395582313
Cu  Cu8  1  0.62626000  0.69543000  0.78027000  1.0 0.395582313
Cu  Cu9  1  0.52600000  0.34405000  0.08125000  1.0 0.2948333866
Cu  Cu10  1  0.47400000  0.65595000  0.91875000  1.0 0.2948333866
Cu  Cu11  1  0.49860000  0.81742000  0.83481000  1.0 0.318529988
Cu  Cu12  1  0.50140000  0.18258000  0.16519000  1.0 0.318529988
Mo  Mo1  1  0.03572000  0.68625000  0.64154000  1.0 0.7194114871
Mo  Mo2  1  0.96428000  0.31375000  0.35846000  1.0 0.7194114871
Mo  Mo3  1  0.54229000  0.34444000  0.21161000  1.0 0.780760134
Mo  Mo4  1  0.45771000  0.65556000  0.78839000  1.0 0.780760134
H  H1  1  0.08950000  0.02340000  0.68990000  1.0 0.0921169695
H  H2  1  0.91050000  0.97660000  0.31010000  1.0 0.0921169695
H  H3  1  0.05830000  0.08010000  0.60490000  1.0 0.122698296
H  H4  1  0.94170000  0.91990000  0.39510000  1.0 0.122698296
H  H5  1  0.94920000  0.86320000  0.47010000  1.0 0.1305335242
H  H6  1  0.05080000  0.13680000  0.52990000  1.0 0.1305335242
H  H7  1  0.97070000  0.80910000  0.55700000  1.0 0.0993650008
H  H8  1  0.02930000  0.19090000  0.44300000  1.0 0.0993650008
H  H9  1  0.22370000  0.31430000  0.30220000  1.0 0.1089375668
H  H10  1  0.77630000  0.68570000  0.69780000  1.0 0.1089375668
H  H11  1  0.18360000  0.39400000  0.38840000  1.0 0.122698296
H  H12  1  0.81640000  0.60600000  0.61160000  1.0 0.122698296
H  H13  1  0.43170000  0.53900000  0.43220000  1.0 0.122698296
H  H14  1  0.56830000  0.46100000  0.56780000  1.0 0.122698296
H  H15  1  0.45940000  0.44300000  0.34320000  1.0 0.0921169695
H  H16  1  0.54060000  0.55700000  0.65680000  1.0 0.0921169695
H  H17  1  0.16300000  0.50260000  0.44690000  1.0 0.122698296
H  H18  1  0.83700000  0.49740000  0.55310000  1.0 0.122698296
H  H19  1  0.13520000  0.59190000  0.53430000  1.0 0.0921169695
H  H20  1  0.86480000  0.40810000  0.46570000  1.0 0.0921169695
H  H21  1  0.34480000  0.65220000  0.62940000  1.0 0.1089375668
H  H22  1  0.65520000  0.34780000  0.37060000  1.0 0.1089375668
H  H23  1  0.39000000  0.57320000  0.54850000  1.0 0.122698296
H  H24  1  0.61000000  0.42680000  0.45150000  1.0 0.122698296
H  H25  1  0.33970000  0.24240000  0.06230000  1.0 0.0993650008
H  H26  1  0.66030000  0.75760000  0.93770000  1.0 0.0993650008
H  H27  1  0.24410000  0.14700000  0.98290000  1.0 0.1305335242
H  H28  1  0.75590000  0.85300000  0.01710000  1.0 0.1305335242
H  H29  1  0.43290000  0.15160000  0.85090000  1.0 0.1305335242
H  H30  1  0.56710000  0.84840000  0.14910000  1.0 0.1305335242
H  H31  1  0.52350000  0.24880000  0.93500000  1.0 0.0993650008
H  H32  1  0.47650000  0.75120000  0.06500000  1.0 0.0993650008
H  H33  1  0.16240000  0.09430000  0.87710000  1.0 0.1305335242
H  H34  1  0.83760000  0.90570000  0.12290000  1.0 0.1305335242
H  H35  1  0.07320000  0.99090000  0.78740000  1.0 0.0921169695
H  H36  1  0.92680000  0.00910000  0.21260000  1.0 0.0921169695
H  H37  1  0.25080000  0.90440000  0.73770000  1.0 0.1089375668
H  H38  1  0.74920000  0.09560000  0.26230000  1.0 0.1089375668
H  H39  1  0.34830000  0.01030000  0.81540000  1.0 0.122698296
H  H40  1  0.65170000  0.98970000  0.18460000  1.0 0.122698296
H  H41  1  0.70770000  0.45330000  0.08970000  1.0 0.1089375668
H  H42  1  0.29230000  0.54670000  0.91030000  1.0 0.1089375668
H  H43  1  0.80830000  0.52280000  0.02600000  1.0 0.122698296
H  H44  1  0.19170000  0.47720000  0.97400000  1.0 0.122698296
H  H45  1  0.61860000  0.49000000  0.89400000  1.0 0.1365570075
H  H46  1  0.38140000  0.51000000  0.10600000  1.0 0.1365570075
H  H47  1  0.52710000  0.42310000  0.96090000  1.0 0.0993650008
H  H48  1  0.47290000  0.57690000  0.03910000  1.0 0.0993650008
H  H49  1  0.87400000  0.50430000  0.91690000  1.0 0.122698296
H  H50  1  0.12600000  0.49570000  0.08310000  1.0 0.122698296
H  H51  1  0.97540000  0.56980000  0.84900000  1.0 0.0993650008
H  H52  1  0.02460000  0.43020000  0.15100000  1.0 0.0993650008
H  H53  1  0.84260000  0.69370000  0.82140000  1.0 0.0993650008
H  H54  1  0.15740000  0.30630000  0.17860000  1.0 0.0993650008
H  H55  1  0.73410000  0.62450000  0.88180000  1.0 0.1305335242
H  H56  1  0.26590000  0.37550000  0.11820000  1.0 0.1305335242
H  H57  1  0.31070000  0.08250000  0.15340000  1.0 0.1089375668
H  H58  1  0.68930000  0.91750000  0.84660000  1.0 0.1089375668
H  H59  1  0.21130000  0.98690000  0.07450000  1.0 0.1305335242
H  H60  1  0.78870000  0.01310000  0.92550000  1.0 0.1305335242
H  H61  1  0.39000000  0.97580000  0.94210000  1.0 0.122698296
H  H62  1  0.61000000  0.02420000  0.05790000  1.0 0.122698296
H  H63  1  0.48940000  0.08780000  0.01930000  1.0 0.0993650008
H  H64  1  0.51060000  0.91220000  0.98070000  1.0 0.0993650008
H  H65  1  0.13000000  0.95270000  0.96970000  1.0 0.1305335242
H  H66  1  0.87000000  0.04730000  0.03030000  1.0 0.1305335242
H  H67  1  0.03200000  0.84950000  0.89010000  1.0 0.0921169695
H  H68  1  0.96800000  0.15050000  0.10990000  1.0 0.0921169695
H  H69  1  0.18980000  0.73980000  0.82770000  1.0 0.0993650008
H  H70  1  0.81020000  0.26020000  0.17230000  1.0 0.0993650008
H  H71  1  0.29270000  0.83710000  0.90870000  1.0 0.1305335242
H  H72  1  0.70730000  0.16290000  0.09130000  1.0 0.1305335242
C  C1  1  0.06500000  0.99270000  0.64600000  1.0 0.0204112869
C  C2  1  0.93500000  0.00730000  0.35400000  1.0 0.0204112869
C  C3  1  0.04350000  0.02270000  0.59420000  1.0 -0.1982752555
C  C4  1  0.95650000  0.97730000  0.40580000  1.0 -0.2081240096
C  C5  1  0.00400000  0.98020000  0.53140000  1.0 0.0993650008
C  C6  1  0.99600000  0.01980000  0.46860000  1.0 0.0993650008
C  C7  1  0.97700000  0.89660000  0.51300000  1.0 -0.2165766262
C  C8  1  0.02300000  0.10340000  0.48700000  1.0 -0.2165766262
C  C9  1  0.99600000  0.86680000  0.56400000  1.0 0.0993650008
C  C10  1  0.00400000  0.13320000  0.43600000  1.0 0.0993650008
C  C11  1  0.26690000  0.36260000  0.32770000  1.0 0.0593296311
C  C12  1  0.73310000  0.63740000  0.67230000  1.0 0.0593296311
C  C13  1  0.24210000  0.40680000  0.38050000  1.0 -0.1814173363
C  C14  1  0.75790000  0.59320000  0.61950000  1.0 -0.1814173363
C  C15  1  0.30300000  0.47140000  0.42310000  1.0 0.0921169695
C  C16  1  0.69700000  0.52860000  0.57690000  1.0 0.0993650008
C  C17  1  0.38730000  0.49200000  0.40700000  1.0 -0.1982752555
C  C18  1  0.61270000  0.50800000  0.59300000  1.0 -0.1982752555
C  C19  1  0.40200000  0.43680000  0.35000000  1.0 0.0707871645
C  C20  1  0.59800000  0.56320000  0.65000000  1.0 0.0707871645
C  C21  1  0.28190000  0.52930000  0.48230000  1.0 0.0993650008
C  C22  1  0.71810000  0.47070000  0.51770000  1.0 0.0993650008
C  C23  1  0.20420000  0.53500000  0.48330000  1.0 -0.1814173363
C  C24  1  0.79580000  0.46500000  0.51670000  1.0 -0.1814173363
C  C25  1  0.18800000  0.58600000  0.53660000  1.0 0.0385651163
C  C26  1  0.81200000  0.41400000  0.46340000  1.0 0.0385651163
C  C27  1  0.30750000  0.62070000  0.59040000  1.0 0.0707871645
C  C28  1  0.69250000  0.37930000  0.40960000  1.0 0.0707871645
C  C29  1  0.33620000  0.57560000  0.54320000  1.0 -0.2081240096
C  C30  1  0.66380000  0.42440000  0.45680000  1.0 -0.2081240096
C  C31  1  0.35750000  0.22410000  0.01810000  1.0 0.0459834471
C  C32  1  0.64250000  0.77590000  0.98190000  1.0 0.0459834471
C  C33  1  0.30190000  0.16670000  0.97170000  1.0 -0.1814173363
C  C34  1  0.69810000  0.83330000  0.02830000  1.0 -0.1814173363
C  C35  1  0.32360000  0.13230000  0.90530000  1.0 0.0993650008
C  C36  1  0.67640000  0.86770000  0.09470000  1.0 0.0993650008
C  C37  1  0.41180000  0.16890000  0.89390000  1.0 -0.2081240096
C  C38  1  0.58820000  0.83110000  0.10610000  1.0 -0.2081240096
C  C39  1  0.46490000  0.22780000  0.94370000  1.0 0.0707871645
C  C40  1  0.53510000  0.77220000  0.05630000  1.0 0.0707871645
C  C41  1  0.26650000  0.07020000  0.85320000  1.0 0.0993650008
C  C42  1  0.73350000  0.92980000  0.14680000  1.0 0.0993650008
C  C43  1  0.18370000  0.05830000  0.84660000  1.0 -0.2081240096
C  C44  1  0.81630000  0.94170000  0.15340000  1.0 -0.2081240096
C  C45  1  0.12870000  0.99400000  0.79570000  1.0 0.0921169695
C  C46  1  0.87130000  0.00600000  0.20430000  1.0 0.0921169695
C  C47  1  0.23450000  0.94550000  0.76640000  1.0 0.0809821583
C  C48  1  0.76550000  0.05450000  0.23360000  1.0 0.0809821583
C  C49  1  0.29220000  0.00770000  0.81130000  1.0 -0.1982752555
C  C50  1  0.70780000  0.99230000  0.18870000  1.0 -0.1982752555
C  C51  1  0.69040000  0.45860000  0.04790000  1.0 0.0593296311
C  C52  1  0.30960000  0.54140000  0.95210000  1.0 0.0593296311
C  C53  1  0.75030000  0.50150000  0.01110000  1.0 -0.1982752555
C  C54  1  0.24970000  0.49850000  0.98890000  1.0 -0.1982752555
C  C55  1  0.72730000  0.51500000  0.95000000  1.0 0.1089375668
C  C56  1  0.27270000  0.48500000  0.05000000  1.0 0.1089375668
C  C57  1  0.63900000  0.48230000  0.93340000  1.0 -0.1893028725
C  C58  1  0.36100000  0.51770000  0.06660000  1.0 -0.1893028725
C  C59  1  0.58580000  0.44130000  0.97260000  1.0 0.0320928491
C  C60  1  0.41420000  0.55870000  0.02740000  1.0 0.0320928491
C  C61  1  0.79280000  0.55830000  0.90870000  1.0 0.0921169695
C  C62  1  0.20720000  0.44170000  0.09130000  1.0 0.0921169695
C  C63  1  0.86550000  0.54270000  0.89710000  1.0 -0.1982752555
C  C64  1  0.13450000  0.45730000  0.10290000  1.0 -0.1982752555
C  C65  1  0.92620000  0.58230000  0.85680000  1.0 0.0707871645
C  C66  1  0.07380000  0.41770000  0.14320000  1.0 0.0707871645
C  C67  1  0.84860000  0.65330000  0.83990000  1.0 0.0809821583
C  C68  1  0.15140000  0.34670000  0.16010000  1.0 0.0809821583
C  C69  1  0.78440000  0.61370000  0.87740000  1.0 -0.1893028725
C  C70  1  0.21560000  0.38630000  0.12260000  1.0 -0.1893028725
C  C71  1  0.32790000  0.06290000  0.10930000  1.0 0.0593296311
C  C72  1  0.67210000  0.93710000  0.89070000  1.0 0.0593296311
C  C73  1  0.26910000  0.00430000  0.06330000  1.0 -0.1729265355
C  C74  1  0.73090000  0.99570000  0.93670000  1.0 -0.1729265355
C  C75  1  0.29010000  0.96920000  0.00080000  1.0 0.0993650008
C  C76  1  0.70990000  0.03080000  0.99920000  1.0 0.0993650008
C  C77  1  0.37270000  0.99900000  0.98490000  1.0 -0.2081240096
C  C78  1  0.62730000  0.00100000  0.01510000  1.0 -0.1982752555
C  C79  1  0.43270000  0.06480000  0.03250000  1.0 0.0809821583
C  C80  1  0.56730000  0.93520000  0.96750000  1.0 0.0809821583
C  C81  1  0.22450000  0.90500000  0.94840000  1.0 0.0993650008
C  C82  1  0.77550000  0.09500000  0.05160000  1.0 0.0993650008
C  C83  1  0.14350000  0.90940000  0.94180000  1.0 -0.2081240096
C  C84  1  0.85650000  0.09060000  0.05820000  1.0 -0.2081240096
C  C85  1  0.08650000  0.84800000  0.89330000  1.0 0.0707871645
C  C86  1  0.91350000  0.15200000  0.10670000  1.0 0.0707871645
C  C87  1  0.17740000  0.78320000  0.85690000  1.0 0.0921169695
C  C88  1  0.82260000  0.21680000  0.14310000  1.0 0.0921169695
C  C89  1  0.23960000  0.84150000  0.90550000  1.0 -0.1893028725
C  C90  1  0.76040000  0.15850000  0.09450000  1.0 -0.1893028725
C  C91  1  0.36010000  0.83170000  0.75860000  1.0 0.2401020772
C  C92  1  0.63990000  0.16830000  0.24140000  1.0 0.2401020772
C  C93  1  0.20600000  0.18300000  0.14380000  1.0 0.2500725336
C  C94  1  0.79400000  0.81700000  0.85620000  1.0 0.2500725336
S  S1  1  0.96280000  0.75560000  0.70800000  1.0 -0.5497133933
S  S2  1  0.03720000  0.24440000  0.29200000  1.0 -0.5497133933
S  S3  1  0.15300000  0.78050000  0.61120000  1.0 -0.5291361563
S  S4  1  0.84700000  0.21950000  0.38880000  1.0 -0.5291361563
S  S5  1  0.07780000  0.62260000  0.70720000  1.0 -0.5497133933
S  S6  1  0.92220000  0.37740000  0.29280000  1.0 -0.5497133933
S  S7  1  0.46480000  0.40050000  0.16900000  1.0 -0.5590747349
S  S8  1  0.53520000  0.59950000  0.83100000  1.0 -0.5590747349
S  S9  1  0.45240000  0.24780000  0.25910000  1.0 -0.5073853188
S  S10  1  0.54760000  0.75220000  0.74090000  1.0 -0.5073853188
S  S11  1  0.59880000  0.28230000  0.12220000  1.0 -0.5291361563
S  S12  1  0.40120000  0.71770000  0.87780000  1.0 -0.5291361563
S  S13  1  0.44120000  0.90210000  0.80280000  1.0 -0.3657610171
S  S14  1  0.55880000  0.09790000  0.19720000  1.0 -0.3644722157
S  S15  1  0.11810000  0.11240000  0.09910000  1.0 -0.4237634294
S  S16  1  0.88190000  0.88760000  0.90090000  1.0 -0.4252164715
N  N1  1  0.04230000  0.90490000  0.61670000  1.0 -0.1814173363
N  N2  1  0.95770000  0.09510000  0.38330000  1.0 -0.1893028725
N  N3  1  0.34430000  0.37750000  0.30650000  1.0 -0.1814173363
N  N4  1  0.65570000  0.62250000  0.69350000  1.0 -0.1814173363
N  N5  1  0.23700000  0.62880000  0.59200000  1.0 -0.1893028725
N  N6  1  0.76300000  0.37120000  0.40800000  1.0 -0.1893028725
N  N7  1  0.44120000  0.25820000  0.00370000  1.0 -0.1814173363
N  N8  1  0.55880000  0.74180000  0.99630000  1.0 -0.1893028725
N  N9  1  0.15460000  0.94000000  0.76090000  1.0 -0.1893028725
N  N10  1  0.84540000  0.06000000  0.23910000  1.0 -0.1893028725
N  N11  1  0.60640000  0.42240000  0.02850000  1.0 -0.1893028725
N  N12  1  0.39360000  0.57760000  0.97150000  1.0 -0.1893028725
N  N13  1  0.91870000  0.63800000  0.82810000  1.0 -0.1814173363
N  N14  1  0.08130000  0.36200000  0.17190000  1.0 -0.1814173363
N  N15  1  0.41260000  0.09590000  0.09530000  1.0 -0.1893028725
N  N16  1  0.58740000  0.90410000  0.90470000  1.0 -0.1893028725
N  N17  1  0.10070000  0.78540000  0.84940000  1.0 -0.2081240096
N  N18  1  0.89930000  0.21460000  0.15060000  1.0 -0.2081240096
N  N19  1  0.30080000  0.77660000  0.72640000  1.0 -0.4814328008
N  N20  1  0.69920000  0.22340000  0.27360000  1.0 -0.4814328008
N  N21  1  0.26330000  0.22940000  0.17420000  1.0 -0.4513294749
N  N22  1  0.73670000  0.77060000  0.82580000  1.0 -0.4513294749
