# DDEC6 charges by PACMAN v1.1 (https://github.com/mtap-research/PACMAN-charge/)
data_COZMUA_ASR_pacman
_symmetry_space_group_name_H-M   'P 1'
_cell_length_a   15.50940000
_cell_length_b   17.82510000
_cell_length_c   24.22100000
_cell_angle_alpha   90.00000000
_cell_angle_beta   90.00000000
_cell_angle_gamma   90.00000000
_symmetry_Int_Tables_number   1
_chemical_formula_structural   Co2H16C29O10
_chemical_formula_sum   'Co8 H64 C116 O40'
_cell_volume   6696.05545247
_cell_formula_units_Z   4
loop_
 _symmetry_equiv_pos_site_id
 _symmetry_equiv_pos_as_xyz
  1  'x, y, z'
loop_
 _atom_site_type_symbol
 _atom_site_label
 _atom_site_symmetry_multiplicity
 _atom_site_fract_x
 _atom_site_fract_y
 _atom_site_fract_z
 _atom_site_occupancy
 _atom_site_charge
Co  Co1  1  0.80445000  0.29137000  0.00000000  1.0 1.1295405515
Co  Co2  1  0.19555000  0.70863000  0.00000000  1.0 1.1295405515
Co  Co3  1  0.30445000  0.20863000  0.50000000  1.0 1.1295405515
Co  Co4  1  0.69555000  0.79137000  0.50000000  1.0 1.1295405515
Co  Co5  1  0.39332000  0.02507000  0.50000000  1.0 1.2916971631
Co  Co6  1  0.60668000  0.97493000  0.50000000  1.0 1.3041020818
Co  Co7  1  0.89332000  0.47493000  0.00000000  1.0 1.3041020818
Co  Co8  1  0.10668000  0.52507000  0.00000000  1.0 1.3041020818
H  H1  1  0.83540000  0.10970000  0.12140000  1.0 0.1291616862
H  H2  1  0.16460000  0.89030000  0.12140000  1.0 0.1291616862
H  H3  1  0.33540000  0.39030000  0.37860000  1.0 0.1291616862
H  H4  1  0.66460000  0.60970000  0.37860000  1.0 0.1291616862
H  H5  1  0.16460000  0.89030000  0.87860000  1.0 0.1291616862
H  H6  1  0.83540000  0.10970000  0.87860000  1.0 0.1291616862
H  H7  1  0.66460000  0.60970000  0.62140000  1.0 0.1291616862
H  H8  1  0.33540000  0.39030000  0.62140000  1.0 0.1291616862
H  H9  1  0.86570000  0.02160000  0.18620000  1.0 0.1291616862
H  H10  1  0.13430000  0.97840000  0.18620000  1.0 0.1291616862
H  H11  1  0.36570000  0.47840000  0.31380000  1.0 0.1291616862
H  H12  1  0.63430000  0.52160000  0.31380000  1.0 0.1291616862
H  H13  1  0.13430000  0.97840000  0.81380000  1.0 0.1291616862
H  H14  1  0.86570000  0.02160000  0.81380000  1.0 0.1291616862
H  H15  1  0.63430000  0.52160000  0.68620000  1.0 0.1291616862
H  H16  1  0.36570000  0.47840000  0.68620000  1.0 0.1291616862
H  H17  1  0.08340000  0.12730000  0.22410000  1.0 0.1291616862
H  H18  1  0.91660000  0.87270000  0.22410000  1.0 0.1291616862
H  H19  1  0.58340000  0.37270000  0.27590000  1.0 0.1291616862
H  H20  1  0.41660000  0.62730000  0.27590000  1.0 0.1291616862
H  H21  1  0.91660000  0.87270000  0.77590000  1.0 0.1291616862
H  H22  1  0.08340000  0.12730000  0.77590000  1.0 0.1291616862
H  H23  1  0.41660000  0.62730000  0.72410000  1.0 0.1291616862
H  H24  1  0.58340000  0.37270000  0.72410000  1.0 0.1291616862
H  H25  1  0.05180000  0.21800000  0.15960000  1.0 0.1163288466
H  H26  1  0.94820000  0.78200000  0.15960000  1.0 0.1163288466
H  H27  1  0.55180000  0.28200000  0.34040000  1.0 0.1163288466
H  H28  1  0.44820000  0.71800000  0.34040000  1.0 0.1163288466
H  H29  1  0.94820000  0.78200000  0.84040000  1.0 0.1163288466
H  H30  1  0.05180000  0.21800000  0.84040000  1.0 0.1163288466
H  H31  1  0.44820000  0.71800000  0.65960000  1.0 0.1163288466
H  H32  1  0.55180000  0.28200000  0.65960000  1.0 0.1163288466
H  H33  1  0.11800000  0.14810000  0.38470000  1.0 0.1378186293
H  H34  1  0.88200000  0.85190000  0.38470000  1.0 0.1378186293
H  H35  1  0.61800000  0.35190000  0.11530000  1.0 0.1378186293
H  H36  1  0.38200000  0.64810000  0.11530000  1.0 0.1378186293
H  H37  1  0.88200000  0.85190000  0.61530000  1.0 0.1378186293
H  H38  1  0.11800000  0.14810000  0.61530000  1.0 0.1378186293
H  H39  1  0.38200000  0.64810000  0.88470000  1.0 0.1378186293
H  H40  1  0.61800000  0.35190000  0.88470000  1.0 0.1378186293
H  H41  1  0.01740000  0.11650000  0.32070000  1.0 0.1291616862
H  H42  1  0.98260000  0.88350000  0.32070000  1.0 0.1291616862
H  H43  1  0.51740000  0.38350000  0.17930000  1.0 0.1291616862
H  H44  1  0.48260000  0.61650000  0.17930000  1.0 0.1291616862
H  H45  1  0.98260000  0.88350000  0.67930000  1.0 0.1291616862
H  H46  1  0.01740000  0.11650000  0.67930000  1.0 0.1291616862
H  H47  1  0.48260000  0.61650000  0.82070000  1.0 0.1291616862
H  H48  1  0.51740000  0.38350000  0.82070000  1.0 0.1291616862
H  H49  1  0.15350000  0.93290000  0.28360000  1.0 0.1291616862
H  H50  1  0.84650000  0.06710000  0.28360000  1.0 0.1291616862
H  H51  1  0.65350000  0.56710000  0.21640000  1.0 0.1291616862
H  H52  1  0.34650000  0.43290000  0.21640000  1.0 0.1291616862
H  H53  1  0.84650000  0.06710000  0.71640000  1.0 0.1291616862
H  H54  1  0.15350000  0.93290000  0.71640000  1.0 0.1291616862
H  H55  1  0.34650000  0.43290000  0.78360000  1.0 0.1291616862
H  H56  1  0.65350000  0.56710000  0.78360000  1.0 0.1291616862
H  H57  1  0.24820000  0.96120000  0.35470000  1.0 0.1378186293
H  H58  1  0.75180000  0.03880000  0.35470000  1.0 0.1378186293
H  H59  1  0.74820000  0.53880000  0.14530000  1.0 0.1378186293
H  H60  1  0.25180000  0.46120000  0.14530000  1.0 0.1378186293
H  H61  1  0.75180000  0.03880000  0.64530000  1.0 0.1378186293
H  H62  1  0.24820000  0.96120000  0.64530000  1.0 0.1378186293
H  H63  1  0.25180000  0.46120000  0.85470000  1.0 0.1291616862
H  H64  1  0.74820000  0.53880000  0.85470000  1.0 0.1378186293
C  C1  1  0.92170000  0.23180000  0.08937000  1.0 0.5631237961
C  C2  1  0.07830000  0.76820000  0.08937000  1.0 0.5631237961
C  C3  1  0.42170000  0.26820000  0.41063000  1.0 0.5631237961
C  C4  1  0.57830000  0.73180000  0.41063000  1.0 0.5631237961
C  C5  1  0.07830000  0.76820000  0.91063000  1.0 0.5631237961
C  C6  1  0.92170000  0.23180000  0.91063000  1.0 0.5631237961
C  C7  1  0.57830000  0.73180000  0.58937000  1.0 0.5631237961
C  C8  1  0.42170000  0.26820000  0.58937000  1.0 0.5631237961
C  C9  1  0.94030000  0.17293000  0.13232000  1.0 -0.0142657619
C  C10  1  0.05970000  0.82707000  0.13232000  1.0 -0.0216607368
C  C11  1  0.44030000  0.32707000  0.36768000  1.0 -0.0216607368
C  C12  1  0.55970000  0.67293000  0.36768000  1.0 -0.0142657619
C  C13  1  0.05970000  0.82707000  0.86768000  1.0 -0.0216607368
C  C14  1  0.94030000  0.17293000  0.86768000  1.0 -0.0142657619
C  C15  1  0.55970000  0.67293000  0.63232000  1.0 -0.0142657619
C  C16  1  0.44030000  0.32707000  0.63232000  1.0 -0.0142657619
C  C17  1  0.88580000  0.11390000  0.14200000  1.0 -0.0784183638
C  C18  1  0.11420000  0.88610000  0.14200000  1.0 -0.0784183638
C  C19  1  0.38580000  0.38610000  0.35800000  1.0 -0.0784183638
C  C20  1  0.61420000  0.61390000  0.35800000  1.0 -0.0784183638
C  C21  1  0.11420000  0.88610000  0.85800000  1.0 -0.0784183638
C  C22  1  0.88580000  0.11390000  0.85800000  1.0 -0.0784183638
C  C23  1  0.61420000  0.61390000  0.64200000  1.0 -0.0784183638
C  C24  1  0.38580000  0.38610000  0.64200000  1.0 -0.0784183638
C  C25  1  0.90380000  0.06130000  0.18114000  1.0 -0.1506273151
C  C26  1  0.09620000  0.93870000  0.18114000  1.0 -0.1506273151
C  C27  1  0.40380000  0.43870000  0.31886000  1.0 -0.1506273151
C  C28  1  0.59620000  0.56130000  0.31886000  1.0 -0.1506273151
C  C29  1  0.09620000  0.93870000  0.81886000  1.0 -0.1506273151
C  C30  1  0.90380000  0.06130000  0.81886000  1.0 -0.1506273151
C  C31  1  0.59620000  0.56130000  0.68114000  1.0 -0.1506273151
C  C32  1  0.40380000  0.43870000  0.68114000  1.0 -0.1506273151
C  C33  1  0.97780000  0.06499000  0.21384000  1.0 0.064137682
C  C34  1  0.02220000  0.93501000  0.21384000  1.0 0.0660139747
C  C35  1  0.47780000  0.43501000  0.28616000  1.0 0.064137682
C  C36  1  0.52220000  0.56499000  0.28616000  1.0 0.064137682
C  C37  1  0.02220000  0.93501000  0.78616000  1.0 0.0660139747
C  C38  1  0.97780000  0.06499000  0.78616000  1.0 0.064137682
C  C39  1  0.52220000  0.56499000  0.71384000  1.0 0.064137682
C  C40  1  0.47780000  0.43501000  0.71384000  1.0 0.064137682
C  C41  1  0.03260000  0.12370000  0.20393000  1.0 -0.1620618515
C  C42  1  0.96740000  0.87630000  0.20393000  1.0 -0.1620618515
C  C43  1  0.53260000  0.37630000  0.29607000  1.0 -0.1620618515
C  C44  1  0.46740000  0.62370000  0.29607000  1.0 -0.1620618515
C  C45  1  0.96740000  0.87630000  0.79607000  1.0 -0.1620618515
C  C46  1  0.03260000  0.12370000  0.79607000  1.0 -0.1620618515
C  C47  1  0.46740000  0.62370000  0.70393000  1.0 -0.1620618515
C  C48  1  0.53260000  0.37630000  0.70393000  1.0 -0.1620618515
C  C49  1  0.01420000  0.17790000  0.16454000  1.0 -0.0784183638
C  C50  1  0.98580000  0.82210000  0.16454000  1.0 -0.0784183638
C  C51  1  0.51420000  0.32210000  0.33546000  1.0 -0.0784183638
C  C52  1  0.48580000  0.67790000  0.33546000  1.0 -0.0784183638
C  C53  1  0.98580000  0.82210000  0.83546000  1.0 -0.0784183638
C  C54  1  0.01420000  0.17790000  0.83546000  1.0 -0.0784183638
C  C55  1  0.48580000  0.67790000  0.66454000  1.0 -0.0784183638
C  C56  1  0.51420000  0.32210000  0.66454000  1.0 -0.0784183638
C  C57  1  0.00000000  0.00000000  0.25368000  1.0 -0.0216607368
C  C58  1  0.50000000  0.50000000  0.24632000  1.0 -0.0216607368
C  C59  1  0.00000000  0.00000000  0.74632000  1.0 -0.0216607368
C  C60  1  0.50000000  0.50000000  0.75368000  1.0 -0.0216607368
C  C61  1  0.25640000  0.08180000  0.41998000  1.0 0.6003629528
C  C62  1  0.74360000  0.91820000  0.41998000  1.0 0.6003629528
C  C63  1  0.75640000  0.41820000  0.08002000  1.0 0.6003629528
C  C64  1  0.24360000  0.58180000  0.08002000  1.0 0.6003629528
C  C65  1  0.74360000  0.91820000  0.58002000  1.0 0.6003629528
C  C66  1  0.25640000  0.08180000  0.58002000  1.0 0.6003629528
C  C67  1  0.24360000  0.58180000  0.91998000  1.0 0.6003629528
C  C68  1  0.75640000  0.41820000  0.91998000  1.0 0.6003629528
C  C69  1  0.19370000  0.06020000  0.37503000  1.0 -0.0216607368
C  C70  1  0.80630000  0.93980000  0.37503000  1.0 -0.0216607368
C  C71  1  0.69370000  0.43980000  0.12497000  1.0 -0.0216607368
C  C72  1  0.30630000  0.56020000  0.12497000  1.0 -0.0216607368
C  C73  1  0.80630000  0.93980000  0.62497000  1.0 -0.0216607368
C  C74  1  0.19370000  0.06020000  0.62497000  1.0 -0.0216607368
C  C75  1  0.30630000  0.56020000  0.87503000  1.0 -0.0216607368
C  C76  1  0.69370000  0.43980000  0.87503000  1.0 -0.0216607368
C  C77  1  0.12490000  0.10400000  0.36467000  1.0 -0.0784183638
C  C78  1  0.87510000  0.89600000  0.36467000  1.0 -0.0784183638
C  C79  1  0.62490000  0.39600000  0.13533000  1.0 -0.0784183638
C  C80  1  0.37510000  0.60400000  0.13533000  1.0 -0.0784183638
C  C81  1  0.87510000  0.89600000  0.63533000  1.0 -0.0784183638
C  C82  1  0.12490000  0.10400000  0.63533000  1.0 -0.0784183638
C  C83  1  0.37510000  0.60400000  0.86467000  1.0 -0.0784183638
C  C84  1  0.62490000  0.39600000  0.86467000  1.0 -0.0784183638
C  C85  1  0.06510000  0.08551000  0.32574000  1.0 -0.1506273151
C  C86  1  0.93490000  0.91449000  0.32574000  1.0 -0.1506273151
C  C87  1  0.56510000  0.41449000  0.17426000  1.0 -0.1506273151
C  C88  1  0.43490000  0.58551000  0.17426000  1.0 -0.1506273151
C  C89  1  0.93490000  0.91449000  0.67426000  1.0 -0.1506273151
C  C90  1  0.06510000  0.08551000  0.67426000  1.0 -0.1506273151
C  C91  1  0.43490000  0.58551000  0.82574000  1.0 -0.1506273151
C  C92  1  0.56510000  0.41449000  0.82574000  1.0 -0.1506273151
C  C93  1  0.07350000  0.02182000  0.29350000  1.0 0.064137682
C  C94  1  0.92650000  0.97818000  0.29350000  1.0 0.0660139747
C  C95  1  0.57350000  0.47818000  0.20650000  1.0 0.0660139747
C  C96  1  0.42650000  0.52182000  0.20650000  1.0 0.064137682
C  C97  1  0.92650000  0.97818000  0.70650000  1.0 0.0660139747
C  C98  1  0.07350000  0.02182000  0.70650000  1.0 0.064137682
C  C99  1  0.42650000  0.52182000  0.79350000  1.0 0.064137682
C  C100  1  0.57350000  0.47818000  0.79350000  1.0 0.064137682
C  C101  1  0.14490000  0.97600000  0.30452000  1.0 -0.1506273151
C  C102  1  0.85510000  0.02400000  0.30452000  1.0 -0.1506273151
C  C103  1  0.64490000  0.52400000  0.19548000  1.0 -0.1506273151
C  C104  1  0.35510000  0.47600000  0.19548000  1.0 -0.1506273151
C  C105  1  0.85510000  0.02400000  0.69548000  1.0 -0.1506273151
C  C106  1  0.14490000  0.97600000  0.69548000  1.0 -0.1506273151
C  C107  1  0.35510000  0.47600000  0.80452000  1.0 -0.1506273151
C  C108  1  0.64490000  0.52400000  0.80452000  1.0 -0.1506273151
C  C109  1  0.20320000  0.99380000  0.34627000  1.0 -0.0784183638
C  C110  1  0.79680000  0.00620000  0.34627000  1.0 -0.0784183638
C  C111  1  0.70320000  0.50620000  0.15373000  1.0 -0.0784183638
C  C112  1  0.29680000  0.49380000  0.15373000  1.0 -0.0784183638
C  C113  1  0.79680000  0.00620000  0.65373000  1.0 -0.0784183638
C  C114  1  0.20320000  0.99380000  0.65373000  1.0 -0.0784183638
C  C115  1  0.29680000  0.49380000  0.84627000  1.0 -0.0784183638
C  C116  1  0.70320000  0.50620000  0.84627000  1.0 -0.0784183638
O  O1  1  0.85571000  0.22158000  0.06042000  1.0 -0.5574900918
O  O2  1  0.14429000  0.77842000  0.06042000  1.0 -0.5574900918
O  O3  1  0.35571000  0.27842000  0.43958000  1.0 -0.5574900918
O  O4  1  0.64429000  0.72158000  0.43958000  1.0 -0.5574900918
O  O5  1  0.14429000  0.77842000  0.93958000  1.0 -0.5574900918
O  O6  1  0.85571000  0.22158000  0.93958000  1.0 -0.5574900918
O  O7  1  0.64429000  0.72158000  0.56042000  1.0 -0.5574900918
O  O8  1  0.35571000  0.27842000  0.56042000  1.0 -0.5574900918
O  O9  1  0.97230000  0.28569000  0.08497000  1.0 -0.4270559065
O  O10  1  0.02770000  0.71431000  0.08497000  1.0 -0.4245973043
O  O11  1  0.47230000  0.21431000  0.41503000  1.0 -0.4270559065
O  O12  1  0.52770000  0.78569000  0.41503000  1.0 -0.4270559065
O  O13  1  0.02770000  0.71431000  0.91503000  1.0 -0.4245973043
O  O14  1  0.97230000  0.28569000  0.91503000  1.0 -0.4270559065
O  O15  1  0.52770000  0.78569000  0.58497000  1.0 -0.4270559065
O  O16  1  0.47230000  0.21431000  0.58497000  1.0 -0.4270559065
O  O17  1  0.24825000  0.14609000  0.43900000  1.0 -0.548224736
O  O18  1  0.75175000  0.85391000  0.43900000  1.0 -0.548224736
O  O19  1  0.74825000  0.35391000  0.06100000  1.0 -0.548224736
O  O20  1  0.25175000  0.64609000  0.06100000  1.0 -0.548224736
O  O21  1  0.75175000  0.85391000  0.56100000  1.0 -0.548224736
O  O22  1  0.24825000  0.14609000  0.56100000  1.0 -0.548224736
O  O23  1  0.25175000  0.64609000  0.93900000  1.0 -0.548224736
O  O24  1  0.74825000  0.35391000  0.93900000  1.0 -0.548224736
O  O25  1  0.31150000  0.03362000  0.43405000  1.0 -0.5814569257
O  O26  1  0.68850000  0.96638000  0.43405000  1.0 -0.5814569257
O  O27  1  0.81150000  0.46638000  0.06595000  1.0 -0.5814569257
O  O28  1  0.18850000  0.53362000  0.06595000  1.0 -0.5814569257
O  O29  1  0.68850000  0.96638000  0.56595000  1.0 -0.5814569257
O  O30  1  0.31150000  0.03362000  0.56595000  1.0 -0.5814569257
O  O31  1  0.18850000  0.53362000  0.93405000  1.0 -0.5814569257
O  O32  1  0.81150000  0.46638000  0.93405000  1.0 -0.5814569257
O  O33  1  0.92280000  0.36131000  0.00000000  1.0 -0.3378057293
O  O34  1  0.07720000  0.63869000  0.00000000  1.0 -0.3378057293
O  O35  1  0.42280000  0.13869000  0.50000000  1.0 -0.3215418272
O  O36  1  0.57720000  0.86131000  0.50000000  1.0 -0.3378057293
O  O37  1  0.50000000  0.00000000  0.44198000  1.0 -0.5745355897
O  O38  1  0.00000000  0.50000000  0.05802000  1.0 -0.5745355897
O  O39  1  0.50000000  0.00000000  0.55802000  1.0 -0.5745355897
O  O40  1  0.00000000  0.50000000  0.94198000  1.0 -0.5745355897
