# DDEC6 charges by PACMAN v1.1 (https://github.com/mtap-research/PACMAN-charge/)
data_CUBHUF_ASR_pacman
_symmetry_space_group_name_H-M   'P 1'
_cell_length_a   22.13360000
_cell_length_b   22.13360000
_cell_length_c   3.09820000
_cell_angle_alpha   90.00000000
_cell_angle_beta   90.00000000
_cell_angle_gamma   120.00000000
_symmetry_Int_Tables_number   1
_chemical_formula_structural   Nd(C3O)4
_chemical_formula_sum   'Nd6 C72 O24'
_cell_volume   1314.45037746
_cell_formula_units_Z   6
loop_
 _symmetry_equiv_pos_site_id
 _symmetry_equiv_pos_as_xyz
  1  'x, y, z'
loop_
 _atom_site_type_symbol
 _atom_site_label
 _atom_site_symmetry_multiplicity
 _atom_site_fract_x
 _atom_site_fract_y
 _atom_site_fract_z
 _atom_site_occupancy
 _atom_site_charge
Nd  Nd1  1  0.44200000  0.00000000  0.50000000  1.0 0.7308493667
Nd  Nd2  1  0.55800000  0.55800000  0.50000000  1.0 0.7308493667
Nd  Nd3  1  0.00000000  0.44200000  0.50000000  1.0 0.7308493667
Nd  Nd4  1  0.55800000  0.00000000  0.50000000  1.0 0.7308493667
Nd  Nd5  1  0.44200000  0.44200000  0.50000000  1.0 0.7308493667
Nd  Nd6  1  0.00000000  0.55800000  0.50000000  1.0 0.7308493667
C  C1  1  0.67860000  0.27470000  0.94000000  1.0 0.0082942946
C  C2  1  0.60810000  0.26279000  0.94000000  1.0 0.0082942946
C  C3  1  0.54950000  0.19230000  0.94000000  1.0 0.0339037872
C  C4  1  0.56140000  0.13360000  0.94000000  1.0 -0.0504161684
C  C5  1  0.63200000  0.14560000  0.94000000  1.0 0.1583025592
C  C6  1  0.69060000  0.21620000  0.94000000  1.0 -0.0448659528
C  C7  1  0.59610000  0.27470000  0.94000000  1.0 0.0082942946
C  C8  1  0.65469000  0.26279000  0.94000000  1.0 0.0082942946
C  C9  1  0.64280000  0.19230000  0.94000000  1.0 0.0339037872
C  C10  1  0.57220000  0.13360000  0.94000000  1.0 -0.0504161684
C  C11  1  0.51360000  0.14560000  0.94000000  1.0 0.1583025592
C  C12  1  0.52560000  0.21620000  0.94000000  1.0 -0.0448659528
C  C13  1  0.59610000  0.32140000  0.94000000  1.0 0.0082942946
C  C14  1  0.65469000  0.39190000  0.94000000  1.0 0.0082942946
C  C15  1  0.64280000  0.45050000  0.94000000  1.0 0.0339037872
C  C16  1  0.57220000  0.43860000  0.94000000  1.0 -0.0504161684
C  C17  1  0.51360000  0.36800000  0.94000000  1.0 0.1583025592
C  C18  1  0.52560000  0.30940000  0.94000000  1.0 -0.0448659528
C  C19  1  0.67860000  0.40390000  0.94000000  1.0 0.0082942946
C  C20  1  0.60810000  0.34531000  0.94000000  1.0 0.0082942946
C  C21  1  0.54950000  0.35720000  0.94000000  1.0 0.0339037872
C  C22  1  0.56140000  0.42780000  0.94000000  1.0 -0.0504161684
C  C23  1  0.63200000  0.48640000  0.94000000  1.0 0.1583025592
C  C24  1  0.69060000  0.47440000  0.94000000  1.0 -0.0504161684
C  C25  1  0.72530000  0.40390000  0.94000000  1.0 0.0082942946
C  C26  1  0.73721000  0.34531000  0.94000000  1.0 0.0082942946
C  C27  1  0.80770000  0.35720000  0.94000000  1.0 0.0339037872
C  C28  1  0.86640000  0.42780000  0.94000000  1.0 -0.0504161684
C  C29  1  0.85440000  0.48640000  0.94000000  1.0 0.1583025592
C  C30  1  0.78380000  0.47440000  0.94000000  1.0 -0.0504161684
C  C31  1  0.72530000  0.32140000  0.94000000  1.0 0.0082942946
C  C32  1  0.73721000  0.39190000  0.94000000  1.0 0.0082942946
C  C33  1  0.80770000  0.45050000  0.94000000  1.0 0.0339037872
C  C34  1  0.86640000  0.43860000  0.94000000  1.0 -0.0504161684
C  C35  1  0.85440000  0.36800000  0.94000000  1.0 0.1583025592
C  C36  1  0.78380000  0.30940000  0.94000000  1.0 -0.0504161684
C  C37  1  0.32140000  0.72530000  0.94000000  1.0 0.0082942946
C  C38  1  0.39190000  0.73721000  0.94000000  1.0 0.0082942946
C  C39  1  0.45050000  0.80770000  0.94000000  1.0 0.0339037872
C  C40  1  0.43860000  0.86640000  0.94000000  1.0 -0.0504161684
C  C41  1  0.36800000  0.85440000  0.94000000  1.0 0.1583025592
C  C42  1  0.30940000  0.78380000  0.94000000  1.0 -0.0504161684
C  C43  1  0.40390000  0.72530000  0.94000000  1.0 0.0082942946
C  C44  1  0.34531000  0.73721000  0.94000000  1.0 0.0082942946
C  C45  1  0.35720000  0.80770000  0.94000000  1.0 0.0339037872
C  C46  1  0.42780000  0.86640000  0.94000000  1.0 -0.0504161684
C  C47  1  0.48640000  0.85440000  0.94000000  1.0 0.1583025592
C  C48  1  0.47440000  0.78380000  0.94000000  1.0 -0.0504161684
C  C49  1  0.40390000  0.67860000  0.94000000  1.0 0.0082942946
C  C50  1  0.34531000  0.60810000  0.94000000  1.0 0.0082942946
C  C51  1  0.35720000  0.54950000  0.94000000  1.0 0.0339037872
C  C52  1  0.42780000  0.56140000  0.94000000  1.0 -0.0553649999
C  C53  1  0.48640000  0.63200000  0.94000000  1.0 0.1583025592
C  C54  1  0.47440000  0.69060000  0.94000000  1.0 -0.0504161684
C  C55  1  0.32140000  0.59610000  0.94000000  1.0 0.0082942946
C  C56  1  0.39190000  0.65469000  0.94000000  1.0 0.0082942946
C  C57  1  0.45050000  0.64280000  0.94000000  1.0 0.0339037872
C  C58  1  0.43860000  0.57220000  0.94000000  1.0 -0.0504161684
C  C59  1  0.36800000  0.51360000  0.94000000  1.0 0.1583025592
C  C60  1  0.30940000  0.52560000  0.94000000  1.0 -0.0504161684
C  C61  1  0.27470000  0.59610000  0.94000000  1.0 0.0082942946
C  C62  1  0.26279000  0.65469000  0.94000000  1.0 0.0082942946
C  C63  1  0.19230000  0.64280000  0.94000000  1.0 0.0339037872
C  C64  1  0.13360000  0.57220000  0.94000000  1.0 -0.0553649999
C  C65  1  0.14560000  0.51360000  0.94000000  1.0 0.1583025592
C  C66  1  0.21620000  0.52560000  0.94000000  1.0 -0.0504161684
C  C67  1  0.27470000  0.67860000  0.94000000  1.0 0.0082942946
C  C68  1  0.26279000  0.60810000  0.94000000  1.0 0.0082942946
C  C69  1  0.19230000  0.54950000  0.94000000  1.0 0.0339037872
C  C70  1  0.13360000  0.56140000  0.94000000  1.0 -0.0553649999
C  C71  1  0.14560000  0.63200000  0.94000000  1.0 0.1583025592
C  C72  1  0.21620000  0.69060000  0.94000000  1.0 -0.0504161684
O  O1  1  0.50890000  0.07040000  0.94000000  1.0 -0.0922282766
O  O2  1  0.64270000  0.09310000  0.94000000  1.0 -0.3813093515
O  O3  1  0.56150000  0.07040000  0.94000000  1.0 -0.0922282766
O  O4  1  0.45040000  0.09310000  0.94000000  1.0 -0.3813093515
O  O5  1  0.56150000  0.49110000  0.94000000  1.0 -0.0922282766
O  O6  1  0.45040000  0.35730000  0.94000000  1.0 -0.3813093515
O  O7  1  0.50890000  0.43850000  0.94000000  1.0 -0.0922282766
O  O8  1  0.64270000  0.54960000  0.94000000  1.0 -0.3813093515
O  O9  1  0.92960000  0.43850000  0.94000000  1.0 -0.0922282766
O  O10  1  0.90690000  0.54960000  0.94000000  1.0 -0.3813093515
O  O11  1  0.92960000  0.49110000  0.94000000  1.0 -0.0922282766
O  O12  1  0.90690000  0.35730000  0.94000000  1.0 -0.3813093515
O  O13  1  0.49110000  0.92960000  0.94000000  1.0 -0.0922282766
O  O14  1  0.35730000  0.90690000  0.94000000  1.0 -0.3813093515
O  O15  1  0.43850000  0.92960000  0.94000000  1.0 -0.0922282766
O  O16  1  0.54960000  0.90690000  0.94000000  1.0 -0.3813093515
O  O17  1  0.43850000  0.50890000  0.94000000  1.0 -0.0922282766
O  O18  1  0.54960000  0.64270000  0.94000000  1.0 -0.3813093515
O  O19  1  0.49110000  0.56150000  0.94000000  1.0 -0.0922282766
O  O20  1  0.35730000  0.45040000  0.94000000  1.0 -0.3813093515
O  O21  1  0.07040000  0.56150000  0.94000000  1.0 -0.0922282766
O  O22  1  0.09310000  0.45040000  0.94000000  1.0 -0.3813093515
O  O23  1  0.07040000  0.50890000  0.94000000  1.0 -0.0922282766
O  O24  1  0.09310000  0.64270000  0.94000000  1.0 -0.3813093515
