# DDEC6 charges by PACMAN v1.1 (https://github.com/mtap-research/PACMAN-charge/)
data_CUBJAN_ASR_pacman
_symmetry_space_group_name_H-M   'P 1'
_cell_length_a   21.77820000
_cell_length_b   21.77820000
_cell_length_c   3.04730000
_cell_angle_alpha   90.00000000
_cell_angle_beta   90.00000000
_cell_angle_gamma   120.00000000
_symmetry_Int_Tables_number   1
_chemical_formula_structural   Yb(C3O)4
_chemical_formula_sum   'Yb6 C72 O24'
_cell_volume   1251.66989575
_cell_formula_units_Z   6
loop_
 _symmetry_equiv_pos_site_id
 _symmetry_equiv_pos_as_xyz
  1  'x, y, z'
loop_
 _atom_site_type_symbol
 _atom_site_label
 _atom_site_symmetry_multiplicity
 _atom_site_fract_x
 _atom_site_fract_y
 _atom_site_fract_z
 _atom_site_occupancy
 _atom_site_charge
Yb  Yb1  1  0.45600000  0.00000000  0.50000000  1.0 0.1296380856
Yb  Yb2  1  0.54400000  0.54400000  0.50000000  1.0 0.1296380856
Yb  Yb3  1  0.00000000  0.45600000  0.50000000  1.0 0.1296380856
Yb  Yb4  1  0.54400000  0.00000000  0.50000000  1.0 0.1296380856
Yb  Yb5  1  0.45600000  0.45600000  0.50000000  1.0 0.1296380856
Yb  Yb6  1  0.00000000  0.54400000  0.50000000  1.0 0.1296380856
C  C1  1  0.67640000  0.27230000  0.12800000  1.0 -0.0073839328
C  C2  1  0.60560000  0.26250000  0.12800000  1.0 -0.0002563002
C  C3  1  0.54460000  0.19170000  0.12800000  1.0 0.0224638145
C  C4  1  0.55440000  0.13070000  0.12800000  1.0 0.1059862671
C  C5  1  0.62500000  0.14030000  0.12800000  1.0 0.203686637
C  C6  1  0.68620000  0.21130000  0.12800000  1.0 -0.0368738471
C  C7  1  0.65690000  0.26250000  0.12800000  1.0 -0.0002563002
C  C8  1  0.59590000  0.27230000  0.12800000  1.0 -0.0073839328
C  C9  1  0.52510000  0.21130000  0.12800000  1.0 -0.0368738471
C  C10  1  0.51530000  0.14030000  0.12800000  1.0 0.203686637
C  C11  1  0.57630000  0.13070000  0.12800000  1.0 0.1059862671
C  C12  1  0.64710000  0.19170000  0.12800000  1.0 0.0224638145
C  C13  1  0.59590000  0.32360000  0.12800000  1.0 -0.0073839328
C  C14  1  0.65690000  0.39440000  0.12800000  1.0 -0.0002563002
C  C15  1  0.64710000  0.45540000  0.12800000  1.0 0.0224638145
C  C16  1  0.57630000  0.44560000  0.12800000  1.0 0.1059862671
C  C17  1  0.51530000  0.37500000  0.12800000  1.0 0.203686637
C  C18  1  0.52510000  0.31380000  0.12800000  1.0 -0.0368738471
C  C19  1  0.60560000  0.34310000  0.12800000  1.0 -0.0002563002
C  C20  1  0.67640000  0.40410000  0.12800000  1.0 -0.0073839328
C  C21  1  0.68620000  0.47490000  0.12800000  1.0 -0.0368738471
C  C22  1  0.62500000  0.48470000  0.12800000  1.0 0.203686637
C  C23  1  0.55440000  0.42370000  0.12800000  1.0 0.1059862671
C  C24  1  0.54460000  0.35290000  0.12800000  1.0 0.0224638145
C  C25  1  0.72770000  0.40410000  0.12800000  1.0 -0.0073839328
C  C26  1  0.73750000  0.34310000  0.12800000  1.0 -0.0002563002
C  C27  1  0.80830000  0.35290000  0.12800000  1.0 0.0224638145
C  C28  1  0.86930000  0.42370000  0.12800000  1.0 0.1059862671
C  C29  1  0.85970000  0.48470000  0.12800000  1.0 0.203686637
C  C30  1  0.78870000  0.47490000  0.12800000  1.0 -0.0368738471
C  C31  1  0.73750000  0.39440000  0.12800000  1.0 -0.0002563002
C  C32  1  0.72770000  0.32360000  0.12800000  1.0 -0.0073839328
C  C33  1  0.78870000  0.31380000  0.12800000  1.0 -0.0368738471
C  C34  1  0.85970000  0.37500000  0.12800000  1.0 0.203686637
C  C35  1  0.86930000  0.44560000  0.12800000  1.0 0.1059862671
C  C36  1  0.80830000  0.45540000  0.12800000  1.0 0.0224638145
C  C37  1  0.32360000  0.72770000  0.12800000  1.0 -0.0073839328
C  C38  1  0.39440000  0.73750000  0.12800000  1.0 -0.0002563002
C  C39  1  0.45540000  0.80830000  0.12800000  1.0 0.0224638145
C  C40  1  0.44560000  0.86930000  0.12800000  1.0 0.1059862671
C  C41  1  0.37500000  0.85970000  0.12800000  1.0 0.203686637
C  C42  1  0.31380000  0.78870000  0.12800000  1.0 -0.0368738471
C  C43  1  0.34310000  0.73750000  0.12800000  1.0 -0.0002563002
C  C44  1  0.40410000  0.72770000  0.12800000  1.0 -0.0073839328
C  C45  1  0.47490000  0.78870000  0.12800000  1.0 -0.0368738471
C  C46  1  0.48470000  0.85970000  0.12800000  1.0 0.203686637
C  C47  1  0.42370000  0.86930000  0.12800000  1.0 0.1059862671
C  C48  1  0.35290000  0.80830000  0.12800000  1.0 0.0224638145
C  C49  1  0.40410000  0.67640000  0.12800000  1.0 -0.0073839328
C  C50  1  0.34310000  0.60560000  0.12800000  1.0 -0.0002563002
C  C51  1  0.35290000  0.54460000  0.12800000  1.0 0.0224638145
C  C52  1  0.42370000  0.55440000  0.12800000  1.0 0.1059862671
C  C53  1  0.48470000  0.62500000  0.12800000  1.0 0.203686637
C  C54  1  0.47490000  0.68620000  0.12800000  1.0 -0.0368738471
C  C55  1  0.39440000  0.65690000  0.12800000  1.0 -0.0002563002
C  C56  1  0.32360000  0.59590000  0.12800000  1.0 -0.0073839328
C  C57  1  0.31380000  0.52510000  0.12800000  1.0 -0.0368738471
C  C58  1  0.37500000  0.51530000  0.12800000  1.0 0.203686637
C  C59  1  0.44560000  0.57630000  0.12800000  1.0 0.1059862671
C  C60  1  0.45540000  0.64710000  0.12800000  1.0 0.0224638145
C  C61  1  0.27230000  0.59590000  0.12800000  1.0 -0.0073839328
C  C62  1  0.26250000  0.65690000  0.12800000  1.0 -0.0002563002
C  C63  1  0.19170000  0.64710000  0.12800000  1.0 0.0224638145
C  C64  1  0.13070000  0.57630000  0.12800000  1.0 0.1059862671
C  C65  1  0.14030000  0.51530000  0.12800000  1.0 0.203686637
C  C66  1  0.21130000  0.52510000  0.12800000  1.0 -0.0368738471
C  C67  1  0.26250000  0.60560000  0.12800000  1.0 -0.0002563002
C  C68  1  0.27230000  0.67640000  0.12800000  1.0 -0.0073839328
C  C69  1  0.21130000  0.68620000  0.12800000  1.0 -0.0368738471
C  C70  1  0.14030000  0.62500000  0.12800000  1.0 0.203686637
C  C71  1  0.13070000  0.55440000  0.12800000  1.0 0.1059862671
C  C72  1  0.19170000  0.54460000  0.12800000  1.0 0.0224638145
O  O1  1  0.50000000  0.06800000  0.12800000  1.0 -0.1242086304
O  O2  1  0.63400000  0.08580000  0.12800000  1.0 -0.2281227983
O  O3  1  0.45180000  0.08580000  0.12800000  1.0 -0.2281227983
O  O4  1  0.56800000  0.06800000  0.12800000  1.0 -0.1242086304
O  O5  1  0.56800000  0.50000000  0.12800000  1.0 -0.1242086304
O  O6  1  0.45180000  0.36600000  0.12800000  1.0 -0.2281227983
O  O7  1  0.63400000  0.54820000  0.12800000  1.0 -0.2281227983
O  O8  1  0.50000000  0.43200000  0.12800000  1.0 -0.1242086304
O  O9  1  0.93200000  0.43200000  0.12800000  1.0 -0.1242086304
O  O10  1  0.91420000  0.54820000  0.12800000  1.0 -0.2281227983
O  O11  1  0.91420000  0.36600000  0.12800000  1.0 -0.2281227983
O  O12  1  0.93200000  0.50000000  0.12800000  1.0 -0.1242086304
O  O13  1  0.50000000  0.93200000  0.12800000  1.0 -0.1242086304
O  O14  1  0.36600000  0.91420000  0.12800000  1.0 -0.2281227983
O  O15  1  0.54820000  0.91420000  0.12800000  1.0 -0.2281227983
O  O16  1  0.43200000  0.93200000  0.12800000  1.0 -0.1242086304
O  O17  1  0.43200000  0.50000000  0.12800000  1.0 -0.1242086304
O  O18  1  0.54820000  0.63400000  0.12800000  1.0 -0.2281227983
O  O19  1  0.36600000  0.45180000  0.12800000  1.0 -0.2281227983
O  O20  1  0.50000000  0.56800000  0.12800000  1.0 -0.1242086304
O  O21  1  0.06800000  0.56800000  0.12800000  1.0 -0.1255316612
O  O22  1  0.08580000  0.45180000  0.12800000  1.0 -0.2281227983
O  O23  1  0.08580000  0.63400000  0.12800000  1.0 -0.2281227983
O  O24  1  0.06800000  0.50000000  0.12800000  1.0 -0.1242086304
