# DDEC6 charges by PACMAN v1.1 (https://github.com/mtap-research/PACMAN-charge/)
data_CUCKIV_ASR_pacman
_symmetry_space_group_name_H-M   'P 1'
_cell_length_a   14.17000000
_cell_length_b   10.83300000
_cell_length_c   18.26600000
_cell_angle_alpha   90.00000000
_cell_angle_beta   129.18600000
_cell_angle_gamma   90.00000000
_symmetry_Int_Tables_number   1
_chemical_formula_structural   Co3H8C28(NO4)4
_chemical_formula_sum   'Co6 H16 C56 N8 O32'
_cell_volume   2173.29743260
_cell_formula_units_Z   2
loop_
 _symmetry_equiv_pos_site_id
 _symmetry_equiv_pos_as_xyz
  1  'x, y, z'
loop_
 _atom_site_type_symbol
 _atom_site_label
 _atom_site_symmetry_multiplicity
 _atom_site_fract_x
 _atom_site_fract_y
 _atom_site_fract_z
 _atom_site_occupancy
 _atom_site_charge
Co  Co1  1  0.87873000  0.28856000  0.69934000  1.0 0.900626329
Co  Co2  1  0.12127000  0.78856000  0.80066000  1.0 0.900626329
Co  Co3  1  0.12127000  0.71144000  0.30066000  1.0 0.900626329
Co  Co4  1  0.87873000  0.21144000  0.19934000  1.0 0.900626329
Co  Co5  1  0.00000000  0.50000000  0.50000000  1.0 1.091719297
Co  Co6  1  0.00000000  0.00000000  0.00000000  1.0 1.091719297
H  H1  1  0.28010000  0.33340000  0.49460000  1.0 0.1523718051
H  H2  1  0.71990000  0.83340000  0.00540000  1.0 0.1523718051
H  H3  1  0.71990000  0.66666667  0.50540000  1.0 0.1523718051
H  H4  1  0.28010000  0.16660000  0.99460000  1.0 0.1523718051
H  H5  1  0.29660000  0.15120000  0.30970000  1.0 0.1523718051
H  H6  1  0.70340000  0.65120000  0.19030000  1.0 0.1523718051
H  H7  1  0.70340000  0.84880000  0.69030000  1.0 0.1523718051
H  H8  1  0.29660000  0.34880000  0.80970000  1.0 0.1523718051
H  H9  1  0.45460000  0.41110000  0.54610000  1.0 0.1419651017
H  H10  1  0.54540000  0.91110000  0.95390000  1.0 0.1419651017
H  H11  1  0.54540000  0.58890000  0.45390000  1.0 0.1419651017
H  H12  1  0.45460000  0.08890000  0.04610000  1.0 0.1419651017
H  H13  1  0.48390000  0.09700000  0.43940000  1.0 0.1419651017
H  H14  1  0.51610000  0.59700000  0.06060000  1.0 0.1419651017
H  H15  1  0.51610000  0.90300000  0.56060000  1.0 0.1419651017
H  H16  1  0.48390000  0.40300000  0.93940000  1.0 0.1419651017
C  C1  1  0.11870000  0.27810000  0.37470000  1.0 0.1523718051
C  C2  1  0.88130000  0.77810000  0.12530000  1.0 0.1523718051
C  C3  1  0.88130000  0.72190000  0.62530000  1.0 0.1523718051
C  C4  1  0.11870000  0.22190000  0.87470000  1.0 0.1523718051
C  C5  1  0.24200000  0.29060000  0.43680000  1.0 -0.1282049797
C  C6  1  0.75800000  0.79060000  0.06320000  1.0 -0.1282049797
C  C7  1  0.75800000  0.70940000  0.56320000  1.0 -0.1282049797
C  C8  1  0.24200000  0.20940000  0.93680000  1.0 -0.1282049797
C  C9  1  0.31160000  0.24040000  0.41500000  1.0 0.1297948012
C  C10  1  0.68840000  0.74040000  0.08500000  1.0 0.1297948012
C  C11  1  0.68840000  0.75960000  0.58500000  1.0 0.1297948012
C  C12  1  0.31160000  0.25960000  0.91500000  1.0 0.1297948012
C  C13  1  0.25130000  0.18280000  0.32770000  1.0 -0.1282049797
C  C14  1  0.74870000  0.68280000  0.17230000  1.0 -0.1282049797
C  C15  1  0.74870000  0.81720000  0.67230000  1.0 -0.1282049797
C  C16  1  0.25130000  0.31720000  0.82770000  1.0 -0.1282049797
C  C17  1  0.12750000  0.17140000  0.26810000  1.0 0.1419651017
C  C18  1  0.87250000  0.67140000  0.23190000  1.0 0.1419651017
C  C19  1  0.87250000  0.82860000  0.73190000  1.0 0.1419651017
C  C20  1  0.12750000  0.32860000  0.76810000  1.0 0.1419651017
C  C21  1  0.04890000  0.11890000  0.17090000  1.0 0.5597314958
C  C22  1  0.95110000  0.61890000  0.32910000  1.0 0.5597314958
C  C23  1  0.95110000  0.88110000  0.82910000  1.0 0.5597314958
C  C24  1  0.04890000  0.38110000  0.67090000  1.0 0.5597314958
C  C25  1  0.02870000  0.32250000  0.38780000  1.0 0.5653436457
C  C26  1  0.97130000  0.82250000  0.11220000  1.0 0.5653436457
C  C27  1  0.97130000  0.67750000  0.61220000  1.0 0.5653436457
C  C28  1  0.02870000  0.17750000  0.88780000  1.0 0.5653436457
C  C29  1  0.62790000  0.36180000  0.60610000  1.0 0.1297948012
C  C30  1  0.37210000  0.86180000  0.89390000  1.0 0.1297948012
C  C31  1  0.37210000  0.63820000  0.39390000  1.0 0.1297948012
C  C32  1  0.62790000  0.13820000  0.10610000  1.0 0.1297948012
C  C33  1  0.50270000  0.35130000  0.54490000  1.0 -0.1609025251
C  C34  1  0.49730000  0.85130000  0.95510000  1.0 -0.1609025251
C  C35  1  0.49730000  0.64870000  0.45510000  1.0 -0.1609025251
C  C36  1  0.50270000  0.14870000  0.04490000  1.0 -0.1609025251
C  C37  1  0.44640000  0.25290000  0.48120000  1.0 0.1297948012
C  C38  1  0.55360000  0.75290000  0.01880000  1.0 0.1297948012
C  C39  1  0.55360000  0.74710000  0.51880000  1.0 0.1297948012
C  C40  1  0.44640000  0.24710000  0.98120000  1.0 0.1297948012
C  C41  1  0.51920000  0.16540000  0.48130000  1.0 -0.1609025251
C  C42  1  0.48080000  0.66540000  0.01870000  1.0 -0.1609025251
C  C43  1  0.48080000  0.83460000  0.51870000  1.0 -0.1609025251
C  C44  1  0.51920000  0.33460000  0.98130000  1.0 -0.1609025251
C  C45  1  0.64390000  0.18150000  0.54410000  1.0 0.1419651017
C  C46  1  0.35610000  0.68150000  0.95590000  1.0 0.1419651017
C  C47  1  0.35610000  0.81850000  0.45590000  1.0 0.1419651017
C  C48  1  0.64390000  0.31850000  0.04410000  1.0 0.1419651017
C  C49  1  0.73730000  0.10130000  0.55210000  1.0 0.5106254493
C  C50  1  0.26270000  0.60130000  0.94790000  1.0 0.5106254493
C  C51  1  0.26270000  0.89870000  0.44790000  1.0 0.5106254493
C  C52  1  0.73730000  0.39870000  0.05210000  1.0 0.5106254493
C  C53  1  0.70230000  0.45990000  0.67970000  1.0 0.5159061824
C  C54  1  0.29770000  0.95990000  0.82030000  1.0 0.5159061824
C  C55  1  0.29770000  0.54010000  0.32030000  1.0 0.5159061824
C  C56  1  0.70230000  0.04010000  0.17970000  1.0 0.5159061824
N  N1  1  0.69640000  0.27700000  0.60480000  1.0 -0.2823612417
N  N2  1  0.30360000  0.77700000  0.89520000  1.0 -0.2823612417
N  N3  1  0.30360000  0.72300000  0.39520000  1.0 -0.2823612417
N  N4  1  0.69640000  0.22300000  0.10480000  1.0 -0.2823612417
N  N5  1  0.06190000  0.22030000  0.29100000  1.0 -0.2650876369
N  N6  1  0.93810000  0.72030000  0.20900000  1.0 -0.2635607893
N  N7  1  0.93810000  0.77970000  0.70900000  1.0 -0.2635607893
N  N8  1  0.06190000  0.27970000  0.79100000  1.0 -0.2650876369
O  O1  1  0.93580000  0.11220000  0.13190000  1.0 -0.5078589047
O  O2  1  0.06420000  0.61220000  0.36810000  1.0 -0.5078589047
O  O3  1  0.06420000  0.88780000  0.86810000  1.0 -0.5078589047
O  O4  1  0.93580000  0.38780000  0.63190000  1.0 -0.5078589047
O  O5  1  0.09490000  0.08720000  0.13450000  1.0 -0.5078589047
O  O6  1  0.90510000  0.58720000  0.36550000  1.0 -0.5078589047
O  O7  1  0.90510000  0.91280000  0.86550000  1.0 -0.5078589047
O  O8  1  0.09490000  0.41280000  0.63450000  1.0 -0.5078589047
O  O9  1  0.91910000  0.30450000  0.32140000  1.0 -0.4894487734
O  O10  1  0.08090000  0.80450000  0.17860000  1.0 -0.4894487734
O  O11  1  0.08090000  0.69550000  0.67860000  1.0 -0.4894487734
O  O12  1  0.91910000  0.19550000  0.82140000  1.0 -0.4894487734
O  O13  1  0.07260000  0.37440000  0.46380000  1.0 -0.5167897667
O  O14  1  0.92740000  0.87440000  0.03620000  1.0 -0.5167897667
O  O15  1  0.92740000  0.62560000  0.53620000  1.0 -0.5167897667
O  O16  1  0.07260000  0.12560000  0.96380000  1.0 -0.5167897667
O  O17  1  0.70120000  0.01720000  0.49560000  1.0 -0.4581690381
O  O18  1  0.29880000  0.51720000  0.00440000  1.0 -0.4581690381
O  O19  1  0.29880000  0.98280000  0.50440000  1.0 -0.4581690381
O  O20  1  0.70120000  0.48280000  0.99560000  1.0 -0.4581690381
O  O21  1  0.84600000  0.12790000  0.61620000  1.0 -0.4736013587
O  O22  1  0.15400000  0.62790000  0.88380000  1.0 -0.4736013587
O  O23  1  0.15400000  0.87210000  0.38380000  1.0 -0.4736013587
O  O24  1  0.84600000  0.37210000  0.11620000  1.0 -0.4736013587
O  O25  1  0.64880000  0.54160000  0.68670000  1.0 -0.4581690381
O  O26  1  0.35120000  0.04160000  0.81330000  1.0 -0.4581690381
O  O27  1  0.35120000  0.45840000  0.31330000  1.0 -0.4581690381
O  O28  1  0.64880000  0.95840000  0.18670000  1.0 -0.4581690381
O  O29  1  0.81500000  0.44920000  0.72700000  1.0 -0.475656728
O  O30  1  0.18500000  0.94920000  0.77300000  1.0 -0.475656728
O  O31  1  0.18500000  0.55080000  0.27300000  1.0 -0.475656728
O  O32  1  0.81500000  0.05080000  0.22700000  1.0 -0.475656728
