# DDEC6 charges by PACMAN v1.1 (https://github.com/mtap-research/PACMAN-charge/)
data_CUFFEP_ASR_pacman
_symmetry_space_group_name_H-M   'P 1'
_cell_length_a   17.72230000
_cell_length_b   17.72230000
_cell_length_c   17.72230000
_cell_angle_alpha   109.47100000
_cell_angle_beta   109.47100000
_cell_angle_gamma   109.47100000
_symmetry_Int_Tables_number   1
_chemical_formula_structural   In(C3O2)4
_chemical_formula_sum   'In6 C72 O48'
_cell_volume   4284.91201497
_cell_formula_units_Z   6
loop_
 _symmetry_equiv_pos_site_id
 _symmetry_equiv_pos_as_xyz
  1  'x, y, z'
loop_
 _atom_site_type_symbol
 _atom_site_label
 _atom_site_symmetry_multiplicity
 _atom_site_fract_x
 _atom_site_fract_y
 _atom_site_fract_z
 _atom_site_occupancy
 _atom_site_charge
In  In1  1  0.62500000  0.37500000  0.25000000  1.0 1.3279075742
In  In2  1  0.87500000  0.12500000  0.75000000  1.0 1.3279075742
In  In3  1  0.25000000  0.62500000  0.37500000  1.0 1.3279075742
In  In4  1  0.75000000  0.87500000  0.12500000  1.0 1.3191701532
In  In5  1  0.37500000  0.25000000  0.62500000  1.0 1.3279075742
In  In6  1  0.12500000  0.75000000  0.87500000  1.0 1.3279075742
C  C1  1  0.52780000  0.09360000  0.12620000  1.0 -0.0417905292
C  C2  1  0.46740000  0.40160000  0.37380000  1.0 -0.0417905292
C  C3  1  0.03260000  0.40640000  0.93420000  1.0 -0.0417905292
C  C4  1  0.97220000  0.09840000  0.56580000  1.0 -0.0417905292
C  C5  1  0.12620000  0.52780000  0.09360000  1.0 -0.0417905292
C  C6  1  0.37380000  0.46740000  0.40160000  1.0 -0.0417905292
C  C7  1  0.93420000  0.03260000  0.40640000  1.0 -0.0417905292
C  C8  1  0.56580000  0.97220000  0.09840000  1.0 -0.0456685513
C  C9  1  0.09360000  0.12620000  0.52780000  1.0 -0.0417905292
C  C10  1  0.40160000  0.37380000  0.46740000  1.0 -0.0417905292
C  C11  1  0.40640000  0.93420000  0.03260000  1.0 -0.0456685513
C  C12  1  0.09840000  0.56580000  0.97220000  1.0 -0.0417905292
C  C13  1  0.59360000  0.02780000  0.62620000  1.0 -0.0417905292
C  C14  1  0.90160000  0.96740000  0.87380000  1.0 -0.0417905292
C  C15  1  0.90640000  0.53260000  0.43420000  1.0 -0.0417905292
C  C16  1  0.59840000  0.47220000  0.06580000  1.0 -0.0417905292
C  C17  1  0.02780000  0.62620000  0.59360000  1.0 -0.0417905292
C  C18  1  0.96740000  0.87380000  0.90160000  1.0 -0.0417905292
C  C19  1  0.53260000  0.43420000  0.90640000  1.0 -0.0417905292
C  C20  1  0.47220000  0.06580000  0.59840000  1.0 -0.0417905292
C  C21  1  0.62620000  0.59360000  0.02780000  1.0 -0.0417905292
C  C22  1  0.87380000  0.90160000  0.96740000  1.0 -0.0417905292
C  C23  1  0.43420000  0.90640000  0.53260000  1.0 -0.0417905292
C  C24  1  0.06580000  0.59840000  0.47220000  1.0 -0.0417905292
C  C25  1  0.59300000  0.06840000  0.14060000  1.0 0.1060982183
C  C26  1  0.42780000  0.45240000  0.35940000  1.0 0.0998409052
C  C27  1  0.07220000  0.43160000  0.02460000  1.0 0.0998409052
C  C28  1  0.90700000  0.04760000  0.47540000  1.0 0.0998409052
C  C29  1  0.14060000  0.59300000  0.06840000  1.0 0.0998409052
C  C30  1  0.35940000  0.42780000  0.45240000  1.0 0.0998409052
C  C31  1  0.02460000  0.07220000  0.43160000  1.0 0.0998409052
C  C32  1  0.47540000  0.90700000  0.04760000  1.0 0.0998409052
C  C33  1  0.06840000  0.14060000  0.59300000  1.0 0.0998409052
C  C34  1  0.45240000  0.35940000  0.42780000  1.0 0.0998409052
C  C35  1  0.43160000  0.02460000  0.07220000  1.0 0.0998409052
C  C36  1  0.04760000  0.47540000  0.90700000  1.0 0.0998409052
C  C37  1  0.56840000  0.09300000  0.64060000  1.0 0.0998409052
C  C38  1  0.95240000  0.92780000  0.85940000  1.0 0.0998409052
C  C39  1  0.93160000  0.57220000  0.52460000  1.0 0.0998409052
C  C40  1  0.54760000  0.40700000  0.97540000  1.0 0.0998409052
C  C41  1  0.09300000  0.64060000  0.56840000  1.0 0.0998409052
C  C42  1  0.92780000  0.85940000  0.95240000  1.0 0.0998409052
C  C43  1  0.57220000  0.52460000  0.93160000  1.0 0.0998409052
C  C44  1  0.40700000  0.97540000  0.54760000  1.0 0.0998409052
C  C45  1  0.64060000  0.56840000  0.09300000  1.0 0.0998409052
C  C46  1  0.85940000  0.95240000  0.92780000  1.0 0.0998409052
C  C47  1  0.52460000  0.93160000  0.57220000  1.0 0.0998409052
C  C48  1  0.97540000  0.54760000  0.40700000  1.0 0.0998409052
C  C49  1  0.55400000  0.19410000  0.16770000  1.0 0.6166317821
C  C50  1  0.52640000  0.38630000  0.33230000  1.0 0.6166317821
C  C51  1  0.97360000  0.30590000  0.85990000  1.0 0.6166317821
C  C52  1  0.94600000  0.11370000  0.64010000  1.0 0.6166317821
C  C53  1  0.16770000  0.55400000  0.19410000  1.0 0.6166317821
C  C54  1  0.33230000  0.52640000  0.38630000  1.0 0.6166317821
C  C55  1  0.85990000  0.97360000  0.30590000  1.0 0.6145580173
C  C56  1  0.64010000  0.94600000  0.11370000  1.0 0.6166317821
C  C57  1  0.19410000  0.16770000  0.55400000  1.0 0.6166317821
C  C58  1  0.38630000  0.33230000  0.52640000  1.0 0.6166317821
C  C59  1  0.30590000  0.85990000  0.97360000  1.0 0.6166317821
C  C60  1  0.11370000  0.64010000  0.94600000  1.0 0.6166317821
C  C61  1  0.69410000  0.05400000  0.66770000  1.0 0.6166317821
C  C62  1  0.88630000  0.02640000  0.83230000  1.0 0.6166317821
C  C63  1  0.80590000  0.47360000  0.35990000  1.0 0.6145580173
C  C64  1  0.61370000  0.44600000  0.14010000  1.0 0.6166317821
C  C65  1  0.05400000  0.66770000  0.69410000  1.0 0.6166317821
C  C66  1  0.02640000  0.83230000  0.88630000  1.0 0.6166317821
C  C67  1  0.47360000  0.35990000  0.80590000  1.0 0.6166317821
C  C68  1  0.44600000  0.14010000  0.61370000  1.0 0.6166317821
C  C69  1  0.66770000  0.69410000  0.05400000  1.0 0.6145580173
C  C70  1  0.83230000  0.88630000  0.02640000  1.0 0.6166317821
C  C71  1  0.35990000  0.80590000  0.47360000  1.0 0.6166317821
C  C72  1  0.14010000  0.61370000  0.44600000  1.0 0.6166317821
O  O1  1  0.63990000  0.25310000  0.22100000  1.0 -0.526704375
O  O2  1  0.53210000  0.41890000  0.27900000  1.0 -0.526704375
O  O3  1  0.96790000  0.24690000  0.88680000  1.0 -0.5236429165
O  O4  1  0.86010000  0.08110000  0.61320000  1.0 -0.5236429165
O  O5  1  0.22100000  0.63990000  0.25310000  1.0 -0.5236429165
O  O6  1  0.27900000  0.53210000  0.41890000  1.0 -0.526704375
O  O7  1  0.88680000  0.96790000  0.24690000  1.0 -0.526704375
O  O8  1  0.61320000  0.86010000  0.08110000  1.0 -0.526704375
O  O9  1  0.25310000  0.22100000  0.63990000  1.0 -0.5236429165
O  O10  1  0.41890000  0.27900000  0.53210000  1.0 -0.5236429165
O  O11  1  0.24690000  0.88680000  0.96790000  1.0 -0.5236429165
O  O12  1  0.08110000  0.61320000  0.86010000  1.0 -0.526704375
O  O13  1  0.75310000  0.13990000  0.72100000  1.0 -0.5236429165
O  O14  1  0.91890000  0.03210000  0.77900000  1.0 -0.5236429165
O  O15  1  0.74690000  0.46790000  0.38680000  1.0 -0.526704375
O  O16  1  0.58110000  0.36010000  0.11320000  1.0 -0.526704375
O  O17  1  0.13990000  0.72100000  0.75310000  1.0 -0.526704375
O  O18  1  0.03210000  0.77900000  0.91890000  1.0 -0.5236429165
O  O19  1  0.46790000  0.38680000  0.74690000  1.0 -0.5236429165
O  O20  1  0.36010000  0.11320000  0.58110000  1.0 -0.5236429165
O  O21  1  0.72100000  0.75310000  0.13990000  1.0 -0.526704375
O  O22  1  0.77900000  0.91890000  0.03210000  1.0 -0.526704375
O  O23  1  0.38680000  0.74690000  0.46790000  1.0 -0.526704375
O  O24  1  0.11320000  0.58110000  0.36010000  1.0 -0.5236429165
O  O25  1  0.49400000  0.21790000  0.15050000  1.0 -0.4807996789
O  O26  1  0.56740000  0.34350000  0.34950000  1.0 -0.4807996789
O  O27  1  0.93260000  0.28210000  0.77610000  1.0 -0.4807996789
O  O28  1  0.00600000  0.15650000  0.72390000  1.0 -0.4807996789
O  O29  1  0.15050000  0.49400000  0.21790000  1.0 -0.4807996789
O  O30  1  0.34950000  0.56740000  0.34350000  1.0 -0.4807996789
O  O31  1  0.77610000  0.93260000  0.28210000  1.0 -0.4807996789
O  O32  1  0.72390000  0.00600000  0.15650000  1.0 -0.4807996789
O  O33  1  0.21790000  0.15050000  0.49400000  1.0 -0.4807996789
O  O34  1  0.34350000  0.34950000  0.56740000  1.0 -0.4807996789
O  O35  1  0.28210000  0.77610000  0.93260000  1.0 -0.4807996789
O  O36  1  0.15650000  0.72390000  0.00600000  1.0 -0.4807996789
O  O37  1  0.71790000  0.99400000  0.65050000  1.0 -0.4807996789
O  O38  1  0.84350000  0.06740000  0.84950000  1.0 -0.4807996789
O  O39  1  0.78210000  0.43260000  0.27610000  1.0 -0.4807996789
O  O40  1  0.65650000  0.50600000  0.22390000  1.0 -0.4807996789
O  O41  1  0.99400000  0.65050000  0.71790000  1.0 -0.4807996789
O  O42  1  0.06740000  0.84950000  0.84350000  1.0 -0.4807996789
O  O43  1  0.43260000  0.27610000  0.78210000  1.0 -0.4807996789
O  O44  1  0.50600000  0.22390000  0.65650000  1.0 -0.4807996789
O  O45  1  0.65050000  0.71790000  0.99400000  1.0 -0.4807996789
O  O46  1  0.84950000  0.84350000  0.06740000  1.0 -0.4807996789
O  O47  1  0.27610000  0.78210000  0.43260000  1.0 -0.4807996789
O  O48  1  0.22390000  0.65650000  0.50600000  1.0 -0.4807996789
