# DDEC6 charges by PACMAN v1.1 (https://github.com/mtap-research/PACMAN-charge/)
data_CUFQUR_ASR_pacman
_symmetry_space_group_name_H-M   'P 1'
_cell_length_a   17.21190000
_cell_length_b   17.21190000
_cell_length_c   29.96860000
_cell_angle_alpha   74.10600000
_cell_angle_beta   105.89400000
_cell_angle_gamma   124.97000000
_symmetry_Int_Tables_number   1
_chemical_formula_structural   DyU4H18(C12O7)4
_chemical_formula_sum   'Dy4 U16 H72 C192 O112'
_cell_volume   6919.71864796
_cell_formula_units_Z   4
loop_
 _symmetry_equiv_pos_site_id
 _symmetry_equiv_pos_as_xyz
  1  'x, y, z'
loop_
 _atom_site_type_symbol
 _atom_site_label
 _atom_site_symmetry_multiplicity
 _atom_site_fract_x
 _atom_site_fract_y
 _atom_site_fract_z
 _atom_site_occupancy
 _atom_site_charge
Dy  Dy1  1  0.34931000  0.31997000  0.26014000  1.0 0.3197911799
Dy  Dy2  1  0.31997000  0.34931000  0.23986000  1.0 0.3305659314
Dy  Dy3  1  0.65069000  0.68003000  0.73986000  1.0 0.3305659314
Dy  Dy4  1  0.68003000  0.65069000  0.76014000  1.0 0.3305659314
U  U1  1  0.04363000  0.49619000  0.22737000  1.0 1.4905785839
U  U2  1  0.49619000  0.04363000  0.27263000  1.0 1.4905785839
U  U3  1  0.95637000  0.50381000  0.77263000  1.0 1.4983769775
U  U4  1  0.50381000  0.95637000  0.72737000  1.0 1.4905785839
U  U5  1  0.09092000  0.56790000  0.42814000  1.0 2.0238676191
U  U6  1  0.56790000  0.09092000  0.07186000  1.0 2.0287461401
U  U7  1  0.90908000  0.43210000  0.57186000  1.0 2.0407035471
U  U8  1  0.43210000  0.90908000  0.92814000  1.0 2.0287461401
U  U9  1  0.91362000  0.75928000  0.23639000  1.0 2.0500065208
U  U10  1  0.75928000  0.91362000  0.26361000  1.0 2.0500065208
U  U11  1  0.08638000  0.24072000  0.76361000  1.0 2.0407035471
U  U12  1  0.24072000  0.08638000  0.73639000  1.0 2.0551555276
U  U13  1  0.54509000  0.50421000  0.42440000  1.0 1.9610406678
U  U14  1  0.50421000  0.54509000  0.07560000  1.0 1.9512796522
U  U15  1  0.45491000  0.49579000  0.57560000  1.0 1.9610406678
U  U16  1  0.49579000  0.45491000  0.92440000  1.0 1.9610406678
H  H1  1  0.03600000  0.25100000  0.36000000  1.0 0.1086933099
H  H2  1  0.25100000  0.03600000  0.14000000  1.0 0.1086933099
H  H3  1  0.96400000  0.74900000  0.64000000  1.0 0.1086933099
H  H4  1  0.74900000  0.96400000  0.86000000  1.0 0.1086933099
H  H5  1  0.07080000  0.19540000  0.43870000  1.0 0.1283203135
H  H6  1  0.19540000  0.07080000  0.06130000  1.0 0.1283203135
H  H7  1  0.92920000  0.80460000  0.56130000  1.0 0.1283203135
H  H8  1  0.80460000  0.92920000  0.93870000  1.0 0.1283203135
H  H9  1  0.20910000  0.29330000  0.48480000  1.0 0.1086933099
H  H10  1  0.29330000  0.20910000  0.01520000  1.0 0.1086933099
H  H11  1  0.79090000  0.70670000  0.51520000  1.0 0.1086933099
H  H12  1  0.70670000  0.79090000  0.98480000  1.0 0.1086933099
H  H13  1  0.36210000  0.76030000  0.33220000  1.0 0.1173575876
H  H14  1  0.76030000  0.36210000  0.16780000  1.0 0.1173575876
H  H15  1  0.63790000  0.23970000  0.66780000  1.0 0.1173575876
H  H16  1  0.23970000  0.63790000  0.83220000  1.0 0.1173575876
H  H17  1  0.46520000  0.77680000  0.28880000  1.0 0.1002994695
H  H18  1  0.77680000  0.46520000  0.21120000  1.0 0.1002994695
H  H19  1  0.53480000  0.22320000  0.71120000  1.0 0.1002994695
H  H20  1  0.22320000  0.53480000  0.78880000  1.0 0.1002994695
H  H21  1  0.46580000  0.64300000  0.28680000  1.0 0.1173575876
H  H22  1  0.64300000  0.46580000  0.21320000  1.0 0.1173575876
H  H23  1  0.53420000  0.35700000  0.71320000  1.0 0.1173575876
H  H24  1  0.35700000  0.53420000  0.78680000  1.0 0.1173575876
H  H25  1  0.97230000  0.72610000  0.49940000  1.0 0.1283203135
H  H26  1  0.72610000  0.97230000  0.00060000  1.0 0.1283203135
H  H27  1  0.02770000  0.27390000  0.50060000  1.0 0.1283203135
H  H28  1  0.27390000  0.02770000  0.99940000  1.0 0.1283203135
H  H29  1  0.94780000  0.84960000  0.46400000  1.0 0.1388858751
H  H30  1  0.84960000  0.94780000  0.03600000  1.0 0.1388858751
H  H31  1  0.05220000  0.15040000  0.53600000  1.0 0.1388858751
H  H32  1  0.15040000  0.05220000  0.96400000  1.0 0.1388858751
H  H33  1  0.87950000  0.85750000  0.38700000  1.0 0.1283203135
H  H34  1  0.85750000  0.87950000  0.11300000  1.0 0.1283203135
H  H35  1  0.12050000  0.14250000  0.61300000  1.0 0.1283203135
H  H36  1  0.14250000  0.12050000  0.88700000  1.0 0.1283203135
H  H37  1  0.91570000  0.52410000  0.30110000  1.0 0.1002994695
H  H38  1  0.52410000  0.91570000  0.19890000  1.0 0.1002994695
H  H39  1  0.08430000  0.47590000  0.69890000  1.0 0.1002994695
H  H40  1  0.47590000  0.08430000  0.80110000  1.0 0.1002994695
H  H41  1  0.75960000  0.38300000  0.30310000  1.0 0.1086933099
H  H42  1  0.38300000  0.75960000  0.19690000  1.0 0.1086933099
H  H43  1  0.24040000  0.61700000  0.69690000  1.0 0.1086933099
H  H44  1  0.61700000  0.24040000  0.80310000  1.0 0.1086933099
H  H45  1  0.65400000  0.37240000  0.34130000  1.0 0.1388858751
H  H46  1  0.37240000  0.65400000  0.15870000  1.0 0.1388858751
H  H47  1  0.34600000  0.62760000  0.65870000  1.0 0.1388858751
H  H48  1  0.62760000  0.34600000  0.84130000  1.0 0.1388858751
H  H49  1  0.23020000  0.87240000  0.20460000  1.0 0.1173575876
H  H50  1  0.87240000  0.23020000  0.29540000  1.0 0.1173575876
H  H51  1  0.76980000  0.12760000  0.79540000  1.0 0.1173575876
H  H52  1  0.12760000  0.76980000  0.70460000  1.0 0.1173575876
H  H53  1  0.34400000  0.90380000  0.16260000  1.0 0.0873540676
H  H54  1  0.90380000  0.34400000  0.33740000  1.0 0.0873540676
H  H55  1  0.65600000  0.09620000  0.83740000  1.0 0.0873540676
H  H56  1  0.09620000  0.65600000  0.66260000  1.0 0.0873540676
H  H57  1  0.29490000  0.86250000  0.08710000  1.0 0.1086933099
H  H58  1  0.86250000  0.29490000  0.41290000  1.0 0.1086933099
H  H59  1  0.70510000  0.13750000  0.91290000  1.0 0.1086933099
H  H60  1  0.13750000  0.70510000  0.58710000  1.0 0.1086933099
H  H61  1  0.79910000  0.50410000  0.09550000  1.0 0.1086933099
H  H62  1  0.50410000  0.79910000  0.40450000  1.0 0.1086933099
H  H63  1  0.20090000  0.49590000  0.90450000  1.0 0.1086933099
H  H64  1  0.49590000  0.20090000  0.59550000  1.0 0.1086933099
H  H65  1  0.72110000  0.57210000  0.03790000  1.0 0.1002994695
H  H66  1  0.57210000  0.72110000  0.46210000  1.0 0.1002994695
H  H67  1  0.27890000  0.42790000  0.96210000  1.0 0.1002994695
H  H68  1  0.42790000  0.27890000  0.53790000  1.0 0.1002994695
H  H69  1  0.80850000  0.73630000  0.01150000  1.0 0.1002994695
H  H70  1  0.73630000  0.80850000  0.48850000  1.0 0.1002994695
H  H71  1  0.19150000  0.26370000  0.98850000  1.0 0.1002994695
H  H72  1  0.26370000  0.19150000  0.51150000  1.0 0.1002994695
C  C1  1  0.24740000  0.44340000  0.38520000  1.0 0.0369332483
C  C2  1  0.44340000  0.24740000  0.11480000  1.0 0.0369332483
C  C3  1  0.75260000  0.55660000  0.61480000  1.0 0.0369332483
C  C4  1  0.55660000  0.75260000  0.88520000  1.0 0.0369332483
C  C5  1  0.15750000  0.38370000  0.36000000  1.0 -0.078005124
C  C6  1  0.38370000  0.15750000  0.14000000  1.0 -0.078005124
C  C7  1  0.84250000  0.61630000  0.64000000  1.0 -0.078005124
C  C8  1  0.61630000  0.84250000  0.86000000  1.0 -0.078005124
C  C9  1  0.09370000  0.29150000  0.37870000  1.0 -0.0909954895
C  C10  1  0.29150000  0.09370000  0.12130000  1.0 -0.0909954895
C  C11  1  0.90630000  0.70850000  0.62130000  1.0 -0.0909954895
C  C12  1  0.70850000  0.90630000  0.87870000  1.0 -0.0909954895
C  C13  1  0.11520000  0.25860000  0.42550000  1.0 -0.0701055081
C  C14  1  0.25860000  0.11520000  0.07450000  1.0 -0.0701055081
C  C15  1  0.88480000  0.74140000  0.57450000  1.0 -0.0701055081
C  C16  1  0.74140000  0.88480000  0.92550000  1.0 -0.0701055081
C  C17  1  0.19810000  0.31490000  0.45240000  1.0 -0.0991059152
C  C18  1  0.31490000  0.19810000  0.04760000  1.0 -0.0991059152
C  C19  1  0.80190000  0.68510000  0.54760000  1.0 -0.0991059152
C  C20  1  0.68510000  0.80190000  0.95240000  1.0 -0.0991059152
C  C21  1  0.26740000  0.40520000  0.43200000  1.0 -0.0909954895
C  C22  1  0.40520000  0.26740000  0.06800000  1.0 -0.0909954895
C  C23  1  0.73260000  0.59480000  0.56800000  1.0 -0.0909954895
C  C24  1  0.59480000  0.73260000  0.93200000  1.0 -0.0909954895
C  C25  1  0.12350000  0.42170000  0.31300000  1.0 0.5327365369
C  C26  1  0.42170000  0.12350000  0.18700000  1.0 0.5327365369
C  C27  1  0.87650000  0.57830000  0.68700000  1.0 0.5327365369
C  C28  1  0.57830000  0.87650000  0.81300000  1.0 0.5327365369
C  C29  1  0.36000000  0.45840000  0.46230000  1.0 0.6235500098
C  C30  1  0.45840000  0.36000000  0.03770000  1.0 0.6235500098
C  C31  1  0.64000000  0.54160000  0.53770000  1.0 0.6235500098
C  C32  1  0.54160000  0.64000000  0.96230000  1.0 0.6235500098
C  C33  1  0.31430000  0.53970000  0.36140000  1.0 0.0292084044
C  C34  1  0.53970000  0.31430000  0.13860000  1.0 0.0292084044
C  C35  1  0.68570000  0.46030000  0.63860000  1.0 0.0292084044
C  C36  1  0.46030000  0.68570000  0.86140000  1.0 0.0292084044
C  C37  1  0.31080000  0.61900000  0.36160000  1.0 -0.0588259652
C  C38  1  0.61900000  0.31080000  0.13840000  1.0 -0.0588259652
C  C39  1  0.68920000  0.38100000  0.63840000  1.0 -0.0588259652
C  C40  1  0.38100000  0.68920000  0.86160000  1.0 -0.0588259652
C  C41  1  0.36620000  0.70720000  0.33290000  1.0 -0.1102017144
C  C42  1  0.70720000  0.36620000  0.16710000  1.0 -0.1102017144
C  C43  1  0.63380000  0.29280000  0.66710000  1.0 -0.1102017144
C  C44  1  0.29280000  0.63380000  0.83290000  1.0 -0.1102017144
C  C45  1  0.42550000  0.71670000  0.30640000  1.0 -0.1302779947
C  C46  1  0.71670000  0.42550000  0.19360000  1.0 -0.1302779947
C  C47  1  0.57450000  0.28330000  0.69360000  1.0 -0.1302779947
C  C48  1  0.28330000  0.57450000  0.80640000  1.0 -0.1302779947
C  C49  1  0.42620000  0.63760000  0.30570000  1.0 -0.1302779947
C  C50  1  0.63760000  0.42620000  0.19430000  1.0 -0.1302779947
C  C51  1  0.57380000  0.36240000  0.69430000  1.0 -0.1302779947
C  C52  1  0.36240000  0.57380000  0.80570000  1.0 -0.1302779947
C  C53  1  0.36970000  0.54890000  0.33250000  1.0 -0.1102017144
C  C54  1  0.54890000  0.36970000  0.16750000  1.0 -0.1102017144
C  C55  1  0.63030000  0.45110000  0.66750000  1.0 -0.1102017144
C  C56  1  0.45110000  0.63030000  0.83250000  1.0 -0.1102017144
C  C57  1  0.24500000  0.61180000  0.38700000  1.0 0.5577636406
C  C58  1  0.61180000  0.24500000  0.11300000  1.0 0.5577636406
C  C59  1  0.75500000  0.38820000  0.61300000  1.0 0.5577636406
C  C60  1  0.38820000  0.75500000  0.88700000  1.0 0.5577636406
C  C61  1  0.37130000  0.46430000  0.33000000  1.0 0.6126454592
C  C62  1  0.46430000  0.37130000  0.17000000  1.0 0.6126454592
C  C63  1  0.62870000  0.53570000  0.67000000  1.0 0.6126454592
C  C64  1  0.53570000  0.62870000  0.83000000  1.0 0.6126454592
C  C65  1  0.87370000  0.66030000  0.39500000  1.0 0.0292084044
C  C66  1  0.66030000  0.87370000  0.10500000  1.0 0.0292084044
C  C67  1  0.12630000  0.33970000  0.60500000  1.0 0.0292084044
C  C68  1  0.33970000  0.12630000  0.89500000  1.0 0.0292084044
C  C69  1  0.91650000  0.65850000  0.44200000  1.0 -0.078005124
C  C70  1  0.65850000  0.91650000  0.05800000  1.0 -0.078005124
C  C71  1  0.08350000  0.34150000  0.55800000  1.0 -0.078005124
C  C72  1  0.34150000  0.08350000  0.94200000  1.0 -0.078005124
C  C73  1  0.94360000  0.72860000  0.46750000  1.0 -0.078005124
C  C74  1  0.72860000  0.94360000  0.03250000  1.0 -0.078005124
C  C75  1  0.05640000  0.27140000  0.53250000  1.0 -0.078005124
C  C76  1  0.27140000  0.05640000  0.96750000  1.0 -0.078005124
C  C77  1  0.92900000  0.80160000  0.44650000  1.0 -0.078005124
C  C78  1  0.80160000  0.92900000  0.05350000  1.0 -0.078005124
C  C79  1  0.07100000  0.19840000  0.55350000  1.0 -0.078005124
C  C80  1  0.19840000  0.07100000  0.94650000  1.0 -0.078005124
C  C81  1  0.88810000  0.80590000  0.40120000  1.0 -0.0909954895
C  C82  1  0.80590000  0.88810000  0.09880000  1.0 -0.0909954895
C  C83  1  0.11190000  0.19410000  0.59880000  1.0 -0.0909954895
C  C84  1  0.19410000  0.11190000  0.90120000  1.0 -0.0909954895
C  C85  1  0.85850000  0.73470000  0.37500000  1.0 -0.0909954895
C  C86  1  0.73470000  0.85850000  0.12500000  1.0 -0.0909954895
C  C87  1  0.14150000  0.26530000  0.62500000  1.0 -0.0909954895
C  C88  1  0.26530000  0.14150000  0.87500000  1.0 -0.0909954895
C  C89  1  0.93220000  0.57980000  0.46850000  1.0 0.6471984506
C  C90  1  0.57980000  0.93220000  0.03150000  1.0 0.6471984506
C  C91  1  0.06780000  0.42020000  0.53150000  1.0 0.6471984506
C  C92  1  0.42020000  0.06780000  0.96850000  1.0 0.6471984506
C  C93  1  0.81490000  0.74750000  0.32430000  1.0 0.6363097549
C  C94  1  0.74750000  0.81490000  0.17570000  1.0 0.6363097549
C  C95  1  0.18510000  0.25250000  0.67570000  1.0 0.6363097549
C  C96  1  0.25250000  0.18510000  0.82430000  1.0 0.6363097549
C  C97  1  0.83880000  0.58060000  0.36840000  1.0 0.0369332483
C  C98  1  0.58060000  0.83880000  0.13160000  1.0 0.0369332483
C  C99  1  0.16120000  0.41940000  0.63160000  1.0 0.0369332483
C  C100  1  0.41940000  0.16120000  0.86840000  1.0 0.0369332483
C  C101  1  0.90020000  0.58800000  0.34400000  1.0 -0.1391787279
C  C102  1  0.58800000  0.90020000  0.15600000  1.0 -0.1391787279
C  C103  1  0.09980000  0.41200000  0.65600000  1.0 -0.1391787279
C  C104  1  0.41200000  0.09980000  0.84400000  1.0 -0.1391787279
C  C105  1  0.87250000  0.51670000  0.31840000  1.0 -0.1783545196
C  C106  1  0.51670000  0.87250000  0.18160000  1.0 -0.1783545196
C  C107  1  0.12750000  0.48330000  0.68160000  1.0 -0.1783545196
C  C108  1  0.48330000  0.12750000  0.81840000  1.0 -0.1783545196
C  C109  1  0.77920000  0.43380000  0.31880000  1.0 -0.0991059152
C  C110  1  0.43380000  0.77920000  0.18120000  1.0 -0.0991059152
C  C111  1  0.22080000  0.56620000  0.68120000  1.0 -0.0991059152
C  C112  1  0.56620000  0.22080000  0.81880000  1.0 -0.0991059152
C  C113  1  0.71750000  0.42730000  0.34200000  1.0 -0.0909954895
C  C114  1  0.42730000  0.71750000  0.15800000  1.0 -0.0909954895
C  C115  1  0.28250000  0.57270000  0.65800000  1.0 -0.0909954895
C  C116  1  0.57270000  0.28250000  0.84200000  1.0 -0.0909954895
C  C117  1  0.74550000  0.50050000  0.36700000  1.0 -0.0588259652
C  C118  1  0.50050000  0.74550000  0.13300000  1.0 -0.0588259652
C  C119  1  0.25450000  0.49950000  0.63300000  1.0 -0.0588259652
C  C120  1  0.49950000  0.25450000  0.86700000  1.0 -0.0588259652
C  C121  1  0.99880000  0.67820000  0.34240000  1.0 0.6330914617
C  C122  1  0.67820000  0.99880000  0.15760000  1.0 0.6330914617
C  C123  1  0.00120000  0.32180000  0.65760000  1.0 0.6330914617
C  C124  1  0.32180000  0.00120000  0.84240000  1.0 0.6330914617
C  C125  1  0.67360000  0.49060000  0.39020000  1.0 0.5369391561
C  C126  1  0.49060000  0.67360000  0.10980000  1.0 0.5369391561
C  C127  1  0.32640000  0.50940000  0.60980000  1.0 0.5369391561
C  C128  1  0.50940000  0.32640000  0.89020000  1.0 0.5369391561
C  C129  1  0.08360000  0.78440000  0.11000000  1.0 0.0515993805
C  C130  1  0.78440000  0.08360000  0.39000000  1.0 0.0515993805
C  C131  1  0.91640000  0.21560000  0.89000000  1.0 0.0515993805
C  C132  1  0.21560000  0.91640000  0.61000000  1.0 0.0515993805
C  C133  1  0.11650000  0.81430000  0.15440000  1.0 -0.0479171072
C  C134  1  0.81430000  0.11650000  0.34560000  1.0 -0.0479171072
C  C135  1  0.88350000  0.18570000  0.84560000  1.0 -0.0479171072
C  C136  1  0.18570000  0.88350000  0.65440000  1.0 -0.0479171072
C  C137  1  0.21080000  0.85580000  0.17390000  1.0 -0.1165761577
C  C138  1  0.85580000  0.21080000  0.32610000  1.0 -0.1165761577
C  C139  1  0.78920000  0.14420000  0.82610000  1.0 -0.1165761577
C  C140  1  0.14420000  0.78920000  0.67390000  1.0 -0.1165761577
C  C141  1  0.27830000  0.87410000  0.14920000  1.0 -0.1302779947
C  C142  1  0.87410000  0.27830000  0.35080000  1.0 -0.1302779947
C  C143  1  0.72170000  0.12590000  0.85080000  1.0 -0.1302779947
C  C144  1  0.12590000  0.72170000  0.64920000  1.0 -0.1302779947
C  C145  1  0.24880000  0.84840000  0.10460000  1.0 -0.1102017144
C  C146  1  0.84840000  0.24880000  0.39540000  1.0 -0.1102017144
C  C147  1  0.75120000  0.15160000  0.89540000  1.0 -0.1102017144
C  C148  1  0.15160000  0.75120000  0.60460000  1.0 -0.1102017144
C  C149  1  0.15320000  0.80260000  0.08560000  1.0 -0.0588259652
C  C150  1  0.80260000  0.15320000  0.41440000  1.0 -0.0588259652
C  C151  1  0.84680000  0.19740000  0.91440000  1.0 -0.0588259652
C  C152  1  0.19740000  0.84680000  0.58560000  1.0 -0.0588259652
C  C153  1  0.04690000  0.79850000  0.18170000  1.0 0.5721095324
C  C154  1  0.79850000  0.04690000  0.31830000  1.0 0.5721095324
C  C155  1  0.95310000  0.20150000  0.81830000  1.0 0.5721095324
C  C156  1  0.20150000  0.95310000  0.68170000  1.0 0.5721095324
C  C157  1  0.12690000  0.77870000  0.03650000  1.0 0.549529326
C  C158  1  0.77870000  0.12690000  0.46350000  1.0 0.549529326
C  C159  1  0.87310000  0.22130000  0.96350000  1.0 0.549529326
C  C160  1  0.22130000  0.87310000  0.53650000  1.0 0.549529326
C  C161  1  0.97840000  0.72660000  0.09120000  1.0 0.0873540676
C  C162  1  0.72660000  0.97840000  0.40880000  1.0 0.0873540676
C  C163  1  0.02160000  0.27340000  0.90880000  1.0 0.0873540676
C  C164  1  0.27340000  0.02160000  0.59120000  1.0 0.0873540676
C  C165  1  0.92520000  0.62780000  0.10560000  1.0 -0.0701055081
C  C166  1  0.62780000  0.92520000  0.39440000  1.0 -0.0701055081
C  C167  1  0.07480000  0.37220000  0.89440000  1.0 -0.0701055081
C  C168  1  0.37220000  0.07480000  0.60560000  1.0 -0.0701055081
C  C169  1  0.83280000  0.57140000  0.08570000  1.0 -0.0909954895
C  C170  1  0.57140000  0.83280000  0.41430000  1.0 -0.0909954895
C  C171  1  0.16720000  0.42860000  0.91430000  1.0 -0.0909954895
C  C172  1  0.42860000  0.16720000  0.58570000  1.0 -0.0909954895
C  C173  1  0.78640000  0.61120000  0.05080000  1.0 -0.1165761577
C  C174  1  0.61120000  0.78640000  0.44920000  1.0 -0.1165761577
C  C175  1  0.21360000  0.38880000  0.94920000  1.0 -0.1165761577
C  C176  1  0.38880000  0.21360000  0.55080000  1.0 -0.1165761577
C  C177  1  0.83790000  0.70830000  0.03570000  1.0 -0.0701055081
C  C178  1  0.70830000  0.83790000  0.46430000  1.0 -0.0701055081
C  C179  1  0.16210000  0.29170000  0.96430000  1.0 -0.0701055081
C  C180  1  0.29170000  0.16210000  0.53570000  1.0 -0.0701055081
C  C181  1  0.93230000  0.76550000  0.05540000  1.0 -0.1302779947
C  C182  1  0.76550000  0.93230000  0.44460000  1.0 -0.1302779947
C  C183  1  0.06770000  0.23450000  0.94460000  1.0 -0.1302779947
C  C184  1  0.23450000  0.06770000  0.55540000  1.0 -0.1302779947
C  C185  1  0.96600000  0.57900000  0.14560000  1.0 0.5577636406
C  C186  1  0.57900000  0.96600000  0.35440000  1.0 0.5577636406
C  C187  1  0.03400000  0.42100000  0.85440000  1.0 0.5577636406
C  C188  1  0.42100000  0.03400000  0.64560000  1.0 0.5577636406
C  C189  1  0.97460000  0.86100000  0.03530000  1.0 0.4820310966
C  C190  1  0.86100000  0.97460000  0.46470000  1.0 0.4820310966
C  C191  1  0.02540000  0.13900000  0.96470000  1.0 0.4820310966
C  C192  1  0.13900000  0.02540000  0.53530000  1.0 0.4820310966
O  O1  1  0.08030000  0.37250000  0.27930000  1.0 -0.5679482187
O  O2  1  0.37250000  0.08030000  0.22070000  1.0 -0.5679482187
O  O3  1  0.91970000  0.62750000  0.72070000  1.0 -0.5679482187
O  O4  1  0.62750000  0.91970000  0.77930000  1.0 -0.5679482187
O  O5  1  0.12990000  0.50110000  0.30690000  1.0 -0.5843681573
O  O6  1  0.50110000  0.12990000  0.19310000  1.0 -0.5843681573
O  O7  1  0.87010000  0.49890000  0.69310000  1.0 -0.5917555891
O  O8  1  0.49890000  0.87010000  0.80690000  1.0 -0.5843681573
O  O9  1  0.36070000  0.43330000  0.50620000  1.0 -0.6346340805
O  O10  1  0.43330000  0.36070000  0.99380000  1.0 -0.6346340805
O  O11  1  0.63930000  0.56670000  0.49380000  1.0 -0.6346340805
O  O12  1  0.56670000  0.63930000  0.00620000  1.0 -0.6346340805
O  O13  1  0.43470000  0.52130000  0.44420000  1.0 -0.6621722062
O  O14  1  0.52130000  0.43470000  0.05580000  1.0 -0.6621722062
O  O15  1  0.56530000  0.47870000  0.55580000  1.0 -0.6621722062
O  O16  1  0.47870000  0.56530000  0.94420000  1.0 -0.6621722062
O  O17  1  0.22440000  0.55680000  0.42600000  1.0 -0.6009443251
O  O18  1  0.55680000  0.22440000  0.07400000  1.0 -0.6077517217
O  O19  1  0.77560000  0.44320000  0.57400000  1.0 -0.6077517217
O  O20  1  0.44320000  0.77560000  0.92600000  1.0 -0.6077517217
O  O21  1  0.20430000  0.65950000  0.36980000  1.0 -0.5917555891
O  O22  1  0.65950000  0.20430000  0.13020000  1.0 -0.5917555891
O  O23  1  0.79570000  0.34050000  0.63020000  1.0 -0.5917555891
O  O24  1  0.34050000  0.79570000  0.86980000  1.0 -0.5917555891
O  O25  1  0.32990000  0.42790000  0.29290000  1.0 -0.5092808782
O  O26  1  0.42790000  0.32990000  0.20710000  1.0 -0.5092808782
O  O27  1  0.67010000  0.57210000  0.70710000  1.0 -0.5092808782
O  O28  1  0.57210000  0.67010000  0.79290000  1.0 -0.5092808782
O  O29  1  0.41310000  0.43490000  0.36470000  1.0 -0.6009443251
O  O30  1  0.43490000  0.41310000  0.13530000  1.0 -0.6009443251
O  O31  1  0.58690000  0.56510000  0.63530000  1.0 -0.6009443251
O  O32  1  0.56510000  0.58690000  0.86470000  1.0 -0.6009443251
O  O33  1  0.95320000  0.53940000  0.44750000  1.0 -0.7022616446
O  O34  1  0.53940000  0.95320000  0.05250000  1.0 -0.7022616446
O  O35  1  0.04680000  0.46060000  0.55250000  1.0 -0.7022616446
O  O36  1  0.46060000  0.04680000  0.94750000  1.0 -0.7022616446
O  O37  1  0.92520000  0.55620000  0.51140000  1.0 -0.6236632644
O  O38  1  0.55620000  0.92520000  0.98860000  1.0 -0.6236632644
O  O39  1  0.07480000  0.44380000  0.48860000  1.0 -0.6236632644
O  O40  1  0.44380000  0.07480000  0.01140000  1.0 -0.6236632644
O  O41  1  0.82060000  0.71420000  0.29400000  1.0 -0.6621722062
O  O42  1  0.71420000  0.82060000  0.20600000  1.0 -0.6621722062
O  O43  1  0.17940000  0.28580000  0.70600000  1.0 -0.6621722062
O  O44  1  0.28580000  0.17940000  0.79400000  1.0 -0.6621722062
O  O45  1  0.77430000  0.79310000  0.31480000  1.0 -0.6621722062
O  O46  1  0.79310000  0.77430000  0.18520000  1.0 -0.6621722062
O  O47  1  0.22570000  0.20690000  0.68520000  1.0 -0.6621722062
O  O48  1  0.20690000  0.22570000  0.81480000  1.0 -0.6621722062
O  O49  1  0.06670000  0.68710000  0.37480000  1.0 -0.6009443251
O  O50  1  0.68710000  0.06670000  0.12520000  1.0 -0.6009443251
O  O51  1  0.93330000  0.31290000  0.62520000  1.0 -0.6009443251
O  O52  1  0.31290000  0.93330000  0.87480000  1.0 -0.6009443251
O  O53  1  0.01150000  0.74650000  0.30950000  1.0 -0.6009443251
O  O54  1  0.74650000  0.01150000  0.19050000  1.0 -0.6077517217
O  O55  1  0.98850000  0.25350000  0.69050000  1.0 -0.6009443251
O  O56  1  0.25350000  0.98850000  0.80950000  1.0 -0.6077517217
O  O57  1  0.58860000  0.45480000  0.37080000  1.0 -0.5413179874
O  O58  1  0.45480000  0.58860000  0.12920000  1.0 -0.5413179874
O  O59  1  0.41140000  0.54520000  0.62920000  1.0 -0.5413179874
O  O60  1  0.54520000  0.41140000  0.87080000  1.0 -0.5413179874
O  O61  1  0.69660000  0.51660000  0.42970000  1.0 -0.5917555891
O  O62  1  0.51660000  0.69660000  0.07030000  1.0 -0.5917555891
O  O63  1  0.30340000  0.48340000  0.57030000  1.0 -0.5917555891
O  O64  1  0.48340000  0.30340000  0.92970000  1.0 -0.5917555891
O  O65  1  0.97430000  0.80370000  0.16250000  1.0 -0.6009443251
O  O66  1  0.80370000  0.97430000  0.33750000  1.0 -0.6009443251
O  O67  1  0.02570000  0.19630000  0.83750000  1.0 -0.6009443251
O  O68  1  0.19630000  0.02570000  0.66250000  1.0 -0.6009443251
O  O69  1  0.06200000  0.78120000  0.22670000  1.0 -0.6077517217
O  O70  1  0.78120000  0.06200000  0.27330000  1.0 -0.6077517217
O  O71  1  0.93800000  0.21880000  0.77330000  1.0 -0.6077517217
O  O72  1  0.21880000  0.93800000  0.72670000  1.0 -0.6077517217
O  O73  1  0.20020000  0.82300000  0.01480000  1.0 -0.5917555891
O  O74  1  0.82300000  0.20020000  0.48520000  1.0 -0.5917555891
O  O75  1  0.79980000  0.17700000  0.98520000  1.0 -0.5917555891
O  O76  1  0.17700000  0.79980000  0.51480000  1.0 -0.5917555891
O  O77  1  0.04650000  0.75510000  0.01110000  1.0 -0.5160915285
O  O78  1  0.75510000  0.04650000  0.48890000  1.0 -0.5160915285
O  O79  1  0.95350000  0.24490000  0.98890000  1.0 -0.5160915285
O  O80  1  0.24490000  0.95350000  0.51110000  1.0 -0.5160915285
O  O81  1  0.00750000  0.61510000  0.18380000  1.0 -0.6009443251
O  O82  1  0.61510000  0.00750000  0.31620000  1.0 -0.6009443251
O  O83  1  0.99250000  0.38490000  0.81620000  1.0 -0.6009443251
O  O84  1  0.38490000  0.99250000  0.68380000  1.0 -0.6009443251
O  O85  1  0.95320000  0.50140000  0.14420000  1.0 -0.5413179874
O  O86  1  0.50140000  0.95320000  0.35580000  1.0 -0.5413179874
O  O87  1  0.04680000  0.49860000  0.85580000  1.0 -0.5413179874
O  O88  1  0.49860000  0.04680000  0.64420000  1.0 -0.5413179874
O  O89  1  0.94800000  0.89640000  0.99760000  1.0 -0.3905750989
O  O90  1  0.89640000  0.94800000  0.50240000  1.0 -0.3905750989
O  O91  1  0.05200000  0.10360000  0.00240000  1.0 -0.3905750989
O  O92  1  0.10360000  0.05200000  0.49760000  1.0 -0.3905750989
O  O93  1  0.03250000  0.92510000  0.06030000  1.0 -0.4339456637
O  O94  1  0.92510000  0.03250000  0.43970000  1.0 -0.4339456637
O  O95  1  0.96750000  0.07490000  0.93970000  1.0 -0.4356950402
O  O96  1  0.07490000  0.96750000  0.56030000  1.0 -0.4339456637
O  O97  1  0.20920000  0.23320000  0.19840000  1.0 -0.5679482187
O  O98  1  0.23320000  0.20920000  0.30160000  1.0 -0.564314711
O  O99  1  0.79080000  0.76680000  0.80160000  1.0 -0.5679482187
O  O100  1  0.76680000  0.79080000  0.69840000  1.0 -0.5679482187
O  O101  1  0.30550000  0.16470000  0.25790000  1.0 0.720647049
O  O102  1  0.16470000  0.30550000  0.24210000  1.0 0.6994635582
O  O103  1  0.69450000  0.83530000  0.74210000  1.0 0.7099681021
O  O104  1  0.83530000  0.69450000  0.75790000  1.0 0.7099681021
O  O105  1  0.44530000  0.35590000  0.29850000  1.0 -0.1391787279
O  O106  1  0.35590000  0.44530000  0.20150000  1.0 -0.1391787279
O  O107  1  0.55470000  0.64410000  0.70150000  1.0 -0.1391787279
O  O108  1  0.64410000  0.55470000  0.79850000  1.0 -0.1391787279
O  O109  1  0.50710000  0.44430000  0.27800000  1.0 -0.1930487036
O  O110  1  0.44430000  0.50710000  0.22200000  1.0 -0.1987012853
O  O111  1  0.49290000  0.55570000  0.72200000  1.0 -0.1987012853
O  O112  1  0.55570000  0.49290000  0.77800000  1.0 -0.1987012853
