# DDEC6 charges by PACMAN v1.1 (https://github.com/mtap-research/PACMAN-charge/)
data_CUGLIB_FSR_pacman
_symmetry_space_group_name_H-M   'P 1'
_cell_length_a   20.23220000
_cell_length_b   20.23220000
_cell_length_c   20.23220000
_cell_angle_alpha   90.43810000
_cell_angle_beta   90.43810000
_cell_angle_gamma   169.96700000
_symmetry_Int_Tables_number   1
_chemical_formula_structural   Ag6H32C16BrN12
_chemical_formula_sum   'Ag12 H64 C32 Br2 N24'
_cell_volume   1437.30531013
_cell_formula_units_Z   2
loop_
 _symmetry_equiv_pos_site_id
 _symmetry_equiv_pos_as_xyz
  1  'x, y, z'
loop_
 _atom_site_type_symbol
 _atom_site_label
 _atom_site_symmetry_multiplicity
 _atom_site_fract_x
 _atom_site_fract_y
 _atom_site_fract_z
 _atom_site_occupancy
 _atom_site_charge
Ag  Ag1  1  0.96856000  0.93520000  0.88116000  1.0 0.3230536691
Ag  Ag2  1  0.91260000  0.03144000  0.96664000  1.0 0.3230536691
Ag  Ag3  1  0.05404000  0.08740000  0.11884000  1.0 0.3230536691
Ag  Ag4  1  0.06480000  0.94596000  0.03336000  1.0 0.3230536691
Ag  Ag5  1  0.19596000  0.81480000  0.53336000  1.0 0.3230536691
Ag  Ag6  1  0.28144000  0.66260000  0.46664000  1.0 0.3230536691
Ag  Ag7  1  0.33740000  0.80404000  0.61884000  1.0 0.3230536691
Ag  Ag8  1  0.18520000  0.71856000  0.38116000  1.0 0.3230536691
Ag  Ag9  1  0.12500000  0.30310000  0.67810000  1.0 0.3394948132
Ag  Ag10  1  0.55310000  0.87500000  0.17810000  1.0 0.3394948132
Ag  Ag11  1  0.62500000  0.44690000  0.32190000  1.0 0.3394948132
Ag  Ag12  1  0.69690000  0.37500000  0.82190000  1.0 0.3394948132
H  H1  1  0.54500000  0.58030000  0.74230000  1.0 0.008478295
H  H2  1  0.19730000  0.45500000  0.03530000  1.0 0.008478295
H  H3  1  0.83800000  0.80270000  0.25770000  1.0 0.008478295
H  H4  1  0.41970000  0.16200000  0.96470000  1.0 0.008478295
H  H5  1  0.41200000  0.16970000  0.46470000  1.0 0.008478295
H  H6  1  0.70500000  0.94730000  0.53530000  1.0 0.008478295
H  H7  1  0.05270000  0.58800000  0.75770000  1.0 0.008478295
H  H8  1  0.83030000  0.29500000  0.24230000  1.0 0.008478295
H  H9  1  0.30170000  0.52910000  0.88320000  1.0 0.1007452483
H  H10  1  0.58150000  0.69830000  0.22740000  1.0 0.1007452483
H  H11  1  0.64590000  0.41850000  0.11680000  1.0 0.1007452483
H  H12  1  0.47090000  0.35410000  0.77260000  1.0 0.1007452483
H  H13  1  0.60410000  0.22090000  0.27260000  1.0 0.1007452483
H  H14  1  0.94830000  0.33150000  0.72740000  1.0 0.1007452483
H  H15  1  0.66850000  0.39590000  0.61680000  1.0 0.1007452483
H  H16  1  0.77910000  0.05170000  0.38320000  1.0 0.1007452483
H  H17  1  0.61000000  0.86280000  0.84080000  1.0 0.1074719242
H  H18  1  0.23080000  0.39000000  0.25280000  1.0 0.1074719242
H  H19  1  0.02200000  0.76920000  0.15920000  1.0 0.1074719242
H  H20  1  0.13720000  0.97800000  0.74720000  1.0 0.1074719242
H  H21  1  0.22800000  0.88720000  0.24720000  1.0 0.1074719242
H  H22  1  0.64000000  0.98080000  0.75280000  1.0 0.1074719242
H  H23  1  0.01920000  0.77200000  0.65920000  1.0 0.1074719242
H  H24  1  0.11280000  0.36000000  0.34080000  1.0 0.1074719242
H  H25  1  0.20450000  0.44600000  0.80730000  1.0 0.1007452483
H  H26  1  0.60280000  0.79550000  0.24150000  1.0 0.1007452483
H  H27  1  0.63870000  0.39720000  0.19270000  1.0 0.1007452483
H  H28  1  0.55400000  0.36130000  0.75850000  1.0 0.1007452483
H  H29  1  0.61130000  0.30400000  0.25850000  1.0 0.1007452483
H  H30  1  0.04550000  0.35280000  0.74150000  1.0 0.1007452483
H  H31  1  0.64720000  0.38870000  0.69270000  1.0 0.1007452483
H  H32  1  0.69600000  0.95450000  0.30730000  1.0 0.1007452483
H  H33  1  0.61820000  0.59180000  0.73920000  1.0 0.1007452483
H  H34  1  0.12100000  0.38180000  0.97360000  1.0 0.1007452483
H  H35  1  0.85260000  0.87900000  0.26080000  1.0 0.1007452483
H  H36  1  0.40820000  0.14740000  0.02640000  1.0 0.1007452483
H  H37  1  0.39740000  0.15820000  0.52640000  1.0 0.1007452483
H  H38  1  0.63180000  0.87100000  0.47360000  1.0 0.1007452483
H  H39  1  0.12900000  0.60260000  0.76080000  1.0 0.1007452483
H  H40  1  0.84180000  0.36820000  0.23920000  1.0 0.1007452483
H  H41  1  0.21200000  0.22190000  0.72170000  1.0 0.1172194443
H  H42  1  0.50970000  0.78800000  0.00990000  1.0 0.1172194443
H  H43  1  0.50020000  0.49030000  0.27830000  1.0 0.1172194443
H  H44  1  0.77810000  0.49980000  0.99010000  1.0 0.1172194443
H  H45  1  0.74980000  0.52810000  0.49010000  1.0 0.1172194443
H  H46  1  0.03800000  0.25970000  0.50990000  1.0 0.1172194443
H  H47  1  0.74030000  0.25020000  0.77830000  1.0 0.1172194443
H  H48  1  0.47190000  0.96200000  0.22170000  1.0 0.1172194443
H  H49  1  0.55560000  0.58330000  0.68330000  1.0 0.1007452483
H  H50  1  0.12770000  0.44440000  0.02770000  1.0 0.1007452483
H  H51  1  0.90000000  0.87230000  0.31670000  1.0 0.1007452483
H  H52  1  0.41670000  0.10000000  0.97230000  1.0 0.1007452483
H  H53  1  0.35000000  0.16670000  0.47230000  1.0 0.1007452483
H  H54  1  0.69440000  0.87770000  0.52770000  1.0 0.1007452483
H  H55  1  0.12230000  0.65000000  0.81670000  1.0 0.1007452483
H  H56  1  0.83330000  0.30560000  0.18330000  1.0 0.1007452483
H  H57  1  0.48690000  0.68730000  0.83520000  1.0 0.0209052865
H  H58  1  0.34830000  0.51310000  0.20040000  1.0 0.0209052865
H  H59  1  0.85210000  0.65170000  0.16480000  1.0 0.0209052865
H  H60  1  0.31270000  0.14790000  0.79960000  1.0 0.0209052865
H  H61  1  0.39790000  0.06270000  0.29960000  1.0 0.0209052865
H  H62  1  0.76310000  0.09830000  0.70040000  1.0 0.0209052865
H  H63  1  0.90170000  0.60210000  0.66480000  1.0 0.0209052865
H  H64  1  0.93730000  0.23690000  0.33520000  1.0 0.0209052865
C  C1  1  0.56620000  0.63330000  0.77550000  1.0 0.2105989438
C  C2  1  0.20930000  0.43380000  0.06710000  1.0 0.2105989438
C  C3  1  0.85780000  0.79070000  0.22450000  1.0 0.2105989438
C  C4  1  0.36670000  0.14220000  0.93290000  1.0 0.2105989438
C  C5  1  0.39220000  0.11670000  0.43290000  1.0 0.2105989438
C  C6  1  0.68380000  0.95930000  0.56710000  1.0 0.2105989438
C  C7  1  0.04070000  0.60780000  0.72450000  1.0 0.2105989438
C  C8  1  0.88330000  0.31620000  0.27550000  1.0 0.2105989438
C  C9  1  0.53480000  0.69050000  0.82530000  1.0 0.2105989438
C  C10  1  0.29050000  0.46520000  0.15570000  1.0 0.2105989438
C  C11  1  0.86520000  0.70950000  0.17470000  1.0 0.2105989438
C  C12  1  0.30950000  0.13480000  0.84430000  1.0 0.2105989438
C  C13  1  0.38480000  0.05950000  0.34430000  1.0 0.2105989438
C  C14  1  0.71520000  0.04050000  0.65570000  1.0 0.2105989438
C  C15  1  0.95950000  0.61520000  0.67470000  1.0 0.2105989438
C  C16  1  0.94050000  0.28480000  0.32530000  1.0 0.2105989438
C  C17  1  0.39700000  0.62300000  0.84000000  1.0 -0.3671263345
C  C18  1  0.44300000  0.60300000  0.22600000  1.0 -0.3671263345
C  C19  1  0.78300000  0.55700000  0.16000000  1.0 -0.3671263345
C  C20  1  0.37700000  0.21700000  0.77400000  1.0 -0.3671263345
C  C21  1  0.46700000  0.12700000  0.27400000  1.0 -0.3671263345
C  C22  1  0.85300000  0.19300000  0.72600000  1.0 -0.3671263345
C  C23  1  0.80700000  0.53300000  0.66000000  1.0 -0.3671263345
C  C24  1  0.87300000  0.14700000  0.34000000  1.0 -0.3671263345
C  C25  1  0.48500000  0.50020000  0.72520000  1.0 -0.3539402709
C  C26  1  0.24020000  0.51500000  0.01520000  1.0 -0.3539402709
C  C27  1  0.77500000  0.75980000  0.27480000  1.0 -0.3539402709
C  C28  1  0.49980000  0.22500000  0.98480000  1.0 -0.3539402709
C  C29  1  0.47500000  0.24980000  0.48480000  1.0 -0.3539402709
C  C30  1  0.76500000  0.99020000  0.51520000  1.0 -0.3539402709
C  C31  1  0.00980000  0.52500000  0.77480000  1.0 -0.3539402709
C  C32  1  0.75020000  0.23500000  0.22520000  1.0 -0.3539402709
Br  Br1  1  0.50000000  0.50000000  0.00000000  1.0 -0.4730805942
Br  Br2  1  0.75000000  0.25000000  0.50000000  1.0 -0.4730805942
N  N1  1  0.72280000  0.77610000  0.83490000  1.0 -0.1972007454
N  N2  1  0.11210000  0.27720000  0.05330000  1.0 -0.1972007454
N  N3  1  0.94120000  0.88790000  0.16510000  1.0 -0.1972007454
N  N4  1  0.22390000  0.05880000  0.94670000  1.0 -0.1972007454
N  N5  1  0.30880000  0.97390000  0.44670000  1.0 -0.1972007454
N  N6  1  0.52720000  0.86210000  0.55330000  1.0 -0.1972007454
N  N7  1  0.13790000  0.69120000  0.66510000  1.0 -0.1972007454
N  N8  1  0.02610000  0.47280000  0.33490000  1.0 -0.1972007454
N  N9  1  0.70470000  0.81760000  0.86830000  1.0 -0.1972007454
N  N10  1  0.16360000  0.29530000  0.11290000  1.0 -0.1972007454
N  N11  1  0.94930000  0.83640000  0.13170000  1.0 -0.1972007454
N  N12  1  0.18240000  0.05070000  0.88710000  1.0 -0.1972007454
N  N13  1  0.30070000  0.93240000  0.38710000  1.0 -0.1972007454
N  N14  1  0.54530000  0.91360000  0.61290000  1.0 -0.1972007454
N  N15  1  0.08640000  0.69930000  0.63170000  1.0 -0.1972007454
N  N16  1  0.06760000  0.45470000  0.36830000  1.0 -0.1972007454
N  N17  1  0.43670000  0.56710000  0.76580000  1.0 -0.3373166621
N  N18  1  0.32910000  0.56330000  0.13040000  1.0 -0.3373166621
N  N19  1  0.80130000  0.67090000  0.23420000  1.0 -0.3373166621
N  N20  1  0.43290000  0.19870000  0.86960000  1.0 -0.3373166621
N  N21  1  0.44870000  0.18290000  0.36960000  1.0 -0.3373166621
N  N22  1  0.81330000  0.07910000  0.63040000  1.0 -0.3373166621
N  N23  1  0.92090000  0.55130000  0.73420000  1.0 -0.3373166621
N  N24  1  0.81710000  0.18670000  0.26580000  1.0 -0.3373166621
