# DDEC6 charges by PACMAN v1.1 (https://github.com/mtap-research/PACMAN-charge/)
data_CUGLIB_ASR_pacman
_symmetry_space_group_name_H-M   'P 1'
_cell_length_a   28.50300000
_cell_length_b   28.50300000
_cell_length_c   3.53830000
_cell_angle_alpha   90.00000000
_cell_angle_beta   90.00000000
_cell_angle_gamma   90.00000000
_symmetry_Int_Tables_number   1
_chemical_formula_structural   Ag6H16C12BrN12
_chemical_formula_sum   'Ag24 H64 C48 Br4 N48'
_cell_volume   2874.58925614
_cell_formula_units_Z   4
loop_
 _symmetry_equiv_pos_site_id
 _symmetry_equiv_pos_as_xyz
  1  'x, y, z'
loop_
 _atom_site_type_symbol
 _atom_site_label
 _atom_site_symmetry_multiplicity
 _atom_site_fract_x
 _atom_site_fract_y
 _atom_site_fract_z
 _atom_site_occupancy
 _atom_site_charge
Ag  Ag1  1  0.95704000  0.92354000  0.01041000  1.0 0.2750708598
Ag  Ag2  1  0.04296000  0.07646000  0.01041000  1.0 0.274901672
Ag  Ag3  1  0.92354000  0.04296000  0.98959000  1.0 0.274901672
Ag  Ag4  1  0.07646000  0.95704000  0.98959000  1.0 0.274901672
Ag  Ag5  1  0.54296000  0.92354000  0.73959000  1.0 0.274901672
Ag  Ag6  1  0.45704000  0.07646000  0.73959000  1.0 0.274901672
Ag  Ag7  1  0.57646000  0.04296000  0.76041000  1.0 0.274901672
Ag  Ag8  1  0.42354000  0.95704000  0.76041000  1.0 0.274901672
Ag  Ag9  1  0.45704000  0.42354000  0.51041000  1.0 0.274901672
Ag  Ag10  1  0.54296000  0.57646000  0.51041000  1.0 0.2750708598
Ag  Ag11  1  0.42354000  0.54296000  0.48959000  1.0 0.274901672
Ag  Ag12  1  0.57646000  0.45704000  0.48959000  1.0 0.274901672
Ag  Ag13  1  0.04296000  0.42354000  0.23959000  1.0 0.274901672
Ag  Ag14  1  0.95704000  0.57646000  0.23959000  1.0 0.2750708598
Ag  Ag15  1  0.07646000  0.54296000  0.26041000  1.0 0.274901672
Ag  Ag16  1  0.92354000  0.45704000  0.26041000  1.0 0.274901672
Ag  Ag17  1  0.75000000  0.92390000  0.37500000  1.0 0.285876895
Ag  Ag18  1  0.25000000  0.07610000  0.37500000  1.0 0.285876895
Ag  Ag19  1  0.92390000  0.25000000  0.62500000  1.0 0.285876895
Ag  Ag20  1  0.07610000  0.75000000  0.62500000  1.0 0.285876895
Ag  Ag21  1  0.57610000  0.25000000  0.12500000  1.0 0.285876895
Ag  Ag22  1  0.42390000  0.75000000  0.12500000  1.0 0.285876895
Ag  Ag23  1  0.25000000  0.42390000  0.87500000  1.0 0.285876895
Ag  Ag24  1  0.75000000  0.57610000  0.87500000  1.0 0.285876895
H  H1  1  0.88727000  0.85387000  0.75403000  1.0 0.1136426765
H  H2  1  0.11273000  0.14613000  0.75403000  1.0 0.1136426765
H  H3  1  0.85387000  0.11273000  0.24597000  1.0 0.1136426765
H  H4  1  0.14613000  0.88727000  0.24597000  1.0 0.1136426765
H  H5  1  0.61273000  0.85387000  0.99597000  1.0 0.1136426765
H  H6  1  0.38727000  0.14613000  0.99597000  1.0 0.1136426765
H  H7  1  0.64613000  0.11273000  0.50403000  1.0 0.1136426765
H  H8  1  0.35387000  0.88727000  0.50403000  1.0 0.1136426765
H  H9  1  0.38727000  0.35387000  0.25403000  1.0 0.1136426765
H  H10  1  0.61273000  0.64613000  0.25403000  1.0 0.1136426765
H  H11  1  0.35387000  0.61273000  0.74597000  1.0 0.1136426765
H  H12  1  0.64613000  0.38727000  0.74597000  1.0 0.1136426765
H  H13  1  0.11273000  0.35387000  0.49597000  1.0 0.1136426765
H  H14  1  0.88727000  0.64613000  0.49597000  1.0 0.1136426765
H  H15  1  0.14613000  0.61273000  0.00403000  1.0 0.1136426765
H  H16  1  0.85387000  0.38727000  0.00403000  1.0 0.1136426765
H  H17  1  0.85573000  0.86531000  0.32289000  1.0 0.1610181403
H  H18  1  0.14427000  0.13469000  0.32289000  1.0 0.1610181403
H  H19  1  0.86531000  0.14427000  0.67711000  1.0 0.1610181403
H  H20  1  0.13469000  0.85573000  0.67711000  1.0 0.1610181403
H  H21  1  0.64427000  0.86531000  0.42711000  1.0 0.1610181403
H  H22  1  0.35573000  0.13469000  0.42711000  1.0 0.1610181403
H  H23  1  0.63469000  0.14427000  0.07289000  1.0 0.1610181403
H  H24  1  0.36531000  0.85573000  0.07289000  1.0 0.1610181403
H  H25  1  0.35573000  0.36531000  0.82289000  1.0 0.1610181403
H  H26  1  0.64427000  0.63469000  0.82289000  1.0 0.1610181403
H  H27  1  0.36531000  0.64427000  0.17711000  1.0 0.1610181403
H  H28  1  0.63469000  0.35573000  0.17711000  1.0 0.1610181403
H  H29  1  0.14427000  0.36531000  0.92711000  1.0 0.1610181403
H  H30  1  0.85573000  0.63469000  0.92711000  1.0 0.1610181403
H  H31  1  0.13469000  0.64427000  0.57289000  1.0 0.1610181403
H  H32  1  0.86531000  0.35573000  0.57289000  1.0 0.1610181403
H  H33  1  0.82320000  0.85289000  0.74131000  1.0 0.1205968863
H  H34  1  0.17680000  0.14711000  0.74131000  1.0 0.1205968863
H  H35  1  0.85289000  0.17680000  0.25869000  1.0 0.1205968863
H  H36  1  0.14711000  0.82320000  0.25869000  1.0 0.1205968863
H  H37  1  0.67680000  0.85289000  0.00869000  1.0 0.1205968863
H  H38  1  0.32320000  0.14711000  0.00869000  1.0 0.1205968863
H  H39  1  0.64711000  0.17680000  0.49131000  1.0 0.1205968863
H  H40  1  0.35289000  0.82320000  0.49131000  1.0 0.1205968863
H  H41  1  0.32320000  0.35289000  0.24131000  1.0 0.1205968863
H  H42  1  0.67680000  0.64711000  0.24131000  1.0 0.1205968863
H  H43  1  0.35289000  0.67680000  0.75869000  1.0 0.1205968863
H  H44  1  0.64711000  0.32320000  0.75869000  1.0 0.1205968863
H  H45  1  0.17680000  0.35289000  0.50869000  1.0 0.1205968863
H  H46  1  0.82320000  0.64711000  0.50869000  1.0 0.1205968863
H  H47  1  0.14711000  0.67680000  0.99131000  1.0 0.1205968863
H  H48  1  0.85289000  0.32320000  0.99131000  1.0 0.1205968863
H  H49  1  0.81377000  0.02435000  0.66170000  1.0 0.0795460257
H  H50  1  0.18623000  0.97565000  0.66170000  1.0 0.0795460257
H  H51  1  0.02435000  0.18623000  0.33830000  1.0 0.0795460257
H  H52  1  0.97565000  0.81377000  0.33830000  1.0 0.0795460257
H  H53  1  0.68623000  0.02435000  0.08830000  1.0 0.0795460257
H  H54  1  0.31377000  0.97565000  0.08830000  1.0 0.0795460257
H  H55  1  0.47565000  0.18623000  0.41170000  1.0 0.0795460257
H  H56  1  0.52435000  0.81377000  0.41170000  1.0 0.0795460257
H  H57  1  0.31377000  0.52435000  0.16170000  1.0 0.0795460257
H  H58  1  0.68623000  0.47565000  0.16170000  1.0 0.0795460257
H  H59  1  0.52435000  0.68623000  0.83830000  1.0 0.0795460257
H  H60  1  0.47565000  0.31377000  0.83830000  1.0 0.0795460257
H  H61  1  0.18623000  0.52435000  0.58830000  1.0 0.0795460257
H  H62  1  0.81377000  0.47565000  0.58830000  1.0 0.0795460257
H  H63  1  0.97565000  0.68623000  0.91170000  1.0 0.0795460257
H  H64  1  0.02435000  0.31377000  0.91170000  1.0 0.0795460257
C  C1  1  0.85475000  0.91927000  0.70643000  1.0 0.3423486787
C  C2  1  0.14525000  0.08073000  0.70643000  1.0 0.3423486787
C  C3  1  0.91927000  0.14525000  0.29357000  1.0 0.3423486787
C  C4  1  0.08073000  0.85475000  0.29357000  1.0 0.3423486787
C  C5  1  0.64525000  0.91927000  0.04357000  1.0 0.3423486787
C  C6  1  0.35475000  0.08073000  0.04357000  1.0 0.3423486787
C  C7  1  0.58073000  0.14525000  0.45643000  1.0 0.3423486787
C  C8  1  0.41927000  0.85475000  0.45643000  1.0 0.3423486787
C  C9  1  0.35475000  0.41927000  0.20643000  1.0 0.3423486787
C  C10  1  0.64525000  0.58073000  0.20643000  1.0 0.3423486787
C  C11  1  0.41927000  0.64525000  0.79357000  1.0 0.3423486787
C  C12  1  0.58073000  0.35475000  0.79357000  1.0 0.3423486787
C  C13  1  0.14525000  0.41927000  0.54357000  1.0 0.3423486787
C  C14  1  0.85475000  0.58073000  0.54357000  1.0 0.3423486787
C  C15  1  0.08073000  0.64525000  0.95643000  1.0 0.3423486787
C  C16  1  0.91927000  0.35475000  0.95643000  1.0 0.3423486787
C  C17  1  0.85546000  0.86904000  0.61652000  1.0 -0.4653546971
C  C18  1  0.14454000  0.13096000  0.61652000  1.0 -0.4653546971
C  C19  1  0.86904000  0.14454000  0.38348000  1.0 -0.4653546971
C  C20  1  0.13096000  0.85546000  0.38348000  1.0 -0.4653546971
C  C21  1  0.64454000  0.86904000  0.13348000  1.0 -0.4653546971
C  C22  1  0.35546000  0.13096000  0.13348000  1.0 -0.4607668441
C  C23  1  0.63096000  0.14454000  0.36652000  1.0 -0.4653546971
C  C24  1  0.36904000  0.85546000  0.36652000  1.0 -0.4653546971
C  C25  1  0.35546000  0.36904000  0.11652000  1.0 -0.4653546971
C  C26  1  0.64454000  0.63096000  0.11652000  1.0 -0.4653546971
C  C27  1  0.36904000  0.64454000  0.88348000  1.0 -0.4653546971
C  C28  1  0.63096000  0.35546000  0.88348000  1.0 -0.4653546971
C  C29  1  0.14454000  0.36904000  0.63348000  1.0 -0.4653546971
C  C30  1  0.85546000  0.63096000  0.63348000  1.0 -0.4653546971
C  C31  1  0.13096000  0.64454000  0.86652000  1.0 -0.4653546971
C  C32  1  0.86904000  0.35546000  0.86652000  1.0 -0.4653546971
C  C33  1  0.83450000  0.99213000  0.70239000  1.0 0.1205968863
C  C34  1  0.16550000  0.00787000  0.70239000  1.0 0.1205968863
C  C35  1  0.99213000  0.16550000  0.29761000  1.0 0.1205968863
C  C36  1  0.00787000  0.83450000  0.29761000  1.0 0.1205968863
C  C37  1  0.66550000  0.99213000  0.04761000  1.0 0.1205968863
C  C38  1  0.33450000  0.00787000  0.04761000  1.0 0.1205968863
C  C39  1  0.50787000  0.16550000  0.45239000  1.0 0.1205968863
C  C40  1  0.49213000  0.83450000  0.45239000  1.0 0.1205968863
C  C41  1  0.33450000  0.49213000  0.20239000  1.0 0.1205968863
C  C42  1  0.66550000  0.50787000  0.20239000  1.0 0.1205968863
C  C43  1  0.49213000  0.66550000  0.79761000  1.0 0.1205968863
C  C44  1  0.50787000  0.33450000  0.79761000  1.0 0.1205968863
C  C45  1  0.16550000  0.49213000  0.54761000  1.0 0.1205968863
C  C46  1  0.83450000  0.50787000  0.54761000  1.0 0.1205968863
C  C47  1  0.00787000  0.66550000  0.95239000  1.0 0.1205968863
C  C48  1  0.99213000  0.33450000  0.95239000  1.0 0.1205968863
Br  Br1  1  0.00000000  0.00000000  0.50000000  1.0 -0.4607668441
Br  Br2  1  0.50000000  0.00000000  0.25000000  1.0 -0.4607668441
Br  Br3  1  0.50000000  0.50000000  0.00000000  1.0 -0.4607668441
Br  Br4  1  0.00000000  0.50000000  0.75000000  1.0 -0.4607668441
N  N1  1  0.89065000  0.94336000  0.84671000  1.0 -0.231314746
N  N2  1  0.10935000  0.05664000  0.84671000  1.0 -0.231314746
N  N3  1  0.94336000  0.10935000  0.15329000  1.0 -0.231314746
N  N4  1  0.05664000  0.89065000  0.15329000  1.0 -0.231314746
N  N5  1  0.60935000  0.94336000  0.90329000  1.0 -0.231314746
N  N6  1  0.39065000  0.05664000  0.90329000  1.0 -0.231314746
N  N7  1  0.55664000  0.10935000  0.59671000  1.0 -0.231314746
N  N8  1  0.44336000  0.89065000  0.59671000  1.0 -0.231314746
N  N9  1  0.39065000  0.44336000  0.34671000  1.0 -0.231314746
N  N10  1  0.60935000  0.55664000  0.34671000  1.0 -0.231314746
N  N11  1  0.44336000  0.60935000  0.65329000  1.0 -0.231314746
N  N12  1  0.55664000  0.39065000  0.65329000  1.0 -0.231314746
N  N13  1  0.10935000  0.44336000  0.40329000  1.0 -0.231314746
N  N14  1  0.89065000  0.55664000  0.40329000  1.0 -0.231314746
N  N15  1  0.05664000  0.60935000  0.09671000  1.0 -0.231314746
N  N16  1  0.94336000  0.39065000  0.09671000  1.0 -0.231314746
N  N17  1  0.87737000  0.99112000  0.84181000  1.0 -0.1870232832
N  N18  1  0.12263000  0.00888000  0.84181000  1.0 -0.1870232832
N  N19  1  0.99112000  0.12263000  0.15819000  1.0 -0.1870232832
N  N20  1  0.00888000  0.87737000  0.15819000  1.0 -0.1870232832
N  N21  1  0.62263000  0.99112000  0.90819000  1.0 -0.1870232832
N  N22  1  0.37737000  0.00888000  0.90819000  1.0 -0.1870232832
N  N23  1  0.50888000  0.12263000  0.59181000  1.0 -0.1870232832
N  N24  1  0.49112000  0.87737000  0.59181000  1.0 -0.1870232832
N  N25  1  0.37737000  0.49112000  0.34181000  1.0 -0.1870232832
N  N26  1  0.62263000  0.50888000  0.34181000  1.0 -0.1870232832
N  N27  1  0.49112000  0.62263000  0.65819000  1.0 -0.1870232832
N  N28  1  0.50888000  0.37737000  0.65819000  1.0 -0.1870232832
N  N29  1  0.12263000  0.49112000  0.40819000  1.0 -0.1870232832
N  N30  1  0.87737000  0.50888000  0.40819000  1.0 -0.1870232832
N  N31  1  0.00888000  0.62263000  0.09181000  1.0 -0.1870232832
N  N32  1  0.99112000  0.37737000  0.09181000  1.0 -0.1870232832
N  N33  1  0.81889000  0.94881000  0.60529000  1.0 -0.3570234396
N  N34  1  0.18111000  0.05119000  0.60529000  1.0 -0.3570234396
N  N35  1  0.94881000  0.18111000  0.39471000  1.0 -0.3570234396
N  N36  1  0.05119000  0.81889000  0.39471000  1.0 -0.3570234396
N  N37  1  0.68111000  0.94881000  0.14471000  1.0 -0.3570234396
N  N38  1  0.31889000  0.05119000  0.14471000  1.0 -0.3570234396
N  N39  1  0.55119000  0.18111000  0.35529000  1.0 -0.3570234396
N  N40  1  0.44881000  0.81889000  0.35529000  1.0 -0.3570234396
N  N41  1  0.31889000  0.44881000  0.10529000  1.0 -0.3570234396
N  N42  1  0.68111000  0.55119000  0.10529000  1.0 -0.3570234396
N  N43  1  0.44881000  0.68111000  0.89471000  1.0 -0.3570234396
N  N44  1  0.55119000  0.31889000  0.89471000  1.0 -0.3570234396
N  N45  1  0.18111000  0.44881000  0.64471000  1.0 -0.3570234396
N  N46  1  0.81889000  0.55119000  0.64471000  1.0 -0.3570234396
N  N47  1  0.05119000  0.68111000  0.85529000  1.0 -0.3570234396
N  N48  1  0.94881000  0.31889000  0.85529000  1.0 -0.3570234396
