# DDEC6 charges by PACMAN v1.1 (https://github.com/mtap-research/PACMAN-charge/)
data_CUGQEC_ASR_pacman
_symmetry_space_group_name_H-M   'P 1'
_cell_length_a   10.87670000
_cell_length_b   12.69800000
_cell_length_c   14.61300000
_cell_angle_alpha   99.49080000
_cell_angle_beta   110.32400000
_cell_angle_gamma   114.57900000
_symmetry_Int_Tables_number   1
_chemical_formula_structural   CrCu4Mo6H24C36(N2O5)4
_chemical_formula_sum   'Cr1 Cu4 Mo6 H24 C36 N8 O20'
_cell_volume   1603.85474315
_cell_formula_units_Z   1
loop_
 _symmetry_equiv_pos_site_id
 _symmetry_equiv_pos_as_xyz
  1  'x, y, z'
loop_
 _atom_site_type_symbol
 _atom_site_label
 _atom_site_symmetry_multiplicity
 _atom_site_fract_x
 _atom_site_fract_y
 _atom_site_fract_z
 _atom_site_occupancy
 _atom_site_charge
Cr  Cr1  1  0.00000000  0.50000000  0.00000000  1.0 1.7309929224
Cu  Cu1  1  0.74979000  0.80665000  0.25133000  1.0 0.6112091037
Cu  Cu2  1  0.25021000  0.19335000  0.74867000  1.0 0.6112091037
Cu  Cu3  1  0.89920000  0.00320000  0.50600000  1.0 0.492054412
Cu  Cu4  1  0.10080000  0.99680000  0.49400000  1.0 0.492054412
Mo  Mo1  1  0.33429000  0.76214000  0.15377000  1.0 2.1592561098
Mo  Mo2  1  0.66571000  0.23786000  0.84623000  1.0 2.1592561098
Mo  Mo3  1  0.06758000  0.66510000  0.23395000  1.0 1.5098492595
Mo  Mo4  1  0.93242000  0.33490000  0.76605000  1.0 1.5098492595
Mo  Mo5  1  0.26143000  0.60158000  0.91724000  1.0 1.4431431385
Mo  Mo6  1  0.73857000  0.39842000  0.08276000  1.0 1.4341107699
H  H1  1  0.06740000  0.15990000  0.93740000  1.0 0.1399776729
H  H2  1  0.93260000  0.84010000  0.06260000  1.0 0.1399776729
H  H3  1  0.63980000  0.01150000  0.00380000  1.0 0.1513926553
H  H4  1  0.36020000  0.98850000  0.99620000  1.0 0.1513926553
H  H5  1  0.32490000  0.52900000  0.37610000  1.0 0.1399776729
H  H6  1  0.67510000  0.47100000  0.62390000  1.0 0.1399776729
H  H7  1  0.83490000  0.97960000  0.83790000  1.0 0.1311982813
H  H8  1  0.16510000  0.02040000  0.16210000  1.0 0.1311982813
H  H9  1  0.86570000  0.19730000  0.09250000  1.0 0.1577657851
H  H10  1  0.13430000  0.80270000  0.90750000  1.0 0.1577657851
H  H11  1  0.60130000  0.85830000  0.07270000  1.0 0.1095164138
H  H12  1  0.39870000  0.14170000  0.92730000  1.0 0.1095164138
H  H13  1  0.56570000  0.69460000  0.49330000  1.0 0.1311982813
H  H14  1  0.43430000  0.30540000  0.50670000  1.0 0.1311982813
H  H15  1  0.86330000  0.69540000  0.40530000  1.0 0.1177725586
H  H16  1  0.13670000  0.30460000  0.59470000  1.0 0.1177725586
H  H17  1  0.53750000  0.34340000  0.31070000  1.0 0.1311982813
H  H18  1  0.46250000  0.65660000  0.68930000  1.0 0.1311982813
H  H19  1  0.48200000  0.56230000  0.15260000  1.0 0.1311982813
H  H20  1  0.51800000  0.43770000  0.84740000  1.0 0.1311982813
H  H21  1  0.77510000  0.51600000  0.43530000  1.0 0.1513926553
H  H22  1  0.22490000  0.48400000  0.56470000  1.0 0.1513926553
H  H23  1  0.99090000  0.07670000  0.32350000  1.0 0.1095164138
H  H24  1  0.00910000  0.92330000  0.67650000  1.0 0.1095164138
C  C1  1  0.04030000  0.09570000  0.96280000  1.0 -0.1605591236
C  C2  1  0.95970000  0.90430000  0.03720000  1.0 -0.1605591236
C  C3  1  0.71430000  0.02560000  0.06810000  1.0 -0.1245473978
C  C4  1  0.28570000  0.97440000  0.93190000  1.0 -0.1245473978
C  C5  1  0.39490000  0.51700000  0.42480000  1.0 -0.1695540455
C  C6  1  0.60510000  0.48300000  0.57520000  1.0 -0.1695540455
C  C7  1  0.90120000  0.98750000  0.90290000  1.0 -0.1695540455
C  C8  1  0.09880000  0.01250000  0.09710000  1.0 -0.1695540455
C  C9  1  0.35770000  0.39920000  0.42730000  1.0 0.2245811465
C  C10  1  0.64230000  0.60080000  0.57270000  1.0 0.2245811465
C  C11  1  0.32510000  0.33790000  0.13890000  1.0 0.4606436806
C  C12  1  0.67490000  0.66210000  0.86110000  1.0 0.4606436806
C  C13  1  0.84690000  0.13520000  0.12070000  1.0 -0.0283429978
C  C14  1  0.15310000  0.86480000  0.87930000  1.0 -0.0283429978
C  C15  1  0.69100000  0.93500000  0.11090000  1.0 0.077657854
C  C16  1  0.30900000  0.06500000  0.88910000  1.0 0.077657854
C  C17  1  0.53810000  0.61590000  0.49630000  1.0 -0.1695540455
C  C18  1  0.46190000  0.38410000  0.50370000  1.0 -0.1695540455
C  C19  1  0.14080000  0.11020000  0.06100000  1.0 0.2303558531
C  C20  1  0.85920000  0.88980000  0.93900000  1.0 0.2303558531
C  C21  1  0.09930000  0.27830000  0.27520000  1.0 0.4606436806
C  C22  1  0.90070000  0.72170000  0.72480000  1.0 0.4606436806
C  C23  1  0.47960000  0.43500000  0.21860000  1.0 -0.0555231443
C  C24  1  0.52040000  0.56500000  0.78140000  1.0 -0.0555231443
C  C25  1  0.76450000  0.63050000  0.35920000  1.0 0.0928161385
C  C26  1  0.23550000  0.36950000  0.64080000  1.0 0.0928161385
C  C27  1  0.57090000  0.42000000  0.30280000  1.0 -0.0283429978
C  C28  1  0.42910000  0.58000000  0.69720000  1.0 -0.0283429978
C  C29  1  0.95520000  0.15500000  0.21700000  1.0 -0.0373026302
C  C30  1  0.04480000  0.84500000  0.78300000  1.0 -0.0373026302
C  C31  1  0.54030000  0.55120000  0.20980000  1.0 0.077657854
C  C32  1  0.45970000  0.44880000  0.79020000  1.0 0.077657854
C  C33  1  0.71470000  0.52250000  0.37590000  1.0 -0.1418416557
C  C34  1  0.28530000  0.47750000  0.62410000  1.0 -0.1418416557
C  C35  1  0.92090000  0.06220000  0.25720000  1.0 0.0749781149
C  C36  1  0.07910000  0.93780000  0.74280000  1.0 0.0749781149
N  N1  1  0.68000000  0.64870000  0.28050000  1.0 -0.2115163488
N  N2  1  0.32000000  0.35130000  0.71950000  1.0 -0.2115163488
N  N3  1  0.79120000  0.95170000  0.20510000  1.0 -0.2115163488
N  N4  1  0.20880000  0.04830000  0.79490000  1.0 -0.2115163488
N  N5  1  0.28610000  0.21720000  0.12700000  1.0 -0.5017993656
N  N6  1  0.71390000  0.78280000  0.87300000  1.0 -0.5017993656
N  N7  1  0.21360000  0.28950000  0.35920000  1.0 -0.5017993656
N  N8  1  0.78640000  0.71050000  0.64080000  1.0 -0.5017993656
O  O1  1  0.88950000  0.91050000  0.39590000  1.0 -0.8391135541
O  O2  1  0.11050000  0.08950000  0.60410000  1.0 -0.8391135541
O  O3  1  0.11030000  0.36460000  0.24570000  1.0 -0.4090561775
O  O4  1  0.88970000  0.63540000  0.75430000  1.0 -0.4090561775
O  O5  1  0.50940000  0.77560000  0.20540000  1.0 -0.7411232499
O  O6  1  0.49060000  0.22440000  0.79460000  1.0 -0.7411232499
O  O7  1  0.23370000  0.36270000  0.08270000  1.0 -0.3888896612
O  O8  1  0.76630000  0.63730000  0.91730000  1.0 -0.3888896612
O  O9  1  0.26490000  0.69820000  0.24470000  1.0 -0.8391135541
O  O10  1  0.73510000  0.30180000  0.75530000  1.0 -0.8391135541
O  O11  1  0.06920000  0.67270000  0.07630000  1.0 -1.0263201503
O  O12  1  0.93080000  0.32730000  0.92370000  1.0 -1.0263201503
O  O13  1  0.84880000  0.57680000  0.14610000  1.0 -0.8235245554
O  O14  1  0.15120000  0.42320000  0.85390000  1.0 -0.8235245554
O  O15  1  0.01100000  0.53050000  0.87560000  1.0 -0.9563704935
O  O16  1  0.98900000  0.46950000  0.12440000  1.0 -0.9563704935
O  O17  1  0.29790000  0.74680000  0.01260000  1.0 -0.8558096794
O  O18  1  0.70210000  0.25320000  0.98740000  1.0 -0.8538063673
O  O19  1  0.21760000  0.55700000  0.05280000  1.0 -0.9878586439
O  O20  1  0.78240000  0.44300000  0.94720000  1.0 -0.9878586439
