# DDEC6 charges by PACMAN v1.1 (https://github.com/mtap-research/PACMAN-charge/)
data_CUGYOU_ASR_pacman
_symmetry_space_group_name_H-M   'P 1'
_cell_length_a   3.49130000
_cell_length_b   29.63370000
_cell_length_c   29.63370000
_cell_angle_alpha   90.00000000
_cell_angle_beta   90.00000000
_cell_angle_gamma   90.00000000
_symmetry_Int_Tables_number   1
_chemical_formula_structural   Ag6H24C8BrN20
_chemical_formula_sum   'Ag24 H96 C32 Br4 N80'
_cell_volume   3065.90665619
_cell_formula_units_Z   4
loop_
 _symmetry_equiv_pos_site_id
 _symmetry_equiv_pos_as_xyz
  1  'x, y, z'
loop_
 _atom_site_type_symbol
 _atom_site_label
 _atom_site_symmetry_multiplicity
 _atom_site_fract_x
 _atom_site_fract_y
 _atom_site_fract_z
 _atom_site_occupancy
 _atom_site_charge
Ag  Ag1  1  0.12500000  0.43868000  0.31132000  1.0 0.3674228121
Ag  Ag2  1  0.62500000  0.06132000  0.68868000  1.0 0.3674228121
Ag  Ag3  1  0.37500000  0.93868000  0.18868000  1.0 0.3674228121
Ag  Ag4  1  0.87500000  0.56132000  0.81132000  1.0 0.3674228121
Ag  Ag5  1  0.37500000  0.06132000  0.31132000  1.0 0.3674228121
Ag  Ag6  1  0.87500000  0.43868000  0.68868000  1.0 0.3674228121
Ag  Ag7  1  0.12500000  0.56132000  0.18868000  1.0 0.3674228121
Ag  Ag8  1  0.62500000  0.93868000  0.81132000  1.0 0.3674228121
Ag  Ag9  1  0.87500000  0.56132000  0.68868000  1.0 0.3674228121
Ag  Ag10  1  0.37500000  0.93868000  0.31132000  1.0 0.3674228121
Ag  Ag11  1  0.62500000  0.06132000  0.81132000  1.0 0.3674228121
Ag  Ag12  1  0.12500000  0.43868000  0.18868000  1.0 0.3674228121
Ag  Ag13  1  0.62500000  0.93868000  0.68868000  1.0 0.3674228121
Ag  Ag14  1  0.12500000  0.56132000  0.31132000  1.0 0.3674228121
Ag  Ag15  1  0.87500000  0.43868000  0.81132000  1.0 0.3674228121
Ag  Ag16  1  0.37500000  0.06132000  0.18868000  1.0 0.3674228121
Ag  Ag17  1  0.75000000  0.25000000  0.25000000  1.0 0.3506540641
Ag  Ag18  1  0.25000000  0.25000000  0.75000000  1.0 0.3506540641
Ag  Ag19  1  0.00000000  0.00000000  0.00000000  1.0 0.3506540641
Ag  Ag20  1  0.50000000  0.50000000  0.00000000  1.0 0.3506540641
Ag  Ag21  1  0.25000000  0.75000000  0.75000000  1.0 0.3506540641
Ag  Ag22  1  0.75000000  0.75000000  0.25000000  1.0 0.3506540641
Ag  Ag23  1  0.50000000  0.50000000  0.50000000  1.0 0.3506540641
Ag  Ag24  1  0.00000000  0.00000000  0.50000000  1.0 0.3506540641
H  H1  1  0.40200000  0.34810000  0.35130000  1.0 0.1671859889
H  H2  1  0.90200000  0.15190000  0.64870000  1.0 0.1671859889
H  H3  1  0.65200000  0.89870000  0.09810000  1.0 0.1671859889
H  H4  1  0.15200000  0.60130000  0.90190000  1.0 0.1671859889
H  H5  1  0.09800000  0.15190000  0.35130000  1.0 0.1671859889
H  H6  1  0.59800000  0.34810000  0.64870000  1.0 0.1671859889
H  H7  1  0.84800000  0.60130000  0.09810000  1.0 0.1671859889
H  H8  1  0.34800000  0.89870000  0.90190000  1.0 0.1671859889
H  H9  1  0.90200000  0.84810000  0.85130000  1.0 0.1671859889
H  H10  1  0.40200000  0.65190000  0.14870000  1.0 0.1671859889
H  H11  1  0.15200000  0.39870000  0.59810000  1.0 0.1671859889
H  H12  1  0.65200000  0.10130000  0.40190000  1.0 0.1671859889
H  H13  1  0.59800000  0.65190000  0.85130000  1.0 0.1671859889
H  H14  1  0.09800000  0.84810000  0.14870000  1.0 0.1671859889
H  H15  1  0.34800000  0.10130000  0.59810000  1.0 0.1671859889
H  H16  1  0.84800000  0.39870000  0.40190000  1.0 0.1671859889
H  H17  1  0.59800000  0.65190000  0.64870000  1.0 0.1671859889
H  H18  1  0.09800000  0.84810000  0.35130000  1.0 0.1671859889
H  H19  1  0.34800000  0.10130000  0.90190000  1.0 0.1671859889
H  H20  1  0.84800000  0.39870000  0.09810000  1.0 0.1671859889
H  H21  1  0.90200000  0.84810000  0.64870000  1.0 0.1671859889
H  H22  1  0.40200000  0.65190000  0.35130000  1.0 0.1671859889
H  H23  1  0.15200000  0.39870000  0.90190000  1.0 0.1671859889
H  H24  1  0.65200000  0.10130000  0.09810000  1.0 0.1671859889
H  H25  1  0.09800000  0.15190000  0.14870000  1.0 0.1671859889
H  H26  1  0.59800000  0.34810000  0.85130000  1.0 0.1671859889
H  H27  1  0.84800000  0.60130000  0.40190000  1.0 0.1671859889
H  H28  1  0.34800000  0.89870000  0.59810000  1.0 0.1671859889
H  H29  1  0.40200000  0.34810000  0.14870000  1.0 0.1671859889
H  H30  1  0.90200000  0.15190000  0.85130000  1.0 0.1671859889
H  H31  1  0.65200000  0.89870000  0.40190000  1.0 0.1671859889
H  H32  1  0.15200000  0.60130000  0.59810000  1.0 0.1671859889
H  H33  1  0.55300000  0.30310000  0.33780000  1.0 0.1642128028
H  H34  1  0.05300000  0.19690000  0.66220000  1.0 0.1671859889
H  H35  1  0.80300000  0.91220000  0.05310000  1.0 0.1671859889
H  H36  1  0.30300000  0.58780000  0.94690000  1.0 0.1671859889
H  H37  1  0.94700000  0.19690000  0.33780000  1.0 0.1642128028
H  H38  1  0.44700000  0.30310000  0.66220000  1.0 0.1671859889
H  H39  1  0.69700000  0.58780000  0.05310000  1.0 0.1671859889
H  H40  1  0.19700000  0.91220000  0.94690000  1.0 0.1671859889
H  H41  1  0.05300000  0.80310000  0.83780000  1.0 0.1671859889
H  H42  1  0.55300000  0.69690000  0.16220000  1.0 0.1671859889
H  H43  1  0.30300000  0.41220000  0.55310000  1.0 0.1642128028
H  H44  1  0.80300000  0.08780000  0.44690000  1.0 0.1671859889
H  H45  1  0.44700000  0.69690000  0.83780000  1.0 0.1671859889
H  H46  1  0.94700000  0.80310000  0.16220000  1.0 0.1671859889
H  H47  1  0.19700000  0.08780000  0.55310000  1.0 0.1671859889
H  H48  1  0.69700000  0.41220000  0.44690000  1.0 0.1671859889
H  H49  1  0.44700000  0.69690000  0.66220000  1.0 0.1671859889
H  H50  1  0.94700000  0.80310000  0.33780000  1.0 0.1642128028
H  H51  1  0.19700000  0.08780000  0.94690000  1.0 0.1671859889
H  H52  1  0.69700000  0.41220000  0.05310000  1.0 0.1671859889
H  H53  1  0.05300000  0.80310000  0.66220000  1.0 0.1671859889
H  H54  1  0.55300000  0.69690000  0.33780000  1.0 0.1671859889
H  H55  1  0.30300000  0.41220000  0.94690000  1.0 0.1642128028
H  H56  1  0.80300000  0.08780000  0.05310000  1.0 0.1671859889
H  H57  1  0.94700000  0.19690000  0.16220000  1.0 0.1671859889
H  H58  1  0.44700000  0.30310000  0.83780000  1.0 0.1671859889
H  H59  1  0.69700000  0.58780000  0.44690000  1.0 0.1671859889
H  H60  1  0.19700000  0.91220000  0.55310000  1.0 0.1671859889
H  H61  1  0.55300000  0.30310000  0.16220000  1.0 0.1671859889
H  H62  1  0.05300000  0.19690000  0.83780000  1.0 0.1671859889
H  H63  1  0.80300000  0.91220000  0.44690000  1.0 0.1671859889
H  H64  1  0.30300000  0.58780000  0.55310000  1.0 0.1671859889
H  H65  1  0.46790000  0.33260000  0.31500000  1.0 0.0767529327
H  H66  1  0.96790000  0.16740000  0.68500000  1.0 0.0767529327
H  H67  1  0.71790000  0.93500000  0.08260000  1.0 0.0767529327
H  H68  1  0.21790000  0.56500000  0.91740000  1.0 0.0767529327
H  H69  1  0.03210000  0.16740000  0.31500000  1.0 0.0767529327
H  H70  1  0.53210000  0.33260000  0.68500000  1.0 0.0767529327
H  H71  1  0.78210000  0.56500000  0.08260000  1.0 0.0767529327
H  H72  1  0.28210000  0.93500000  0.91740000  1.0 0.0767529327
H  H73  1  0.96790000  0.83260000  0.81500000  1.0 0.0767529327
H  H74  1  0.46790000  0.66740000  0.18500000  1.0 0.0767529327
H  H75  1  0.21790000  0.43500000  0.58260000  1.0 0.0767529327
H  H76  1  0.71790000  0.06500000  0.41740000  1.0 0.0767529327
H  H77  1  0.53210000  0.66740000  0.81500000  1.0 0.0767529327
H  H78  1  0.03210000  0.83260000  0.18500000  1.0 0.0767529327
H  H79  1  0.28210000  0.06500000  0.58260000  1.0 0.0767529327
H  H80  1  0.78210000  0.43500000  0.41740000  1.0 0.0767529327
H  H81  1  0.53210000  0.66740000  0.68500000  1.0 0.0767529327
H  H82  1  0.03210000  0.83260000  0.31500000  1.0 0.0767529327
H  H83  1  0.28210000  0.06500000  0.91740000  1.0 0.0767529327
H  H84  1  0.78210000  0.43500000  0.08260000  1.0 0.0767529327
H  H85  1  0.96790000  0.83260000  0.68500000  1.0 0.0767529327
H  H86  1  0.46790000  0.66740000  0.31500000  1.0 0.0767529327
H  H87  1  0.21790000  0.43500000  0.91740000  1.0 0.0767529327
H  H88  1  0.71790000  0.06500000  0.08260000  1.0 0.0767529327
H  H89  1  0.03210000  0.16740000  0.18500000  1.0 0.0767529327
H  H90  1  0.53210000  0.33260000  0.81500000  1.0 0.0767529327
H  H91  1  0.78210000  0.56500000  0.41740000  1.0 0.0767529327
H  H92  1  0.28210000  0.93500000  0.58260000  1.0 0.0767529327
H  H93  1  0.46790000  0.33260000  0.18500000  1.0 0.0767529327
H  H94  1  0.96790000  0.16740000  0.81500000  1.0 0.0767529327
H  H95  1  0.71790000  0.93500000  0.41740000  1.0 0.0767529327
H  H96  1  0.21790000  0.56500000  0.58260000  1.0 0.0767529327
C  C1  1  0.44050000  0.34173000  0.28520000  1.0 0.2482685013
C  C2  1  0.94050000  0.15827000  0.71480000  1.0 0.2482685013
C  C3  1  0.69050000  0.96480000  0.09173000  1.0 0.2482685013
C  C4  1  0.19050000  0.53520000  0.90827000  1.0 0.2482685013
C  C5  1  0.05950000  0.15827000  0.28520000  1.0 0.2482685013
C  C6  1  0.55950000  0.34173000  0.71480000  1.0 0.2482685013
C  C7  1  0.80950000  0.53520000  0.09173000  1.0 0.2482685013
C  C8  1  0.30950000  0.96480000  0.90827000  1.0 0.2482685013
C  C9  1  0.94050000  0.84173000  0.78520000  1.0 0.2482685013
C  C10  1  0.44050000  0.65827000  0.21480000  1.0 0.2482685013
C  C11  1  0.19050000  0.46480000  0.59173000  1.0 0.2482685013
C  C12  1  0.69050000  0.03520000  0.40827000  1.0 0.2482685013
C  C13  1  0.55950000  0.65827000  0.78520000  1.0 0.2482685013
C  C14  1  0.05950000  0.84173000  0.21480000  1.0 0.2482685013
C  C15  1  0.30950000  0.03520000  0.59173000  1.0 0.2482685013
C  C16  1  0.80950000  0.46480000  0.40827000  1.0 0.2482685013
C  C17  1  0.55950000  0.65827000  0.71480000  1.0 0.2482685013
C  C18  1  0.05950000  0.84173000  0.28520000  1.0 0.2482685013
C  C19  1  0.30950000  0.03520000  0.90827000  1.0 0.2482685013
C  C20  1  0.80950000  0.46480000  0.09173000  1.0 0.2482685013
C  C21  1  0.94050000  0.84173000  0.71480000  1.0 0.2482685013
C  C22  1  0.44050000  0.65827000  0.28520000  1.0 0.2482685013
C  C23  1  0.19050000  0.46480000  0.90827000  1.0 0.2482685013
C  C24  1  0.69050000  0.03520000  0.09173000  1.0 0.2482685013
C  C25  1  0.05950000  0.15827000  0.21480000  1.0 0.2482685013
C  C26  1  0.55950000  0.34173000  0.78520000  1.0 0.2482685013
C  C27  1  0.80950000  0.53520000  0.40827000  1.0 0.2482685013
C  C28  1  0.30950000  0.96480000  0.59173000  1.0 0.2482685013
C  C29  1  0.44050000  0.34173000  0.21480000  1.0 0.2482685013
C  C30  1  0.94050000  0.15827000  0.78520000  1.0 0.2482685013
C  C31  1  0.69050000  0.96480000  0.40827000  1.0 0.2482685013
C  C32  1  0.19050000  0.53520000  0.59173000  1.0 0.2482685013
Br  Br1  1  0.62500000  0.50000000  0.25000000  1.0 -0.4542705766
Br  Br2  1  0.12500000  0.00000000  0.75000000  1.0 -0.4558569543
Br  Br3  1  0.87500000  0.00000000  0.25000000  1.0 -0.4558569543
Br  Br4  1  0.37500000  0.50000000  0.75000000  1.0 -0.4542705766
N  N1  1  0.31190000  0.38199000  0.27318000  1.0 -0.1953808922
N  N2  1  0.81190000  0.11801000  0.72682000  1.0 -0.1953808922
N  N3  1  0.56190000  0.97682000  0.13199000  1.0 -0.1953808922
N  N4  1  0.06190000  0.52318000  0.86801000  1.0 -0.1953808922
N  N5  1  0.18810000  0.11801000  0.27318000  1.0 -0.1953808922
N  N6  1  0.68810000  0.38199000  0.72682000  1.0 -0.1953808922
N  N7  1  0.93810000  0.52318000  0.13199000  1.0 -0.1953808922
N  N8  1  0.43810000  0.97682000  0.86801000  1.0 -0.1953808922
N  N9  1  0.81190000  0.88199000  0.77318000  1.0 -0.1953808922
N  N10  1  0.31190000  0.61801000  0.22682000  1.0 -0.1953808922
N  N11  1  0.06190000  0.47682000  0.63199000  1.0 -0.1953808922
N  N12  1  0.56190000  0.02318000  0.36801000  1.0 -0.1953808922
N  N13  1  0.68810000  0.61801000  0.77318000  1.0 -0.1953808922
N  N14  1  0.18810000  0.88199000  0.22682000  1.0 -0.1953808922
N  N15  1  0.43810000  0.02318000  0.63199000  1.0 -0.1953808922
N  N16  1  0.93810000  0.47682000  0.36801000  1.0 -0.1953808922
N  N17  1  0.68810000  0.61801000  0.72682000  1.0 -0.1953808922
N  N18  1  0.18810000  0.88199000  0.27318000  1.0 -0.1953808922
N  N19  1  0.43810000  0.02318000  0.86801000  1.0 -0.1953808922
N  N20  1  0.93810000  0.47682000  0.13199000  1.0 -0.1953808922
N  N21  1  0.81190000  0.88199000  0.72682000  1.0 -0.1953808922
N  N22  1  0.31190000  0.61801000  0.27318000  1.0 -0.1953808922
N  N23  1  0.06190000  0.47682000  0.86801000  1.0 -0.1953808922
N  N24  1  0.56190000  0.02318000  0.13199000  1.0 -0.1953808922
N  N25  1  0.18810000  0.11801000  0.22682000  1.0 -0.1953808922
N  N26  1  0.68810000  0.38199000  0.77318000  1.0 -0.1953808922
N  N27  1  0.93810000  0.52318000  0.36801000  1.0 -0.1953808922
N  N28  1  0.43810000  0.97682000  0.63199000  1.0 -0.1953808922
N  N29  1  0.31190000  0.38199000  0.22682000  1.0 -0.1953808922
N  N30  1  0.81190000  0.11801000  0.77318000  1.0 -0.1953808922
N  N31  1  0.56190000  0.97682000  0.36801000  1.0 -0.1953808922
N  N32  1  0.06190000  0.52318000  0.63199000  1.0 -0.1953808922
N  N33  1  0.52620000  0.31578000  0.25000000  1.0 -0.3520519301
N  N34  1  0.02620000  0.18422000  0.75000000  1.0 -0.3520519301
N  N35  1  0.77620000  0.00000000  0.06578000  1.0 -0.3520519301
N  N36  1  0.27620000  0.50000000  0.93422000  1.0 -0.3520519301
N  N37  1  0.97380000  0.18422000  0.25000000  1.0 -0.3520519301
N  N38  1  0.47380000  0.31578000  0.75000000  1.0 -0.3520519301
N  N39  1  0.72380000  0.50000000  0.06578000  1.0 -0.3520519301
N  N40  1  0.22380000  0.00000000  0.93422000  1.0 -0.3520519301
N  N41  1  0.02620000  0.81578000  0.75000000  1.0 -0.3520519301
N  N42  1  0.52620000  0.68422000  0.25000000  1.0 -0.3520519301
N  N43  1  0.27620000  0.50000000  0.56578000  1.0 -0.3520519301
N  N44  1  0.77620000  0.00000000  0.43422000  1.0 -0.3520519301
N  N45  1  0.47380000  0.68422000  0.75000000  1.0 -0.3520519301
N  N46  1  0.97380000  0.81578000  0.25000000  1.0 -0.3520519301
N  N47  1  0.22380000  0.00000000  0.56578000  1.0 -0.3520519301
N  N48  1  0.72380000  0.50000000  0.43422000  1.0 -0.3520519301
N  N49  1  0.46900000  0.32940000  0.33060000  1.0 -0.5020139455
N  N50  1  0.96900000  0.17060000  0.66940000  1.0 -0.5020139455
N  N51  1  0.71900000  0.91940000  0.07940000  1.0 -0.5020139455
N  N52  1  0.21900000  0.58060000  0.92060000  1.0 -0.5020139455
N  N53  1  0.03100000  0.17060000  0.33060000  1.0 -0.5020139455
N  N54  1  0.53100000  0.32940000  0.66940000  1.0 -0.5020139455
N  N55  1  0.78100000  0.58060000  0.07940000  1.0 -0.5020139455
N  N56  1  0.28100000  0.91940000  0.92060000  1.0 -0.5020139455
N  N57  1  0.96900000  0.82940000  0.83060000  1.0 -0.5020139455
N  N58  1  0.46900000  0.67060000  0.16940000  1.0 -0.5020139455
N  N59  1  0.21900000  0.41940000  0.57940000  1.0 -0.5020139455
N  N60  1  0.71900000  0.08060000  0.42060000  1.0 -0.5020139455
N  N61  1  0.53100000  0.67060000  0.83060000  1.0 -0.5020139455
N  N62  1  0.03100000  0.82940000  0.16940000  1.0 -0.5020139455
N  N63  1  0.28100000  0.08060000  0.57940000  1.0 -0.5020139455
N  N64  1  0.78100000  0.41940000  0.42060000  1.0 -0.5020139455
N  N65  1  0.53100000  0.67060000  0.66940000  1.0 -0.5020139455
N  N66  1  0.03100000  0.82940000  0.33060000  1.0 -0.5020139455
N  N67  1  0.28100000  0.08060000  0.92060000  1.0 -0.5020139455
N  N68  1  0.78100000  0.41940000  0.07940000  1.0 -0.5020139455
N  N69  1  0.96900000  0.82940000  0.66940000  1.0 -0.5020139455
N  N70  1  0.46900000  0.67060000  0.33060000  1.0 -0.5020139455
N  N71  1  0.21900000  0.41940000  0.92060000  1.0 -0.5020139455
N  N72  1  0.71900000  0.08060000  0.07940000  1.0 -0.5020139455
N  N73  1  0.03100000  0.17060000  0.16940000  1.0 -0.5020139455
N  N74  1  0.53100000  0.32940000  0.83060000  1.0 -0.5020139455
N  N75  1  0.78100000  0.58060000  0.42060000  1.0 -0.5020139455
N  N76  1  0.28100000  0.91940000  0.57940000  1.0 -0.5020139455
N  N77  1  0.46900000  0.32940000  0.16940000  1.0 -0.5020139455
N  N78  1  0.96900000  0.17060000  0.83060000  1.0 -0.5020139455
N  N79  1  0.71900000  0.91940000  0.42060000  1.0 -0.5020139455
N  N80  1  0.21900000  0.58060000  0.57940000  1.0 -0.5020139455
