# DDEC6 charges by PACMAN v1.1 (https://github.com/mtap-research/PACMAN-charge/)
data_CUKWUB_FSR_pacman
_symmetry_space_group_name_H-M   'P 1'
_cell_length_a   13.01400000
_cell_length_b   13.01400000
_cell_length_c   13.45700000
_cell_angle_alpha   90.00000000
_cell_angle_beta   90.00000000
_cell_angle_gamma   120.00000000
_symmetry_Int_Tables_number   1
_chemical_formula_structural   Cd(CN3)3
_chemical_formula_sum   'Cd10 C30 N90'
_cell_volume   1973.78793013
_cell_formula_units_Z   10
loop_
 _symmetry_equiv_pos_site_id
 _symmetry_equiv_pos_as_xyz
  1  'x, y, z'
loop_
 _atom_site_type_symbol
 _atom_site_label
 _atom_site_symmetry_multiplicity
 _atom_site_fract_x
 _atom_site_fract_y
 _atom_site_fract_z
 _atom_site_occupancy
 _atom_site_charge
Cd  Cd1  1  0.33333333  0.66666667  0.60070000  1.0 0.5792820659
Cd  Cd2  1  0.66666667  0.33333333  0.10070000  1.0 0.5792820659
Cd  Cd3  1  0.66666667  0.33333333  0.39930000  1.0 0.5792820659
Cd  Cd4  1  0.33333333  0.66666667  0.89930000  1.0 0.5792820659
Cd  Cd5  1  0.50000000  0.00000000  0.50000000  1.0 0.6886043456
Cd  Cd6  1  0.50000000  0.50000000  0.00000000  1.0 0.6886043456
Cd  Cd7  1  0.00000000  0.50000000  0.50000000  1.0 0.6886043456
Cd  Cd8  1  0.50000000  0.00000000  0.00000000  1.0 0.6886043456
Cd  Cd9  1  0.50000000  0.50000000  0.50000000  1.0 0.6886043456
Cd  Cd10  1  0.00000000  0.50000000  0.00000000  1.0 0.6886043456
C  C1  1  0.50947000  0.01893000  0.75000000  1.0 0.5034375297
C  C2  1  0.49053000  0.50947000  0.25000000  1.0 0.5034375297
C  C3  1  0.98107000  0.49053000  0.75000000  1.0 0.5034375297
C  C4  1  0.49053000  0.98107000  0.25000000  1.0 0.5034375297
C  C5  1  0.50947000  0.49053000  0.75000000  1.0 0.5034375297
C  C6  1  0.01893000  0.50947000  0.25000000  1.0 0.5034375297
C  C7  1  0.12193000  0.77323000  0.41410000  1.0 0.2214325301
C  C8  1  0.34870000  0.12193000  0.91410000  1.0 0.2214325301
C  C9  1  0.22677000  0.34870000  0.41410000  1.0 0.2214325301
C  C10  1  0.87807000  0.22677000  0.91410000  1.0 0.2214325301
C  C11  1  0.65130000  0.87807000  0.41410000  1.0 0.2214325301
C  C12  1  0.77323000  0.65130000  0.91410000  1.0 0.2214325301
C  C13  1  0.34870000  0.22677000  0.58590000  1.0 0.2214325301
C  C14  1  0.87807000  0.65130000  0.58590000  1.0 0.2214325301
C  C15  1  0.77323000  0.12193000  0.58590000  1.0 0.2214325301
C  C16  1  0.22677000  0.87807000  0.08590000  1.0 0.2214325301
C  C17  1  0.65130000  0.77323000  0.08590000  1.0 0.2214325301
C  C18  1  0.12193000  0.34870000  0.08590000  1.0 0.2214325301
C  C19  1  0.87807000  0.22677000  0.58590000  1.0 0.2214325301
C  C20  1  0.65130000  0.87807000  0.08590000  1.0 0.2214325301
C  C21  1  0.77323000  0.65130000  0.58590000  1.0 0.2214325301
C  C22  1  0.12193000  0.77323000  0.08590000  1.0 0.2214325301
C  C23  1  0.34870000  0.12193000  0.58590000  1.0 0.2214325301
C  C24  1  0.22677000  0.34870000  0.08590000  1.0 0.2214325301
C  C25  1  0.65130000  0.77323000  0.41410000  1.0 0.2214325301
C  C26  1  0.12193000  0.34870000  0.41410000  1.0 0.2214325301
C  C27  1  0.22677000  0.87807000  0.41410000  1.0 0.2214325301
C  C28  1  0.77323000  0.12193000  0.91410000  1.0 0.2214325301
C  C29  1  0.34870000  0.22677000  0.91410000  1.0 0.2214325301
C  C30  1  0.87807000  0.65130000  0.91410000  1.0 0.2214325301
N  N1  1  0.57097000  0.14193000  0.75000000  1.0 -0.291796326
N  N2  1  0.42903000  0.57097000  0.25000000  1.0 -0.291796326
N  N3  1  0.85807000  0.42903000  0.75000000  1.0 -0.291796326
N  N4  1  0.42903000  0.85807000  0.25000000  1.0 -0.291796326
N  N5  1  0.57097000  0.42903000  0.75000000  1.0 -0.291796326
N  N6  1  0.14193000  0.57097000  0.25000000  1.0 -0.291796326
N  N7  1  0.47487000  0.94973000  0.66810000  1.0 -0.2761465801
N  N8  1  0.52513000  0.47487000  0.16810000  1.0 -0.2761465801
N  N9  1  0.05027000  0.52513000  0.66810000  1.0 -0.2761465801
N  N10  1  0.52513000  0.05027000  0.16810000  1.0 -0.2761465801
N  N11  1  0.47487000  0.52513000  0.66810000  1.0 -0.2761465801
N  N12  1  0.94973000  0.47487000  0.16810000  1.0 -0.2761465801
N  N13  1  0.52513000  0.05027000  0.33190000  1.0 -0.2761465801
N  N14  1  0.52513000  0.47487000  0.33190000  1.0 -0.2761465801
N  N15  1  0.94973000  0.47487000  0.33190000  1.0 -0.2761465801
N  N16  1  0.05027000  0.52513000  0.83190000  1.0 -0.2761465801
N  N17  1  0.47487000  0.94973000  0.83190000  1.0 -0.2761465801
N  N18  1  0.47487000  0.52513000  0.83190000  1.0 -0.2761465801
N  N19  1  0.41767000  0.83533000  0.70190000  1.0 -0.0239901663
N  N20  1  0.58233000  0.41767000  0.20190000  1.0 -0.0239901663
N  N21  1  0.16467000  0.58233000  0.70190000  1.0 -0.0239901663
N  N22  1  0.58233000  0.16467000  0.20190000  1.0 -0.0239901663
N  N23  1  0.41767000  0.58233000  0.70190000  1.0 -0.0239901663
N  N24  1  0.83533000  0.41767000  0.20190000  1.0 -0.0239901663
N  N25  1  0.58233000  0.16467000  0.29810000  1.0 -0.0239901663
N  N26  1  0.58233000  0.41767000  0.29810000  1.0 -0.0239901663
N  N27  1  0.83533000  0.41767000  0.29810000  1.0 -0.0239901663
N  N28  1  0.16467000  0.58233000  0.79810000  1.0 -0.0239901663
N  N29  1  0.41767000  0.83533000  0.79810000  1.0 -0.0239901663
N  N30  1  0.41767000  0.58233000  0.79810000  1.0 -0.0239901663
N  N31  1  0.24790000  0.75210000  0.49760000  1.0 -0.0025104725
N  N32  1  0.49580000  0.24790000  0.99760000  1.0 -0.0025104725
N  N33  1  0.24790000  0.49580000  0.49760000  1.0 -0.0025104725
N  N34  1  0.75210000  0.24790000  0.99760000  1.0 -0.0025104725
N  N35  1  0.50420000  0.75210000  0.49760000  1.0 -0.0025104725
N  N36  1  0.75210000  0.50420000  0.99760000  1.0 -0.0025104725
N  N37  1  0.49580000  0.24790000  0.50240000  1.0 -0.0025104725
N  N38  1  0.75210000  0.50420000  0.50240000  1.0 -0.0025104725
N  N39  1  0.75210000  0.24790000  0.50240000  1.0 -0.0025104725
N  N40  1  0.24790000  0.75210000  0.00240000  1.0 -0.0025104725
N  N41  1  0.50420000  0.75210000  0.00240000  1.0 -0.0025104725
N  N42  1  0.24790000  0.49580000  0.00240000  1.0 -0.0025104725
N  N43  1  0.13763000  0.69703000  0.46760000  1.0 -0.1872694343
N  N44  1  0.44060000  0.13763000  0.96760000  1.0 -0.1872694343
N  N45  1  0.30297000  0.44060000  0.46760000  1.0 -0.1872694343
N  N46  1  0.86237000  0.30297000  0.96760000  1.0 -0.1872694343
N  N47  1  0.55940000  0.86237000  0.46760000  1.0 -0.1872694343
N  N48  1  0.69703000  0.55940000  0.96760000  1.0 -0.1872694343
N  N49  1  0.44060000  0.30297000  0.53240000  1.0 -0.1872694343
N  N50  1  0.86237000  0.55940000  0.53240000  1.0 -0.1872694343
N  N51  1  0.69703000  0.13763000  0.53240000  1.0 -0.1872694343
N  N52  1  0.30297000  0.86237000  0.03240000  1.0 -0.1872694343
N  N53  1  0.55940000  0.69703000  0.03240000  1.0 -0.1872694343
N  N54  1  0.13763000  0.44060000  0.03240000  1.0 -0.1872694343
N  N55  1  0.86237000  0.30297000  0.53240000  1.0 -0.1872694343
N  N56  1  0.55940000  0.86237000  0.03240000  1.0 -0.1872694343
N  N57  1  0.69703000  0.55940000  0.53240000  1.0 -0.1872694343
N  N58  1  0.13763000  0.69703000  0.03240000  1.0 -0.1872694343
N  N59  1  0.44060000  0.13763000  0.53240000  1.0 -0.1872694343
N  N60  1  0.30297000  0.44060000  0.03240000  1.0 -0.1872694343
N  N61  1  0.55940000  0.69703000  0.46760000  1.0 -0.1872694343
N  N62  1  0.13763000  0.44060000  0.46760000  1.0 -0.1872694343
N  N63  1  0.30297000  0.86237000  0.46760000  1.0 -0.1872694343
N  N64  1  0.69703000  0.13763000  0.96760000  1.0 -0.1872694343
N  N65  1  0.44060000  0.30297000  0.96760000  1.0 -0.1872694343
N  N66  1  0.86237000  0.55940000  0.96760000  1.0 -0.1872694343
N  N67  1  0.03093000  0.77193000  0.36800000  1.0 -0.20199625
N  N68  1  0.25900000  0.03093000  0.86800000  1.0 -0.20199625
N  N69  1  0.22807000  0.25900000  0.36800000  1.0 -0.2068995193
N  N70  1  0.96907000  0.22807000  0.86800000  1.0 -0.2068995193
N  N71  1  0.74100000  0.96907000  0.36800000  1.0 -0.2068995193
N  N72  1  0.77193000  0.74100000  0.86800000  1.0 -0.2068995193
N  N73  1  0.25900000  0.22807000  0.63200000  1.0 -0.20199625
N  N74  1  0.96907000  0.74100000  0.63200000  1.0 -0.2068995193
N  N75  1  0.77193000  0.03093000  0.63200000  1.0 -0.20199625
N  N76  1  0.22807000  0.96907000  0.13200000  1.0 -0.2068995193
N  N77  1  0.74100000  0.77193000  0.13200000  1.0 -0.20199625
N  N78  1  0.03093000  0.25900000  0.13200000  1.0 -0.20199625
N  N79  1  0.96907000  0.22807000  0.63200000  1.0 -0.2068995193
N  N80  1  0.74100000  0.96907000  0.13200000  1.0 -0.2068995193
N  N81  1  0.77193000  0.74100000  0.63200000  1.0 -0.20199625
N  N82  1  0.03093000  0.77193000  0.13200000  1.0 -0.20199625
N  N83  1  0.25900000  0.03093000  0.63200000  1.0 -0.20199625
N  N84  1  0.22807000  0.25900000  0.13200000  1.0 -0.2068995193
N  N85  1  0.74100000  0.77193000  0.36800000  1.0 -0.20199625
N  N86  1  0.03093000  0.25900000  0.36800000  1.0 -0.20199625
N  N87  1  0.22807000  0.96907000  0.36800000  1.0 -0.2068995193
N  N88  1  0.77193000  0.03093000  0.86800000  1.0 -0.20199625
N  N89  1  0.25900000  0.22807000  0.86800000  1.0 -0.2068995193
N  N90  1  0.96907000  0.74100000  0.86800000  1.0 -0.2068995193
