# DDEC6 charges by PACMAN v1.1 (https://github.com/mtap-research/PACMAN-charge/)
data_CUKXEM_ASR_pacman
_symmetry_space_group_name_H-M   'P 1'
_cell_length_a   13.06280000
_cell_length_b   13.06280000
_cell_length_c   13.52200000
_cell_angle_alpha   90.00000000
_cell_angle_beta   90.00000000
_cell_angle_gamma   120.00000000
_symmetry_Int_Tables_number   1
_chemical_formula_structural   Cd(CN3)3
_chemical_formula_sum   'Cd10 C30 N90'
_cell_volume   1998.22375890
_cell_formula_units_Z   10
loop_
 _symmetry_equiv_pos_site_id
 _symmetry_equiv_pos_as_xyz
  1  'x, y, z'
loop_
 _atom_site_type_symbol
 _atom_site_label
 _atom_site_symmetry_multiplicity
 _atom_site_fract_x
 _atom_site_fract_y
 _atom_site_fract_z
 _atom_site_occupancy
 _atom_site_charge
Cd  Cd1  1  0.66666667  0.33333333  0.10099000  1.0 0.5538640174
Cd  Cd2  1  0.33333333  0.66666667  0.60099000  1.0 0.5569140169
Cd  Cd3  1  0.33333333  0.66666667  0.89901000  1.0 0.5569140169
Cd  Cd4  1  0.66666667  0.33333333  0.39901000  1.0 0.5538640174
Cd  Cd5  1  0.49993000  0.49993000  0.00000000  1.0 0.6765006784
Cd  Cd6  1  0.00000000  0.49993000  0.50000000  1.0 0.6765006784
Cd  Cd7  1  0.50007000  0.00000000  0.00000000  1.0 0.67228134
Cd  Cd8  1  0.50007000  0.50007000  0.50000000  1.0 0.6765006784
Cd  Cd9  1  0.00000000  0.50007000  0.00000000  1.0 0.67228134
Cd  Cd10  1  0.49993000  0.00000000  0.50000000  1.0 0.6765006784
C  C1  1  0.49170000  0.50830000  0.25000000  1.0 0.4769015762
C  C2  1  0.98340000  0.49170000  0.75000000  1.0 0.4769015762
C  C3  1  0.49170000  0.98340000  0.25000000  1.0 0.4769015762
C  C4  1  0.50830000  0.49170000  0.75000000  1.0 0.4769015762
C  C5  1  0.01660000  0.50830000  0.25000000  1.0 0.4769015762
C  C6  1  0.50830000  0.01660000  0.75000000  1.0 0.4769015762
C  C7  1  0.35043000  0.12483000  0.91390000  1.0 0.1730284085
C  C8  1  0.22560000  0.35043000  0.41390000  1.0 0.1730284085
C  C9  1  0.87517000  0.22560000  0.91390000  1.0 0.1730284085
C  C10  1  0.64957000  0.87517000  0.41390000  1.0 0.1730284085
C  C11  1  0.77440000  0.64957000  0.91390000  1.0 0.1730284085
C  C12  1  0.12483000  0.77440000  0.41390000  1.0 0.1730284085
C  C13  1  0.22560000  0.87517000  0.08610000  1.0 0.1730284085
C  C14  1  0.64957000  0.77440000  0.08610000  1.0 0.1730284085
C  C15  1  0.12483000  0.35043000  0.08610000  1.0 0.1730284085
C  C16  1  0.87517000  0.64957000  0.58610000  1.0 0.1730284085
C  C17  1  0.77440000  0.12483000  0.58610000  1.0 0.1730284085
C  C18  1  0.35043000  0.22560000  0.58610000  1.0 0.1730284085
C  C19  1  0.64943000  0.87503000  0.08610000  1.0 0.1730284085
C  C20  1  0.77440000  0.64943000  0.58610000  1.0 0.1730284085
C  C21  1  0.12497000  0.77440000  0.08610000  1.0 0.1730284085
C  C22  1  0.35057000  0.12497000  0.58610000  1.0 0.1730284085
C  C23  1  0.22560000  0.35057000  0.08610000  1.0 0.1730284085
C  C24  1  0.87503000  0.22560000  0.58610000  1.0 0.1730284085
C  C25  1  0.77440000  0.12497000  0.91390000  1.0 0.1730284085
C  C26  1  0.35057000  0.22560000  0.91390000  1.0 0.1730284085
C  C27  1  0.87503000  0.64943000  0.91390000  1.0 0.1730284085
C  C28  1  0.12497000  0.35057000  0.41390000  1.0 0.1730284085
C  C29  1  0.22560000  0.87503000  0.41390000  1.0 0.1730284085
C  C30  1  0.64943000  0.77440000  0.41390000  1.0 0.1730284085
N  N1  1  0.43030000  0.56970000  0.25000000  1.0 -0.29200156
N  N2  1  0.86060000  0.43030000  0.75000000  1.0 -0.2832263556
N  N3  1  0.43030000  0.86060000  0.25000000  1.0 -0.2832263556
N  N4  1  0.56970000  0.43030000  0.75000000  1.0 -0.29200156
N  N5  1  0.13940000  0.56970000  0.25000000  1.0 -0.2832263556
N  N6  1  0.56970000  0.13940000  0.75000000  1.0 -0.2832263556
N  N7  1  0.52483000  0.47503000  0.16910000  1.0 -0.29200156
N  N8  1  0.04980000  0.52483000  0.66910000  1.0 -0.29200156
N  N9  1  0.52497000  0.04980000  0.16910000  1.0 -0.29200156
N  N10  1  0.47517000  0.52497000  0.66910000  1.0 -0.29200156
N  N11  1  0.95020000  0.47517000  0.16910000  1.0 -0.29200156
N  N12  1  0.47503000  0.95020000  0.66910000  1.0 -0.29200156
N  N13  1  0.04980000  0.52497000  0.83090000  1.0 -0.29200156
N  N14  1  0.47517000  0.95020000  0.83090000  1.0 -0.29200156
N  N15  1  0.47503000  0.52483000  0.83090000  1.0 -0.29200156
N  N16  1  0.52497000  0.47517000  0.33090000  1.0 -0.29200156
N  N17  1  0.95020000  0.47503000  0.33090000  1.0 -0.29200156
N  N18  1  0.52483000  0.04980000  0.33090000  1.0 -0.29200156
N  N19  1  0.58183000  0.41803000  0.20360000  1.0 -0.0359918944
N  N20  1  0.16380000  0.58183000  0.70360000  1.0 -0.0359918944
N  N21  1  0.58197000  0.16380000  0.20360000  1.0 -0.0359918944
N  N22  1  0.41817000  0.58197000  0.70360000  1.0 -0.0359918944
N  N23  1  0.83620000  0.41817000  0.20360000  1.0 -0.0359918944
N  N24  1  0.41803000  0.83620000  0.70360000  1.0 -0.0359918944
N  N25  1  0.16380000  0.58197000  0.79640000  1.0 -0.0359918944
N  N26  1  0.41817000  0.83620000  0.79640000  1.0 -0.0359918944
N  N27  1  0.41803000  0.58183000  0.79640000  1.0 -0.0359918944
N  N28  1  0.58197000  0.41817000  0.29640000  1.0 -0.0277589834
N  N29  1  0.83620000  0.41803000  0.29640000  1.0 -0.0277589834
N  N30  1  0.58183000  0.16380000  0.29640000  1.0 -0.0277589834
N  N31  1  0.49753000  0.24873000  0.99870000  1.0 -0.0277589834
N  N32  1  0.24880000  0.49753000  0.49870000  1.0 -0.0277589834
N  N33  1  0.75127000  0.24880000  0.99870000  1.0 -0.0277589834
N  N34  1  0.50247000  0.75127000  0.49870000  1.0 -0.0277589834
N  N35  1  0.75120000  0.50247000  0.99870000  1.0 -0.0277589834
N  N36  1  0.24873000  0.75120000  0.49870000  1.0 -0.0277589834
N  N37  1  0.24880000  0.75127000  0.00130000  1.0 -0.0277589834
N  N38  1  0.50247000  0.75120000  0.00130000  1.0 -0.0277589834
N  N39  1  0.24873000  0.49753000  0.00130000  1.0 -0.0277589834
N  N40  1  0.75127000  0.50247000  0.50130000  1.0 -0.0277589834
N  N41  1  0.75120000  0.24873000  0.50130000  1.0 -0.0277589834
N  N42  1  0.49753000  0.24880000  0.50130000  1.0 -0.0277589834
N  N43  1  0.44303000  0.13953000  0.96730000  1.0 -0.2025343239
N  N44  1  0.30350000  0.44303000  0.46730000  1.0 -0.2025343239
N  N45  1  0.86047000  0.30350000  0.96730000  1.0 -0.2025343239
N  N46  1  0.55697000  0.86047000  0.46730000  1.0 -0.2025343239
N  N47  1  0.69650000  0.55697000  0.96730000  1.0 -0.2025343239
N  N48  1  0.13953000  0.69650000  0.46730000  1.0 -0.2025343239
N  N49  1  0.30350000  0.86047000  0.03270000  1.0 -0.2025343239
N  N50  1  0.55697000  0.69650000  0.03270000  1.0 -0.2025343239
N  N51  1  0.13953000  0.44303000  0.03270000  1.0 -0.2025343239
N  N52  1  0.86047000  0.55697000  0.53270000  1.0 -0.2025343239
N  N53  1  0.69650000  0.13953000  0.53270000  1.0 -0.2025343239
N  N54  1  0.44303000  0.30350000  0.53270000  1.0 -0.2025343239
N  N55  1  0.55683000  0.86033000  0.03270000  1.0 -0.2025343239
N  N56  1  0.69650000  0.55683000  0.53270000  1.0 -0.2025343239
N  N57  1  0.13967000  0.69650000  0.03270000  1.0 -0.2025343239
N  N58  1  0.44317000  0.13967000  0.53270000  1.0 -0.2025343239
N  N59  1  0.30350000  0.44317000  0.03270000  1.0 -0.2025343239
N  N60  1  0.86033000  0.30350000  0.53270000  1.0 -0.2025343239
N  N61  1  0.69650000  0.13967000  0.96730000  1.0 -0.2025343239
N  N62  1  0.44317000  0.30350000  0.96730000  1.0 -0.2025343239
N  N63  1  0.86033000  0.55683000  0.96730000  1.0 -0.2025343239
N  N64  1  0.13967000  0.44317000  0.46730000  1.0 -0.2025343239
N  N65  1  0.30350000  0.86033000  0.46730000  1.0 -0.2025343239
N  N66  1  0.55683000  0.69650000  0.46730000  1.0 -0.2025343239
N  N67  1  0.25893000  0.03193000  0.86600000  1.0 -0.1026729119
N  N68  1  0.22700000  0.25893000  0.36600000  1.0 -0.1026729119
N  N69  1  0.96807000  0.22700000  0.86600000  1.0 -0.1026729119
N  N70  1  0.74107000  0.96807000  0.36600000  1.0 -0.1026729119
N  N71  1  0.77300000  0.74107000  0.86600000  1.0 -0.1026729119
N  N72  1  0.03193000  0.77300000  0.36600000  1.0 -0.1026729119
N  N73  1  0.22700000  0.96807000  0.13400000  1.0 -0.1026729119
N  N74  1  0.74107000  0.77300000  0.13400000  1.0 -0.1026729119
N  N75  1  0.03193000  0.25893000  0.13400000  1.0 -0.1026729119
N  N76  1  0.96807000  0.74107000  0.63400000  1.0 -0.1026729119
N  N77  1  0.77300000  0.03193000  0.63400000  1.0 -0.1026729119
N  N78  1  0.25893000  0.22700000  0.63400000  1.0 -0.1026729119
N  N79  1  0.74093000  0.96793000  0.13400000  1.0 -0.1026729119
N  N80  1  0.77300000  0.74093000  0.63400000  1.0 -0.1026729119
N  N81  1  0.03207000  0.77300000  0.13400000  1.0 -0.1026729119
N  N82  1  0.25907000  0.03207000  0.63400000  1.0 -0.1026729119
N  N83  1  0.22700000  0.25907000  0.13400000  1.0 -0.1026729119
N  N84  1  0.96793000  0.22700000  0.63400000  1.0 -0.1026729119
N  N85  1  0.77300000  0.03207000  0.86600000  1.0 -0.1026729119
N  N86  1  0.25907000  0.22700000  0.86600000  1.0 -0.1026729119
N  N87  1  0.96793000  0.74093000  0.86600000  1.0 -0.1026729119
N  N88  1  0.03207000  0.25907000  0.36600000  1.0 -0.1026729119
N  N89  1  0.22700000  0.96793000  0.36600000  1.0 -0.1026729119
N  N90  1  0.74093000  0.77300000  0.36600000  1.0 -0.1026729119
