# DDEC6 charges by PACMAN v1.1 (https://github.com/mtap-research/PACMAN-charge/)
data_CUMDEU_ASR_pacman
_symmetry_space_group_name_H-M   'P 1'
_cell_length_a   13.50020000
_cell_length_b   13.50020000
_cell_length_c   5.64514000
_cell_angle_alpha   79.16150000
_cell_angle_beta   100.83800000
_cell_angle_gamma   116.13900000
_symmetry_Int_Tables_number   1
_chemical_formula_structural   CeP2C10(NO3)2
_chemical_formula_sum   'Ce2 P4 C20 N4 O12'
_cell_volume   900.67825474
_cell_formula_units_Z   2
loop_
 _symmetry_equiv_pos_site_id
 _symmetry_equiv_pos_as_xyz
  1  'x, y, z'
loop_
 _atom_site_type_symbol
 _atom_site_label
 _atom_site_symmetry_multiplicity
 _atom_site_fract_x
 _atom_site_fract_y
 _atom_site_fract_z
 _atom_site_occupancy
 _atom_site_charge
Ce  Ce1  1  0.39695000  0.39695000  0.25000000  1.0 2.2517735678
Ce  Ce2  1  0.60305000  0.60305000  0.75000000  1.0 2.2517735678
P  P1  1  0.28347000  0.45213000  0.72640000  1.0 1.3063732105
P  P2  1  0.45213000  0.28347000  0.77360000  1.0 1.3063732105
P  P3  1  0.71653000  0.54787000  0.27360000  1.0 1.3063732105
P  P4  1  0.54787000  0.71653000  0.22640000  1.0 1.3063732105
C  C1  1  0.23060000  0.56340000  0.63950000  1.0 -0.2575352025
C  C2  1  0.56340000  0.23060000  0.86050000  1.0 -0.2575352025
C  C3  1  0.76940000  0.43660000  0.36050000  1.0 -0.2575352025
C  C4  1  0.43660000  0.76940000  0.13950000  1.0 -0.2575352025
C  C5  1  0.08252000  0.61172000  0.53180000  1.0 0.1477506085
C  C6  1  0.61172000  0.08252000  0.96820000  1.0 0.1477506085
C  C7  1  0.91748000  0.38828000  0.46820000  1.0 0.1477506085
C  C8  1  0.38828000  0.91748000  0.03180000  1.0 0.1477506085
C  C9  1  0.12980000  0.68640000  0.29700000  1.0 -0.008761118
C  C10  1  0.68640000  0.12980000  0.20300000  1.0 -0.008761118
C  C11  1  0.87020000  0.31360000  0.70300000  1.0 -0.008761118
C  C12  1  0.31360000  0.87020000  0.79700000  1.0 -0.0027213985
C  C13  1  0.02656000  0.41744000  0.66350000  1.0 0.1477506085
C  C14  1  0.41744000  0.02656000  0.83650000  1.0 0.1477506085
C  C15  1  0.97344000  0.58256000  0.33650000  1.0 0.1477506085
C  C16  1  0.58256000  0.97344000  0.16350000  1.0 0.1477506085
C  C17  1  0.99770000  0.29230000  0.66300000  1.0 0.0374135956
C  C18  1  0.29230000  0.99770000  0.83700000  1.0 0.0374135956
C  C19  1  0.00230000  0.70770000  0.33700000  1.0 0.0374135956
C  C20  1  0.70770000  0.00230000  0.16300000  1.0 0.0374135956
N  N1  1  0.11275000  0.51565000  0.52010000  1.0 0.0079772604
N  N2  1  0.51565000  0.11275000  0.97990000  1.0 -0.0027213985
N  N3  1  0.88725000  0.48435000  0.47990000  1.0 0.0079772604
N  N4  1  0.48435000  0.88725000  0.02010000  1.0 -0.0027213985
O  O1  1  0.41050000  0.51330000  0.84040000  1.0 -0.9281218183
O  O2  1  0.51330000  0.41050000  0.65960000  1.0 -0.9281218183
O  O3  1  0.58950000  0.48670000  0.15960000  1.0 -0.9281218183
O  O4  1  0.48670000  0.58950000  0.34040000  1.0 -0.9281218183
O  O5  1  0.23310000  0.36730000  0.96720000  1.0 -0.7924109978
O  O6  1  0.36730000  0.23310000  0.53280000  1.0 -0.7924109978
O  O7  1  0.76690000  0.63270000  0.03280000  1.0 -0.7924109978
O  O8  1  0.63270000  0.76690000  0.46720000  1.0 -0.7924109978
O  O9  1  0.27680000  0.39940000  0.49730000  1.0 -0.7824835313
O  O10  1  0.39940000  0.27680000  0.00270000  1.0 -0.7824835313
O  O11  1  0.72320000  0.60060000  0.50270000  1.0 -0.7824835313
O  O12  1  0.60060000  0.72320000  0.99730000  1.0 -0.7824835313
