# DDEC6 charges by PACMAN v1.1 (https://github.com/mtap-research/PACMAN-charge/)
data_CUNXIS_FSR_pacman
_symmetry_space_group_name_H-M   'P 1'
_cell_length_a   8.66800000
_cell_length_b   17.55800000
_cell_length_c   10.53410000
_cell_angle_alpha   90.00000000
_cell_angle_beta   123.84900000
_cell_angle_gamma   90.00000000
_symmetry_Int_Tables_number   1
_chemical_formula_structural   Al3P3O13
_chemical_formula_sum   'Al12 P12 O52'
_cell_volume   1331.48237324
_cell_formula_units_Z   4
loop_
 _symmetry_equiv_pos_site_id
 _symmetry_equiv_pos_as_xyz
  1  'x, y, z'
loop_
 _atom_site_type_symbol
 _atom_site_label
 _atom_site_symmetry_multiplicity
 _atom_site_fract_x
 _atom_site_fract_y
 _atom_site_fract_z
 _atom_site_occupancy
 _atom_site_charge
Al  Al1  1  0.79830000  0.29730000  0.71500000  1.0 1.7879378317
Al  Al2  1  0.20170000  0.79730000  0.78500000  1.0 1.7879378317
Al  Al3  1  0.20170000  0.70270000  0.28500000  1.0 1.7879378317
Al  Al4  1  0.79830000  0.20270000  0.21500000  1.0 1.7879378317
Al  Al5  1  0.98760000  0.11130000  0.84490000  1.0 1.7778255759
Al  Al6  1  0.01240000  0.61130000  0.65510000  1.0 1.7778255759
Al  Al7  1  0.01240000  0.88870000  0.15510000  1.0 1.7778255759
Al  Al8  1  0.98760000  0.38870000  0.34490000  1.0 1.7778255759
Al  Al9  1  0.35540000  0.32360000  0.81960000  1.0 1.7518839954
Al  Al10  1  0.64460000  0.82360000  0.68040000  1.0 1.7518839954
Al  Al11  1  0.64460000  0.67640000  0.18040000  1.0 1.7518839954
Al  Al12  1  0.35540000  0.17640000  0.31960000  1.0 1.7518839954
P  P1  1  0.01220000  0.42580000  0.65250000  1.0 1.5571135996
P  P2  1  0.98780000  0.92580000  0.84750000  1.0 1.5502846955
P  P3  1  0.98780000  0.57420000  0.34750000  1.0 1.5502846955
P  P4  1  0.01220000  0.07420000  0.15250000  1.0 1.5571135996
P  P5  1  0.35100000  0.29440000  0.53460000  1.0 1.5864966927
P  P6  1  0.64900000  0.79440000  0.96540000  1.0 1.5864966927
P  P7  1  0.64900000  0.70560000  0.46540000  1.0 1.5864966927
P  P8  1  0.35100000  0.20560000  0.03460000  1.0 1.5864966927
P  P9  1  0.78570000  0.16950000  0.51040000  1.0 1.5389830886
P  P10  1  0.21430000  0.66950000  0.98960000  1.0 1.5389830886
P  P11  1  0.21430000  0.83050000  0.48960000  1.0 1.5389830886
P  P12  1  0.78570000  0.33050000  0.01040000  1.0 1.5389830886
O  O1  1  0.86750000  0.20660000  0.81920000  1.0 -0.82210629
O  O2  1  0.13250000  0.70660000  0.68080000  1.0 -0.82210629
O  O3  1  0.13250000  0.79340000  0.18080000  1.0 -0.82210629
O  O4  1  0.86750000  0.29340000  0.31920000  1.0 -0.82210629
O  O5  1  0.91010000  0.38070000  0.70660000  1.0 -0.7596870941
O  O6  1  0.08990000  0.88070000  0.79340000  1.0 -0.7596870941
O  O7  1  0.08990000  0.61930000  0.29340000  1.0 -0.7596870941
O  O8  1  0.91010000  0.11930000  0.20660000  1.0 -0.7596870941
O  O9  1  0.81340000  0.25260000  0.56170000  1.0 -0.768217356
O  O10  1  0.18660000  0.75260000  0.93830000  1.0 -0.7596870941
O  O11  1  0.18660000  0.74740000  0.43830000  1.0 -0.768217356
O  O12  1  0.81340000  0.24740000  0.06170000  1.0 -0.768217356
O  O13  1  0.55200000  0.31310000  0.59940000  1.0 -0.7968978168
O  O14  1  0.44800000  0.81310000  0.90060000  1.0 -0.7968978168
O  O15  1  0.44800000  0.68690000  0.40060000  1.0 -0.7968978168
O  O16  1  0.55200000  0.18690000  0.09940000  1.0 -0.7968978168
O  O17  1  0.83010000  0.15770000  0.39080000  1.0 -0.6882603498
O  O18  1  0.16990000  0.65770000  0.10920000  1.0 -0.6882603498
O  O19  1  0.16990000  0.84230000  0.60920000  1.0 -0.6882603498
O  O20  1  0.83010000  0.34230000  0.89080000  1.0 -0.6882603498
O  O21  1  0.21930000  0.40530000  0.75410000  1.0 -0.7846899988
O  O22  1  0.78070000  0.90530000  0.74590000  1.0 -0.7860891105
O  O23  1  0.78070000  0.59470000  0.24590000  1.0 -0.7860891105
O  O24  1  0.21930000  0.09470000  0.25410000  1.0 -0.7860891105
O  O25  1  0.28850000  0.22740000  0.42390000  1.0 -0.768217356
O  O26  1  0.71150000  0.72740000  0.07610000  1.0 -0.768217356
O  O27  1  0.71150000  0.77260000  0.57610000  1.0 -0.768217356
O  O28  1  0.28850000  0.27260000  0.92390000  1.0 -0.768217356
O  O29  1  0.58270000  0.14570000  0.44130000  1.0 -0.8076909961
O  O30  1  0.41730000  0.64570000  0.05870000  1.0 -0.8076909961
O  O31  1  0.41730000  0.85430000  0.55870000  1.0 -0.8076909961
O  O32  1  0.58270000  0.35430000  0.94130000  1.0 -0.8076909961
O  O33  1  0.32880000  0.27260000  0.66570000  1.0 -0.768217356
O  O34  1  0.67120000  0.77260000  0.83430000  1.0 -0.768217356
O  O35  1  0.67120000  0.72740000  0.33430000  1.0 -0.768217356
O  O36  1  0.32880000  0.22740000  0.16570000  1.0 -0.768217356
O  O37  1  0.91030000  0.11630000  0.64450000  1.0 -0.728760335
O  O38  1  0.08970000  0.61630000  0.85550000  1.0 -0.728760335
O  O39  1  0.08970000  0.88370000  0.35550000  1.0 -0.728760335
O  O40  1  0.91030000  0.38370000  0.14450000  1.0 -0.728760335
O  O41  1  0.94030000  0.40610000  0.48860000  1.0 -0.7543898256
O  O42  1  0.05970000  0.90610000  0.01140000  1.0 -0.7543898256
O  O43  1  0.05970000  0.59390000  0.51140000  1.0 -0.7543898256
O  O44  1  0.94030000  0.09390000  0.98860000  1.0 -0.7543898256
O  O45  1  0.98880000  0.50900000  0.67280000  1.0 -0.7846899988
O  O46  1  0.01120000  0.00900000  0.82720000  1.0 -0.7846899988
O  O47  1  0.01120000  0.49100000  0.32720000  1.0 -0.7846899988
O  O48  1  0.98880000  0.99100000  0.17280000  1.0 -0.7846899988
O  O49  1  0.22910000  0.36290000  0.44960000  1.0 -0.768217356
O  O50  1  0.77090000  0.86290000  0.05040000  1.0 -0.768217356
O  O51  1  0.77090000  0.63710000  0.55040000  1.0 -0.7596870941
O  O52  1  0.22910000  0.13710000  0.94960000  1.0 -0.768217356
