# DDEC6 charges by PACMAN v1.1 (https://github.com/mtap-research/PACMAN-charge/)
data_CUPDAV_ASR_pacman
_symmetry_space_group_name_H-M   'P 1'
_cell_length_a   15.28480000
_cell_length_b   15.28480000
_cell_length_c   9.14000000
_cell_angle_alpha   80.46680000
_cell_angle_beta   99.53320000
_cell_angle_gamma   121.47000000
_symmetry_Int_Tables_number   1
_chemical_formula_structural   CoH18(C12N5)2
_chemical_formula_sum   'Co2 H36 C48 N20'
_cell_volume   1788.13208075
_cell_formula_units_Z   2
loop_
 _symmetry_equiv_pos_site_id
 _symmetry_equiv_pos_as_xyz
  1  'x, y, z'
loop_
 _atom_site_type_symbol
 _atom_site_label
 _atom_site_symmetry_multiplicity
 _atom_site_fract_x
 _atom_site_fract_y
 _atom_site_fract_z
 _atom_site_occupancy
 _atom_site_charge
Co  Co1  1  0.52933000  0.09767000  0.03110000  1.0 0.3571269439
Co  Co2  1  0.09767000  0.52933000  0.96890000  1.0 0.3492489086
H  H1  1  0.40831000  0.91837000  0.54705000  1.0 0.1194166331
H  H2  1  0.30085000  0.98105000  0.85711000  1.0 0.1194166331
H  H3  1  0.87721000  0.62189000  0.55196000  1.0 0.1194166331
H  H4  1  0.02663000  0.93089000  0.50995000  1.0 0.1194166331
H  H5  1  0.21336000  0.77048000  0.53342000  1.0 0.1109871543
H  H6  1  0.05979000  0.70997000  0.39306000  1.0 0.1278517206
H  H7  1  0.18536000  0.99684000  0.64478000  1.0 0.1194166331
H  H8  1  0.76695000  0.44705000  0.53839000  1.0 0.1194166331
H  H9  1  0.74127000  0.50365000  0.09055000  1.0 0.1194166331
H  H10  1  0.84257000  0.68109000  0.11054000  1.0 0.1194166331
H  H11  1  0.61425000  0.28663000  0.49518000  1.0 0.1278517206
H  H12  1  0.70902000  0.33526000  0.09548000  1.0 0.1278517206
H  H13  1  0.74058000  0.73612000  0.33123000  1.0 0.1194166331
H  H14  1  0.67074000  0.83704000  0.19877000  1.0 0.1194166331
H  H15  1  0.95504000  0.06348000  0.10340000  1.0 0.1194166331
H  H16  1  0.02122000  0.96056000  0.21409000  1.0 0.1194166331
H  H17  1  0.85771000  0.12117000  0.91496000  1.0 0.1109871543
H  H18  1  0.63798000  0.97182000  0.18213000  1.0 0.1109871543
H  H19  1  0.91837000  0.40831000  0.45295000  1.0 0.1194166331
H  H20  1  0.98105000  0.30085000  0.14289000  1.0 0.1194166331
H  H21  1  0.62189000  0.87721000  0.44804000  1.0 0.1194166331
H  H22  1  0.93089000  0.02663000  0.49005000  1.0 0.1194166331
H  H23  1  0.77048000  0.21336000  0.46658000  1.0 0.1109871543
H  H24  1  0.70997000  0.05979000  0.60694000  1.0 0.1278517206
H  H25  1  0.99684000  0.18536000  0.35522000  1.0 0.1194166331
H  H26  1  0.44705000  0.76695000  0.46161000  1.0 0.1194166331
H  H27  1  0.50365000  0.74127000  0.90945000  1.0 0.1194166331
H  H28  1  0.68109000  0.84257000  0.88946000  1.0 0.1194166331
H  H29  1  0.28663000  0.61425000  0.50482000  1.0 0.1278517206
H  H30  1  0.33526000  0.70902000  0.90452000  1.0 0.1194166331
H  H31  1  0.73612000  0.74058000  0.66877000  1.0 0.1194166331
H  H32  1  0.83704000  0.67074000  0.80123000  1.0 0.1194166331
H  H33  1  0.06348000  0.95504000  0.89660000  1.0 0.1194166331
H  H34  1  0.96056000  0.02122000  0.78591000  1.0 0.1194166331
H  H35  1  0.12117000  0.85771000  0.08504000  1.0 0.1109871543
H  H36  1  0.97182000  0.63798000  0.81787000  1.0 0.1109871543
C  C1  1  0.40460000  0.94220000  0.63170000  1.0 0.0334679014
C  C2  1  0.34600000  0.97600000  0.80690000  1.0 0.0705369414
C  C3  1  0.84610000  0.59770000  0.45950000  1.0 -0.1575029528
C  C4  1  0.06490000  0.89930000  0.51250000  1.0 -0.1805636032
C  C5  1  0.21760000  0.89400000  0.59390000  1.0 0.1278517206
C  C6  1  0.17690000  0.80470000  0.52450000  1.0 -0.1575029528
C  C7  1  0.08470000  0.76750000  0.44440000  1.0 -0.1805636032
C  C8  1  0.02460000  0.81460000  0.43700000  1.0 0.175588064
C  C9  1  0.16030000  0.93970000  0.59260000  1.0 -0.1805636032
C  C10  1  0.86470000  0.66610000  0.34040000  1.0 0.1520181002
C  C11  1  0.78340000  0.49300000  0.45290000  1.0 -0.1970621321
C  C12  1  0.74470000  0.45870000  0.30640000  1.0 0.1438706742
C  C13  1  0.76700000  0.52760000  0.18430000  1.0 -0.1805636032
C  C14  1  0.82760000  0.63400000  0.19470000  1.0 -0.1805636032
C  C15  1  0.62090000  0.27610000  0.40130000  1.0 0.0558512324
C  C16  1  0.67070000  0.30250000  0.17720000  1.0 0.0334679014
C  C17  1  0.89240000  0.84320000  0.27940000  1.0 0.1520181002
C  C18  1  0.78200000  0.80060000  0.28260000  1.0 -0.19076888
C  C19  1  0.74130000  0.86230000  0.20790000  1.0 -0.2098780683
C  C20  1  0.80960000  0.96340000  0.14730000  1.0 0.1278517206
C  C21  1  0.91180000  0.99820000  0.14790000  1.0 -0.1970621321
C  C22  1  0.95130000  0.93610000  0.21480000  1.0 -0.1725523545
C  C23  1  0.80040000  0.10060000  0.96430000  1.0 0.041004263
C  C24  1  0.67910000  0.01870000  0.10910000  1.0 0.0160345381
C  C25  1  0.94220000  0.40460000  0.36830000  1.0 0.041004263
C  C26  1  0.97600000  0.34600000  0.19310000  1.0 0.0705369414
C  C27  1  0.59770000  0.84610000  0.54050000  1.0 -0.1575029528
C  C28  1  0.89930000  0.06490000  0.48750000  1.0 -0.1805636032
C  C29  1  0.89400000  0.21760000  0.40610000  1.0 0.1278517206
C  C30  1  0.80470000  0.17690000  0.47550000  1.0 -0.1575029528
C  C31  1  0.76750000  0.08470000  0.55560000  1.0 -0.1805636032
C  C32  1  0.81460000  0.02460000  0.56300000  1.0 0.175588064
C  C33  1  0.93970000  0.16030000  0.40740000  1.0 -0.1805636032
C  C34  1  0.66610000  0.86470000  0.65960000  1.0 0.1520181002
C  C35  1  0.49300000  0.78340000  0.54710000  1.0 -0.1970621321
C  C36  1  0.45870000  0.74470000  0.69360000  1.0 0.1438706742
C  C37  1  0.52760000  0.76700000  0.81570000  1.0 -0.1805636032
C  C38  1  0.63400000  0.82760000  0.80530000  1.0 -0.1805636032
C  C39  1  0.27610000  0.62090000  0.59870000  1.0 0.0558512324
C  C40  1  0.30250000  0.67070000  0.82280000  1.0 0.0334679014
C  C41  1  0.84320000  0.89240000  0.72060000  1.0 0.1520181002
C  C42  1  0.80060000  0.78200000  0.71740000  1.0 -0.19076888
C  C43  1  0.86230000  0.74130000  0.79210000  1.0 -0.2098780683
C  C44  1  0.96340000  0.80960000  0.85270000  1.0 0.1278517206
C  C45  1  0.99820000  0.91180000  0.85210000  1.0 -0.1970621321
C  C46  1  0.93610000  0.95130000  0.78520000  1.0 -0.1725523545
C  C47  1  0.10060000  0.80040000  0.03570000  1.0 0.041004263
C  C48  1  0.01870000  0.67910000  0.89090000  1.0 0.0139423573
N  N1  1  0.44290000  0.00610000  0.85740000  1.0 -0.19076888
N  N2  1  0.31980000  0.93660000  0.67250000  1.0 -0.0125461298
N  N3  1  0.93090000  0.77690000  0.35170000  1.0 -0.1970621321
N  N4  1  0.67840000  0.34880000  0.29760000  1.0 -0.0125461298
N  N5  1  0.59750000  0.19950000  0.19560000  1.0 -0.19076888
N  N6  1  0.76610000  0.02510000  0.07500000  1.0 -0.0193645766
N  N7  1  0.66090000  0.08810000  0.02410000  1.0 -0.1725523545
N  N8  1  0.48320000  0.98980000  0.73970000  1.0 -0.2183629943
N  N9  1  0.57390000  0.18250000  0.34200000  1.0 -0.2098780683
N  N10  1  0.74010000  0.14230000  0.93500000  1.0 -0.2183629943
N  N11  1  0.00610000  0.44290000  0.14260000  1.0 -0.19076888
N  N12  1  0.93660000  0.31980000  0.32750000  1.0 -0.0193645766
N  N13  1  0.77690000  0.93090000  0.64830000  1.0 -0.1970621321
N  N14  1  0.34880000  0.67840000  0.70240000  1.0 -0.0125461298
N  N15  1  0.19950000  0.59750000  0.80440000  1.0 -0.19076888
N  N16  1  0.02510000  0.76610000  0.92500000  1.0 -0.0193645766
N  N17  1  0.08810000  0.66090000  0.97590000  1.0 -0.1725523545
N  N18  1  0.98980000  0.48320000  0.26030000  1.0 -0.2183629943
N  N19  1  0.18250000  0.57390000  0.65800000  1.0 -0.2098780683
N  N20  1  0.14230000  0.74010000  0.06500000  1.0 -0.2183629943
