# DDEC6 charges by PACMAN v1.1 (https://github.com/mtap-research/PACMAN-charge/)
data_CUPHIG_ASR_pacman
_symmetry_space_group_name_H-M   'P 1'
_cell_length_a   16.52820000
_cell_length_b   16.52820000
_cell_length_c   16.52820000
_cell_angle_alpha   69.06450000
_cell_angle_beta   69.06450000
_cell_angle_gamma   69.06450000
_symmetry_Int_Tables_number   1
_chemical_formula_structural   CuH5C11(NO2)2
_chemical_formula_sum   'Cu6 H30 C66 N12 O24'
_cell_volume   3799.78749395
_cell_formula_units_Z   6
loop_
 _symmetry_equiv_pos_site_id
 _symmetry_equiv_pos_as_xyz
  1  'x, y, z'
loop_
 _atom_site_type_symbol
 _atom_site_label
 _atom_site_symmetry_multiplicity
 _atom_site_fract_x
 _atom_site_fract_y
 _atom_site_fract_z
 _atom_site_occupancy
 _atom_site_charge
Cu  Cu1  1  0.50648000  0.07534000  0.50648000  1.0 0.8685702
Cu  Cu2  1  0.07534000  0.50648000  0.50648000  1.0 0.8685702
Cu  Cu3  1  0.50648000  0.50648000  0.07534000  1.0 0.8685702
Cu  Cu4  1  0.92466000  0.49352000  0.49352000  1.0 0.8685702
Cu  Cu5  1  0.49352000  0.92466000  0.49352000  1.0 0.8685702
Cu  Cu6  1  0.49352000  0.49352000  0.92466000  1.0 0.8685702
H  H1  1  0.51850000  0.99830000  0.21480000  1.0 0.1210499329
H  H2  1  0.99830000  0.21480000  0.51850000  1.0 0.1210499329
H  H3  1  0.21480000  0.51850000  0.99830000  1.0 0.1210499329
H  H4  1  0.00170000  0.48150000  0.78520000  1.0 0.1210499329
H  H5  1  0.78520000  0.00170000  0.48150000  1.0 0.1210499329
H  H6  1  0.48150000  0.78520000  0.00170000  1.0 0.1210499329
H  H7  1  0.48150000  0.00170000  0.78520000  1.0 0.1210499329
H  H8  1  0.00170000  0.78520000  0.48150000  1.0 0.1210499329
H  H9  1  0.78520000  0.48150000  0.00170000  1.0 0.1210499329
H  H10  1  0.99830000  0.51850000  0.21480000  1.0 0.1210499329
H  H11  1  0.21480000  0.99830000  0.51850000  1.0 0.1210499329
H  H12  1  0.51850000  0.21480000  0.99830000  1.0 0.1210499329
H  H13  1  0.53000000  0.23130000  0.23130000  1.0 0.1422878195
H  H14  1  0.23130000  0.23130000  0.53000000  1.0 0.1422878195
H  H15  1  0.23130000  0.53000000  0.23130000  1.0 0.1422878195
H  H16  1  0.76870000  0.47000000  0.76870000  1.0 0.1422878195
H  H17  1  0.76870000  0.76870000  0.47000000  1.0 0.1422878195
H  H18  1  0.47000000  0.76870000  0.76870000  1.0 0.1422878195
H  H19  1  0.58380000  0.10690000  0.92510000  1.0 0.1210499329
H  H20  1  0.10690000  0.92510000  0.58380000  1.0 0.1210499329
H  H21  1  0.92510000  0.58380000  0.10690000  1.0 0.1210499329
H  H22  1  0.89310000  0.41620000  0.07490000  1.0 0.1210499329
H  H23  1  0.07490000  0.89310000  0.41620000  1.0 0.1210499329
H  H24  1  0.41620000  0.07490000  0.89310000  1.0 0.1210499329
H  H25  1  0.41620000  0.89310000  0.07490000  1.0 0.1210499329
H  H26  1  0.89310000  0.07490000  0.41620000  1.0 0.1210499329
H  H27  1  0.07490000  0.41620000  0.89310000  1.0 0.1210499329
H  H28  1  0.10690000  0.58380000  0.92510000  1.0 0.1210499329
H  H29  1  0.92510000  0.10690000  0.58380000  1.0 0.1210499329
H  H30  1  0.58380000  0.92510000  0.10690000  1.0 0.1210499329
C  C1  1  0.51067000  0.04667000  0.04667000  1.0 0.0809548575
C  C2  1  0.04667000  0.04667000  0.51067000  1.0 0.0809548575
C  C3  1  0.04667000  0.51067000  0.04667000  1.0 0.0809548575
C  C4  1  0.95333000  0.48933000  0.95333000  1.0 0.0809548575
C  C5  1  0.95333000  0.95333000  0.48933000  1.0 0.0923835102
C  C6  1  0.48933000  0.95333000  0.95333000  1.0 0.0809548575
C  C7  1  0.51802000  0.09812000  0.09812000  1.0 0.0382850866
C  C8  1  0.09812000  0.09812000  0.51802000  1.0 0.0382850866
C  C9  1  0.09812000  0.51802000  0.09812000  1.0 0.0382850866
C  C10  1  0.90188000  0.48198000  0.90188000  1.0 0.0382850866
C  C11  1  0.90188000  0.90188000  0.48198000  1.0 0.0382850866
C  C12  1  0.48198000  0.90188000  0.90188000  1.0 0.0382850866
C  C13  1  0.52009000  0.05918000  0.18764000  1.0 -0.1566452358
C  C14  1  0.05918000  0.18764000  0.52009000  1.0 -0.1566452358
C  C15  1  0.18764000  0.52009000  0.05918000  1.0 -0.1566452358
C  C16  1  0.94082000  0.47991000  0.81236000  1.0 -0.1566452358
C  C17  1  0.81236000  0.94082000  0.47991000  1.0 -0.1566452358
C  C18  1  0.47991000  0.81236000  0.94082000  1.0 -0.1566452358
C  C19  1  0.47991000  0.94082000  0.81236000  1.0 -0.1566452358
C  C20  1  0.94082000  0.81236000  0.47991000  1.0 -0.1566452358
C  C21  1  0.81236000  0.47991000  0.94082000  1.0 -0.1566452358
C  C22  1  0.05918000  0.52009000  0.18764000  1.0 -0.1566452358
C  C23  1  0.18764000  0.05918000  0.52009000  1.0 -0.1566452358
C  C24  1  0.52009000  0.18764000  0.05918000  1.0 -0.1566452358
C  C25  1  0.52438000  0.10862000  0.23666000  1.0 -0.0131280275
C  C26  1  0.10862000  0.23666000  0.52438000  1.0 -0.0131280275
C  C27  1  0.23666000  0.52438000  0.10862000  1.0 -0.0131280275
C  C28  1  0.89138000  0.47562000  0.76334000  1.0 -0.0131280275
C  C29  1  0.76334000  0.89138000  0.47562000  1.0 -0.0131280275
C  C30  1  0.47562000  0.76334000  0.89138000  1.0 -0.0131280275
C  C31  1  0.47562000  0.89138000  0.76334000  1.0 -0.0131280275
C  C32  1  0.89138000  0.76334000  0.47562000  1.0 -0.0131280275
C  C33  1  0.76334000  0.47562000  0.89138000  1.0 -0.0131280275
C  C34  1  0.10862000  0.52438000  0.23666000  1.0 -0.0131280275
C  C35  1  0.23666000  0.10862000  0.52438000  1.0 -0.0131280275
C  C36  1  0.52438000  0.23666000  0.10862000  1.0 -0.0131280275
C  C37  1  0.52673000  0.19737000  0.19737000  1.0 -0.1121711221
C  C38  1  0.19737000  0.19737000  0.52673000  1.0 -0.1121711221
C  C39  1  0.19737000  0.52673000  0.19737000  1.0 -0.1121711221
C  C40  1  0.80263000  0.47327000  0.80263000  1.0 -0.1121711221
C  C41  1  0.80263000  0.80263000  0.47327000  1.0 -0.1121711221
C  C42  1  0.47327000  0.80263000  0.80263000  1.0 -0.1121711221
C  C43  1  0.51968000  0.06787000  0.33467000  1.0 0.5885169967
C  C44  1  0.06787000  0.33467000  0.51968000  1.0 0.5885169967
C  C45  1  0.33467000  0.51968000  0.06787000  1.0 0.5885169967
C  C46  1  0.93213000  0.48032000  0.66533000  1.0 0.5885169967
C  C47  1  0.66533000  0.93213000  0.48032000  1.0 0.5885169967
C  C48  1  0.48032000  0.66533000  0.93213000  1.0 0.5885169967
C  C49  1  0.48032000  0.93213000  0.66533000  1.0 0.5885169967
C  C50  1  0.93213000  0.66533000  0.48032000  1.0 0.5885169967
C  C51  1  0.66533000  0.48032000  0.93213000  1.0 0.5885169967
C  C52  1  0.06787000  0.51968000  0.33467000  1.0 0.5885169967
C  C53  1  0.33467000  0.06787000  0.51968000  1.0 0.5885169967
C  C54  1  0.51968000  0.33467000  0.06787000  1.0 0.5885169967
C  C55  1  0.54706000  0.06626000  0.95586000  1.0 -0.0271873287
C  C56  1  0.06626000  0.95586000  0.54706000  1.0 -0.0131280275
C  C57  1  0.95586000  0.54706000  0.06626000  1.0 -0.0131280275
C  C58  1  0.93374000  0.45294000  0.04414000  1.0 -0.0131280275
C  C59  1  0.04414000  0.93374000  0.45294000  1.0 -0.0131280275
C  C60  1  0.45294000  0.04414000  0.93374000  1.0 -0.0191617775
C  C61  1  0.45294000  0.93374000  0.04414000  1.0 -0.0191617775
C  C62  1  0.93374000  0.04414000  0.45294000  1.0 -0.0131280275
C  C63  1  0.04414000  0.45294000  0.93374000  1.0 -0.0271873287
C  C64  1  0.06626000  0.54706000  0.95586000  1.0 -0.0271873287
C  C65  1  0.95586000  0.06626000  0.54706000  1.0 -0.0191617775
C  C66  1  0.54706000  0.95586000  0.06626000  1.0 -0.0131280275
N  N1  1  0.47365000  0.08685000  0.97775000  1.0 -0.0998208638
N  N2  1  0.08685000  0.97775000  0.47365000  1.0 -0.1185237832
N  N3  1  0.97775000  0.47365000  0.08685000  1.0 -0.1269174602
N  N4  1  0.91315000  0.52635000  0.02225000  1.0 -0.0998208638
N  N5  1  0.02225000  0.91315000  0.52635000  1.0 -0.1185237832
N  N6  1  0.52635000  0.02225000  0.91315000  1.0 -0.0998208638
N  N7  1  0.52635000  0.91315000  0.02225000  1.0 -0.1185237832
N  N8  1  0.91315000  0.02225000  0.52635000  1.0 -0.1185237832
N  N9  1  0.02225000  0.52635000  0.91315000  1.0 -0.0998208638
N  N10  1  0.08685000  0.47365000  0.97775000  1.0 -0.0925639581
N  N11  1  0.97775000  0.08685000  0.47365000  1.0 -0.1121711221
N  N12  1  0.47365000  0.97775000  0.08685000  1.0 -0.0998208638
O  O1  1  0.52206000  0.11649000  0.37685000  1.0 -0.5219352257
O  O2  1  0.11649000  0.37685000  0.52206000  1.0 -0.5219352257
O  O3  1  0.37685000  0.52206000  0.11649000  1.0 -0.5219352257
O  O4  1  0.88351000  0.47794000  0.62315000  1.0 -0.5219352257
O  O5  1  0.62315000  0.88351000  0.47794000  1.0 -0.5219352257
O  O6  1  0.47794000  0.62315000  0.88351000  1.0 -0.5219352257
O  O7  1  0.47794000  0.88351000  0.62315000  1.0 -0.5219352257
O  O8  1  0.88351000  0.62315000  0.47794000  1.0 -0.5219352257
O  O9  1  0.62315000  0.47794000  0.88351000  1.0 -0.5219352257
O  O10  1  0.11649000  0.52206000  0.37685000  1.0 -0.5219352257
O  O11  1  0.37685000  0.11649000  0.52206000  1.0 -0.5219352257
O  O12  1  0.52206000  0.37685000  0.11649000  1.0 -0.5219352257
O  O13  1  0.51300000  0.98878000  0.36635000  1.0 -0.5219352257
O  O14  1  0.98878000  0.36635000  0.51300000  1.0 -0.5219352257
O  O15  1  0.36635000  0.51300000  0.98878000  1.0 -0.5219352257
O  O16  1  0.01122000  0.48700000  0.63365000  1.0 -0.5219352257
O  O17  1  0.63365000  0.01122000  0.48700000  1.0 -0.5219352257
O  O18  1  0.48700000  0.63365000  0.01122000  1.0 -0.5219352257
O  O19  1  0.48700000  0.01122000  0.63365000  1.0 -0.5219352257
O  O20  1  0.01122000  0.63365000  0.48700000  1.0 -0.5219352257
O  O21  1  0.63365000  0.48700000  0.01122000  1.0 -0.5219352257
O  O22  1  0.98878000  0.51300000  0.36635000  1.0 -0.5219352257
O  O23  1  0.36635000  0.98878000  0.51300000  1.0 -0.5219352257
O  O24  1  0.51300000  0.36635000  0.98878000  1.0 -0.5219352257
