# DDEC6 charges by PACMAN v1.1 (https://github.com/mtap-research/PACMAN-charge/)
data_CUQDOH_ASR_pacman
_symmetry_space_group_name_H-M   'P 1'
_cell_length_a   19.39740000
_cell_length_b   19.39740000
_cell_length_c   20.88200000
_cell_angle_alpha   86.36100000
_cell_angle_beta   93.63900000
_cell_angle_gamma   156.05700000
_symmetry_Int_Tables_number   1
_chemical_formula_structural   Ag3H42C60ClO4
_chemical_formula_sum   'Ag6 H84 C120 Cl2 O8'
_cell_volume   3181.88668393
_cell_formula_units_Z   2
loop_
 _symmetry_equiv_pos_site_id
 _symmetry_equiv_pos_as_xyz
  1  'x, y, z'
loop_
 _atom_site_type_symbol
 _atom_site_label
 _atom_site_symmetry_multiplicity
 _atom_site_fract_x
 _atom_site_fract_y
 _atom_site_fract_z
 _atom_site_occupancy
 _atom_site_charge
Ag  Ag1  1  0.54082000  0.93582000  0.74570000  1.0 0.419796034
Ag  Ag2  1  0.06418000  0.45918000  0.24570000  1.0 0.419796034
Ag  Ag3  1  0.18556000  0.37476000  0.02260000  1.0 0.4420813762
Ag  Ag4  1  0.62524000  0.81444000  0.52260000  1.0 0.4420813762
Ag  Ag5  1  0.43227000  0.17947000  0.23240000  1.0 0.3120959394
Ag  Ag6  1  0.82053000  0.56773000  0.73240000  1.0 0.3120959394
H  H1  1  0.81160000  0.12360000  0.77950000  1.0 0.1315625333
H  H2  1  0.87640000  0.18840000  0.27950000  1.0 0.1315625333
H  H3  1  0.85690000  0.28590000  0.77630000  1.0 0.1112899461
H  H4  1  0.71410000  0.14310000  0.27630000  1.0 0.1112899461
H  H5  1  0.79020000  0.28620000  0.86340000  1.0 0.1112899461
H  H6  1  0.71380000  0.20980000  0.36340000  1.0 0.1112899461
H  H7  1  0.68370000  0.13670000  0.95870000  1.0 0.1205603821
H  H8  1  0.86330000  0.31630000  0.45870000  1.0 0.1205603821
H  H9  1  0.25280000  0.59400000  0.01220000  1.0 0.1390380008
H  H10  1  0.40600000  0.74720000  0.51220000  1.0 0.1390380008
H  H11  1  0.03240000  0.33500000  0.95900000  1.0 0.1112899461
H  H12  1  0.66500000  0.96760000  0.45900000  1.0 0.1112899461
H  H13  1  0.09040000  0.32740000  0.86880000  1.0 0.1205603821
H  H14  1  0.67260000  0.90960000  0.36880000  1.0 0.1205603821
H  H15  1  0.36790000  0.57530000  0.82990000  1.0 0.1390380008
H  H16  1  0.42470000  0.63210000  0.32990000  1.0 0.1390380008
H  H17  1  0.77160000  0.02400000  0.08970000  1.0 0.1390380008
H  H18  1  0.97600000  0.22840000  0.58970000  1.0 0.1390380008
H  H19  1  0.96860000  0.10920000  0.09830000  1.0 0.1205603821
H  H20  1  0.89080000  0.03140000  0.59830000  1.0 0.1205603821
H  H21  1  0.02480000  0.09620000  0.00730000  1.0 0.1112899461
H  H22  1  0.90380000  0.97520000  0.50730000  1.0 0.1112899461
H  H23  1  0.89460000  0.01080000  0.90630000  1.0 0.1205603821
H  H24  1  0.98920000  0.10540000  0.40630000  1.0 0.1205603821
H  H25  1  0.68400000  0.89840000  0.84270000  1.0 0.1315625333
H  H26  1  0.10160000  0.31600000  0.34270000  1.0 0.1315625333
H  H27  1  0.57160000  0.91700000  0.01500000  1.0 0.1315625333
H  H28  1  0.08300000  0.42840000  0.51500000  1.0 0.1315625333
H  H29  1  0.41150000  0.51130000  0.12210000  1.0 0.1315625333
H  H30  1  0.48870000  0.58850000  0.62210000  1.0 0.1315625333
H  H31  1  0.50880000  0.66400000  0.02830000  1.0 0.1112899461
H  H32  1  0.33600000  0.49120000  0.52830000  1.0 0.1112899461
H  H33  1  0.52460000  0.62800000  0.93350000  1.0 0.1112899461
H  H34  1  0.37200000  0.47540000  0.43350000  1.0 0.1112899461
H  H35  1  0.44700000  0.43900000  0.92530000  1.0 0.1205603821
H  H36  1  0.56100000  0.55300000  0.42530000  1.0 0.1205603821
H  H37  1  0.96760000  0.96460000  0.17540000  1.0 0.1205603821
H  H38  1  0.03540000  0.03240000  0.67540000  1.0 0.1205603821
H  H39  1  0.72910000  0.69510000  0.12660000  1.0 0.1112899461
H  H40  1  0.30490000  0.27090000  0.62660000  1.0 0.1112899461
H  H41  1  0.75490000  0.66890000  0.03190000  1.0 0.1049061708
H  H42  1  0.33110000  0.24510000  0.53190000  1.0 0.1049061708
H  H43  1  0.02210000  0.90530000  0.97970000  1.0 0.1205603821
H  H44  1  0.09470000  0.97790000  0.47970000  1.0 0.1205603821
H  H45  1  0.52070000  0.41310000  0.22820000  1.0 0.1205603821
H  H46  1  0.58690000  0.47930000  0.72820000  1.0 0.1205603821
H  H47  1  0.71320000  0.49600000  0.21720000  1.0 0.1049061708
H  H48  1  0.50400000  0.28680000  0.71720000  1.0 0.1112899461
H  H49  1  0.73190000  0.45910000  0.11980000  1.0 0.1112899461
H  H50  1  0.54090000  0.26810000  0.61980000  1.0 0.1112899461
H  H51  1  0.56110000  0.34190000  0.03160000  1.0 0.1205603821
H  H52  1  0.65810000  0.43890000  0.53160000  1.0 0.1205603821
H  H53  1  0.34090000  0.22930000  0.98380000  1.0 0.1205603821
H  H54  1  0.77070000  0.65910000  0.48380000  1.0 0.1205603821
H  H55  1  0.29280000  0.28420000  0.17040000  1.0 0.1205603821
H  H56  1  0.71580000  0.70720000  0.67040000  1.0 0.1205603821
H  H57  1  0.05140000  0.81560000  0.32700000  1.0 0.1205603821
H  H58  1  0.18440000  0.94860000  0.82700000  1.0 0.1205603821
H  H59  1  0.12640000  0.97020000  0.24490000  1.0 0.1112899461
H  H60  1  0.02980000  0.87360000  0.74490000  1.0 0.1112899461
H  H61  1  0.17630000  0.98370000  0.14150000  1.0 0.1112899461
H  H62  1  0.01630000  0.82370000  0.64150000  1.0 0.1112899461
H  H63  1  0.12540000  0.82120000  0.11440000  1.0 0.1205603821
H  H64  1  0.17880000  0.87460000  0.61440000  1.0 0.1205603821
H  H65  1  0.62780000  0.27620000  0.34880000  1.0 0.1205603821
H  H66  1  0.72380000  0.37220000  0.84880000  1.0 0.1205603821
H  H67  1  0.39590000  0.02150000  0.28700000  1.0 0.1112899461
H  H68  1  0.97850000  0.60410000  0.78700000  1.0 0.1112899461
H  H69  1  0.43930000  0.03230000  0.18130000  1.0 0.1205603821
H  H70  1  0.96770000  0.56070000  0.68130000  1.0 0.1205603821
H  H71  1  0.71050000  0.28610000  0.13770000  1.0 0.1205603821
H  H72  1  0.71390000  0.28950000  0.63770000  1.0 0.1205603821
H  H73  1  0.16990000  0.70770000  0.40180000  1.0 0.1205603821
H  H74  1  0.29230000  0.83010000  0.90180000  1.0 0.1205603821
H  H75  1  0.36200000  0.79440000  0.37700000  1.0 0.1112899461
H  H76  1  0.20560000  0.63800000  0.87700000  1.0 0.1112899461
H  H77  1  0.40390000  0.80190000  0.27360000  1.0 0.1205603821
H  H78  1  0.19810000  0.59610000  0.77360000  1.0 0.1205603821
H  H79  1  0.26030000  0.73050000  0.18470000  1.0 0.1315625333
H  H80  1  0.26950000  0.73970000  0.68470000  1.0 0.1315625333
H  H81  1  0.02760000  0.60860000  0.15050000  1.0 0.1205603821
H  H82  1  0.39140000  0.97240000  0.65050000  1.0 0.1205603821
H  H83  1  0.95210000  0.59930000  0.35420000  1.0 0.1112899461
H  H84  1  0.40070000  0.04790000  0.85420000  1.0 0.1205603821
C  C1  1  0.77950000  0.12050000  0.81500000  1.0 -0.1988310101
C  C2  1  0.87950000  0.22050000  0.31500000  1.0 -0.1988310101
C  C3  1  0.80810000  0.21790000  0.81420000  1.0 -0.1297990911
C  C4  1  0.78210000  0.19190000  0.31420000  1.0 -0.1297990911
C  C5  1  0.77330000  0.22270000  0.86580000  1.0 -0.0978834674
C  C6  1  0.77730000  0.22670000  0.36580000  1.0 -0.0978834674
C  C7  1  0.70370000  0.12830000  0.92070000  1.0 -0.1715071333
C  C8  1  0.87170000  0.29630000  0.42070000  1.0 -0.1715071333
C  C9  1  0.66890000  0.02470000  0.92170000  1.0 0.0378646844
C  C10  1  0.97530000  0.33110000  0.42170000  1.0 0.0378646844
C  C11  1  0.70570000  0.01990000  0.86900000  1.0 0.0378646844
C  C12  1  0.98010000  0.29430000  0.36900000  1.0 0.0378646844
C  C13  1  0.27520000  0.58880000  0.97480000  1.0 -0.1715071333
C  C14  1  0.41120000  0.72480000  0.47480000  1.0 -0.1715071333
C  C15  1  0.14730000  0.43870000  0.94390000  1.0 -0.1428334571
C  C16  1  0.56130000  0.85270000  0.44390000  1.0 -0.1428334571
C  C17  1  0.18080000  0.43320000  0.88920000  1.0 -0.1123281248
C  C18  1  0.56680000  0.81920000  0.38920000  1.0 -0.1123281248
C  C19  1  0.34330000  0.57870000  0.86640000  1.0 -0.1472707957
C  C20  1  0.42130000  0.65670000  0.36640000  1.0 -0.1472707957
C  C21  1  0.47540000  0.73240000  0.89740000  1.0 0.0294059578
C  C22  1  0.26760000  0.52460000  0.39740000  1.0 0.0294059578
C  C23  1  0.44010000  0.73630000  0.95160000  1.0 0.0294059578
C  C24  1  0.26370000  0.55990000  0.45160000  1.0 0.0294059578
C  C25  1  0.79890000  0.02310000  0.05200000  1.0 -0.1626145903
C  C26  1  0.97690000  0.20110000  0.55200000  1.0 -0.1626145903
C  C27  1  0.91280000  0.07120000  0.05710000  1.0 -0.1472707957
C  C28  1  0.92880000  0.08720000  0.55710000  1.0 -0.1472707957
C  C29  1  0.94800000  0.06600000  0.00280000  1.0 -0.1297990911
C  C30  1  0.93400000  0.05200000  0.50280000  1.0 -0.1297990911
C  C31  1  0.87150000  0.01510000  0.94370000  1.0 -0.1626145903
C  C32  1  0.98490000  0.12850000  0.44370000  1.0 -0.1626145903
C  C33  1  0.76120000  0.96920000  0.93900000  1.0 0.0378646844
C  C34  1  0.03080000  0.23880000  0.43900000  1.0 0.0378646844
C  C35  1  0.72330000  0.97170000  0.99250000  1.0 0.0378646844
C  C36  1  0.02830000  0.27670000  0.49250000  1.0 0.0378646844
C  C37  1  0.66130000  0.90350000  0.87890000  1.0 -0.1179836549
C  C38  1  0.09650000  0.33870000  0.37890000  1.0 -0.1179836549
C  C39  1  0.59560000  0.91320000  0.97820000  1.0 -0.1123281248
C  C40  1  0.08680000  0.40440000  0.47820000  1.0 -0.1123281248
C  C41  1  0.41490000  0.49350000  0.08150000  1.0 -0.1778721332
C  C42  1  0.50650000  0.58510000  0.58150000  1.0 -0.1778721332
C  C43  1  0.47350000  0.58450000  0.02540000  1.0 -0.1297990911
C  C44  1  0.41550000  0.52650000  0.52540000  1.0 -0.1297990911
C  C45  1  0.48170000  0.56230000  0.97080000  1.0 -0.0978834674
C  C46  1  0.43770000  0.51830000  0.47080000  1.0 -0.0978834674
C  C47  1  0.43540000  0.45060000  0.96480000  1.0 -0.1715071333
C  C48  1  0.54940000  0.56460000  0.46480000  1.0 -0.1715071333
C  C49  1  0.38080000  0.36260000  0.01850000  1.0 0.0378646844
C  C50  1  0.63740000  0.61920000  0.51850000  1.0 0.0378646844
C  C51  1  0.36650000  0.38050000  0.07700000  1.0 0.0294059578
C  C52  1  0.61950000  0.63350000  0.57700000  1.0 0.0294059578
C  C53  1  0.97850000  0.95150000  0.13550000  1.0 -0.1626145903
C  C54  1  0.04850000  0.02150000  0.63550000  1.0 -0.1626145903
C  C55  1  0.83780000  0.79420000  0.10690000  1.0 -0.0978834674
C  C56  1  0.20580000  0.16220000  0.60690000  1.0 -0.0978834674
C  C57  1  0.85340000  0.77860000  0.04990000  1.0 -0.0978834674
C  C58  1  0.22140000  0.14660000  0.54990000  1.0 -0.0978834674
C  C59  1  0.01190000  0.91810000  0.01900000  1.0 -0.1715071333
C  C60  1  0.08190000  0.98810000  0.51900000  1.0 -0.1715071333
C  C61  1  0.15080000  0.07360000  0.04820000  1.0 0.0294059578
C  C62  1  0.92640000  0.84920000  0.54820000  1.0 0.0294059578
C  C63  1  0.13730000  0.09270000  0.10570000  1.0 0.0294059578
C  C64  1  0.90730000  0.86270000  0.60570000  1.0 0.0294059578
C  C65  1  0.52910000  0.39890000  0.18750000  1.0 -0.1988310101
C  C66  1  0.60110000  0.47090000  0.68750000  1.0 -0.1988310101
C  C67  1  0.64280000  0.44720000  0.18060000  1.0 -0.1472707957
C  C68  1  0.55280000  0.35720000  0.68060000  1.0 -0.1472707957
C  C69  1  0.65490000  0.42710000  0.12310000  1.0 -0.1179836549
C  C70  1  0.57290000  0.34510000  0.62310000  1.0 -0.1179836549
C  C71  1  0.55410000  0.35770000  0.07120000  1.0 -0.1626145903
C  C72  1  0.64230000  0.44590000  0.57120000  1.0 -0.1626145903
C  C73  1  0.44500000  0.31240000  0.07650000  1.0 0.0294059578
C  C74  1  0.68760000  0.55500000  0.57650000  1.0 0.0294059578
C  C75  1  0.42810000  0.32710000  0.13400000  1.0 0.0294059578
C  C76  1  0.67290000  0.57190000  0.63400000  1.0 0.0294059578
C  C77  1  0.33100000  0.24160000  0.02350000  1.0 -0.1179836549
C  C78  1  0.75840000  0.66900000  0.52350000  1.0 -0.1179836549
C  C79  1  0.30440000  0.27380000  0.12990000  1.0 -0.1123281248
C  C80  1  0.72620000  0.69560000  0.62990000  1.0 -0.1123281248
C  C81  1  0.06240000  0.81360000  0.28220000  1.0 -0.1886279664
C  C82  1  0.18640000  0.93760000  0.78220000  1.0 -0.1886279664
C  C83  1  0.11240000  0.90960000  0.23480000  1.0 -0.1472707957
C  C84  1  0.09040000  0.88760000  0.73480000  1.0 -0.1472707957
C  C85  1  0.13760000  0.91440000  0.17370000  1.0 -0.1297990911
C  C86  1  0.08560000  0.86240000  0.67370000  1.0 -0.1297990911
C  C87  1  0.10760000  0.81800000  0.15720000  1.0 -0.1778721332
C  C88  1  0.18200000  0.89240000  0.65720000  1.0 -0.1778721332
C  C89  1  0.05520000  0.72240000  0.20320000  1.0 0.0294059578
C  C90  1  0.27760000  0.94480000  0.70320000  1.0 0.0294059578
C  C91  1  0.03180000  0.71900000  0.26610000  1.0 0.0378646844
C  C92  1  0.28100000  0.96820000  0.76610000  1.0 0.0378646844
C  C93  1  0.64560000  0.27840000  0.30570000  1.0 -0.1988310101
C  C94  1  0.72160000  0.35440000  0.80570000  1.0 -0.1988310101
C  C95  1  0.50560000  0.12620000  0.26860000  1.0 -0.1428334571
C  C96  1  0.87380000  0.49440000  0.76860000  1.0 -0.1428334571
C  C97  1  0.53090000  0.13110000  0.20650000  1.0 -0.1179836549
C  C98  1  0.86890000  0.46910000  0.70650000  1.0 -0.1179836549
C  C99  1  0.69360000  0.28440000  0.18060000  1.0 -0.1715071333
C  C100  1  0.71560000  0.30640000  0.68060000  1.0 -0.1715071333
C  C101  1  0.82720000  0.42940000  0.21600000  1.0 0.0294059578
C  C102  1  0.57060000  0.17280000  0.71600000  1.0 0.0294059578
C  C103  1  0.80420000  0.42700000  0.27900000  1.0 0.0378646844
C  C104  1  0.57300000  0.19580000  0.77900000  1.0 0.0378646844
C  C105  1  0.18330000  0.70670000  0.35710000  1.0 -0.1715071333
C  C106  1  0.29330000  0.81670000  0.85710000  1.0 -0.1715071333
C  C107  1  0.29870000  0.76130000  0.34270000  1.0 -0.1123281248
C  C108  1  0.23870000  0.70130000  0.84270000  1.0 -0.1123281248
C  C109  1  0.32620000  0.76780000  0.28030000  1.0 -0.1297990911
C  C110  1  0.23220000  0.67380000  0.78030000  1.0 -0.1297990911
C  C111  1  0.23920000  0.72240000  0.22820000  1.0 -0.2116415284
C  C112  1  0.27760000  0.76080000  0.72820000  1.0 -0.2116415284
C  C113  1  0.11980000  0.66400000  0.24320000  1.0 0.0188353855
C  C114  1  0.33600000  0.88020000  0.74320000  1.0 0.0188353855
C  C115  1  0.09540000  0.65920000  0.30610000  1.0 0.0294059578
C  C116  1  0.34080000  0.90460000  0.80610000  1.0 0.0294059578
C  C117  1  0.01020000  0.60520000  0.19380000  1.0 -0.1123281248
C  C118  1  0.39480000  0.98980000  0.69380000  1.0 -0.1123281248
C  C119  1  0.96840000  0.60120000  0.31050000  1.0 -0.1179836549
C  C120  1  0.39880000  0.03160000  0.81050000  1.0 -0.1179836549
Cl  Cl1  1  0.30900000  0.56680000  0.17070000  1.0 1.2514722787
Cl  Cl2  1  0.43320000  0.69100000  0.67070000  1.0 1.2514722787
O  O1  1  0.20080000  0.43720000  0.12640000  1.0 -0.5124665655
O  O2  1  0.56280000  0.79920000  0.62640000  1.0 -0.5124665655
O  O3  1  0.34280000  0.67320000  0.14300000  1.0 -0.5403086699
O  O4  1  0.32680000  0.65720000  0.64300000  1.0 -0.5403086699
O  O5  1  0.44930000  0.65870000  0.18900000  1.0 -0.4509526647
O  O6  1  0.34130000  0.55070000  0.68900000  1.0 -0.4509526647
O  O7  1  0.23500000  0.51500000  0.22510000  1.0 -0.4308018841
O  O8  1  0.48500000  0.76500000  0.72510000  1.0 -0.4308018841
