# DDEC6 charges by PACMAN v1.1 (https://github.com/mtap-research/PACMAN-charge/)
data_CUQROX_ASR_pacman
_symmetry_space_group_name_H-M   'P 1'
_cell_length_a   19.82300000
_cell_length_b   19.82300000
_cell_length_c   9.80230000
_cell_angle_alpha   79.73030000
_cell_angle_beta   100.27000000
_cell_angle_gamma   152.41700000
_symmetry_Int_Tables_number   1
_chemical_formula_structural   ZnH10C11(N2O)2
_chemical_formula_sum   'Zn4 H40 C44 N16 O8'
_cell_volume   1753.21280792
_cell_formula_units_Z   4
loop_
 _symmetry_equiv_pos_site_id
 _symmetry_equiv_pos_as_xyz
  1  'x, y, z'
loop_
 _atom_site_type_symbol
 _atom_site_label
 _atom_site_symmetry_multiplicity
 _atom_site_fract_x
 _atom_site_fract_y
 _atom_site_fract_z
 _atom_site_occupancy
 _atom_site_charge
Zn  Zn1  1  0.59794000  0.02594000  0.90922000  1.0 0.7317408945
Zn  Zn2  1  0.02594000  0.59794000  0.59078000  1.0 0.7317408945
Zn  Zn3  1  0.40206000  0.97406000  0.09078000  1.0 0.7317408945
Zn  Zn4  1  0.97406000  0.40206000  0.40922000  1.0 0.7317408945
H  H1  1  0.40900000  0.81040000  0.69320000  1.0 0.1588961937
H  H2  1  0.81040000  0.40900000  0.80680000  1.0 0.1588961937
H  H3  1  0.59100000  0.18960000  0.30680000  1.0 0.1588961937
H  H4  1  0.18960000  0.59100000  0.19320000  1.0 0.1588961937
H  H5  1  0.26510000  0.70610000  0.60530000  1.0 0.1588961937
H  H6  1  0.70610000  0.26510000  0.89470000  1.0 0.1588961937
H  H7  1  0.73490000  0.29390000  0.39470000  1.0 0.1588961937
H  H8  1  0.29390000  0.73490000  0.10530000  1.0 0.1588961937
H  H9  1  0.41070000  0.87450000  0.57030000  1.0 0.1534385856
H  H10  1  0.87450000  0.41070000  0.92970000  1.0 0.1534385856
H  H11  1  0.58930000  0.12550000  0.42970000  1.0 0.1534385856
H  H12  1  0.12550000  0.58930000  0.07030000  1.0 0.1534385856
H  H13  1  0.16360000  0.83180000  0.93240000  1.0 0.1588961937
H  H14  1  0.83180000  0.16360000  0.56760000  1.0 0.1588961937
H  H15  1  0.83640000  0.16820000  0.06760000  1.0 0.1588961937
H  H16  1  0.16820000  0.83640000  0.43240000  1.0 0.1588961937
H  H17  1  0.07560000  0.75600000  0.79100000  1.0 0.1588961937
H  H18  1  0.75600000  0.07560000  0.70900000  1.0 0.1588961937
H  H19  1  0.92440000  0.24400000  0.20900000  1.0 0.1588961937
H  H20  1  0.24400000  0.92440000  0.29100000  1.0 0.1588961937
H  H21  1  0.03420000  0.66640000  0.92200000  1.0 0.1659216347
H  H22  1  0.66640000  0.03420000  0.57800000  1.0 0.1659216347
H  H23  1  0.96580000  0.33360000  0.07800000  1.0 0.1659216347
H  H24  1  0.33360000  0.96580000  0.42200000  1.0 0.1659216347
H  H25  1  0.38330000  0.59930000  0.12630000  1.0 0.1279815908
H  H26  1  0.59930000  0.38330000  0.37370000  1.0 0.1279815908
H  H27  1  0.61670000  0.40070000  0.87370000  1.0 0.1279815908
H  H28  1  0.40070000  0.61670000  0.62630000  1.0 0.1279815908
H  H29  1  0.68790000  0.89850000  0.84960000  1.0 0.1279815908
H  H30  1  0.89850000  0.68790000  0.65040000  1.0 0.1279815908
H  H31  1  0.31210000  0.10150000  0.15040000  1.0 0.1279815908
H  H32  1  0.10150000  0.31210000  0.34960000  1.0 0.1279815908
H  H33  1  0.69260000  0.78580000  0.84380000  1.0 0.1279815908
H  H34  1  0.78580000  0.69260000  0.65620000  1.0 0.1279815908
H  H35  1  0.30740000  0.21420000  0.15620000  1.0 0.1279815908
H  H36  1  0.21420000  0.30740000  0.34380000  1.0 0.1279815908
H  H37  1  0.37410000  0.47430000  0.10940000  1.0 0.1151006248
H  H38  1  0.47430000  0.37410000  0.39060000  1.0 0.1151006248
H  H39  1  0.62590000  0.52570000  0.89060000  1.0 0.1151006248
H  H40  1  0.52570000  0.62590000  0.60940000  1.0 0.1151006248
C  C1  1  0.32009000  0.81791000  0.74170000  1.0 0.399299952
C  C2  1  0.81791000  0.32009000  0.75830000  1.0 0.399299952
C  C3  1  0.67991000  0.18209000  0.25830000  1.0 0.399299952
C  C4  1  0.18209000  0.67991000  0.24170000  1.0 0.399299952
C  C5  1  0.21550000  0.80010000  0.83560000  1.0 0.399299952
C  C6  1  0.80010000  0.21550000  0.66440000  1.0 0.399299952
C  C7  1  0.78450000  0.19990000  0.16440000  1.0 0.399299952
C  C8  1  0.19990000  0.78450000  0.33560000  1.0 0.399299952
C  C9  1  0.35430000  0.80070000  0.64380000  1.0 -0.5484655474
C  C10  1  0.80070000  0.35430000  0.85620000  1.0 -0.5484655474
C  C11  1  0.64570000  0.19930000  0.35620000  1.0 -0.5484655474
C  C12  1  0.19930000  0.64570000  0.14380000  1.0 -0.5484655474
C  C13  1  0.11330000  0.76010000  0.87360000  1.0 -0.533695874
C  C14  1  0.76010000  0.11330000  0.62640000  1.0 -0.533695874
C  C15  1  0.88670000  0.23990000  0.12640000  1.0 -0.533695874
C  C16  1  0.23990000  0.88670000  0.37360000  1.0 -0.533695874
C  C17  1  0.52390000  0.82590000  0.98340000  1.0 0.5280489947
C  C18  1  0.82590000  0.52390000  0.51660000  1.0 0.5280489947
C  C19  1  0.47610000  0.17410000  0.01660000  1.0 0.5280489947
C  C20  1  0.17410000  0.47610000  0.48340000  1.0 0.5280489947
C  C21  1  0.52920000  0.75400000  0.98120000  1.0 -0.0102872783
C  C22  1  0.75400000  0.52920000  0.51880000  1.0 -0.0102872783
C  C23  1  0.47080000  0.24600000  0.01880000  1.0 -0.0102872783
C  C24  1  0.24600000  0.47080000  0.48120000  1.0 -0.0102872783
C  C25  1  0.44180000  0.63380000  0.06510000  1.0 -0.0894945462
C  C26  1  0.63380000  0.44180000  0.43490000  1.0 -0.0894945462
C  C27  1  0.55820000  0.36620000  0.93490000  1.0 -0.0894945462
C  C28  1  0.36620000  0.55820000  0.56510000  1.0 -0.0894945462
C  C29  1  0.62420000  0.81280000  0.90240000  1.0 -0.095232473
C  C30  1  0.81280000  0.62420000  0.59760000  1.0 -0.095232473
C  C31  1  0.37580000  0.18720000  0.09760000  1.0 -0.095232473
C  C32  1  0.18720000  0.37580000  0.40240000  1.0 -0.095232473
C  C33  1  0.62770000  0.74550000  0.89940000  1.0 -0.1493138943
C  C34  1  0.74550000  0.62770000  0.60060000  1.0 -0.1493138943
C  C35  1  0.37230000  0.25450000  0.10060000  1.0 -0.1493138943
C  C36  1  0.25450000  0.37230000  0.39940000  1.0 -0.1493138943
C  C37  1  0.43980000  0.56160000  0.05900000  1.0 -0.157153291
C  C38  1  0.56160000  0.43980000  0.44100000  1.0 -0.157153291
C  C39  1  0.56020000  0.43840000  0.94100000  1.0 -0.157153291
C  C40  1  0.43840000  0.56020000  0.55900000  1.0 -0.157153291
C  C41  1  0.53700000  0.62280000  0.97700000  1.0 0.1534385856
C  C42  1  0.62280000  0.53700000  0.52300000  1.0 0.1534385856
C  C43  1  0.46300000  0.37720000  0.02300000  1.0 0.1534385856
C  C44  1  0.37720000  0.46300000  0.47700000  1.0 0.1534385856
N  N1  1  0.40617000  0.90303000  0.84640000  1.0 -0.2749481473
N  N2  1  0.90303000  0.40617000  0.65360000  1.0 -0.2769048784
N  N3  1  0.59383000  0.09697000  0.15360000  1.0 -0.2749481473
N  N4  1  0.09697000  0.59383000  0.34640000  1.0 -0.2769048784
N  N5  1  0.33970000  0.89230000  0.90880000  1.0 -0.2769048784
N  N6  1  0.89230000  0.33970000  0.59120000  1.0 -0.2769048784
N  N7  1  0.66030000  0.10770000  0.09120000  1.0 -0.2769048784
N  N8  1  0.10770000  0.66030000  0.40880000  1.0 -0.2769048784
N  N9  1  0.19769000  0.75011000  0.72980000  1.0 -0.4361096669
N  N10  1  0.75011000  0.19769000  0.77020000  1.0 -0.4361096669
N  N11  1  0.80231000  0.24989000  0.27020000  1.0 -0.4361096669
N  N12  1  0.24989000  0.80231000  0.22980000  1.0 -0.4361096669
N  N13  1  0.54690000  0.55990000  0.96840000  1.0 -0.1210930713
N  N14  1  0.55990000  0.54690000  0.53160000  1.0 -0.1210930713
N  N15  1  0.45310000  0.44010000  0.03160000  1.0 -0.1210930713
N  N16  1  0.44010000  0.45310000  0.46840000  1.0 -0.1210930713
O  O1  1  0.60860000  0.93820000  0.90850000  1.0 -0.5134434078
O  O2  1  0.93820000  0.60860000  0.59150000  1.0 -0.5134434078
O  O3  1  0.39140000  0.06180000  0.09150000  1.0 -0.5134434078
O  O4  1  0.06180000  0.39140000  0.40850000  1.0 -0.5134434078
O  O5  1  0.43900000  0.77300000  0.05080000  1.0 -0.4586983297
O  O6  1  0.77300000  0.43900000  0.44920000  1.0 -0.4586983297
O  O7  1  0.56100000  0.22700000  0.94920000  1.0 -0.4586983297
O  O8  1  0.22700000  0.56100000  0.55080000  1.0 -0.4586983297
