# DDEC6 charges by PACMAN v1.1 (https://github.com/mtap-research/PACMAN-charge/)
data_CURBOH_FSR_pacman
_symmetry_space_group_name_H-M   'P 1'
_cell_length_a   18.76150000
_cell_length_b   18.76150000
_cell_length_c   33.92000000
_cell_angle_alpha   74.92260000
_cell_angle_beta   105.07700000
_cell_angle_gamma   133.44000000
_symmetry_Int_Tables_number   1
_chemical_formula_structural   ZnH8C12(IN2)2
_chemical_formula_sum   'Zn12 H96 C144 I24 N48'
_cell_volume   8314.45503754
_cell_formula_units_Z   12
loop_
 _symmetry_equiv_pos_site_id
 _symmetry_equiv_pos_as_xyz
  1  'x, y, z'
loop_
 _atom_site_type_symbol
 _atom_site_label
 _atom_site_symmetry_multiplicity
 _atom_site_fract_x
 _atom_site_fract_y
 _atom_site_fract_z
 _atom_site_occupancy
 _atom_site_charge
Zn  Zn1  1  0.96642000  0.19746000  0.93631000  1.0 0.4646355057
Zn  Zn2  1  0.80254000  0.03358000  0.43631000  1.0 0.4646355057
Zn  Zn3  1  0.02832000  0.68634000  0.76738000  1.0 0.4485383773
Zn  Zn4  1  0.31366000  0.97168000  0.26738000  1.0 0.4485383773
Zn  Zn5  1  0.73838000  0.49166000  0.57502000  1.0 0.4485383773
Zn  Zn6  1  0.50834000  0.26162000  0.07502000  1.0 0.4485383773
Zn  Zn7  1  0.19746000  0.96642000  0.56369000  1.0 0.4646355057
Zn  Zn8  1  0.03358000  0.80254000  0.06369000  1.0 0.4646355057
Zn  Zn9  1  0.68634000  0.02832000  0.73262000  1.0 0.4485383773
Zn  Zn10  1  0.97168000  0.31366000  0.23262000  1.0 0.4485383773
Zn  Zn11  1  0.49166000  0.73838000  0.92498000  1.0 0.4485383773
Zn  Zn12  1  0.26162000  0.50834000  0.42498000  1.0 0.4485383773
H  H1  1  0.75040000  0.05160000  0.91430000  1.0 0.1163141572
H  H2  1  0.94840000  0.24960000  0.41430000  1.0 0.1163141572
H  H3  1  0.62650000  0.03390000  0.86810000  1.0 0.1407939187
H  H4  1  0.96610000  0.37350000  0.36810000  1.0 0.1407939187
H  H5  1  0.83040000  0.30020000  0.81150000  1.0 0.1321021387
H  H6  1  0.69980000  0.16960000  0.31150000  1.0 0.1321021387
H  H7  1  0.94920000  0.31260000  0.85930000  1.0 0.1078129327
H  H8  1  0.68740000  0.05080000  0.35930000  1.0 0.1078129327
H  H9  1  0.16290000  0.88150000  0.72030000  1.0 0.0993001846
H  H10  1  0.11850000  0.83710000  0.22030000  1.0 0.0993001846
H  H11  1  0.32800000  0.02500000  0.72300000  1.0 0.1407939187
H  H12  1  0.97500000  0.67200000  0.22300000  1.0 0.1452967741
H  H13  1  0.38310000  0.91510000  0.83190000  1.0 0.1407939187
H  H14  1  0.08490000  0.61690000  0.33190000  1.0 0.1407939187
H  H15  1  0.21160000  0.77220000  0.82740000  1.0 0.1078129327
H  H16  1  0.22780000  0.78840000  0.32740000  1.0 0.1078129327
H  H17  1  0.82680000  0.48680000  0.66130000  1.0 0.1078129327
H  H18  1  0.51320000  0.17320000  0.16130000  1.0 0.1078129327
H  H19  1  0.78240000  0.37340000  0.72210000  1.0 0.1321021387
H  H20  1  0.62660000  0.21760000  0.22210000  1.0 0.1321021387
H  H21  1  0.49760000  0.22240000  0.67610000  1.0 0.1321021387
H  H22  1  0.77760000  0.50240000  0.17610000  1.0 0.1321021387
H  H23  1  0.54920000  0.32480000  0.61590000  1.0 0.0993001846
H  H24  1  0.67520000  0.45080000  0.11590000  1.0 0.0993001846
H  H25  1  0.64520000  0.32080000  0.53000000  1.0 0.1078129327
H  H26  1  0.67920000  0.35480000  0.03000000  1.0 0.1078129327
H  H27  1  0.51230000  0.22050000  0.48460000  1.0 0.1407939187
H  H28  1  0.77950000  0.48770000  0.98460000  1.0 0.1407939187
H  H29  1  0.40750000  0.34870000  0.49310000  1.0 0.1407939187
H  H30  1  0.65130000  0.59250000  0.99310000  1.0 0.1407939187
H  H31  1  0.55820000  0.44840000  0.54140000  1.0 0.0993001846
H  H32  1  0.55160000  0.44180000  0.04140000  1.0 0.0993001846
H  H33  1  0.88570000  0.00450000  0.38780000  1.0 0.1078129327
H  H34  1  0.99550000  0.11430000  0.88780000  1.0 0.1078129327
H  H35  1  0.03180000  0.04800000  0.38010000  1.0 0.1407939187
H  H36  1  0.95200000  0.96820000  0.88010000  1.0 0.1407939187
H  H37  1  0.14090000  0.14810000  0.49110000  1.0 0.1407939187
H  H38  1  0.85190000  0.85910000  0.99110000  1.0 0.1407939187
H  H39  1  0.00020000  0.11920000  0.49050000  1.0 0.1078129327
H  H40  1  0.88080000  0.99980000  0.99050000  1.0 0.1078129327
H  H41  1  0.40330000  0.02450000  0.35610000  1.0 0.1078129327
H  H42  1  0.97550000  0.59670000  0.85610000  1.0 0.1078129327
H  H43  1  0.38700000  0.06520000  0.40800000  1.0 0.1407939187
H  H44  1  0.93480000  0.61300000  0.90800000  1.0 0.1407939187
H  H45  1  0.17330000  0.05290000  0.33450000  1.0 0.1407939187
H  H46  1  0.94710000  0.82670000  0.83450000  1.0 0.1407939187
H  H47  1  0.20610000  0.02990000  0.28350000  1.0 0.1163141572
H  H48  1  0.97010000  0.79390000  0.78350000  1.0 0.1163141572
H  H49  1  0.05160000  0.75040000  0.58570000  1.0 0.1163141572
H  H50  1  0.24960000  0.94840000  0.08570000  1.0 0.1163141572
H  H51  1  0.03390000  0.62650000  0.63190000  1.0 0.1407939187
H  H52  1  0.37350000  0.96610000  0.13190000  1.0 0.1407939187
H  H53  1  0.30020000  0.83040000  0.68850000  1.0 0.1321021387
H  H54  1  0.16960000  0.69980000  0.18850000  1.0 0.1321021387
H  H55  1  0.31260000  0.94920000  0.64070000  1.0 0.1078129327
H  H56  1  0.05080000  0.68740000  0.14070000  1.0 0.1078129327
H  H57  1  0.88150000  0.16290000  0.77970000  1.0 0.0993001846
H  H58  1  0.83710000  0.11850000  0.27970000  1.0 0.0993001846
H  H59  1  0.02500000  0.32800000  0.77700000  1.0 0.1407939187
H  H60  1  0.67200000  0.97500000  0.27700000  1.0 0.1452967741
H  H61  1  0.91510000  0.38310000  0.66810000  1.0 0.1407939187
H  H62  1  0.61690000  0.08490000  0.16810000  1.0 0.1452967741
H  H63  1  0.77220000  0.21160000  0.67260000  1.0 0.1078129327
H  H64  1  0.78840000  0.22780000  0.17260000  1.0 0.1078129327
H  H65  1  0.48680000  0.82680000  0.83870000  1.0 0.1078129327
H  H66  1  0.17320000  0.51320000  0.33870000  1.0 0.1078129327
H  H67  1  0.37340000  0.78240000  0.77790000  1.0 0.1321021387
H  H68  1  0.21760000  0.62660000  0.27790000  1.0 0.1321021387
H  H69  1  0.22240000  0.49760000  0.82390000  1.0 0.1321021387
H  H70  1  0.50240000  0.77760000  0.32390000  1.0 0.1321021387
H  H71  1  0.32480000  0.54920000  0.88410000  1.0 0.0993001846
H  H72  1  0.45080000  0.67520000  0.38410000  1.0 0.0993001846
H  H73  1  0.32080000  0.64520000  0.97000000  1.0 0.1078129327
H  H74  1  0.35480000  0.67920000  0.47000000  1.0 0.1078129327
H  H75  1  0.22050000  0.51230000  0.01540000  1.0 0.1407939187
H  H76  1  0.48770000  0.77950000  0.51540000  1.0 0.1407939187
H  H77  1  0.34870000  0.40750000  0.00690000  1.0 0.1407939187
H  H78  1  0.59250000  0.65130000  0.50690000  1.0 0.1407939187
H  H79  1  0.44840000  0.55820000  0.95860000  1.0 0.0993001846
H  H80  1  0.44180000  0.55160000  0.45860000  1.0 0.0993001846
H  H81  1  0.00450000  0.88570000  0.11220000  1.0 0.1078129327
H  H82  1  0.11430000  0.99550000  0.61220000  1.0 0.1078129327
H  H83  1  0.04800000  0.03180000  0.11990000  1.0 0.1407939187
H  H84  1  0.96820000  0.95200000  0.61990000  1.0 0.1407939187
H  H85  1  0.14810000  0.14090000  0.00890000  1.0 0.1407939187
H  H86  1  0.85910000  0.85190000  0.50890000  1.0 0.1407939187
H  H87  1  0.11920000  0.00020000  0.00950000  1.0 0.1078129327
H  H88  1  0.99980000  0.88080000  0.50950000  1.0 0.1078129327
H  H89  1  0.02450000  0.40330000  0.14390000  1.0 0.1078129327
H  H90  1  0.59670000  0.97550000  0.64390000  1.0 0.1078129327
H  H91  1  0.06520000  0.38700000  0.09200000  1.0 0.1407939187
H  H92  1  0.61300000  0.93480000  0.59200000  1.0 0.1407939187
H  H93  1  0.05290000  0.17330000  0.16550000  1.0 0.1407939187
H  H94  1  0.82670000  0.94710000  0.66550000  1.0 0.1407939187
H  H95  1  0.02990000  0.20610000  0.21650000  1.0 0.1163141572
H  H96  1  0.79390000  0.97010000  0.71650000  1.0 0.1163141572
C  C1  1  0.76790000  0.10430000  0.89320000  1.0 0.0993001846
C  C2  1  0.89570000  0.23210000  0.39320000  1.0 0.0993001846
C  C3  1  0.69320000  0.09280000  0.86530000  1.0 -0.1396002619
C  C4  1  0.90720000  0.30680000  0.36530000  1.0 -0.1396002619
C  C5  1  0.71420000  0.16560000  0.83370000  1.0 0.0496246816
C  C6  1  0.83440000  0.28580000  0.33370000  1.0 0.0496246816
C  C7  1  0.81100000  0.24700000  0.83260000  1.0 -0.1396002619
C  C8  1  0.75300000  0.18900000  0.33260000  1.0 -0.1396002619
C  C9  1  0.88180000  0.25440000  0.86130000  1.0 0.0496246816
C  C10  1  0.74560000  0.11820000  0.36130000  1.0 0.0496246816
C  C11  1  0.64190000  0.15530000  0.80260000  1.0 0.3446352252
C  C12  1  0.84470000  0.35810000  0.30260000  1.0 0.3446352252
C  C13  1  0.20850000  0.88650000  0.74260000  1.0 0.0795897593
C  C14  1  0.11350000  0.79150000  0.24260000  1.0 0.0795897593
C  C15  1  0.30700000  0.97240000  0.74450000  1.0 -0.1492706054
C  C16  1  0.02760000  0.69300000  0.24450000  1.0 -0.1492706054
C  C17  1  0.37510000  0.98390000  0.77640000  1.0 0.0795897593
C  C18  1  0.01610000  0.62490000  0.27640000  1.0 0.0795897593
C  C19  1  0.34010000  0.90950000  0.80810000  1.0 -0.1492706054
C  C20  1  0.09050000  0.65990000  0.30810000  1.0 -0.1492706054
C  C21  1  0.23710000  0.82290000  0.80490000  1.0 0.0993001846
C  C22  1  0.17710000  0.76290000  0.30490000  1.0 0.0993001846
C  C23  1  0.48230000  0.07350000  0.77630000  1.0 0.3686891117
C  C24  1  0.92650000  0.51770000  0.27630000  1.0 0.3686891117
C  C25  1  0.75940000  0.42880000  0.66330000  1.0 0.0993001846
C  C26  1  0.57120000  0.24060000  0.16330000  1.0 0.0993001846
C  C27  1  0.73260000  0.36400000  0.70100000  1.0 -0.1492706054
C  C28  1  0.63600000  0.26740000  0.20100000  1.0 -0.1492706054
C  C29  1  0.63450000  0.28810000  0.70640000  1.0 0.0496246816
C  C30  1  0.71190000  0.36550000  0.20640000  1.0 0.0496246816
C  C31  1  0.56620000  0.27420000  0.67370000  1.0 -0.1302364953
C  C32  1  0.72580000  0.43380000  0.17370000  1.0 -0.1302364953
C  C33  1  0.59800000  0.33560000  0.63790000  1.0 0.0691519858
C  C34  1  0.66440000  0.40200000  0.13790000  1.0 0.0691519858
C  C35  1  0.60080000  0.21440000  0.74270000  1.0 0.3686891117
C  C36  1  0.78560000  0.39920000  0.24270000  1.0 0.3686891117
C  C37  1  0.59710000  0.32690000  0.52190000  1.0 0.0873438412
C  C38  1  0.67310000  0.40290000  0.02190000  1.0 0.0873438412
C  C39  1  0.51790000  0.26590000  0.49580000  1.0 -0.1592044911
C  C40  1  0.73410000  0.48210000  0.99580000  1.0 -0.1592044911
C  C41  1  0.44290000  0.27110000  0.48540000  1.0 0.0795897593
C  C42  1  0.72890000  0.55710000  0.98540000  1.0 0.0795897593
C  C43  1  0.45410000  0.34050000  0.50030000  1.0 -0.1396002619
C  C44  1  0.65950000  0.54590000  0.00030000  1.0 -0.1396002619
C  C45  1  0.54670000  0.40130000  0.52860000  1.0 0.0993001846
C  C46  1  0.59870000  0.45330000  0.02860000  1.0 0.0993001846
C  C47  1  0.35310000  0.20390000  0.45780000  1.0 0.3686891117
C  C48  1  0.79610000  0.64690000  0.95780000  1.0 0.3686891117
C  C49  1  0.94100000  0.03960000  0.40790000  1.0 0.0795897593
C  C50  1  0.96040000  0.05900000  0.90790000  1.0 0.0795897593
C  C51  1  0.02620000  0.06160000  0.40370000  1.0 -0.1302364953
C  C52  1  0.93840000  0.97380000  0.90370000  1.0 -0.1302364953
C  C53  1  0.10290000  0.10450000  0.43540000  1.0 0.0579324172
C  C54  1  0.89550000  0.89710000  0.93540000  1.0 0.0579324172
C  C55  1  0.09120000  0.12260000  0.46830000  1.0 -0.1396002619
C  C56  1  0.87740000  0.90880000  0.96830000  1.0 -0.1396002619
C  C57  1  0.00620000  0.10340000  0.46790000  1.0 0.0691519858
C  C58  1  0.89660000  0.99380000  0.96790000  1.0 0.0691519858
C  C59  1  0.19460000  0.12760000  0.43410000  1.0 0.3828481802
C  C60  1  0.87240000  0.80540000  0.93410000  1.0 0.3828481802
C  C61  1  0.35540000  0.03040000  0.35180000  1.0 0.0496246816
C  C62  1  0.96960000  0.64460000  0.85180000  1.0 0.0496246816
C  C63  1  0.34900000  0.05700000  0.38200000  1.0 -0.1396002619
C  C64  1  0.94300000  0.65100000  0.88200000  1.0 -0.1396002619
C  C65  1  0.28120000  0.07320000  0.37360000  1.0 0.0496246816
C  C66  1  0.92680000  0.71880000  0.87360000  1.0 0.0496246816
C  C67  1  0.22510000  0.05250000  0.33890000  1.0 -0.1302364953
C  C68  1  0.94750000  0.77490000  0.83890000  1.0 -0.1302364953
C  C69  1  0.23920000  0.03080000  0.31010000  1.0 0.0340965701
C  C70  1  0.96920000  0.76080000  0.81010000  1.0 0.0356804536
C  C71  1  0.28130000  0.11530000  0.40490000  1.0 0.3686891117
C  C72  1  0.88470000  0.71870000  0.90490000  1.0 0.3686891117
C  C73  1  0.10430000  0.76790000  0.60680000  1.0 0.0993001846
C  C74  1  0.23210000  0.89570000  0.10680000  1.0 0.0993001846
C  C75  1  0.09280000  0.69320000  0.63470000  1.0 -0.1492706054
C  C76  1  0.30680000  0.90720000  0.13470000  1.0 -0.1492706054
C  C77  1  0.16560000  0.71420000  0.66630000  1.0 0.0496246816
C  C78  1  0.28580000  0.83440000  0.16630000  1.0 0.0496246816
C  C79  1  0.24700000  0.81100000  0.66740000  1.0 -0.1396002619
C  C80  1  0.18900000  0.75300000  0.16740000  1.0 -0.1396002619
C  C81  1  0.25440000  0.88180000  0.63870000  1.0 0.0496246816
C  C82  1  0.11820000  0.74560000  0.13870000  1.0 0.0496246816
C  C83  1  0.15530000  0.64190000  0.69740000  1.0 0.3453513452
C  C84  1  0.35810000  0.84470000  0.19740000  1.0 0.3446352252
C  C85  1  0.88650000  0.20850000  0.75740000  1.0 0.0795897593
C  C86  1  0.79150000  0.11350000  0.25740000  1.0 0.0795897593
C  C87  1  0.97240000  0.30700000  0.75550000  1.0 -0.1492706054
C  C88  1  0.69300000  0.02760000  0.25550000  1.0 -0.1492706054
C  C89  1  0.98390000  0.37510000  0.72360000  1.0 0.0795897593
C  C90  1  0.62490000  0.01610000  0.22360000  1.0 0.0795897593
C  C91  1  0.90950000  0.34010000  0.69190000  1.0 -0.1492706054
C  C92  1  0.65990000  0.09050000  0.19190000  1.0 -0.1492706054
C  C93  1  0.82290000  0.23710000  0.69510000  1.0 0.0993001846
C  C94  1  0.76290000  0.17710000  0.19510000  1.0 0.0993001846
C  C95  1  0.07350000  0.48230000  0.72370000  1.0 0.3686891117
C  C96  1  0.51770000  0.92650000  0.22370000  1.0 0.3686891117
C  C97  1  0.42880000  0.75940000  0.83670000  1.0 0.0993001846
C  C98  1  0.24060000  0.57120000  0.33670000  1.0 0.0993001846
C  C99  1  0.36400000  0.73260000  0.79900000  1.0 -0.1492706054
C  C100  1  0.26740000  0.63600000  0.29900000  1.0 -0.1492706054
C  C101  1  0.28810000  0.63450000  0.79360000  1.0 0.0496246816
C  C102  1  0.36550000  0.71190000  0.29360000  1.0 0.0496246816
C  C103  1  0.27420000  0.56620000  0.82630000  1.0 -0.1302364953
C  C104  1  0.43380000  0.72580000  0.32630000  1.0 -0.1302364953
C  C105  1  0.33560000  0.59800000  0.86210000  1.0 0.0691519858
C  C106  1  0.40200000  0.66440000  0.36210000  1.0 0.0691519858
C  C107  1  0.21440000  0.60080000  0.75730000  1.0 0.3686891117
C  C108  1  0.39920000  0.78560000  0.25730000  1.0 0.3686891117
C  C109  1  0.32690000  0.59710000  0.97810000  1.0 0.0873438412
C  C110  1  0.40290000  0.67310000  0.47810000  1.0 0.0873438412
C  C111  1  0.26590000  0.51790000  0.00420000  1.0 -0.1592044911
C  C112  1  0.48210000  0.73410000  0.50420000  1.0 -0.1592044911
C  C113  1  0.27110000  0.44290000  0.01460000  1.0 0.0795897593
C  C114  1  0.55710000  0.72890000  0.51460000  1.0 0.0795897593
C  C115  1  0.34050000  0.45410000  0.99970000  1.0 -0.1396002619
C  C116  1  0.54590000  0.65950000  0.49970000  1.0 -0.1396002619
C  C117  1  0.40130000  0.54670000  0.97140000  1.0 0.0993001846
C  C118  1  0.45330000  0.59870000  0.47140000  1.0 0.0993001846
C  C119  1  0.20390000  0.35310000  0.04220000  1.0 0.3686891117
C  C120  1  0.64690000  0.79610000  0.54220000  1.0 0.3686891117
C  C121  1  0.03960000  0.94100000  0.09210000  1.0 0.0795897593
C  C122  1  0.05900000  0.96040000  0.59210000  1.0 0.0795897593
C  C123  1  0.06160000  0.02620000  0.09630000  1.0 -0.1302364953
C  C124  1  0.97380000  0.93840000  0.59630000  1.0 -0.1302364953
C  C125  1  0.10450000  0.10290000  0.06460000  1.0 0.0579324172
C  C126  1  0.89710000  0.89550000  0.56460000  1.0 0.0579324172
C  C127  1  0.12260000  0.09120000  0.03170000  1.0 -0.1396002619
C  C128  1  0.90880000  0.87740000  0.53170000  1.0 -0.1396002619
C  C129  1  0.10340000  0.00620000  0.03210000  1.0 0.0691519858
C  C130  1  0.99380000  0.89660000  0.53210000  1.0 0.0691519858
C  C131  1  0.12760000  0.19460000  0.06590000  1.0 0.3828481802
C  C132  1  0.80540000  0.87240000  0.56590000  1.0 0.3828481802
C  C133  1  0.03040000  0.35540000  0.14820000  1.0 0.0496246816
C  C134  1  0.64460000  0.96960000  0.64820000  1.0 0.0496246816
C  C135  1  0.05700000  0.34900000  0.11800000  1.0 -0.1396002619
C  C136  1  0.65100000  0.94300000  0.61800000  1.0 -0.1396002619
C  C137  1  0.07320000  0.28120000  0.12640000  1.0 0.0496246816
C  C138  1  0.71880000  0.92680000  0.62640000  1.0 0.0496246816
C  C139  1  0.05250000  0.22510000  0.16110000  1.0 -0.1302364953
C  C140  1  0.77490000  0.94750000  0.66110000  1.0 -0.1302364953
C  C141  1  0.03080000  0.23920000  0.18990000  1.0 0.0340965701
C  C142  1  0.76080000  0.96920000  0.68990000  1.0 0.0356804536
C  C143  1  0.11530000  0.28130000  0.09510000  1.0 0.3686891117
C  C144  1  0.71870000  0.88470000  0.59510000  1.0 0.3686891117
I  I1  1  0.92805000  0.19709000  0.00279000  1.0 -0.4458791397
I  I2  1  0.80291000  0.07195000  0.50279000  1.0 -0.4458791397
I  I3  1  0.13030000  0.33282000  0.90714000  1.0 -0.4627177498
I  I4  1  0.66718000  0.86970000  0.40714000  1.0 -0.4627177498
I  I5  1  0.99709000  0.52841000  0.79000000  1.0 -0.4268768809
I  I6  1  0.47159000  0.00291000  0.29000000  1.0 -0.4268768809
I  I7  1  0.95066000  0.70828000  0.69739000  1.0 -0.4373268194
I  I8  1  0.29172000  0.04934000  0.19739000  1.0 -0.4373268194
I  I9  1  0.87687000  0.50487000  0.56188000  1.0 -0.4769928238
I  I10  1  0.49513000  0.12313000  0.06188000  1.0 -0.4769928238
I  I11  1  0.75967000  0.63533000  0.57559000  1.0 -0.4078512273
I  I12  1  0.36467000  0.24033000  0.07559000  1.0 -0.4078512273
I  I13  1  0.19709000  0.92805000  0.49721000  1.0 -0.4458791397
I  I14  1  0.07195000  0.80291000  0.99721000  1.0 -0.4458791397
I  I15  1  0.33282000  0.13030000  0.59286000  1.0 -0.4627177498
I  I16  1  0.86970000  0.66718000  0.09286000  1.0 -0.4627177498
I  I17  1  0.52841000  0.99709000  0.71000000  1.0 -0.4268768809
I  I18  1  0.00291000  0.47159000  0.21000000  1.0 -0.4268768809
I  I19  1  0.70828000  0.95066000  0.80261000  1.0 -0.4373268194
I  I20  1  0.04934000  0.29172000  0.30261000  1.0 -0.4373268194
I  I21  1  0.50487000  0.87687000  0.93812000  1.0 -0.4769928238
I  I22  1  0.12313000  0.49513000  0.43812000  1.0 -0.4769928238
I  I23  1  0.63533000  0.75967000  0.92441000  1.0 -0.4078512273
I  I24  1  0.24033000  0.36467000  0.42441000  1.0 -0.4078512273
N  N1  1  0.86010000  0.18270000  0.89230000  1.0 -0.1790111245
N  N2  1  0.81730000  0.13990000  0.39230000  1.0 -0.1790111245
N  N3  1  0.17720000  0.81140000  0.77170000  1.0 -0.1790111245
N  N4  1  0.18860000  0.82280000  0.27170000  1.0 -0.1790111245
N  N5  1  0.69370000  0.41030000  0.63150000  1.0 -0.1790111245
N  N6  1  0.58970000  0.30630000  0.13150000  1.0 -0.1790111245
N  N7  1  0.54170000  0.07270000  0.80760000  1.0 -0.3863826773
N  N8  1  0.92730000  0.45830000  0.30760000  1.0 -0.3863826773
N  N9  1  0.50670000  0.14350000  0.74450000  1.0 -0.3863826773
N  N10  1  0.85650000  0.49330000  0.24450000  1.0 -0.3863826773
N  N11  1  0.67030000  0.22550000  0.77060000  1.0 -0.3863826773
N  N12  1  0.77450000  0.32970000  0.27060000  1.0 -0.3863826773
N  N13  1  0.61130000  0.39310000  0.53660000  1.0 -0.1963118843
N  N14  1  0.60690000  0.38870000  0.03660000  1.0 -0.1963118843
N  N15  1  0.93190000  0.06410000  0.43790000  1.0 -0.1872093103
N  N16  1  0.93590000  0.06810000  0.93790000  1.0 -0.1872093103
N  N17  1  0.29800000  0.01040000  0.31440000  1.0 -0.1963118843
N  N18  1  0.98960000  0.70200000  0.81440000  1.0 -0.1963118843
N  N19  1  0.27140000  0.18420000  0.46100000  1.0 -0.3792671531
N  N20  1  0.81580000  0.72860000  0.96100000  1.0 -0.3792671531
N  N21  1  0.19330000  0.09150000  0.40410000  1.0 -0.4078512273
N  N22  1  0.90850000  0.80670000  0.90410000  1.0 -0.4078512273
N  N23  1  0.36020000  0.16960000  0.43110000  1.0 -0.3792671531
N  N24  1  0.83040000  0.63980000  0.93110000  1.0 -0.3792671531
N  N25  1  0.18270000  0.86010000  0.60770000  1.0 -0.1790111245
N  N26  1  0.13990000  0.81730000  0.10770000  1.0 -0.1790111245
N  N27  1  0.81140000  0.17720000  0.72830000  1.0 -0.1790111245
N  N28  1  0.82280000  0.18860000  0.22830000  1.0 -0.1790111245
N  N29  1  0.41030000  0.69370000  0.86850000  1.0 -0.1790111245
N  N30  1  0.30630000  0.58970000  0.36850000  1.0 -0.1790111245
N  N31  1  0.07270000  0.54170000  0.69240000  1.0 -0.3863826773
N  N32  1  0.45830000  0.92730000  0.19240000  1.0 -0.3863826773
N  N33  1  0.14350000  0.50670000  0.75550000  1.0 -0.3863826773
N  N34  1  0.49330000  0.85650000  0.25550000  1.0 -0.3863826773
N  N35  1  0.22550000  0.67030000  0.72940000  1.0 -0.3863826773
N  N36  1  0.32970000  0.77450000  0.22940000  1.0 -0.3863826773
N  N37  1  0.39310000  0.61130000  0.96340000  1.0 -0.1963118843
N  N38  1  0.38870000  0.60690000  0.46340000  1.0 -0.1963118843
N  N39  1  0.06410000  0.93190000  0.06210000  1.0 -0.1872093103
N  N40  1  0.06810000  0.93590000  0.56210000  1.0 -0.1872093103
N  N41  1  0.01040000  0.29800000  0.18560000  1.0 -0.1963118843
N  N42  1  0.70200000  0.98960000  0.68560000  1.0 -0.1872093103
N  N43  1  0.18420000  0.27140000  0.03900000  1.0 -0.3792671531
N  N44  1  0.72860000  0.81580000  0.53900000  1.0 -0.3792671531
N  N45  1  0.09150000  0.19330000  0.09590000  1.0 -0.4078512273
N  N46  1  0.80670000  0.90850000  0.59590000  1.0 -0.4078512273
N  N47  1  0.16960000  0.36020000  0.06890000  1.0 -0.3792671531
N  N48  1  0.63980000  0.83040000  0.56890000  1.0 -0.3792671531
