# DDEC6 charges by PACMAN v1.1 (https://github.com/mtap-research/PACMAN-charge/)
data_CURZEV_FSR_pacman
_symmetry_space_group_name_H-M   'P 1'
_cell_length_a   19.34910000
_cell_length_b   16.58540000
_cell_length_c   12.65870000
_cell_angle_alpha   81.65670000
_cell_angle_beta   58.00480000
_cell_angle_gamma   40.33850000
_symmetry_Int_Tables_number   1
_chemical_formula_structural   Cu7H44C36N12(Cl4O31)2
_chemical_formula_sum   'Cu7 H44 C36 N12 Cl8 O62'
_cell_volume   1966.82282588
_cell_formula_units_Z   1
loop_
 _symmetry_equiv_pos_site_id
 _symmetry_equiv_pos_as_xyz
  1  'x, y, z'
loop_
 _atom_site_type_symbol
 _atom_site_label
 _atom_site_symmetry_multiplicity
 _atom_site_fract_x
 _atom_site_fract_y
 _atom_site_fract_z
 _atom_site_occupancy
 _atom_site_charge
Cu  Cu1  1  0.92766000  0.07234000  0.92766000  1.0 0.9981039965
Cu  Cu2  1  0.07234000  0.92766000  0.07234000  1.0 0.9981039965
Cu  Cu3  1  0.90309000  0.90309000  0.09691000  1.0 0.7605580295
Cu  Cu4  1  0.09691000  0.09691000  0.90309000  1.0 0.7605580295
Cu  Cu5  1  0.81017000  0.81017000  0.18983000  1.0 0.9645163023
Cu  Cu6  1  0.18983000  0.18983000  0.81017000  1.0 0.9645163023
Cu  Cu7  1  0.75000000  0.75000000  0.75000000  1.0 0.711031338
H  H1  1  0.15900000  0.79820000  0.81300000  1.0 0.3789658451
H  H2  1  0.79820000  0.15900000  0.22980000  1.0 0.3789658451
H  H3  1  0.81300000  0.22980000  0.15900000  1.0 0.3789658451
H  H4  1  0.22980000  0.81300000  0.79820000  1.0 0.3789658451
H  H5  1  0.57200000  0.07460000  0.15180000  1.0 0.1108026409
H  H6  1  0.07460000  0.57200000  0.20160000  1.0 0.1108026409
H  H7  1  0.15180000  0.20160000  0.57200000  1.0 0.1108026409
H  H8  1  0.20160000  0.15180000  0.07460000  1.0 0.1108026409
H  H9  1  0.83500000  0.88600000  0.92400000  1.0 0.1001213018
H  H10  1  0.88600000  0.83500000  0.35500000  1.0 0.1001213018
H  H11  1  0.92400000  0.35500000  0.83500000  1.0 0.1001213018
H  H12  1  0.35500000  0.92400000  0.88600000  1.0 0.1001213018
H  H13  1  0.81390000  0.03990000  0.88190000  1.0 0.1001213018
H  H14  1  0.03990000  0.81390000  0.26430000  1.0 0.1001213018
H  H15  1  0.88190000  0.26430000  0.81390000  1.0 0.1001213018
H  H16  1  0.26430000  0.88190000  0.03990000  1.0 0.1001213018
H  H17  1  0.62610000  0.20970000  0.17730000  1.0 0.0791458634
H  H18  1  0.20970000  0.62610000  0.98690000  1.0 0.0791458634
H  H19  1  0.17730000  0.98690000  0.62610000  1.0 0.0791458634
H  H20  1  0.98690000  0.17730000  0.20970000  1.0 0.0791458634
H  H21  1  0.61500000  0.29620000  0.97000000  1.0 0.1001213018
H  H22  1  0.29620000  0.61500000  0.11880000  1.0 0.1001213018
H  H23  1  0.97000000  0.11880000  0.61500000  1.0 0.1001213018
H  H24  1  0.11880000  0.97000000  0.29620000  1.0 0.1001213018
H  H25  1  0.51350000  0.39910000  0.12770000  1.0 0.1001213018
H  H26  1  0.39910000  0.51350000  0.95970000  1.0 0.1001213018
H  H27  1  0.12770000  0.95970000  0.51350000  1.0 0.1001213018
H  H28  1  0.95970000  0.12770000  0.39910000  1.0 0.1001213018
H  H29  1  0.64290000  0.93470000  0.63790000  1.0 0.3216377103
H  H30  1  0.93470000  0.64290000  0.78450000  1.0 0.3216377103
H  H31  1  0.63790000  0.78450000  0.64290000  1.0 0.3216377103
H  H32  1  0.78450000  0.63790000  0.93470000  1.0 0.3216377103
H  H33  1  0.56660000  0.07360000  0.64620000  1.0 0.2956724295
H  H34  1  0.07360000  0.56660000  0.71360000  1.0 0.2956724295
H  H35  1  0.64620000  0.71360000  0.56660000  1.0 0.2956724295
H  H36  1  0.71360000  0.64620000  0.07360000  1.0 0.2956724295
H  H37  1  0.48970000  0.22890000  0.81050000  1.0 0.1454637179
H  H38  1  0.22890000  0.48970000  0.47090000  1.0 0.1454637179
H  H39  1  0.81050000  0.47090000  0.48970000  1.0 0.1454637179
H  H40  1  0.47090000  0.81050000  0.22890000  1.0 0.1454637179
H  H41  1  0.49020000  0.25980000  0.98380000  1.0 0.1264325285
H  H42  1  0.25980000  0.49020000  0.26620000  1.0 0.1264325285
H  H43  1  0.98380000  0.26620000  0.49020000  1.0 0.1264325285
H  H44  1  0.26620000  0.98380000  0.25980000  1.0 0.1264325285
C  C1  1  0.61710000  0.08110000  0.07270000  1.0 0.175909003
C  C2  1  0.08110000  0.61710000  0.22910000  1.0 0.175909003
C  C3  1  0.07270000  0.22910000  0.61710000  1.0 0.175909003
C  C4  1  0.22910000  0.07270000  0.08110000  1.0 0.175909003
C  C5  1  0.76813000  0.96893000  0.00867000  1.0 0.0709001066
C  C6  1  0.96893000  0.76813000  0.25427000  1.0 0.0709001066
C  C7  1  0.00867000  0.25427000  0.76813000  1.0 0.0709001066
C  C8  1  0.25427000  0.00867000  0.96893000  1.0 0.0709001066
C  C9  1  0.78774000  0.04454000  0.97386000  1.0 0.0791458634
C  C10  1  0.04454000  0.78774000  0.19386000  1.0 0.0791458634
C  C11  1  0.97386000  0.19386000  0.78774000  1.0 0.0791458634
C  C12  1  0.19386000  0.97386000  0.04454000  1.0 0.0791458634
C  C13  1  0.63780000  0.19780000  0.09320000  1.0 0.0791458634
C  C14  1  0.19780000  0.63780000  0.07120000  1.0 0.0791458634
C  C15  1  0.09320000  0.07120000  0.63780000  1.0 0.0791458634
C  C16  1  0.07120000  0.09320000  0.19780000  1.0 0.0791458634
C  C17  1  0.60790000  0.30410000  0.05050000  1.0 -0.0493662742
C  C18  1  0.30410000  0.60790000  0.03750000  1.0 -0.0493662742
C  C19  1  0.05050000  0.03750000  0.60790000  1.0 -0.0493662742
C  C20  1  0.03750000  0.05050000  0.30410000  1.0 -0.0493662742
C  C21  1  0.65955000  0.95335000  0.91405000  1.0 0.5544946992
C  C22  1  0.95335000  0.65955000  0.47305000  1.0 0.5544946992
C  C23  1  0.91405000  0.47305000  0.65955000  1.0 0.5544946992
C  C24  1  0.47305000  0.91405000  0.95335000  1.0 0.5544946992
C  C25  1  0.59900000  0.03480000  0.77400000  1.0 0.4471504295
C  C26  1  0.03480000  0.59900000  0.59220000  1.0 0.4471504295
C  C27  1  0.77400000  0.59220000  0.59900000  1.0 0.4471504295
C  C28  1  0.59220000  0.77400000  0.03480000  1.0 0.4471504295
C  C29  1  0.53430000  0.15830000  0.83610000  1.0 -0.3405732756
C  C30  1  0.15830000  0.53430000  0.47130000  1.0 -0.3405732756
C  C31  1  0.83610000  0.47130000  0.53430000  1.0 -0.3405732756
C  C32  1  0.47130000  0.83610000  0.15830000  1.0 -0.3405732756
C  C33  1  0.53680000  0.17560000  0.93720000  1.0 0.0865237189
C  C34  1  0.17560000  0.53680000  0.35040000  1.0 0.0865237189
C  C35  1  0.93720000  0.35040000  0.53680000  1.0 0.0865237189
C  C36  1  0.35040000  0.93720000  0.17560000  1.0 0.0865237189
N  N1  1  0.60733000  0.06933000  0.96687000  1.0 -0.1318519807
N  N2  1  0.06933000  0.60733000  0.35647000  1.0 -0.1318519807
N  N3  1  0.96687000  0.35647000  0.60733000  1.0 -0.1318519807
N  N4  1  0.35647000  0.96687000  0.06933000  1.0 -0.1318519807
N  N5  1  0.65755000  0.93555000  0.81665000  1.0 -0.4900697168
N  N6  1  0.93555000  0.65755000  0.59025000  1.0 -0.4900697168
N  N7  1  0.81665000  0.59025000  0.65755000  1.0 -0.4900697168
N  N8  1  0.59025000  0.81665000  0.93555000  1.0 -0.4900697168
N  N9  1  0.60330000  0.01170000  0.67470000  1.0 -0.4900697168
N  N10  1  0.01170000  0.60330000  0.71030000  1.0 -0.4900697168
N  N11  1  0.67470000  0.71030000  0.60330000  1.0 -0.4900697168
N  N12  1  0.71030000  0.67470000  0.01170000  1.0 -0.4900697168
Cl  Cl1  1  0.16090000  0.49490000  0.86870000  1.0 0.9215003753
Cl  Cl2  1  0.49490000  0.16090000  0.47550000  1.0 0.9215003753
Cl  Cl3  1  0.86870000  0.47550000  0.16090000  1.0 0.9215003753
Cl  Cl4  1  0.47550000  0.86870000  0.49490000  1.0 0.9215003753
Cl  Cl5  1  0.25160000  0.55080000  0.73540000  1.0 0.6069467866
Cl  Cl6  1  0.55080000  0.25160000  0.46220000  1.0 0.6015620434
Cl  Cl7  1  0.73540000  0.46220000  0.25160000  1.0 0.6015620434
Cl  Cl8  1  0.46220000  0.73540000  0.55080000  1.0 0.6015620434
O  O1  1  0.13800000  0.86200000  0.86200000  1.0 -0.7650351918
O  O2  1  0.86200000  0.13800000  0.13800000  1.0 -0.7638746893
O  O3  1  0.71116000  0.81976000  0.16924000  1.0 -0.4326516336
O  O4  1  0.81976000  0.71116000  0.29984000  1.0 -0.4326516336
O  O5  1  0.16924000  0.29984000  0.71116000  1.0 -0.4326516336
O  O6  1  0.29984000  0.16924000  0.81976000  1.0 -0.4326516336
O  O7  1  0.54426000  0.21506000  0.12254000  1.0 -0.2994381173
O  O8  1  0.21506000  0.54426000  0.11814000  1.0 -0.2994381173
O  O9  1  0.12254000  0.11814000  0.54426000  1.0 -0.2994381173
O  O10  1  0.11814000  0.12254000  0.21506000  1.0 -0.2994381173
O  O11  1  0.78331000  0.93231000  0.10869000  1.0 -0.5916496312
O  O12  1  0.93231000  0.78331000  0.17569000  1.0 -0.5916496312
O  O13  1  0.10869000  0.17569000  0.78331000  1.0 -0.5916496312
O  O14  1  0.17569000  0.10869000  0.93231000  1.0 -0.5916496312
O  O15  1  0.88989000  0.98935000  0.97545000  1.0 -0.6059667415
O  O16  1  0.98935000  0.88989000  0.14531000  1.0 -0.6059667415
O  O17  1  0.97545000  0.14531000  0.88989000  1.0 -0.6059667415
O  O18  1  0.14531000  0.97545000  0.98935000  1.0 -0.6059667415
O  O19  1  0.71260000  0.27400000  0.01440000  1.0 -0.5563759601
O  O20  1  0.27400000  0.71260000  0.99900000  1.0 -0.5563759601
O  O21  1  0.01440000  0.99900000  0.71260000  1.0 -0.5563759601
O  O22  1  0.99900000  0.01440000  0.27400000  1.0 -0.5563759601
O  O23  1  0.71440000  0.86022000  0.95418000  1.0 -0.4900697168
O  O24  1  0.86022000  0.71440000  0.47120000  1.0 -0.4900697168
O  O25  1  0.95418000  0.47120000  0.71440000  1.0 -0.4900697168
O  O26  1  0.47120000  0.95418000  0.86022000  1.0 -0.4900697168
O  O27  1  0.23820000  0.37980000  0.75900000  1.0 -0.238104189
O  O28  1  0.37980000  0.23820000  0.62300000  1.0 -0.238104189
O  O29  1  0.75900000  0.62300000  0.23820000  1.0 -0.238104189
O  O30  1  0.62300000  0.75900000  0.37980000  1.0 -0.238104189
O  O31  1  0.01510000  0.59310000  0.96210000  1.0 -0.4237015343
O  O32  1  0.59310000  0.01510000  0.42970000  1.0 -0.4237015343
O  O33  1  0.96210000  0.42970000  0.01510000  1.0 -0.4237015343
O  O34  1  0.42970000  0.96210000  0.59310000  1.0 -0.4237015343
O  O35  1  0.20890000  0.44350000  0.94470000  1.0 -0.4132116532
O  O36  1  0.44350000  0.20890000  0.40290000  1.0 -0.4132116532
O  O37  1  0.94470000  0.40290000  0.20890000  1.0 -0.4132116532
O  O38  1  0.40290000  0.94470000  0.44350000  1.0 -0.4132116532
O  O39  1  0.18090000  0.56070000  0.80890000  1.0 0.2600846121
O  O40  1  0.56070000  0.18090000  0.44950000  1.0 0.2600846121
O  O41  1  0.80890000  0.44950000  0.18090000  1.0 0.2600846121
O  O42  1  0.44950000  0.80890000  0.56070000  1.0 0.2600846121
O  O43  1  0.15100000  0.67660000  0.82340000  1.0 0.0791458634
O  O44  1  0.67660000  0.15100000  0.34900000  1.0 0.0791458634
O  O45  1  0.82340000  0.34900000  0.15100000  1.0 0.0791458634
O  O46  1  0.34900000  0.82340000  0.67660000  1.0 0.0791458634
O  O47  1  0.34130000  0.43690000  0.75710000  1.0 -0.1962648688
O  O48  1  0.43690000  0.34130000  0.46470000  1.0 -0.1962648688
O  O49  1  0.75710000  0.46470000  0.34130000  1.0 -0.1962648688
O  O50  1  0.46470000  0.75710000  0.43690000  1.0 -0.1962648688
O  O51  1  0.27670000  0.61570000  0.70590000  1.0 -0.2862208208
O  O52  1  0.61570000  0.27670000  0.40170000  1.0 -0.2862208208
O  O53  1  0.70590000  0.40170000  0.27670000  1.0 -0.2862208208
O  O54  1  0.40170000  0.70590000  0.61570000  1.0 -0.2862208208
O  O55  1  0.27660000  0.50040000  0.62120000  1.0 -0.2994381173
O  O56  1  0.50040000  0.27660000  0.60180000  1.0 -0.2994381173
O  O57  1  0.62120000  0.60180000  0.27660000  1.0 -0.2994381173
O  O58  1  0.60180000  0.62120000  0.50040000  1.0 -0.2994381173
O  O59  1  0.10830000  0.65290000  0.85950000  1.0 -0.0376102871
O  O60  1  0.65290000  0.10830000  0.37930000  1.0 -0.0376102871
O  O61  1  0.85950000  0.37930000  0.10830000  1.0 -0.0376102871
O  O62  1  0.37930000  0.85950000  0.65290000  1.0 -0.0376102871
