# DDEC6 charges by PACMAN v1.1 (https://github.com/mtap-research/PACMAN-charge/)
data_CURZAR_ion_pacman
_symmetry_space_group_name_H-M   'P 1'
_cell_length_a   15.69360000
_cell_length_b   15.69360000
_cell_length_c   21.44760000
_cell_angle_alpha   90.00000000
_cell_angle_beta   90.00000000
_cell_angle_gamma   125.72500000
_symmetry_Int_Tables_number   1
_chemical_formula_structural   Cd4H68C66N14Cl3O32
_chemical_formula_sum   'Cd8 H136 C132 N28 Cl6 O64'
_cell_volume   4288.33130663
_cell_formula_units_Z   2
loop_
 _symmetry_equiv_pos_site_id
 _symmetry_equiv_pos_as_xyz
  1  'x, y, z'
loop_
 _atom_site_type_symbol
 _atom_site_label
 _atom_site_symmetry_multiplicity
 _atom_site_fract_x
 _atom_site_fract_y
 _atom_site_fract_z
 _atom_site_occupancy
 _atom_site_charge
Cd  Cd1  1  0.66464000  0.66464000  0.83405000  1.0 0.8439381545
Cd  Cd2  1  0.33536000  0.33536000  0.33405000  1.0 0.8439381545
Cd  Cd3  1  0.33536000  0.33536000  0.16595000  1.0 0.8439381545
Cd  Cd4  1  0.66464000  0.66464000  0.66595000  1.0 0.8439381545
Cd  Cd5  1  0.37567000  0.49485000  0.75000000  1.0 0.7629410451
Cd  Cd6  1  0.62433000  0.50515000  0.25000000  1.0 0.7629410451
Cd  Cd7  1  0.50515000  0.62433000  0.25000000  1.0 0.7629410451
Cd  Cd8  1  0.49485000  0.37567000  0.75000000  1.0 0.7629410451
H  H1  1  0.46270000  0.61710000  0.90760000  1.0 0.082271335
H  H2  1  0.53730000  0.38290000  0.40760000  1.0 0.082271335
H  H3  1  0.38290000  0.53730000  0.09240000  1.0 0.082271335
H  H4  1  0.61710000  0.46270000  0.59240000  1.0 0.082271335
H  H5  1  0.53730000  0.38290000  0.09240000  1.0 0.082271335
H  H6  1  0.46270000  0.61710000  0.59240000  1.0 0.082271335
H  H7  1  0.61710000  0.46270000  0.90760000  1.0 0.082271335
H  H8  1  0.38290000  0.53730000  0.40760000  1.0 0.082271335
H  H9  1  0.73850000  0.88250000  0.89150000  1.0 0.1208291598
H  H10  1  0.26150000  0.11750000  0.39150000  1.0 0.1208291598
H  H11  1  0.11750000  0.26150000  0.10850000  1.0 0.1208291598
H  H12  1  0.88250000  0.73850000  0.60850000  1.0 0.1208291598
H  H13  1  0.26150000  0.11750000  0.10850000  1.0 0.1208291598
H  H14  1  0.73850000  0.88250000  0.60850000  1.0 0.1208291598
H  H15  1  0.88250000  0.73850000  0.89150000  1.0 0.1208291598
H  H16  1  0.11750000  0.26150000  0.39150000  1.0 0.1208291598
H  H17  1  0.39590000  0.70050000  0.95160000  1.0 0.1486158148
H  H18  1  0.60410000  0.29950000  0.45160000  1.0 0.1486158148
H  H19  1  0.29950000  0.60410000  0.04840000  1.0 0.1486158148
H  H20  1  0.70050000  0.39590000  0.54840000  1.0 0.1486158148
H  H21  1  0.60410000  0.29950000  0.04840000  1.0 0.1486158148
H  H22  1  0.39590000  0.70050000  0.54840000  1.0 0.1486158148
H  H23  1  0.70050000  0.39590000  0.95160000  1.0 0.1486158148
H  H24  1  0.29950000  0.60410000  0.45160000  1.0 0.1486158148
H  H25  1  0.68290000  0.97450000  0.93760000  1.0 0.1486158148
H  H26  1  0.31710000  0.02550000  0.43760000  1.0 0.1486158148
H  H27  1  0.02550000  0.31710000  0.06240000  1.0 0.1486158148
H  H28  1  0.97450000  0.68290000  0.56240000  1.0 0.1486158148
H  H29  1  0.31710000  0.02550000  0.06240000  1.0 0.1486158148
H  H30  1  0.68290000  0.97450000  0.56240000  1.0 0.1486158148
H  H31  1  0.97450000  0.68290000  0.93760000  1.0 0.1486158148
H  H32  1  0.02550000  0.31710000  0.43760000  1.0 0.1486158148
H  H33  1  0.30720000  0.62740000  0.81790000  1.0 0.1208291598
H  H34  1  0.69280000  0.37260000  0.31790000  1.0 0.1208291598
H  H35  1  0.37260000  0.69280000  0.18210000  1.0 0.1208291598
H  H36  1  0.62740000  0.30720000  0.68210000  1.0 0.1208291598
H  H37  1  0.69280000  0.37260000  0.18210000  1.0 0.1208291598
H  H38  1  0.30720000  0.62740000  0.68210000  1.0 0.1208291598
H  H39  1  0.62740000  0.30720000  0.81790000  1.0 0.1208291598
H  H40  1  0.37260000  0.69280000  0.31790000  1.0 0.1208291598
H  H41  1  0.21120000  0.34220000  0.85380000  1.0 0.1076252738
H  H42  1  0.78880000  0.65780000  0.35380000  1.0 0.1076252738
H  H43  1  0.65780000  0.78880000  0.14620000  1.0 0.1076252738
H  H44  1  0.34220000  0.21120000  0.64620000  1.0 0.1076252738
H  H45  1  0.78880000  0.65780000  0.14620000  1.0 0.1076252738
H  H46  1  0.21120000  0.34220000  0.64620000  1.0 0.1076252738
H  H47  1  0.34220000  0.21120000  0.85380000  1.0 0.1076252738
H  H48  1  0.65780000  0.78880000  0.35380000  1.0 0.1076252738
H  H49  1  0.73700000  0.91960000  0.75000000  1.0 0.130443149
H  H50  1  0.26300000  0.08040000  0.25000000  1.0 0.130443149
H  H51  1  0.08040000  0.26300000  0.25000000  1.0 0.130443149
H  H52  1  0.91960000  0.73700000  0.75000000  1.0 0.130443149
H  H53  1  0.43280000  0.81420000  0.75000000  1.0 0.130443149
H  H54  1  0.56720000  0.18580000  0.25000000  1.0 0.130443149
H  H55  1  0.18580000  0.56720000  0.25000000  1.0 0.130443149
H  H56  1  0.81420000  0.43280000  0.75000000  1.0 0.130443149
H  H57  1  0.18740000  0.61720000  0.88620000  1.0 0.1392238591
H  H58  1  0.81260000  0.38280000  0.38620000  1.0 0.1392238591
H  H59  1  0.38280000  0.81260000  0.11380000  1.0 0.1392238591
H  H60  1  0.61720000  0.18740000  0.61380000  1.0 0.1392238591
H  H61  1  0.81260000  0.38280000  0.11380000  1.0 0.1392238591
H  H62  1  0.18740000  0.61720000  0.61380000  1.0 0.1392238591
H  H63  1  0.61720000  0.18740000  0.88620000  1.0 0.1392238591
H  H64  1  0.38280000  0.81260000  0.38620000  1.0 0.1392238591
H  H65  1  0.08050000  0.31810000  0.92320000  1.0 0.1486158148
H  H66  1  0.91950000  0.68190000  0.42320000  1.0 0.1486158148
H  H67  1  0.68190000  0.91950000  0.07680000  1.0 0.1486158148
H  H68  1  0.31810000  0.08050000  0.57680000  1.0 0.1486158148
H  H69  1  0.91950000  0.68190000  0.07680000  1.0 0.1486158148
H  H70  1  0.08050000  0.31810000  0.57680000  1.0 0.1486158148
H  H71  1  0.31810000  0.08050000  0.92320000  1.0 0.1486158148
H  H72  1  0.68190000  0.91950000  0.42320000  1.0 0.1486158148
H  H73  1  0.79120000  0.09500000  0.75000000  1.0 0.130443149
H  H74  1  0.20880000  0.90500000  0.25000000  1.0 0.130443149
H  H75  1  0.90500000  0.20880000  0.25000000  1.0 0.130443149
H  H76  1  0.09500000  0.79120000  0.75000000  1.0 0.130443149
H  H77  1  0.48370000  0.98790000  0.75000000  1.0 0.1208291598
H  H78  1  0.51630000  0.01210000  0.25000000  1.0 0.1208291598
H  H79  1  0.01210000  0.51630000  0.25000000  1.0 0.1208291598
H  H80  1  0.98790000  0.48370000  0.75000000  1.0 0.1208291598
H  H81  1  0.41470000  0.85190000  0.98730000  1.0 0.130443149
H  H82  1  0.58530000  0.14810000  0.48730000  1.0 0.130443149
H  H83  1  0.14810000  0.58530000  0.01270000  1.0 0.130443149
H  H84  1  0.85190000  0.41470000  0.51270000  1.0 0.130443149
H  H85  1  0.58530000  0.14810000  0.01270000  1.0 0.130443149
H  H86  1  0.41470000  0.85190000  0.51270000  1.0 0.130443149
H  H87  1  0.85190000  0.41470000  0.98730000  1.0 0.130443149
H  H88  1  0.14810000  0.58530000  0.48730000  1.0 0.130443149
H  H89  1  0.66440000  0.12900000  0.75000000  1.0 0.1076252738
H  H90  1  0.33560000  0.87100000  0.25000000  1.0 0.1076252738
H  H91  1  0.87100000  0.33560000  0.25000000  1.0 0.1076252738
H  H92  1  0.12900000  0.66440000  0.75000000  1.0 0.1076252738
H  H93  1  0.45590000  0.94370000  0.89510000  1.0 0.130443149
H  H94  1  0.54410000  0.05630000  0.39510000  1.0 0.130443149
H  H95  1  0.05630000  0.54410000  0.10490000  1.0 0.130443149
H  H96  1  0.94370000  0.45590000  0.60490000  1.0 0.130443149
H  H97  1  0.54410000  0.05630000  0.10490000  1.0 0.130443149
H  H98  1  0.45590000  0.94370000  0.60490000  1.0 0.130443149
H  H99  1  0.94370000  0.45590000  0.89510000  1.0 0.130443149
H  H100  1  0.05630000  0.54410000  0.39510000  1.0 0.130443149
H  H101  1  0.57180000  0.03280000  0.91910000  1.0 0.1208291598
H  H102  1  0.42820000  0.96720000  0.41910000  1.0 0.1208291598
H  H103  1  0.96720000  0.42820000  0.08090000  1.0 0.1208291598
H  H104  1  0.03280000  0.57180000  0.58090000  1.0 0.1208291598
H  H105  1  0.42820000  0.96720000  0.08090000  1.0 0.1208291598
H  H106  1  0.57180000  0.03280000  0.58090000  1.0 0.1208291598
H  H107  1  0.03280000  0.57180000  0.91910000  1.0 0.1208291598
H  H108  1  0.96720000  0.42820000  0.41910000  1.0 0.1208291598
H  H109  1  0.65940000  0.08560000  0.01670000  1.0 0.1392238591
H  H110  1  0.34060000  0.91440000  0.51670000  1.0 0.1392238591
H  H111  1  0.91440000  0.34060000  0.98330000  1.0 0.1392238591
H  H112  1  0.08560000  0.65940000  0.48330000  1.0 0.1392238591
H  H113  1  0.34060000  0.91440000  0.98330000  1.0 0.1392238591
H  H114  1  0.65940000  0.08560000  0.48330000  1.0 0.1392238591
H  H115  1  0.08560000  0.65940000  0.01670000  1.0 0.1392238591
H  H116  1  0.91440000  0.34060000  0.51670000  1.0 0.1392238591
H  H117  1  0.46230000  0.46230000  0.87370000  1.0 0.2558195902
H  H118  1  0.53770000  0.53770000  0.37370000  1.0 0.2558195902
H  H119  1  0.53770000  0.53770000  0.12630000  1.0 0.2558195902
H  H120  1  0.46230000  0.46230000  0.62630000  1.0 0.2558195902
H  H121  1  0.99220000  0.38200000  0.96710000  1.0 0.08736786
H  H122  1  0.00780000  0.61800000  0.46710000  1.0 0.08736786
H  H123  1  0.61800000  0.00780000  0.03290000  1.0 0.08736786
H  H124  1  0.38200000  0.99220000  0.53290000  1.0 0.08736786
H  H125  1  0.00780000  0.61800000  0.03290000  1.0 0.08736786
H  H126  1  0.99220000  0.38200000  0.53290000  1.0 0.08736786
H  H127  1  0.38200000  0.99220000  0.96710000  1.0 0.08736786
H  H128  1  0.61800000  0.00780000  0.46710000  1.0 0.08736786
H  H129  1  0.85100000  0.34500000  0.99040000  1.0 0.1763616235
H  H130  1  0.14900000  0.65500000  0.49040000  1.0 0.1763616235
H  H131  1  0.65500000  0.14900000  0.00960000  1.0 0.1763616235
H  H132  1  0.34500000  0.85100000  0.50960000  1.0 0.1763616235
H  H133  1  0.14900000  0.65500000  0.00960000  1.0 0.1763616235
H  H134  1  0.85100000  0.34500000  0.50960000  1.0 0.1763616235
H  H135  1  0.34500000  0.85100000  0.99040000  1.0 0.1763616235
H  H136  1  0.65500000  0.14900000  0.49040000  1.0 0.1763616235
C  C1  1  0.54750000  0.74190000  0.75000000  1.0 0.5655886953
C  C2  1  0.45250000  0.25810000  0.25000000  1.0 0.5655886953
C  C3  1  0.25810000  0.45250000  0.25000000  1.0 0.5655886953
C  C4  1  0.74190000  0.54750000  0.75000000  1.0 0.5655886953
C  C5  1  0.50780000  0.69100000  0.91340000  1.0 0.0242484578
C  C6  1  0.49220000  0.30900000  0.41340000  1.0 0.0242484578
C  C7  1  0.30900000  0.49220000  0.08660000  1.0 0.0242484578
C  C8  1  0.69100000  0.50780000  0.58660000  1.0 0.0242484578
C  C9  1  0.49220000  0.30900000  0.08660000  1.0 0.0242484578
C  C10  1  0.50780000  0.69100000  0.58660000  1.0 0.0242484578
C  C11  1  0.69100000  0.50780000  0.91340000  1.0 0.0242484578
C  C12  1  0.30900000  0.49220000  0.41340000  1.0 0.0242484578
C  C13  1  0.66740000  0.84440000  0.90450000  1.0 0.1208291598
C  C14  1  0.33260000  0.15560000  0.40450000  1.0 0.1208291598
C  C15  1  0.15560000  0.33260000  0.09550000  1.0 0.1208291598
C  C16  1  0.84440000  0.66740000  0.59550000  1.0 0.1208291598
C  C17  1  0.33260000  0.15560000  0.09550000  1.0 0.1208291598
C  C18  1  0.66740000  0.84440000  0.59550000  1.0 0.1208291598
C  C19  1  0.84440000  0.66740000  0.90450000  1.0 0.1208291598
C  C20  1  0.15560000  0.33260000  0.40450000  1.0 0.1208291598
C  C21  1  0.58030000  0.85170000  0.75000000  1.0 -0.0360165487
C  C22  1  0.41970000  0.14830000  0.25000000  1.0 -0.0360165487
C  C23  1  0.14830000  0.41970000  0.25000000  1.0 -0.0360165487
C  C24  1  0.85170000  0.58030000  0.75000000  1.0 -0.0360165487
C  C25  1  0.46790000  0.74030000  0.94000000  1.0 -0.2009098574
C  C26  1  0.53210000  0.25970000  0.44000000  1.0 -0.2009098574
C  C27  1  0.25970000  0.53210000  0.06000000  1.0 -0.2009098574
C  C28  1  0.74030000  0.46790000  0.56000000  1.0 -0.2009098574
C  C29  1  0.53210000  0.25970000  0.06000000  1.0 -0.2009098574
C  C30  1  0.46790000  0.74030000  0.56000000  1.0 -0.2009098574
C  C31  1  0.74030000  0.46790000  0.94000000  1.0 -0.2009098574
C  C32  1  0.25970000  0.53210000  0.44000000  1.0 -0.2009098574
C  C33  1  0.63490000  0.90090000  0.93170000  1.0 -0.1800077322
C  C34  1  0.36510000  0.09910000  0.43170000  1.0 -0.1800077322
C  C35  1  0.09910000  0.36510000  0.06830000  1.0 -0.1800077322
C  C36  1  0.90090000  0.63490000  0.56830000  1.0 -0.1800077322
C  C37  1  0.36510000  0.09910000  0.06830000  1.0 -0.1800077322
C  C38  1  0.63490000  0.90090000  0.56830000  1.0 -0.1800077322
C  C39  1  0.90090000  0.63490000  0.93170000  1.0 -0.1800077322
C  C40  1  0.09910000  0.36510000  0.43170000  1.0 -0.1800077322
C  C41  1  0.25920000  0.56280000  0.83870000  1.0 0.0620735151
C  C42  1  0.74080000  0.43720000  0.33870000  1.0 0.0620735151
C  C43  1  0.43720000  0.74080000  0.16130000  1.0 0.0620735151
C  C44  1  0.56280000  0.25920000  0.66130000  1.0 0.0620735151
C  C45  1  0.74080000  0.43720000  0.16130000  1.0 0.0620735151
C  C46  1  0.25920000  0.56280000  0.66130000  1.0 0.0620735151
C  C47  1  0.56280000  0.25920000  0.83870000  1.0 0.0620735151
C  C48  1  0.43720000  0.74080000  0.33870000  1.0 0.0620735151
C  C49  1  0.20370000  0.39770000  0.85880000  1.0 0.1041373437
C  C50  1  0.79630000  0.60230000  0.35880000  1.0 0.1041373437
C  C51  1  0.60230000  0.79630000  0.14120000  1.0 0.1041373437
C  C52  1  0.39770000  0.20370000  0.64120000  1.0 0.1041373437
C  C53  1  0.79630000  0.60230000  0.14120000  1.0 0.1041373437
C  C54  1  0.20370000  0.39770000  0.64120000  1.0 0.1041373437
C  C55  1  0.39770000  0.20370000  0.85880000  1.0 0.1041373437
C  C56  1  0.60230000  0.79630000  0.35880000  1.0 0.1041373437
C  C57  1  0.68600000  0.93400000  0.75000000  1.0 -0.0828681241
C  C58  1  0.31400000  0.06600000  0.25000000  1.0 -0.0828681241
C  C59  1  0.06600000  0.31400000  0.25000000  1.0 -0.0828681241
C  C60  1  0.93400000  0.68600000  0.75000000  1.0 -0.0828681241
C  C61  1  0.50510000  0.87110000  0.75000000  1.0 -0.095464938
C  C62  1  0.49490000  0.12890000  0.25000000  1.0 -0.095464938
C  C63  1  0.12890000  0.49490000  0.25000000  1.0 -0.095464938
C  C64  1  0.87110000  0.50510000  0.75000000  1.0 -0.095464938
C  C65  1  0.53220000  0.84860000  0.94990000  1.0 0.1076252738
C  C66  1  0.46780000  0.15140000  0.44990000  1.0 0.1076252738
C  C67  1  0.15140000  0.46780000  0.05010000  1.0 0.1076252738
C  C68  1  0.84860000  0.53220000  0.55010000  1.0 0.1076252738
C  C69  1  0.46780000  0.15140000  0.05010000  1.0 0.1076252738
C  C70  1  0.53220000  0.84860000  0.55010000  1.0 0.1076252738
C  C71  1  0.84860000  0.53220000  0.94990000  1.0 0.1076252738
C  C72  1  0.15140000  0.46780000  0.44990000  1.0 0.1076252738
C  C73  1  0.18850000  0.55790000  0.88020000  1.0 -0.1898298344
C  C74  1  0.81150000  0.44210000  0.38020000  1.0 -0.1898298344
C  C75  1  0.44210000  0.81150000  0.11980000  1.0 -0.1898298344
C  C76  1  0.55790000  0.18850000  0.61980000  1.0 -0.1898298344
C  C77  1  0.81150000  0.44210000  0.11980000  1.0 -0.1898298344
C  C78  1  0.18850000  0.55790000  0.61980000  1.0 -0.1898298344
C  C79  1  0.55790000  0.18850000  0.88020000  1.0 -0.1898298344
C  C80  1  0.44210000  0.81150000  0.38020000  1.0 -0.1898298344
C  C81  1  0.12630000  0.38290000  0.90210000  1.0 -0.1800077322
C  C82  1  0.87370000  0.61710000  0.40210000  1.0 -0.1800077322
C  C83  1  0.61710000  0.87370000  0.09790000  1.0 -0.1800077322
C  C84  1  0.38290000  0.12630000  0.59790000  1.0 -0.1800077322
C  C85  1  0.87370000  0.61710000  0.09790000  1.0 -0.1800077322
C  C86  1  0.12630000  0.38290000  0.59790000  1.0 -0.1800077322
C  C87  1  0.38290000  0.12630000  0.90210000  1.0 -0.1800077322
C  C88  1  0.61710000  0.87370000  0.40210000  1.0 -0.1800077322
C  C89  1  0.71870000  0.03870000  0.75000000  1.0 -0.0710944204
C  C90  1  0.28130000  0.96130000  0.25000000  1.0 -0.0710944204
C  C91  1  0.96130000  0.28130000  0.25000000  1.0 -0.0710944204
C  C92  1  0.03870000  0.71870000  0.75000000  1.0 -0.0710944204
C  C93  1  0.53530000  0.97430000  0.75000000  1.0 -0.0828681241
C  C94  1  0.46470000  0.02570000  0.25000000  1.0 -0.0828681241
C  C95  1  0.02570000  0.46470000  0.25000000  1.0 -0.0828681241
C  C96  1  0.97430000  0.53530000  0.75000000  1.0 -0.0828681241
C  C97  1  0.49100000  0.90600000  0.97890000  1.0 0.1076252738
C  C98  1  0.50900000  0.09400000  0.47890000  1.0 0.1076252738
C  C99  1  0.09400000  0.50900000  0.02110000  1.0 0.1076252738
C  C100  1  0.90600000  0.49100000  0.52110000  1.0 0.1076252738
C  C101  1  0.50900000  0.09400000  0.02110000  1.0 0.1076252738
C  C102  1  0.49100000  0.90600000  0.52110000  1.0 0.1076252738
C  C103  1  0.90600000  0.49100000  0.97890000  1.0 0.1076252738
C  C104  1  0.09400000  0.50900000  0.47890000  1.0 0.1076252738
C  C105  1  0.12120000  0.46800000  0.91190000  1.0 0.1076252738
C  C106  1  0.87880000  0.53200000  0.41190000  1.0 0.1076252738
C  C107  1  0.53200000  0.87880000  0.08810000  1.0 0.1076252738
C  C108  1  0.46800000  0.12120000  0.58810000  1.0 0.1076252738
C  C109  1  0.87880000  0.53200000  0.08810000  1.0 0.1076252738
C  C110  1  0.12120000  0.46800000  0.58810000  1.0 0.1076252738
C  C111  1  0.46800000  0.12120000  0.91190000  1.0 0.1076252738
C  C112  1  0.53200000  0.87880000  0.41190000  1.0 0.1076252738
C  C113  1  0.64340000  0.05860000  0.75000000  1.0 -0.0710944204
C  C114  1  0.35660000  0.94140000  0.25000000  1.0 -0.0710944204
C  C115  1  0.94140000  0.35660000  0.25000000  1.0 -0.0710944204
C  C116  1  0.05860000  0.64340000  0.75000000  1.0 -0.0710944204
C  C117  1  0.54130000  0.95550000  0.04110000  1.0 0.1208291598
C  C118  1  0.45870000  0.04450000  0.54110000  1.0 0.1208291598
C  C119  1  0.04450000  0.45870000  0.95890000  1.0 0.1208291598
C  C120  1  0.95550000  0.54130000  0.45890000  1.0 0.1208291598
C  C121  1  0.45870000  0.04450000  0.95890000  1.0 0.1208291598
C  C122  1  0.54130000  0.95550000  0.45890000  1.0 0.1208291598
C  C123  1  0.95550000  0.54130000  0.04110000  1.0 0.1208291598
C  C124  1  0.04450000  0.45870000  0.54110000  1.0 0.1208291598
C  C125  1  0.49780000  0.98280000  0.93240000  1.0 -0.3519227679
C  C126  1  0.50220000  0.01720000  0.43240000  1.0 -0.3519227679
C  C127  1  0.01720000  0.50220000  0.06760000  1.0 -0.3519227679
C  C128  1  0.98280000  0.49780000  0.56760000  1.0 -0.3519227679
C  C129  1  0.50220000  0.01720000  0.06760000  1.0 -0.3519227679
C  C130  1  0.49780000  0.98280000  0.56760000  1.0 -0.3519227679
C  C131  1  0.98280000  0.49780000  0.93240000  1.0 -0.3519227679
C  C132  1  0.01720000  0.50220000  0.43240000  1.0 -0.3519227679
N  N1  1  0.60900000  0.74400000  0.89540000  1.0 -0.2399471558
N  N2  1  0.39100000  0.25600000  0.39540000  1.0 -0.2399471558
N  N3  1  0.25600000  0.39100000  0.10460000  1.0 -0.2399471558
N  N4  1  0.74400000  0.60900000  0.60460000  1.0 -0.2399471558
N  N5  1  0.39100000  0.25600000  0.10460000  1.0 -0.2399471558
N  N6  1  0.60900000  0.74400000  0.60460000  1.0 -0.2399471558
N  N7  1  0.74400000  0.60900000  0.89540000  1.0 -0.2399471558
N  N8  1  0.25600000  0.39100000  0.39540000  1.0 -0.2399471558
N  N9  1  0.26360000  0.48160000  0.82620000  1.0 -0.2399471558
N  N10  1  0.73640000  0.51840000  0.32620000  1.0 -0.2399471558
N  N11  1  0.51840000  0.73640000  0.17380000  1.0 -0.2399471558
N  N12  1  0.48160000  0.26360000  0.67380000  1.0 -0.2399471558
N  N13  1  0.73640000  0.51840000  0.17380000  1.0 -0.2399471558
N  N14  1  0.26360000  0.48160000  0.67380000  1.0 -0.2399471558
N  N15  1  0.48160000  0.26360000  0.82620000  1.0 -0.2399471558
N  N16  1  0.51840000  0.73640000  0.32620000  1.0 -0.2399471558
N  N17  1  0.59800000  0.59800000  0.04070000  1.0 0.6329516148
N  N18  1  0.40200000  0.40200000  0.54070000  1.0 0.6329516148
N  N19  1  0.40200000  0.40200000  0.95930000  1.0 0.6329516148
N  N20  1  0.59800000  0.59800000  0.45930000  1.0 0.6329516148
N  N21  1  0.21140000  0.81060000  0.59770000  1.0 0.6082551901
N  N22  1  0.78860000  0.18940000  0.09770000  1.0 0.6031655495
N  N23  1  0.18940000  0.78860000  0.40230000  1.0 0.6082551901
N  N24  1  0.81060000  0.21140000  0.90230000  1.0 0.6031655495
N  N25  1  0.78860000  0.18940000  0.40230000  1.0 0.6031655495
N  N26  1  0.21140000  0.81060000  0.90230000  1.0 0.6082551901
N  N27  1  0.81060000  0.21140000  0.59770000  1.0 0.6031655495
N  N28  1  0.18940000  0.78860000  0.09770000  1.0 0.6082551901
Cl  Cl1  1  0.49480000  0.49480000  0.83240000  1.0 -0.3519227679
Cl  Cl2  1  0.50520000  0.50520000  0.33240000  1.0 -0.3519227679
Cl  Cl3  1  0.50520000  0.50520000  0.16760000  1.0 -0.3519227679
Cl  Cl4  1  0.49480000  0.49480000  0.66760000  1.0 -0.3519227679
Cl  Cl5  1  0.28800000  0.28800000  0.75000000  1.0 -0.518819886
Cl  Cl6  1  0.71200000  0.71200000  0.25000000  1.0 -0.518819886
O  O1  1  0.62300000  0.73000000  0.75000000  1.0 -0.5532349522
O  O2  1  0.37700000  0.27000000  0.25000000  1.0 -0.5532349522
O  O3  1  0.27000000  0.37700000  0.25000000  1.0 -0.5532349522
O  O4  1  0.73000000  0.62300000  0.75000000  1.0 -0.5532349522
O  O5  1  0.83080000  0.83080000  0.82050000  1.0 -0.4184274698
O  O6  1  0.16920000  0.16920000  0.32050000  1.0 -0.4184274698
O  O7  1  0.16920000  0.16920000  0.17950000  1.0 -0.4184274698
O  O8  1  0.83080000  0.83080000  0.67950000  1.0 -0.4184274698
O  O9  1  0.45410000  0.67090000  0.75000000  1.0 -0.50740506
O  O10  1  0.54590000  0.32910000  0.25000000  1.0 -0.50740506
O  O11  1  0.32910000  0.54590000  0.25000000  1.0 -0.50740506
O  O12  1  0.67090000  0.45410000  0.75000000  1.0 -0.50740506
O  O13  1  0.64720000  0.02700000  0.02490000  1.0 -0.3958954389
O  O14  1  0.35280000  0.97300000  0.52490000  1.0 -0.3958954389
O  O15  1  0.97300000  0.35280000  0.97510000  1.0 -0.3958954389
O  O16  1  0.02700000  0.64720000  0.47510000  1.0 -0.3958954389
O  O17  1  0.35280000  0.97300000  0.97510000  1.0 -0.3958954389
O  O18  1  0.64720000  0.02700000  0.47510000  1.0 -0.3958954389
O  O19  1  0.02700000  0.64720000  0.02490000  1.0 -0.3958954389
O  O20  1  0.97300000  0.35280000  0.52490000  1.0 -0.3958954389
O  O21  1  0.82420000  0.37820000  0.99220000  1.0 -0.4060005123
O  O22  1  0.17580000  0.62180000  0.49220000  1.0 -0.4060005123
O  O23  1  0.62180000  0.17580000  0.00780000  1.0 -0.4060005123
O  O24  1  0.37820000  0.82420000  0.50780000  1.0 -0.4060005123
O  O25  1  0.17580000  0.62180000  0.00780000  1.0 -0.4060005123
O  O26  1  0.82420000  0.37820000  0.50780000  1.0 -0.4060005123
O  O27  1  0.37820000  0.82420000  0.99220000  1.0 -0.4060005123
O  O28  1  0.62180000  0.17580000  0.49220000  1.0 -0.4060005123
O  O29  1  0.64300000  0.64300000  0.08740000  1.0 -0.280758551
O  O30  1  0.51670000  0.51670000  0.04230000  1.0 -0.1700176771
O  O31  1  0.63900000  0.63900000  0.99170000  1.0 -0.280758551
O  O32  1  0.35700000  0.35700000  0.58740000  1.0 -0.280758551
O  O33  1  0.48330000  0.48330000  0.54230000  1.0 -0.1700176771
O  O34  1  0.36100000  0.36100000  0.49170000  1.0 -0.280758551
O  O35  1  0.35700000  0.35700000  0.91260000  1.0 -0.280758551
O  O36  1  0.48330000  0.48330000  0.95770000  1.0 -0.1700176771
O  O37  1  0.36100000  0.36100000  0.00830000  1.0 -0.280758551
O  O38  1  0.64300000  0.64300000  0.41260000  1.0 -0.280758551
O  O39  1  0.51670000  0.51670000  0.45770000  1.0 -0.1700176771
O  O40  1  0.63900000  0.63900000  0.50830000  1.0 -0.280758551
O  O41  1  0.20940000  0.76060000  0.55860000  1.0 -0.2710786673
O  O42  1  0.16730000  0.85670000  0.58810000  1.0 -0.3643699537
O  O43  1  0.25700000  0.83100000  0.64770000  1.0 -0.3519227679
O  O44  1  0.79060000  0.23940000  0.05860000  1.0 -0.2710786673
O  O45  1  0.83270000  0.14330000  0.08810000  1.0 -0.3643699537
O  O46  1  0.74300000  0.16900000  0.14770000  1.0 -0.3519227679
O  O47  1  0.23940000  0.79060000  0.44140000  1.0 -0.2710786673
O  O48  1  0.14330000  0.83270000  0.41190000  1.0 -0.3643699537
O  O49  1  0.16900000  0.74300000  0.35230000  1.0 -0.3519227679
O  O50  1  0.76060000  0.20940000  0.94140000  1.0 -0.2710786673
O  O51  1  0.85670000  0.16730000  0.91190000  1.0 -0.3643699537
O  O52  1  0.83100000  0.25700000  0.85230000  1.0 -0.3519227679
O  O53  1  0.79060000  0.23940000  0.44140000  1.0 -0.2710786673
O  O54  1  0.83270000  0.14330000  0.41190000  1.0 -0.3643699537
O  O55  1  0.74300000  0.16900000  0.35230000  1.0 -0.3519227679
O  O56  1  0.20940000  0.76060000  0.94140000  1.0 -0.2710786673
O  O57  1  0.16730000  0.85670000  0.91190000  1.0 -0.3643699537
O  O58  1  0.25700000  0.83100000  0.85230000  1.0 -0.3519227679
O  O59  1  0.76060000  0.20940000  0.55860000  1.0 -0.2710786673
O  O60  1  0.85670000  0.16730000  0.58810000  1.0 -0.3643699537
O  O61  1  0.83100000  0.25700000  0.64770000  1.0 -0.3519227679
O  O62  1  0.23940000  0.79060000  0.05860000  1.0 -0.2710786673
O  O63  1  0.14330000  0.83270000  0.08810000  1.0 -0.3643699537
O  O64  1  0.16900000  0.74300000  0.14770000  1.0 -0.3519227679
