# DDEC6 charges by PACMAN v1.1 (https://github.com/mtap-research/PACMAN-charge/)
data_CUSDIE_ion_pacman
_symmetry_space_group_name_H-M   'P 1'
_cell_length_a   18.21860000
_cell_length_b   18.21860000
_cell_length_c   18.21860000
_cell_angle_alpha   109.47100000
_cell_angle_beta   109.47100000
_cell_angle_gamma   109.47100000
_symmetry_Int_Tables_number   1
_chemical_formula_structural   Cu6B3H24C24N18(O5F3)4
_chemical_formula_sum   'Cu12 B6 H48 C48 N36 O40 F24'
_cell_volume   4655.07474961
_cell_formula_units_Z   2
loop_
 _symmetry_equiv_pos_site_id
 _symmetry_equiv_pos_as_xyz
  1  'x, y, z'
loop_
 _atom_site_type_symbol
 _atom_site_label
 _atom_site_symmetry_multiplicity
 _atom_site_fract_x
 _atom_site_fract_y
 _atom_site_fract_z
 _atom_site_occupancy
 _atom_site_charge
Cu  Cu1  1  0.00000000  0.88676000  0.51570000  1.0 0.8770834279
Cu  Cu2  1  0.11324000  0.62894000  0.11324000  1.0 0.8770834279
Cu  Cu3  1  0.37106000  0.48430000  0.48430000  1.0 0.8770834279
Cu  Cu4  1  0.51570000  0.00000000  0.88676000  1.0 0.8770834279
Cu  Cu5  1  0.00000000  0.51570000  0.88676000  1.0 0.8770834279
Cu  Cu6  1  0.48430000  0.37106000  0.48430000  1.0 0.8770834279
Cu  Cu7  1  0.62894000  0.11324000  0.11324000  1.0 0.87420752
Cu  Cu8  1  0.88676000  0.00000000  0.51570000  1.0 0.8770834279
Cu  Cu9  1  0.88676000  0.51570000  0.00000000  1.0 0.8770834279
Cu  Cu10  1  0.51570000  0.88676000  0.00000000  1.0 0.8770834279
Cu  Cu11  1  0.48430000  0.48430000  0.37106000  1.0 0.8770834279
Cu  Cu12  1  0.11324000  0.11324000  0.62894000  1.0 0.8770834279
B  B1  1  0.25000000  0.50000000  0.75000000  1.0 0.9567308461
B  B2  1  0.50000000  0.75000000  0.25000000  1.0 0.9567308461
B  B3  1  0.75000000  0.50000000  0.25000000  1.0 0.9567308461
B  B4  1  0.50000000  0.25000000  0.75000000  1.0 0.9567308461
B  B5  1  0.75000000  0.25000000  0.50000000  1.0 0.9567308461
B  B6  1  0.25000000  0.75000000  0.50000000  1.0 0.9567308461
H  H1  1  0.13060000  0.69030000  0.31010000  1.0 0.1272527511
H  H2  1  0.30970000  0.61980000  0.44030000  1.0 0.1272527511
H  H3  1  0.38020000  0.82050000  0.68990000  1.0 0.1272527511
H  H4  1  0.17950000  0.86940000  0.55970000  1.0 0.1272527511
H  H5  1  0.86940000  0.17950000  0.55970000  1.0 0.1272527511
H  H6  1  0.82050000  0.38020000  0.68990000  1.0 0.1272527511
H  H7  1  0.61980000  0.30970000  0.44030000  1.0 0.1272527511
H  H8  1  0.69030000  0.13060000  0.31010000  1.0 0.1272527511
H  H9  1  0.31010000  0.13060000  0.69030000  1.0 0.1272527511
H  H10  1  0.86940000  0.55970000  0.17950000  1.0 0.1272527511
H  H11  1  0.44030000  0.61980000  0.30970000  1.0 0.1272527511
H  H12  1  0.38020000  0.68990000  0.82050000  1.0 0.1272527511
H  H13  1  0.68990000  0.38020000  0.82050000  1.0 0.1272527511
H  H14  1  0.61980000  0.44030000  0.30970000  1.0 0.1272527511
H  H15  1  0.55970000  0.86940000  0.17950000  1.0 0.1272527511
H  H16  1  0.13060000  0.31010000  0.69030000  1.0 0.1272527511
H  H17  1  0.69030000  0.31010000  0.13060000  1.0 0.1272527511
H  H18  1  0.31010000  0.69030000  0.13060000  1.0 0.1272527511
H  H19  1  0.68990000  0.82050000  0.38020000  1.0 0.1272527511
H  H20  1  0.55970000  0.17950000  0.86940000  1.0 0.1272527511
H  H21  1  0.44030000  0.30970000  0.61980000  1.0 0.1272527511
H  H22  1  0.30970000  0.44030000  0.61980000  1.0 0.1272527511
H  H23  1  0.17950000  0.55970000  0.86940000  1.0 0.1272527511
H  H24  1  0.82050000  0.68990000  0.38020000  1.0 0.1272527511
H  H25  1  0.05380000  0.66680000  0.40560000  1.0 0.1561342414
H  H26  1  0.33320000  0.73880000  0.38700000  1.0 0.1561342414
H  H27  1  0.26120000  0.64820000  0.59440000  1.0 0.1561342414
H  H28  1  0.35180000  0.94620000  0.61300000  1.0 0.1561342414
H  H29  1  0.94620000  0.35180000  0.61300000  1.0 0.1561342414
H  H30  1  0.64820000  0.26120000  0.59440000  1.0 0.1561342414
H  H31  1  0.73880000  0.33320000  0.38700000  1.0 0.1561342414
H  H32  1  0.66680000  0.05380000  0.40560000  1.0 0.1561342414
H  H33  1  0.40560000  0.05380000  0.66680000  1.0 0.1561342414
H  H34  1  0.94620000  0.61300000  0.35180000  1.0 0.1561342414
H  H35  1  0.38700000  0.73880000  0.33320000  1.0 0.1561342414
H  H36  1  0.26120000  0.59440000  0.64820000  1.0 0.1561342414
H  H37  1  0.59440000  0.26120000  0.64820000  1.0 0.1561342414
H  H38  1  0.73880000  0.38700000  0.33320000  1.0 0.1561342414
H  H39  1  0.61300000  0.94620000  0.35180000  1.0 0.1561342414
H  H40  1  0.05380000  0.40560000  0.66680000  1.0 0.1561342414
H  H41  1  0.66680000  0.40560000  0.05380000  1.0 0.1561342414
H  H42  1  0.40560000  0.66680000  0.05380000  1.0 0.1561342414
H  H43  1  0.59440000  0.64820000  0.26120000  1.0 0.1561342414
H  H44  1  0.61300000  0.35180000  0.94620000  1.0 0.1561342414
H  H45  1  0.38700000  0.33320000  0.73880000  1.0 0.1561342414
H  H46  1  0.33320000  0.38700000  0.73880000  1.0 0.1561342414
H  H47  1  0.35180000  0.61300000  0.94620000  1.0 0.1561342414
H  H48  1  0.64820000  0.59440000  0.26120000  1.0 0.1561342414
C  C1  1  0.07000000  0.65510000  0.26230000  1.0 0.1480094764
C  C2  1  0.34490000  0.60720000  0.41490000  1.0 0.1480094764
C  C3  1  0.39280000  0.80770000  0.73770000  1.0 0.1480094764
C  C4  1  0.19230000  0.93000000  0.58510000  1.0 0.1480094764
C  C5  1  0.93000000  0.19230000  0.58510000  1.0 0.1480094764
C  C6  1  0.80770000  0.39280000  0.73770000  1.0 0.1480094764
C  C7  1  0.60720000  0.34490000  0.41490000  1.0 0.1480094764
C  C8  1  0.65510000  0.07000000  0.26230000  1.0 0.1480094764
C  C9  1  0.26230000  0.07000000  0.65510000  1.0 0.1480094764
C  C10  1  0.93000000  0.58510000  0.19230000  1.0 0.1480094764
C  C11  1  0.41490000  0.60720000  0.34490000  1.0 0.1480094764
C  C12  1  0.39280000  0.73770000  0.80770000  1.0 0.1480094764
C  C13  1  0.73770000  0.39280000  0.80770000  1.0 0.1480094764
C  C14  1  0.60720000  0.41490000  0.34490000  1.0 0.1480094764
C  C15  1  0.58510000  0.93000000  0.19230000  1.0 0.1480094764
C  C16  1  0.07000000  0.26230000  0.65510000  1.0 0.1480094764
C  C17  1  0.65510000  0.26230000  0.07000000  1.0 0.1480094764
C  C18  1  0.26230000  0.65510000  0.07000000  1.0 0.1480094764
C  C19  1  0.73770000  0.80770000  0.39280000  1.0 0.1480094764
C  C20  1  0.58510000  0.19230000  0.93000000  1.0 0.1480094764
C  C21  1  0.41490000  0.34490000  0.60720000  1.0 0.1480094764
C  C22  1  0.34490000  0.41490000  0.60720000  1.0 0.1480094764
C  C23  1  0.19230000  0.58510000  0.93000000  1.0 0.1480094764
C  C24  1  0.80770000  0.73770000  0.39280000  1.0 0.1480094764
C  C25  1  0.00000000  0.66010000  0.35970000  1.0 -0.251617299
C  C26  1  0.33990000  0.69960000  0.33990000  1.0 -0.251617299
C  C27  1  0.30040000  0.64030000  0.64030000  1.0 -0.251617299
C  C28  1  0.35970000  0.00000000  0.66010000  1.0 -0.251617299
C  C29  1  0.00000000  0.35970000  0.66010000  1.0 -0.251617299
C  C30  1  0.64030000  0.30040000  0.64030000  1.0 -0.251617299
C  C31  1  0.69960000  0.33990000  0.33990000  1.0 -0.251617299
C  C32  1  0.66010000  0.00000000  0.35970000  1.0 -0.251617299
C  C33  1  0.66010000  0.35970000  0.00000000  1.0 -0.251617299
C  C34  1  0.35970000  0.66010000  0.00000000  1.0 -0.251617299
C  C35  1  0.64030000  0.64030000  0.30040000  1.0 -0.251617299
C  C36  1  0.33990000  0.33990000  0.69960000  1.0 -0.251617299
C  C37  1  0.00000000  0.74800000  0.39280000  1.0 0.6193990544
C  C38  1  0.25200000  0.64480000  0.25200000  1.0 0.6193990544
C  C39  1  0.35520000  0.60720000  0.60720000  1.0 0.6193990544
C  C40  1  0.39280000  0.00000000  0.74800000  1.0 0.6193990544
C  C41  1  0.00000000  0.39280000  0.74800000  1.0 0.6193990544
C  C42  1  0.60720000  0.35520000  0.60720000  1.0 0.6193990544
C  C43  1  0.64480000  0.25200000  0.25200000  1.0 0.6193990544
C  C44  1  0.74800000  0.00000000  0.39280000  1.0 0.6193990544
C  C45  1  0.74800000  0.39280000  0.00000000  1.0 0.6193990544
C  C46  1  0.39280000  0.74800000  0.00000000  1.0 0.6193990544
C  C47  1  0.60720000  0.60720000  0.35520000  1.0 0.6193990544
C  C48  1  0.25200000  0.25200000  0.64480000  1.0 0.6193990544
N  N1  1  0.04600000  0.62410000  0.17750000  1.0 -0.1658439104
N  N2  1  0.37590000  0.55340000  0.42190000  1.0 -0.1658439104
N  N3  1  0.44660000  0.86850000  0.82250000  1.0 -0.1647844211
N  N4  1  0.13150000  0.95400000  0.57810000  1.0 -0.1658439104
N  N5  1  0.95400000  0.13150000  0.57810000  1.0 -0.1658439104
N  N6  1  0.86850000  0.44660000  0.82250000  1.0 -0.1658439104
N  N7  1  0.55340000  0.37590000  0.42190000  1.0 -0.1658439104
N  N8  1  0.62410000  0.04600000  0.17750000  1.0 -0.1647844211
N  N9  1  0.17750000  0.04600000  0.62410000  1.0 -0.1658439104
N  N10  1  0.95400000  0.57810000  0.13150000  1.0 -0.1658439104
N  N11  1  0.42190000  0.55340000  0.37590000  1.0 -0.1658439104
N  N12  1  0.44660000  0.82250000  0.86850000  1.0 -0.1647844211
N  N13  1  0.82250000  0.44660000  0.86850000  1.0 -0.1658439104
N  N14  1  0.55340000  0.42190000  0.37590000  1.0 -0.1658439104
N  N15  1  0.57810000  0.95400000  0.13150000  1.0 -0.1647844211
N  N16  1  0.04600000  0.17750000  0.62410000  1.0 -0.1658439104
N  N17  1  0.62410000  0.17750000  0.04600000  1.0 -0.1647844211
N  N18  1  0.17750000  0.62410000  0.04600000  1.0 -0.1647844211
N  N19  1  0.82250000  0.86850000  0.44660000  1.0 -0.1658439104
N  N20  1  0.57810000  0.13150000  0.95400000  1.0 -0.1647844211
N  N21  1  0.42190000  0.37590000  0.55340000  1.0 -0.1658439104
N  N22  1  0.37590000  0.42190000  0.55340000  1.0 -0.1658439104
N  N23  1  0.13150000  0.57810000  0.95400000  1.0 -0.1658439104
N  N24  1  0.86850000  0.82250000  0.44660000  1.0 -0.1647844211
N  N25  1  0.00000000  0.63120000  0.27300000  1.0 0.0715339716
N  N26  1  0.36880000  0.64180000  0.36880000  1.0 0.0715339716
N  N27  1  0.35820000  0.72700000  0.72700000  1.0 0.0715339716
N  N28  1  0.27300000  0.00000000  0.63120000  1.0 0.0715339716
N  N29  1  0.00000000  0.27300000  0.63120000  1.0 0.0715339716
N  N30  1  0.72700000  0.35820000  0.72700000  1.0 0.0715339716
N  N31  1  0.64180000  0.36880000  0.36880000  1.0 0.0715339716
N  N32  1  0.63120000  0.00000000  0.27300000  1.0 0.0715339716
N  N33  1  0.63120000  0.27300000  0.00000000  1.0 0.0715339716
N  N34  1  0.27300000  0.63120000  0.00000000  1.0 0.0715339716
N  N35  1  0.72700000  0.72700000  0.35820000  1.0 0.0715339716
N  N36  1  0.36880000  0.36880000  0.64180000  1.0 0.0715339716
O  O1  1  0.00000000  0.00000000  0.55820000  1.0 -0.8318739299
O  O2  1  0.00000000  0.55820000  0.00000000  1.0 -0.8318739299
O  O3  1  0.44180000  0.44180000  0.44180000  1.0 -0.8318739299
O  O4  1  0.55820000  0.00000000  0.00000000  1.0 -0.8318739299
O  O5  1  0.00000000  0.78740000  0.35240000  1.0 -0.4699840176
O  O6  1  0.21260000  0.56500000  0.21260000  1.0 -0.4699840176
O  O7  1  0.43500000  0.64760000  0.64760000  1.0 -0.4699840176
O  O8  1  0.35240000  0.00000000  0.78740000  1.0 -0.4699840176
O  O9  1  0.00000000  0.35240000  0.78740000  1.0 -0.4699840176
O  O10  1  0.64760000  0.43500000  0.64760000  1.0 -0.4699840176
O  O11  1  0.56500000  0.21260000  0.21260000  1.0 -0.4699840176
O  O12  1  0.78740000  0.00000000  0.35240000  1.0 -0.4699840176
O  O13  1  0.78740000  0.35240000  0.00000000  1.0 -0.4699840176
O  O14  1  0.35240000  0.78740000  0.00000000  1.0 -0.4635413055
O  O15  1  0.64760000  0.64760000  0.43500000  1.0 -0.4699840176
O  O16  1  0.21260000  0.21260000  0.56500000  1.0 -0.4699840176
O  O17  1  0.00000000  0.77410000  0.46810000  1.0 -0.5238874122
O  O18  1  0.22590000  0.69400000  0.22590000  1.0 -0.5238874122
O  O19  1  0.30600000  0.53190000  0.53190000  1.0 -0.5238874122
O  O20  1  0.46810000  0.00000000  0.77410000  1.0 -0.5238874122
O  O21  1  0.00000000  0.46810000  0.77410000  1.0 -0.5238874122
O  O22  1  0.53190000  0.30600000  0.53190000  1.0 -0.5238874122
O  O23  1  0.69400000  0.22590000  0.22590000  1.0 -0.5238874122
O  O24  1  0.77410000  0.00000000  0.46810000  1.0 -0.5238874122
O  O25  1  0.77410000  0.46810000  0.00000000  1.0 -0.5238874122
O  O26  1  0.46810000  0.77410000  0.00000000  1.0 -0.5238874122
O  O27  1  0.53190000  0.53190000  0.30600000  1.0 -0.5238874122
O  O28  1  0.22590000  0.22590000  0.69400000  1.0 -0.5238874122
O  O29  1  0.00000000  0.88460000  0.64320000  1.0 -0.2188730602
O  O30  1  0.11540000  0.75860000  0.11540000  1.0 -0.2117146566
O  O31  1  0.24140000  0.35680000  0.35680000  1.0 -0.2117146566
O  O32  1  0.64320000  0.00000000  0.88460000  1.0 -0.2117146566
O  O33  1  0.00000000  0.64320000  0.88460000  1.0 -0.2117146566
O  O34  1  0.35680000  0.24140000  0.35680000  1.0 -0.2117146566
O  O35  1  0.75860000  0.11540000  0.11540000  1.0 -0.2037590508
O  O36  1  0.88460000  0.00000000  0.64320000  1.0 -0.2117146566
O  O37  1  0.88460000  0.64320000  0.00000000  1.0 -0.2117146566
O  O38  1  0.64320000  0.88460000  0.00000000  1.0 -0.2117146566
O  O39  1  0.35680000  0.35680000  0.24140000  1.0 -0.2188730602
O  O40  1  0.11540000  0.11540000  0.75860000  1.0 -0.2117146566
F  F1  1  0.33530000  0.53950000  0.77520000  1.0 -0.4217328791
F  F2  1  0.23570000  0.46050000  0.79580000  1.0 -0.4217328791
F  F3  1  0.20420000  0.43990000  0.66470000  1.0 -0.4217328791
F  F4  1  0.22480000  0.56010000  0.76430000  1.0 -0.4217328791
F  F5  1  0.43990000  0.66470000  0.20420000  1.0 -0.4217328791
F  F6  1  0.56010000  0.76430000  0.22480000  1.0 -0.4217328791
F  F7  1  0.46050000  0.79580000  0.23570000  1.0 -0.4217328791
F  F8  1  0.53950000  0.77520000  0.33530000  1.0 -0.4217328791
F  F9  1  0.76430000  0.56010000  0.22480000  1.0 -0.4217328791
F  F10  1  0.66470000  0.43990000  0.20420000  1.0 -0.4217328791
F  F11  1  0.79580000  0.46050000  0.23570000  1.0 -0.4217328791
F  F12  1  0.77520000  0.53950000  0.33530000  1.0 -0.4217328791
F  F13  1  0.46050000  0.23570000  0.79580000  1.0 -0.4217328791
F  F14  1  0.53950000  0.33530000  0.77520000  1.0 -0.4217328791
F  F15  1  0.56010000  0.22480000  0.76430000  1.0 -0.4217328791
F  F16  1  0.43990000  0.20420000  0.66470000  1.0 -0.4217328791
F  F17  1  0.76430000  0.22480000  0.56010000  1.0 -0.4217328791
F  F18  1  0.77520000  0.33530000  0.53950000  1.0 -0.4217328791
F  F19  1  0.66470000  0.20420000  0.43990000  1.0 -0.4217328791
F  F20  1  0.79580000  0.23570000  0.46050000  1.0 -0.4217328791
F  F21  1  0.23570000  0.79580000  0.46050000  1.0 -0.4217328791
F  F22  1  0.20420000  0.66470000  0.43990000  1.0 -0.4217328791
F  F23  1  0.33530000  0.77520000  0.53950000  1.0 -0.4217328791
F  F24  1  0.22480000  0.76430000  0.56010000  1.0 -0.4217328791
