# DDEC6 charges by PACMAN v1.1 (https://github.com/mtap-research/PACMAN-charge/)
data_CUSYIA_ASR_pacman
_symmetry_space_group_name_H-M   'P 1'
_cell_length_a   12.73920000
_cell_length_b   21.71400000
_cell_length_c   19.65920000
_cell_angle_alpha   90.00000000
_cell_angle_beta   117.49400000
_cell_angle_gamma   90.00000000
_symmetry_Int_Tables_number   1
_chemical_formula_structural   CuH4(C3N)4
_chemical_formula_sum   'Cu8 H32 C96 N32'
_cell_volume   4823.92365875
_cell_formula_units_Z   8
loop_
 _symmetry_equiv_pos_site_id
 _symmetry_equiv_pos_as_xyz
  1  'x, y, z'
loop_
 _atom_site_type_symbol
 _atom_site_label
 _atom_site_symmetry_multiplicity
 _atom_site_fract_x
 _atom_site_fract_y
 _atom_site_fract_z
 _atom_site_occupancy
 _atom_site_charge
Cu  Cu1  1  0.58140000  0.18803000  0.78439000  1.0 0.6573332663
Cu  Cu2  1  0.41860000  0.68803000  0.71561000  1.0 0.6573332663
Cu  Cu3  1  0.41860000  0.81197000  0.21561000  1.0 0.6573332663
Cu  Cu4  1  0.58140000  0.31197000  0.28439000  1.0 0.6573332663
Cu  Cu5  1  0.97407000  0.91608000  0.78778000  1.0 0.6573332663
Cu  Cu6  1  0.02593000  0.41608000  0.71222000  1.0 0.6573332663
Cu  Cu7  1  0.02593000  0.08392000  0.21222000  1.0 0.6573332663
Cu  Cu8  1  0.97407000  0.58392000  0.28778000  1.0 0.6573332663
H  H1  1  0.44510000  0.07820000  0.55790000  1.0 0.1229037589
H  H2  1  0.55490000  0.57820000  0.94210000  1.0 0.1229037589
H  H3  1  0.55490000  0.92180000  0.44210000  1.0 0.1229037589
H  H4  1  0.44510000  0.42180000  0.05790000  1.0 0.1294755653
H  H5  1  0.68180000  0.95160000  0.56580000  1.0 0.1294755653
H  H6  1  0.31820000  0.45160000  0.93420000  1.0 0.1294755653
H  H7  1  0.31820000  0.04840000  0.43420000  1.0 0.1294755653
H  H8  1  0.68180000  0.54840000  0.06580000  1.0 0.1294755653
H  H9  1  0.69430000  0.98620000  0.09370000  1.0 0.1294755653
H  H10  1  0.30570000  0.48620000  0.40630000  1.0 0.1294755653
H  H11  1  0.30570000  0.01380000  0.90630000  1.0 0.1294755653
H  H12  1  0.69430000  0.51380000  0.59370000  1.0 0.1294755653
H  H13  1  0.45300000  0.07460000  0.90620000  1.0 0.1370917934
H  H14  1  0.54700000  0.57460000  0.59380000  1.0 0.1370917934
H  H15  1  0.54700000  0.92540000  0.09380000  1.0 0.1370917934
H  H16  1  0.45300000  0.42540000  0.40620000  1.0 0.1370917934
H  H17  1  0.23800000  0.17510000  0.56960000  1.0 0.1229037589
H  H18  1  0.76200000  0.67510000  0.93040000  1.0 0.1229037589
H  H19  1  0.76200000  0.82490000  0.43040000  1.0 0.1229037589
H  H20  1  0.23800000  0.32490000  0.06960000  1.0 0.1229037589
H  H21  1  0.10890000  0.14500000  0.44560000  1.0 0.1229037589
H  H22  1  0.89110000  0.64500000  0.05440000  1.0 0.1229037589
H  H23  1  0.89110000  0.85500000  0.55440000  1.0 0.1229037589
H  H24  1  0.10890000  0.35500000  0.94560000  1.0 0.1229037589
H  H25  1  0.86610000  0.26660000  0.43970000  1.0 0.1229037589
H  H26  1  0.13390000  0.76660000  0.06030000  1.0 0.1229037589
H  H27  1  0.13390000  0.73340000  0.56030000  1.0 0.1229037589
H  H28  1  0.86610000  0.23340000  0.93970000  1.0 0.1229037589
H  H29  1  0.99770000  0.30040000  0.56170000  1.0 0.1229037589
H  H30  1  0.00230000  0.80040000  0.93830000  1.0 0.1229037589
H  H31  1  0.00230000  0.69960000  0.43830000  1.0 0.1229037589
H  H32  1  0.99770000  0.19960000  0.06170000  1.0 0.1229037589
C  C1  1  0.62920000  0.08460000  0.69110000  1.0 0.3199762713
C  C2  1  0.37080000  0.58460000  0.80890000  1.0 0.3199762713
C  C3  1  0.37080000  0.91540000  0.30890000  1.0 0.3199762713
C  C4  1  0.62920000  0.41540000  0.19110000  1.0 0.3199762713
C  C5  1  0.65830000  0.03660000  0.65510000  1.0 -0.1915369794
C  C6  1  0.34170000  0.53660000  0.84490000  1.0 -0.1915369794
C  C7  1  0.34170000  0.96340000  0.34490000  1.0 -0.1915369794
C  C8  1  0.65830000  0.46340000  0.15510000  1.0 -0.1915369794
C  C9  1  0.76210000  0.00380000  0.69910000  1.0 0.3284091431
C  C10  1  0.23790000  0.50380000  0.80090000  1.0 0.3284091431
C  C11  1  0.23790000  0.99620000  0.30090000  1.0 0.3284091431
C  C12  1  0.76210000  0.49620000  0.19910000  1.0 0.3284091431
C  C13  1  0.57900000  0.01900000  0.57600000  1.0 0.1096661814
C  C14  1  0.42100000  0.51900000  0.92400000  1.0 0.1096661814
C  C15  1  0.42100000  0.98100000  0.42400000  1.0 0.1096661814
C  C16  1  0.57900000  0.48100000  0.07600000  1.0 0.1096661814
C  C17  1  0.46860000  0.04630000  0.53470000  1.0 -0.1326633589
C  C18  1  0.53140000  0.54630000  0.96530000  1.0 -0.1326633589
C  C19  1  0.53140000  0.95370000  0.46530000  1.0 -0.1326633589
C  C20  1  0.46860000  0.45370000  0.03470000  1.0 -0.1385239069
C  C21  1  0.60760000  0.97180000  0.53920000  1.0 -0.1385239069
C  C22  1  0.39240000  0.47180000  0.96080000  1.0 -0.1385239069
C  C23  1  0.39240000  0.02820000  0.46080000  1.0 -0.1385239069
C  C24  1  0.60760000  0.52820000  0.03920000  1.0 -0.1385239069
C  C25  1  0.65890000  0.11800000  0.93900000  1.0 0.3199762713
C  C26  1  0.34110000  0.61800000  0.56100000  1.0 0.3199762713
C  C27  1  0.34110000  0.88200000  0.06100000  1.0 0.3199762713
C  C28  1  0.65890000  0.38200000  0.43900000  1.0 0.3199762713
C  C29  1  0.68530000  0.07660000  0.99900000  1.0 -0.1915369794
C  C30  1  0.31470000  0.57660000  0.50100000  1.0 -0.1915369794
C  C31  1  0.31470000  0.92340000  0.00100000  1.0 -0.1915369794
C  C32  1  0.68530000  0.42340000  0.49900000  1.0 -0.1915369794
C  C33  1  0.80140000  0.07340000  0.05830000  1.0 0.3284091431
C  C34  1  0.19860000  0.57340000  0.44170000  1.0 0.3284091431
C  C35  1  0.19860000  0.92660000  0.94170000  1.0 0.3284091431
C  C36  1  0.80140000  0.42660000  0.55830000  1.0 0.3284091431
C  C37  1  0.59200000  0.03770000  0.99970000  1.0 0.1004565175
C  C38  1  0.40800000  0.53770000  0.50030000  1.0 0.1004565175
C  C39  1  0.40800000  0.96230000  0.00030000  1.0 0.1004565175
C  C40  1  0.59200000  0.46230000  0.49970000  1.0 0.1004565175
C  C41  1  0.61530000  0.99230000  0.05510000  1.0 -0.1235204671
C  C42  1  0.38470000  0.49230000  0.44490000  1.0 -0.1235204671
C  C43  1  0.38470000  0.00770000  0.94490000  1.0 -0.1235204671
C  C44  1  0.61530000  0.50770000  0.55510000  1.0 -0.1235204671
C  C45  1  0.47320000  0.04400000  0.94490000  1.0 -0.1326633589
C  C46  1  0.52680000  0.54400000  0.55510000  1.0 -0.1326633589
C  C47  1  0.52680000  0.95600000  0.05510000  1.0 -0.1326633589
C  C48  1  0.47320000  0.45600000  0.44490000  1.0 -0.1326633589
C  C49  1  0.32320000  0.23660000  0.70230000  1.0 0.3199762713
C  C50  1  0.67680000  0.73660000  0.79770000  1.0 0.3199762713
C  C51  1  0.67680000  0.76340000  0.29770000  1.0 0.3199762713
C  C52  1  0.32320000  0.26340000  0.20230000  1.0 0.3199762713
C  C53  1  0.20930000  0.26040000  0.65860000  1.0 -0.1746143062
C  C54  1  0.79070000  0.76040000  0.84140000  1.0 -0.1746143062
C  C55  1  0.79070000  0.73960000  0.34140000  1.0 -0.1746143062
C  C56  1  0.20930000  0.23960000  0.15860000  1.0 -0.1746143062
C  C57  1  0.16680000  0.30530000  0.69180000  1.0 0.3199762713
C  C58  1  0.83320000  0.80530000  0.80820000  1.0 0.3199762713
C  C59  1  0.83320000  0.69470000  0.30820000  1.0 0.3199762713
C  C60  1  0.16680000  0.19470000  0.19180000  1.0 0.3199762713
C  C61  1  0.13220000  0.24140000  0.58000000  1.0 0.1096661814
C  C62  1  0.86780000  0.74140000  0.92000000  1.0 0.1096661814
C  C63  1  0.86780000  0.75860000  0.42000000  1.0 0.1096661814
C  C64  1  0.13220000  0.25860000  0.08000000  1.0 0.1096661814
C  C65  1  0.16300000  0.19460000  0.54340000  1.0 -0.1385239069
C  C66  1  0.83700000  0.69460000  0.95660000  1.0 -0.1385239069
C  C67  1  0.83700000  0.80540000  0.45660000  1.0 -0.1385239069
C  C68  1  0.16300000  0.30540000  0.04340000  1.0 -0.1385239069
C  C69  1  0.08500000  0.17620000  0.46940000  1.0 -0.1385239069
C  C70  1  0.91500000  0.67620000  0.03060000  1.0 -0.1385239069
C  C71  1  0.91500000  0.82380000  0.53060000  1.0 -0.1385239069
C  C72  1  0.08500000  0.32380000  0.96940000  1.0 -0.1385239069
C  C73  1  0.97310000  0.20210000  0.42900000  1.0 0.1096661814
C  C74  1  0.02690000  0.70210000  0.07100000  1.0 0.1096661814
C  C75  1  0.02690000  0.79790000  0.57100000  1.0 0.1096661814
C  C76  1  0.97310000  0.29790000  0.92900000  1.0 0.1096661814
C  C77  1  0.94230000  0.24820000  0.46550000  1.0 -0.1326633589
C  C78  1  0.05770000  0.74820000  0.03450000  1.0 -0.1326633589
C  C79  1  0.05770000  0.75180000  0.53450000  1.0 -0.1326633589
C  C80  1  0.94230000  0.25180000  0.96550000  1.0 -0.1326633589
C  C81  1  0.02070000  0.26800000  0.53890000  1.0 -0.1385239069
C  C82  1  0.97930000  0.76800000  0.96110000  1.0 -0.1326633589
C  C83  1  0.97930000  0.73200000  0.46110000  1.0 -0.1326633589
C  C84  1  0.02070000  0.23200000  0.03890000  1.0 -0.1385239069
C  C85  1  0.88870000  0.18430000  0.35000000  1.0 -0.1804123182
C  C86  1  0.11130000  0.68430000  0.15000000  1.0 -0.1804123182
C  C87  1  0.11130000  0.81570000  0.65000000  1.0 -0.1804123182
C  C88  1  0.88870000  0.31570000  0.85000000  1.0 -0.1804123182
C  C89  1  0.91820000  0.14060000  0.30970000  1.0 0.3111095841
C  C90  1  0.08180000  0.64060000  0.19030000  1.0 0.3111095841
C  C91  1  0.08180000  0.85940000  0.69030000  1.0 0.3111095841
C  C92  1  0.91820000  0.35940000  0.80970000  1.0 0.3111095841
C  C93  1  0.78110000  0.21570000  0.31460000  1.0 0.3199762713
C  C94  1  0.21890000  0.71570000  0.18540000  1.0 0.3199762713
C  C95  1  0.21890000  0.78430000  0.68540000  1.0 0.3199762713
C  C96  1  0.78110000  0.28430000  0.81460000  1.0 0.3199762713
N  N1  1  0.60420000  0.12370000  0.72040000  1.0 -0.4482114548
N  N2  1  0.39580000  0.62370000  0.77960000  1.0 -0.4482114548
N  N3  1  0.39580000  0.87630000  0.27960000  1.0 -0.4482114548
N  N4  1  0.60420000  0.37630000  0.22040000  1.0 -0.4482114548
N  N5  1  0.84790000  0.97627000  0.73400000  1.0 -0.4408667986
N  N6  1  0.15210000  0.47627000  0.76600000  1.0 -0.4408667986
N  N7  1  0.15210000  0.02373000  0.26600000  1.0 -0.4408667986
N  N8  1  0.84790000  0.52373000  0.23400000  1.0 -0.4408667986
N  N9  1  0.63270000  0.15120000  0.88760000  1.0 -0.4309802695
N  N10  1  0.36730000  0.65120000  0.61240000  1.0 -0.4309802695
N  N11  1  0.36730000  0.84880000  0.11240000  1.0 -0.4309802695
N  N12  1  0.63270000  0.34880000  0.38760000  1.0 -0.4309802695
N  N13  1  0.89460000  0.06994000  0.10880000  1.0 -0.4309802695
N  N14  1  0.10540000  0.56994000  0.39120000  1.0 -0.4309802695
N  N15  1  0.10540000  0.93006000  0.89120000  1.0 -0.4408667986
N  N16  1  0.89460000  0.43006000  0.60880000  1.0 -0.4309802695
N  N17  1  0.41760000  0.21664000  0.73640000  1.0 -0.4482114548
N  N18  1  0.58240000  0.71664000  0.76360000  1.0 -0.4482114548
N  N19  1  0.58240000  0.78336000  0.26360000  1.0 -0.4482114548
N  N20  1  0.41760000  0.28336000  0.23640000  1.0 -0.4482114548
N  N21  1  0.12100000  0.34150000  0.71220000  1.0 -0.4482114548
N  N22  1  0.87900000  0.84150000  0.78780000  1.0 -0.4482114548
N  N23  1  0.87900000  0.65850000  0.28780000  1.0 -0.4482114548
N  N24  1  0.12100000  0.15850000  0.21220000  1.0 -0.4482114548
N  N25  1  0.94610000  0.10470000  0.27800000  1.0 -0.4309802695
N  N26  1  0.05390000  0.60470000  0.22200000  1.0 -0.4309802695
N  N27  1  0.05390000  0.89530000  0.72200000  1.0 -0.4309802695
N  N28  1  0.94610000  0.39530000  0.77800000  1.0 -0.4309802695
N  N29  1  0.69720000  0.24569000  0.29230000  1.0 -0.4309802695
N  N30  1  0.30280000  0.74569000  0.20770000  1.0 -0.4309802695
N  N31  1  0.30280000  0.75431000  0.70770000  1.0 -0.4309802695
N  N32  1  0.69720000  0.25431000  0.79230000  1.0 -0.4309802695
