# DDEC6 charges by PACMAN v1.1 (https://github.com/mtap-research/PACMAN-charge/)
data_CUSZIB_FSR_pacman
_symmetry_space_group_name_H-M   'P 1'
_cell_length_a   9.75630000
_cell_length_b   11.24130000
_cell_length_c   21.59570000
_cell_angle_alpha   90.00000000
_cell_angle_beta   90.00000000
_cell_angle_gamma   90.00000000
_symmetry_Int_Tables_number   1
_chemical_formula_structural   CuH4(C3N)4
_chemical_formula_sum   'Cu4 H16 C48 N16'
_cell_volume   2368.47590007
_cell_formula_units_Z   4
loop_
 _symmetry_equiv_pos_site_id
 _symmetry_equiv_pos_as_xyz
  1  'x, y, z'
loop_
 _atom_site_type_symbol
 _atom_site_label
 _atom_site_symmetry_multiplicity
 _atom_site_fract_x
 _atom_site_fract_y
 _atom_site_fract_z
 _atom_site_occupancy
 _atom_site_charge
Cu  Cu1  1  0.25000000  0.75000000  0.24919000  1.0 0.6703784526
Cu  Cu2  1  0.75000000  0.25000000  0.25081000  1.0 0.6703784526
Cu  Cu3  1  0.75000000  0.25000000  0.75081000  1.0 0.6703784526
Cu  Cu4  1  0.25000000  0.75000000  0.74919000  1.0 0.6703784526
H  H1  1  0.14110000  0.87060000  0.44670000  1.0 0.1281803571
H  H2  1  0.35890000  0.62940000  0.44670000  1.0 0.1281803571
H  H3  1  0.85890000  0.37060000  0.05330000  1.0 0.1281803571
H  H4  1  0.64110000  0.12940000  0.05330000  1.0 0.1281803571
H  H5  1  0.85890000  0.12940000  0.55330000  1.0 0.1281803571
H  H6  1  0.64110000  0.37060000  0.55330000  1.0 0.1281803571
H  H7  1  0.14110000  0.62940000  0.94670000  1.0 0.1281803571
H  H8  1  0.35890000  0.87060000  0.94670000  1.0 0.1281803571
H  H9  1  0.87810000  0.14440000  0.44740000  1.0 0.1281803571
H  H10  1  0.62190000  0.35560000  0.44740000  1.0 0.1281803571
H  H11  1  0.12190000  0.64440000  0.05260000  1.0 0.1281803571
H  H12  1  0.37810000  0.85560000  0.05260000  1.0 0.1281803571
H  H13  1  0.12190000  0.85560000  0.55260000  1.0 0.1281803571
H  H14  1  0.37810000  0.64440000  0.55260000  1.0 0.1281803571
H  H15  1  0.87810000  0.35560000  0.94740000  1.0 0.1281803571
H  H16  1  0.62190000  0.14440000  0.94740000  1.0 0.1281803571
C  C1  1  0.10570000  0.94070000  0.33258000  1.0 0.3270306995
C  C2  1  0.39430000  0.55930000  0.33258000  1.0 0.3270306995
C  C3  1  0.89430000  0.44070000  0.16742000  1.0 0.3270306995
C  C4  1  0.60570000  0.05930000  0.16742000  1.0 0.3270306995
C  C5  1  0.89430000  0.05930000  0.66742000  1.0 0.3270306995
C  C6  1  0.60570000  0.44070000  0.66742000  1.0 0.3270306995
C  C7  1  0.10570000  0.55930000  0.83258000  1.0 0.3183598191
C  C8  1  0.39430000  0.94070000  0.83258000  1.0 0.3183598191
C  C9  1  0.02560000  0.01990000  0.36700000  1.0 -0.1995644248
C  C10  1  0.47440000  0.48010000  0.36700000  1.0 -0.1995644248
C  C11  1  0.97440000  0.51990000  0.13300000  1.0 -0.1995644248
C  C12  1  0.52560000  0.98010000  0.13300000  1.0 -0.1995644248
C  C13  1  0.97440000  0.98010000  0.63300000  1.0 -0.1995644248
C  C14  1  0.52560000  0.51990000  0.63300000  1.0 -0.1995644248
C  C15  1  0.02560000  0.48010000  0.86700000  1.0 -0.1995644248
C  C16  1  0.47440000  0.01990000  0.86700000  1.0 -0.1995644248
C  C17  1  0.95240000  0.10400000  0.33329000  1.0 0.3183598191
C  C18  1  0.54760000  0.39600000  0.33329000  1.0 0.3183598191
C  C19  1  0.04760000  0.60400000  0.16671000  1.0 0.3183598191
C  C20  1  0.45240000  0.89600000  0.16671000  1.0 0.3183598191
C  C21  1  0.04760000  0.89600000  0.66666667  1.0 0.3183598191
C  C22  1  0.45240000  0.60400000  0.66666667  1.0 0.3183598191
C  C23  1  0.95240000  0.39600000  0.83329000  1.0 0.3183598191
C  C24  1  0.54760000  0.10400000  0.83329000  1.0 0.3183598191
C  C25  1  0.01200000  0.00930000  0.43475000  1.0 0.1096628574
C  C26  1  0.48800000  0.49070000  0.43475000  1.0 0.1096628574
C  C27  1  0.98800000  0.50930000  0.06525000  1.0 0.1096628574
C  C28  1  0.51200000  0.99070000  0.06525000  1.0 0.1096628574
C  C29  1  0.98800000  0.99070000  0.56525000  1.0 0.1096628574
C  C30  1  0.51200000  0.50930000  0.56525000  1.0 0.1096628574
C  C31  1  0.01200000  0.49070000  0.93475000  1.0 0.1096628574
C  C32  1  0.48800000  0.00930000  0.93475000  1.0 0.1096628574
C  C33  1  0.08410000  0.92310000  0.46788000  1.0 -0.1367609394
C  C34  1  0.41590000  0.57690000  0.46788000  1.0 -0.1367609394
C  C35  1  0.91590000  0.42310000  0.03212000  1.0 -0.1367609394
C  C36  1  0.58410000  0.07690000  0.03212000  1.0 -0.1367609394
C  C37  1  0.91590000  0.07690000  0.53212000  1.0 -0.1367609394
C  C38  1  0.58410000  0.42310000  0.53212000  1.0 -0.1367609394
C  C39  1  0.08410000  0.57690000  0.96788000  1.0 -0.1367609394
C  C40  1  0.41590000  0.92310000  0.96788000  1.0 -0.1367609394
C  C41  1  0.92750000  0.08610000  0.46823000  1.0 -0.1367609394
C  C42  1  0.57250000  0.41390000  0.46823000  1.0 -0.1367609394
C  C43  1  0.07250000  0.58610000  0.03177000  1.0 -0.1367609394
C  C44  1  0.42750000  0.91390000  0.03177000  1.0 -0.1367609394
C  C45  1  0.07250000  0.91390000  0.53177000  1.0 -0.1367609394
C  C46  1  0.42750000  0.58610000  0.53177000  1.0 -0.1367609394
C  C47  1  0.92750000  0.41390000  0.96823000  1.0 -0.1367609394
C  C48  1  0.57250000  0.08610000  0.96823000  1.0 -0.1367609394
N  N1  1  0.16930000  0.87530000  0.30336000  1.0 -0.4318743394
N  N2  1  0.33070000  0.62470000  0.30336000  1.0 -0.4318743394
N  N3  1  0.83070000  0.37530000  0.19664000  1.0 -0.4318743394
N  N4  1  0.66930000  0.12470000  0.19664000  1.0 -0.4318743394
N  N5  1  0.83070000  0.12470000  0.69664000  1.0 -0.4318743394
N  N6  1  0.66930000  0.37530000  0.69664000  1.0 -0.4318743394
N  N7  1  0.16930000  0.62470000  0.80336000  1.0 -0.4318743394
N  N8  1  0.33070000  0.87530000  0.80336000  1.0 -0.4386304408
N  N9  1  0.89100000  0.17240000  0.30458000  1.0 -0.4386304408
N  N10  1  0.60900000  0.32760000  0.30458000  1.0 -0.4386304408
N  N11  1  0.10900000  0.67240000  0.19542000  1.0 -0.4386304408
N  N12  1  0.39100000  0.82760000  0.19542000  1.0 -0.4386304408
N  N13  1  0.10900000  0.82760000  0.69542000  1.0 -0.4386304408
N  N14  1  0.39100000  0.67240000  0.69542000  1.0 -0.4386304408
N  N15  1  0.89100000  0.32760000  0.80458000  1.0 -0.4386304408
N  N16  1  0.60900000  0.17240000  0.80458000  1.0 -0.4386304408
