# DDEC6 charges by PACMAN v1.1 (https://github.com/mtap-research/PACMAN-charge/)
data_CUSZEX_ion_pacman
_symmetry_space_group_name_H-M   'P 1'
_cell_length_a   12.52550000
_cell_length_b   8.17010000
_cell_length_c   23.09180000
_cell_angle_alpha   90.00000000
_cell_angle_beta   115.75100000
_cell_angle_gamma   90.00000000
_symmetry_Int_Tables_number   1
_chemical_formula_structural   CuH14C22N5
_chemical_formula_sum   'Cu4 H56 C88 N20'
_cell_volume   2128.41292970
_cell_formula_units_Z   4
loop_
 _symmetry_equiv_pos_site_id
 _symmetry_equiv_pos_as_xyz
  1  'x, y, z'
loop_
 _atom_site_type_symbol
 _atom_site_label
 _atom_site_symmetry_multiplicity
 _atom_site_fract_x
 _atom_site_fract_y
 _atom_site_fract_z
 _atom_site_occupancy
 _atom_site_charge
Cu  Cu1  1  0.75372000  0.14147000  0.75487000  1.0 0.6208913528
Cu  Cu2  1  0.24628000  0.64147000  0.74513000  1.0 0.6208913528
Cu  Cu3  1  0.24628000  0.85853000  0.24513000  1.0 0.6208913528
Cu  Cu4  1  0.75372000  0.35853000  0.25487000  1.0 0.6208913528
H  H1  1  0.94010000  0.82410000  0.05070000  1.0 0.1211323067
H  H2  1  0.05990000  0.32410000  0.44930000  1.0 0.1211323067
H  H3  1  0.05990000  0.17590000  0.94930000  1.0 0.1211323067
H  H4  1  0.94010000  0.67590000  0.55070000  1.0 0.1211323067
H  H5  1  0.65560000  0.58370000  0.05010000  1.0 0.1211323067
H  H6  1  0.34440000  0.08370000  0.44990000  1.0 0.1211323067
H  H7  1  0.34440000  0.41630000  0.94990000  1.0 0.1211323067
H  H8  1  0.65560000  0.91630000  0.55010000  1.0 0.1211323067
H  H9  1  0.82740000  0.90020000  0.94440000  1.0 0.1211323067
H  H10  1  0.17260000  0.40020000  0.55560000  1.0 0.1211323067
H  H11  1  0.17260000  0.09980000  0.05560000  1.0 0.1211323067
H  H12  1  0.82740000  0.59980000  0.44440000  1.0 0.1211323067
H  H13  1  0.54340000  0.66340000  0.94430000  1.0 0.1273097547
H  H14  1  0.45660000  0.16340000  0.55570000  1.0 0.1273097547
H  H15  1  0.45660000  0.33660000  0.05570000  1.0 0.1273097547
H  H16  1  0.54340000  0.83660000  0.44430000  1.0 0.1273097547
H  H17  1  0.42920000  0.12670000  0.30660000  1.0 0.1127652392
H  H18  1  0.73230000  0.30920000  0.50260000  1.0 0.1273097547
H  H19  1  0.57850000  0.98260000  0.28450000  1.0 0.1211323067
H  H20  1  0.92020000  0.98640000  0.40940000  1.0 0.1211323067
H  H21  1  0.88020000  0.14930000  0.47870000  1.0 0.1369337343
H  H22  1  0.38390000  0.29220000  0.37370000  1.0 0.1211323067
H  H23  1  0.86620000  0.85720000  0.31520000  1.0 0.1491303198
H  H24  1  0.75740000  0.93730000  0.25520000  1.0 0.1491303198
H  H25  1  0.73810000  0.77280000  0.28710000  1.0 0.1369337343
H  H26  1  0.53620000  0.38840000  0.47170000  1.0 0.1127652392
H  H27  1  0.57080000  0.62670000  0.19340000  1.0 0.1127652392
H  H28  1  0.26770000  0.80920000  0.99740000  1.0 0.1273097547
H  H29  1  0.42150000  0.48260000  0.21550000  1.0 0.1211323067
H  H30  1  0.07980000  0.48640000  0.09060000  1.0 0.1211323067
H  H31  1  0.11980000  0.64930000  0.02130000  1.0 0.1369337343
H  H32  1  0.61610000  0.79220000  0.12630000  1.0 0.1211323067
H  H33  1  0.13380000  0.35720000  0.18480000  1.0 0.1491303198
H  H34  1  0.24260000  0.43730000  0.24480000  1.0 0.1491303198
H  H35  1  0.26190000  0.27280000  0.21290000  1.0 0.1369337343
H  H36  1  0.46380000  0.88840000  0.02830000  1.0 0.1127652392
H  H37  1  0.57080000  0.87330000  0.69340000  1.0 0.1127652392
H  H38  1  0.26770000  0.69080000  0.49740000  1.0 0.1273097547
H  H39  1  0.42150000  0.01740000  0.71550000  1.0 0.1211323067
H  H40  1  0.07980000  0.01360000  0.59060000  1.0 0.1211323067
H  H41  1  0.11980000  0.85070000  0.52130000  1.0 0.1369337343
H  H42  1  0.61610000  0.70780000  0.62630000  1.0 0.1211323067
H  H43  1  0.13380000  0.14280000  0.68480000  1.0 0.1491303198
H  H44  1  0.24260000  0.06270000  0.74480000  1.0 0.1491303198
H  H45  1  0.26190000  0.22720000  0.71290000  1.0 0.1369337343
H  H46  1  0.46380000  0.61160000  0.52830000  1.0 0.1127652392
H  H47  1  0.42920000  0.37330000  0.80660000  1.0 0.1127652392
H  H48  1  0.73230000  0.19080000  0.00260000  1.0 0.1273097547
H  H49  1  0.57850000  0.51740000  0.78450000  1.0 0.1211323067
H  H50  1  0.92020000  0.51360000  0.90940000  1.0 0.1211323067
H  H51  1  0.88020000  0.35070000  0.97870000  1.0 0.1369337343
H  H52  1  0.38390000  0.20780000  0.87370000  1.0 0.1211323067
H  H53  1  0.86620000  0.64280000  0.81520000  1.0 0.1491303198
H  H54  1  0.75740000  0.56270000  0.75520000  1.0 0.1491303198
H  H55  1  0.73810000  0.72720000  0.78710000  1.0 0.1369337343
H  H56  1  0.53620000  0.11160000  0.97170000  1.0 0.1127652392
C  C1  1  0.83210000  0.57140000  0.16680000  1.0 0.3066044502
C  C2  1  0.16790000  0.07140000  0.33320000  1.0 0.3066044502
C  C3  1  0.16790000  0.42860000  0.83320000  1.0 0.3066044502
C  C4  1  0.83210000  0.92860000  0.66680000  1.0 0.3066044502
C  C5  1  0.88100000  0.65410000  0.13080000  1.0 -0.2151763387
C  C6  1  0.11900000  0.15410000  0.36920000  1.0 -0.2151763387
C  C7  1  0.11900000  0.34590000  0.86920000  1.0 -0.2151763387
C  C8  1  0.88100000  0.84590000  0.63080000  1.0 -0.2151763387
C  C9  1  0.67200000  0.79550000  0.93330000  1.0 0.0998459176
C  C10  1  0.32800000  0.29550000  0.56670000  1.0 0.0998459176
C  C11  1  0.32800000  0.20450000  0.06670000  1.0 0.0998459176
C  C12  1  0.67200000  0.70450000  0.43330000  1.0 0.0998459176
C  C13  1  0.64670000  0.94960000  0.83460000  1.0 0.2918713841
C  C14  1  0.35330000  0.44960000  0.66540000  1.0 0.2918713841
C  C15  1  0.35330000  0.05040000  0.16540000  1.0 0.2918713841
C  C16  1  0.64670000  0.55040000  0.33460000  1.0 0.2918713841
C  C17  1  0.85960000  0.79100000  0.02940000  1.0 -0.1824805982
C  C18  1  0.14040000  0.29100000  0.47060000  1.0 -0.1824805982
C  C19  1  0.14040000  0.20900000  0.97060000  1.0 -0.1824805982
C  C20  1  0.85960000  0.70900000  0.52940000  1.0 -0.1824805982
C  C21  1  0.59940000  0.84910000  0.86700000  1.0 -0.1953646786
C  C22  1  0.40060000  0.34910000  0.63300000  1.0 -0.1953646786
C  C23  1  0.40060000  0.15090000  0.13300000  1.0 -0.1953646786
C  C24  1  0.59940000  0.65090000  0.36700000  1.0 -0.1953646786
C  C25  1  0.69100000  0.64890000  0.02910000  1.0 -0.1714925639
C  C26  1  0.30900000  0.14890000  0.47090000  1.0 -0.1714925639
C  C27  1  0.30900000  0.35110000  0.97090000  1.0 -0.1714925639
C  C28  1  0.69100000  0.85110000  0.52910000  1.0 -0.1714925639
C  C29  1  0.79160000  0.83790000  0.96600000  1.0 -0.1714925639
C  C30  1  0.20840000  0.33790000  0.53400000  1.0 -0.1714925639
C  C31  1  0.20840000  0.16210000  0.03400000  1.0 -0.1714925639
C  C32  1  0.79160000  0.66210000  0.46600000  1.0 -0.1714925639
C  C33  1  0.47950000  0.81520000  0.83390000  1.0 0.2918713841
C  C34  1  0.52050000  0.31520000  0.66610000  1.0 0.2918713841
C  C35  1  0.52050000  0.18480000  0.16610000  1.0 0.2918713841
C  C36  1  0.47950000  0.68480000  0.33390000  1.0 0.2918713841
C  C37  1  0.62370000  0.69730000  0.96590000  1.0 -0.1620143152
C  C38  1  0.37630000  0.19730000  0.53410000  1.0 -0.1620143152
C  C39  1  0.37630000  0.30270000  0.03410000  1.0 -0.1620143152
C  C40  1  0.62370000  0.80270000  0.46590000  1.0 -0.1620143152
C  C41  1  0.81040000  0.69480000  0.06250000  1.0 0.0948321797
C  C42  1  0.18960000  0.19480000  0.43750000  1.0 0.0948321797
C  C43  1  0.18960000  0.30520000  0.93750000  1.0 0.0948321797
C  C44  1  0.81040000  0.80520000  0.56250000  1.0 0.0948321797
C  C45  1  0.99740000  0.70530000  0.16480000  1.0 0.2918713841
C  C46  1  0.00260000  0.20530000  0.33520000  1.0 0.2918713841
C  C47  1  0.00260000  0.29470000  0.83520000  1.0 0.2918713841
C  C48  1  0.99740000  0.79470000  0.66480000  1.0 0.2918713841
C  C49  1  0.49030000  0.16340000  0.34620000  1.0 -0.1384691693
C  C50  1  0.67170000  0.27170000  0.46300000  1.0 -0.1620143152
C  C51  1  0.63920000  0.01890000  0.32420000  1.0 -0.0302730467
C  C52  1  0.84120000  0.02150000  0.39810000  1.0 -0.0243802503
C  C53  1  0.81740000  0.11720000  0.43900000  1.0 -0.1859466828
C  C54  1  0.60920000  0.11610000  0.36420000  1.0 0.0384993941
C  C55  1  0.70030000  0.17010000  0.42350000  1.0 0.0998459176
C  C56  1  0.46380000  0.26130000  0.38560000  1.0 -0.0985942133
C  C57  1  0.78060000  0.87750000  0.29570000  1.0 -0.3757792063
C  C58  1  0.55520000  0.31830000  0.44470000  1.0 -0.0985942133
C  C59  1  0.50970000  0.66340000  0.15380000  1.0 -0.1384691693
C  C60  1  0.32830000  0.77170000  0.03700000  1.0 -0.1620143152
C  C61  1  0.36080000  0.51890000  0.17580000  1.0 -0.0302730467
C  C62  1  0.15880000  0.52150000  0.10190000  1.0 -0.0243802503
C  C63  1  0.18260000  0.61720000  0.06100000  1.0 -0.1859466828
C  C64  1  0.39080000  0.61610000  0.13580000  1.0 0.0384993941
C  C65  1  0.29970000  0.67010000  0.07650000  1.0 0.0998459176
C  C66  1  0.53620000  0.76130000  0.11440000  1.0 -0.0985942133
C  C67  1  0.21940000  0.37750000  0.20430000  1.0 -0.3757792063
C  C68  1  0.44480000  0.81830000  0.05530000  1.0 -0.0985942133
C  C69  1  0.50970000  0.83660000  0.65380000  1.0 -0.1384691693
C  C70  1  0.32830000  0.72830000  0.53700000  1.0 -0.1620143152
C  C71  1  0.36080000  0.98110000  0.67580000  1.0 -0.0302730467
C  C72  1  0.15880000  0.97850000  0.60190000  1.0 -0.0243802503
C  C73  1  0.18260000  0.88280000  0.56100000  1.0 -0.1859466828
C  C74  1  0.39080000  0.88390000  0.63580000  1.0 0.0384993941
C  C75  1  0.29970000  0.82990000  0.57650000  1.0 0.0998459176
C  C76  1  0.53620000  0.73870000  0.61440000  1.0 -0.0985942133
C  C77  1  0.21940000  0.12250000  0.70430000  1.0 -0.3757792063
C  C78  1  0.44480000  0.68170000  0.55530000  1.0 -0.0985942133
C  C79  1  0.49030000  0.33660000  0.84620000  1.0 -0.1384691693
C  C80  1  0.67170000  0.22830000  0.96300000  1.0 -0.1620143152
C  C81  1  0.63920000  0.48110000  0.82420000  1.0 -0.0302730467
C  C82  1  0.84120000  0.47850000  0.89810000  1.0 -0.0243802503
C  C83  1  0.81740000  0.38280000  0.93900000  1.0 -0.1859466828
C  C84  1  0.60920000  0.38390000  0.86420000  1.0 0.0384993941
C  C85  1  0.70030000  0.32990000  0.92350000  1.0 0.0998459176
C  C86  1  0.46380000  0.23870000  0.88560000  1.0 -0.0985942133
C  C87  1  0.78060000  0.62250000  0.79570000  1.0 -0.3757792063
C  C88  1  0.55520000  0.18170000  0.94470000  1.0 -0.0985942133
N  N1  1  0.09590000  0.74930000  0.19280000  1.0 -0.4592823334
N  N2  1  0.90410000  0.24930000  0.30720000  1.0 -0.4592823334
N  N3  1  0.90410000  0.25070000  0.80720000  1.0 -0.4592823334
N  N4  1  0.09590000  0.75070000  0.69280000  1.0 -0.4592823334
N  N5  1  0.79190000  0.50690000  0.19730000  1.0 -0.4503444753
N  N6  1  0.20810000  0.00690000  0.30270000  1.0 -0.4503444753
N  N7  1  0.20810000  0.49310000  0.80270000  1.0 -0.4503444753
N  N8  1  0.79190000  0.99310000  0.69730000  1.0 -0.4503444753
N  N9  1  0.68830000  0.02910000  0.80760000  1.0 -0.4704716153
N  N10  1  0.31170000  0.52910000  0.69240000  1.0 -0.4704716153
N  N11  1  0.31170000  0.97090000  0.19240000  1.0 -0.4704716153
N  N12  1  0.68830000  0.47090000  0.30760000  1.0 -0.4704716153
N  N13  1  0.37850000  0.78500000  0.80540000  1.0 -0.4503444753
N  N14  1  0.62150000  0.28500000  0.69460000  1.0 -0.4503444753
N  N15  1  0.62150000  0.21500000  0.19460000  1.0 -0.4503444753
N  N16  1  0.37850000  0.71500000  0.30540000  1.0 -0.4503444753
N  N17  1  0.75040000  0.97510000  0.33990000  1.0 0.1273097547
N  N18  1  0.24960000  0.47510000  0.16010000  1.0 0.1273097547
N  N19  1  0.24960000  0.02490000  0.66010000  1.0 0.1273097547
N  N20  1  0.75040000  0.52490000  0.83990000  1.0 0.1273097547
