# DDEC6 charges by PACMAN v1.1 (https://github.com/mtap-research/PACMAN-charge/)
data_CUTBOK_ASR_pacman
_symmetry_space_group_name_H-M   'P 1'
_cell_length_a   17.49360000
_cell_length_b   17.49360000
_cell_length_c   13.26560000
_cell_angle_alpha   84.15320000
_cell_angle_beta   95.84680000
_cell_angle_gamma   129.53700000
_symmetry_Int_Tables_number   1
_chemical_formula_structural   TbC17(NO2)3
_chemical_formula_sum   'Tb4 C68 N12 O24'
_cell_volume   3110.91820661
_cell_formula_units_Z   4
loop_
 _symmetry_equiv_pos_site_id
 _symmetry_equiv_pos_as_xyz
  1  'x, y, z'
loop_
 _atom_site_type_symbol
 _atom_site_label
 _atom_site_symmetry_multiplicity
 _atom_site_fract_x
 _atom_site_fract_y
 _atom_site_fract_z
 _atom_site_occupancy
 _atom_site_charge
Tb  Tb1  1  0.60507000  0.98403000  0.53064000  1.0 2.0470738305
Tb  Tb2  1  0.98403000  0.60507000  0.96936000  1.0 2.0470738305
Tb  Tb3  1  0.39493000  0.01597000  0.46936000  1.0 2.0470738305
Tb  Tb4  1  0.01597000  0.39493000  0.03064000  1.0 2.0470738305
C  C1  1  0.69117000  0.39139000  0.31119000  1.0 0.1224891139
C  C2  1  0.39139000  0.69117000  0.18881000  1.0 0.1224891139
C  C3  1  0.30883000  0.60861000  0.68881000  1.0 0.1224891139
C  C4  1  0.60861000  0.30883000  0.81119000  1.0 0.1224891139
C  C5  1  0.65051000  0.30001000  0.36106000  1.0 -0.0493233422
C  C6  1  0.30001000  0.65051000  0.13894000  1.0 -0.0493233422
C  C7  1  0.34949000  0.69999000  0.63894000  1.0 -0.0493233422
C  C8  1  0.69999000  0.34949000  0.86106000  1.0 -0.0493233422
C  C9  1  0.68884000  0.25236000  0.34877000  1.0 -0.0427125017
C  C10  1  0.25236000  0.68884000  0.15123000  1.0 -0.0427125017
C  C11  1  0.31116000  0.74764000  0.65123000  1.0 -0.0427125017
C  C12  1  0.74764000  0.31116000  0.84877000  1.0 -0.0427125017
C  C13  1  0.76783000  0.29611000  0.28661000  1.0 0.0776523916
C  C14  1  0.29611000  0.76783000  0.21339000  1.0 0.0776523916
C  C15  1  0.23217000  0.70389000  0.71339000  1.0 0.0776523916
C  C16  1  0.70389000  0.23217000  0.78661000  1.0 0.0776523916
C  C17  1  0.80848000  0.38750000  0.23674000  1.0 -0.0614603618
C  C18  1  0.38750000  0.80848000  0.26326000  1.0 -0.0614603618
C  C19  1  0.19152000  0.61250000  0.76326000  1.0 -0.0614603618
C  C20  1  0.61250000  0.19152000  0.73674000  1.0 -0.0614603618
C  C21  1  0.77016000  0.43514000  0.24903000  1.0 -0.0614603618
C  C22  1  0.43514000  0.77016000  0.25097000  1.0 -0.0614603618
C  C23  1  0.22984000  0.56486000  0.75097000  1.0 -0.0614603618
C  C24  1  0.56486000  0.22984000  0.74903000  1.0 -0.0614603618
C  C25  1  0.62108000  0.61586000  0.38118000  1.0 0.0490352722
C  C26  1  0.61586000  0.62108000  0.11882000  1.0 0.0490352722
C  C27  1  0.37892000  0.38414000  0.61882000  1.0 0.0490352722
C  C28  1  0.38414000  0.37892000  0.88118000  1.0 0.0490352722
C  C29  1  0.70859000  0.71351000  0.37946000  1.0 -0.0493233422
C  C30  1  0.71351000  0.70859000  0.12054000  1.0 -0.0493233422
C  C31  1  0.29141000  0.28649000  0.62054000  1.0 -0.0493233422
C  C32  1  0.28649000  0.29141000  0.87946000  1.0 -0.0493233422
C  C33  1  0.70918000  0.78876000  0.40595000  1.0 0.0388512281
C  C34  1  0.78876000  0.70918000  0.09405000  1.0 0.0388512281
C  C35  1  0.29082000  0.21124000  0.59405000  1.0 0.0388512281
C  C36  1  0.21124000  0.29082000  0.90595000  1.0 0.0388512281
C  C37  1  0.62226000  0.76634000  0.43416000  1.0 -0.0427125017
C  C38  1  0.76634000  0.62226000  0.06584000  1.0 -0.0427125017
C  C39  1  0.37774000  0.23366000  0.56584000  1.0 -0.0427125017
C  C40  1  0.23366000  0.37774000  0.93416000  1.0 -0.0427125017
C  C41  1  0.53477000  0.66867000  0.43587000  1.0 0.0490352722
C  C42  1  0.66867000  0.53477000  0.06413000  1.0 0.0490352722
C  C43  1  0.46523000  0.33133000  0.56413000  1.0 0.0490352722
C  C44  1  0.33133000  0.46523000  0.93587000  1.0 0.0490352722
C  C45  1  0.53417000  0.59345000  0.40939000  1.0 -0.0022397895
C  C46  1  0.59345000  0.53417000  0.09061000  1.0 -0.0022397895
C  C47  1  0.46583000  0.40655000  0.59061000  1.0 -0.0022397895
C  C48  1  0.40655000  0.46583000  0.90939000  1.0 -0.0022397895
C  C49  1  0.61942000  0.53530000  0.35511000  1.0 0.1015738887
C  C50  1  0.53530000  0.61942000  0.14489000  1.0 0.1015738887
C  C51  1  0.38058000  0.46470000  0.64489000  1.0 0.1015738887
C  C52  1  0.46470000  0.38058000  0.85511000  1.0 0.1015738887
C  C53  1  0.69766000  0.53454000  0.34233000  1.0 -0.1394592742
C  C54  1  0.53454000  0.69766000  0.15767000  1.0 -0.1394592742
C  C55  1  0.30234000  0.46546000  0.65767000  1.0 -0.1394592742
C  C56  1  0.46546000  0.30234000  0.84233000  1.0 -0.1394592742
C  C57  1  0.64541000  0.15419000  0.40510000  1.0 0.6586397184
C  C58  1  0.15419000  0.64541000  0.09490000  1.0 0.6586397184
C  C59  1  0.35459000  0.84581000  0.59490000  1.0 0.6586397184
C  C60  1  0.84581000  0.35459000  0.90510000  1.0 0.6586397184
C  C61  1  0.88843000  0.43241000  0.16284000  1.0 0.6835234953
C  C62  1  0.43241000  0.88843000  0.33716000  1.0 0.6835234953
C  C63  1  0.11157000  0.56759000  0.83716000  1.0 0.6835234953
C  C64  1  0.56759000  0.11157000  0.66284000  1.0 0.6835234953
C  C65  1  0.62128000  0.84552000  0.46910000  1.0 0.6107940567
C  C66  1  0.84552000  0.62128000  0.03090000  1.0 0.6107940567
C  C67  1  0.37872000  0.15448000  0.53090000  1.0 0.6107940567
C  C68  1  0.15448000  0.37872000  0.96910000  1.0 0.6107940567
N  N1  1  0.64892000  0.43824000  0.32295000  1.0 0.1406270383
N  N2  1  0.43824000  0.64892000  0.17705000  1.0 0.1406270383
N  N3  1  0.35108000  0.56176000  0.67705000  1.0 0.1406270383
N  N4  1  0.56176000  0.35108000  0.82295000  1.0 0.1406270383
N  N5  1  0.54928000  0.38410000  0.31866000  1.0 -0.0880233901
N  N6  1  0.38410000  0.54928000  0.18134000  1.0 -0.0880233901
N  N7  1  0.45072000  0.61590000  0.68134000  1.0 -0.0880233901
N  N8  1  0.61590000  0.45072000  0.81866000  1.0 -0.0880233901
N  N9  1  0.53265000  0.44363000  0.33747000  1.0 -0.1902262228
N  N10  1  0.44363000  0.53265000  0.16253000  1.0 -0.1902262228
N  N11  1  0.46735000  0.55637000  0.66253000  1.0 -0.1902262228
N  N12  1  0.55637000  0.46735000  0.83747000  1.0 -0.1902262228
O  O1  1  0.69003000  0.93337000  0.45520000  1.0 -0.5867915558
O  O2  1  0.93337000  0.69003000  0.04480000  1.0 -0.5867915558
O  O3  1  0.30997000  0.06663000  0.54480000  1.0 -0.5867915558
O  O4  1  0.06663000  0.30997000  0.95520000  1.0 -0.5867915558
O  O5  1  0.54707000  0.81873000  0.51420000  1.0 -0.6305652963
O  O6  1  0.81873000  0.54707000  0.98580000  1.0 -0.6305652963
O  O7  1  0.45293000  0.18127000  0.48580000  1.0 -0.6305652963
O  O8  1  0.18127000  0.45293000  0.01420000  1.0 -0.6305652963
O  O9  1  0.92835000  0.51945000  0.12880000  1.0 -0.6305652963
O  O10  1  0.51945000  0.92835000  0.37120000  1.0 -0.6305652963
O  O11  1  0.07165000  0.48055000  0.87120000  1.0 -0.6305652963
O  O12  1  0.48055000  0.07165000  0.62880000  1.0 -0.6305652963
O  O13  1  0.91028000  0.37992000  0.14310000  1.0 -0.6797942029
O  O14  1  0.37992000  0.91028000  0.35690000  1.0 -0.6797942029
O  O15  1  0.08972000  0.62008000  0.85690000  1.0 -0.6797942029
O  O16  1  0.62008000  0.08972000  0.64310000  1.0 -0.6797942029
O  O17  1  0.56228000  0.10332000  0.43980000  1.0 -0.7136954176
O  O18  1  0.10332000  0.56228000  0.06020000  1.0 -0.7136954176
O  O19  1  0.43772000  0.89668000  0.56020000  1.0 -0.7136954176
O  O20  1  0.89668000  0.43772000  0.93980000  1.0 -0.7136954176
O  O21  1  0.69952000  0.12968000  0.41700000  1.0 -0.6109424489
O  O22  1  0.12968000  0.69952000  0.08300000  1.0 -0.6109424489
O  O23  1  0.30048000  0.87032000  0.58300000  1.0 -0.6109424489
O  O24  1  0.87032000  0.30048000  0.91700000  1.0 -0.6109424489
