# DDEC6 charges by PACMAN v1.1 (https://github.com/mtap-research/PACMAN-charge/)
data_CUTBEA_ASR_pacman
_symmetry_space_group_name_H-M   'P 1'
_cell_length_a   17.58310000
_cell_length_b   17.58310000
_cell_length_c   13.22000000
_cell_angle_alpha   84.56540000
_cell_angle_beta   95.43460000
_cell_angle_gamma   129.52800000
_symmetry_Int_Tables_number   1
_chemical_formula_structural   EuC17(NO2)3
_chemical_formula_sum   'Eu4 C68 N12 O24'
_cell_volume   3135.16009132
_cell_formula_units_Z   4
loop_
 _symmetry_equiv_pos_site_id
 _symmetry_equiv_pos_as_xyz
  1  'x, y, z'
loop_
 _atom_site_type_symbol
 _atom_site_label
 _atom_site_symmetry_multiplicity
 _atom_site_fract_x
 _atom_site_fract_y
 _atom_site_fract_z
 _atom_site_occupancy
 _atom_site_charge
Eu  Eu1  1  0.60390000  0.98262000  0.52955000  1.0 2.0657471501
Eu  Eu2  1  0.98262000  0.60390000  0.97045000  1.0 2.0625751101
Eu  Eu3  1  0.39610000  0.01738000  0.47045000  1.0 2.0625751101
Eu  Eu4  1  0.01738000  0.39610000  0.02955000  1.0 2.0657471501
C  C1  1  0.39030000  0.81142000  0.25789000  1.0 -0.0486177785
C  C2  1  0.81142000  0.39030000  0.24211000  1.0 -0.0486177785
C  C3  1  0.60970000  0.18858000  0.74211000  1.0 -0.0486177785
C  C4  1  0.18858000  0.60970000  0.75789000  1.0 -0.0486177785
C  C5  1  0.29979000  0.77153000  0.20770000  1.0 0.0808315378
C  C6  1  0.77153000  0.29979000  0.29230000  1.0 0.0808315378
C  C7  1  0.70021000  0.22847000  0.79230000  1.0 0.0808315378
C  C8  1  0.22847000  0.70021000  0.70770000  1.0 0.0808315378
C  C9  1  0.25517000  0.69157000  0.14675000  1.0 -0.0302156163
C  C10  1  0.69157000  0.25517000  0.35325000  1.0 -0.0302156163
C  C11  1  0.74483000  0.30843000  0.85325000  1.0 -0.0302156163
C  C12  1  0.30843000  0.74483000  0.64675000  1.0 -0.0302156163
C  C13  1  0.30105000  0.65151000  0.13599000  1.0 -0.0680410426
C  C14  1  0.65151000  0.30105000  0.36401000  1.0 -0.0680410426
C  C15  1  0.69895000  0.34849000  0.86401000  1.0 -0.0680410426
C  C16  1  0.34849000  0.69895000  0.63599000  1.0 -0.0645112797
C  C17  1  0.39156000  0.69138000  0.18618000  1.0 0.1485087805
C  C18  1  0.69138000  0.39156000  0.31382000  1.0 0.1485087805
C  C19  1  0.60844000  0.30862000  0.81382000  1.0 0.1485087805
C  C20  1  0.30862000  0.60844000  0.68618000  1.0 0.1485087805
C  C21  1  0.43618000  0.77134000  0.24712000  1.0 -0.0767071934
C  C22  1  0.77134000  0.43618000  0.25288000  1.0 -0.0767071934
C  C23  1  0.56382000  0.22866000  0.75288000  1.0 -0.0767071934
C  C24  1  0.22866000  0.56382000  0.74712000  1.0 -0.0680410426
C  C25  1  0.71208000  0.70714000  0.12079000  1.0 -0.0231838386
C  C26  1  0.70714000  0.71208000  0.37921000  1.0 -0.0231838386
C  C27  1  0.28792000  0.29286000  0.87921000  1.0 -0.0231838386
C  C28  1  0.29286000  0.28792000  0.62079000  1.0 -0.0231838386
C  C29  1  0.61332000  0.61858000  0.12043000  1.0 0.0281757124
C  C30  1  0.61858000  0.61332000  0.37957000  1.0 0.0281757124
C  C31  1  0.38668000  0.38142000  0.87957000  1.0 0.0281757124
C  C32  1  0.38142000  0.38668000  0.62043000  1.0 0.0281757124
C  C33  1  0.59149000  0.53139000  0.09430000  1.0 0.0281757124
C  C34  1  0.53139000  0.59149000  0.40570000  1.0 0.0281757124
C  C35  1  0.40851000  0.46861000  0.90570000  1.0 0.0281757124
C  C36  1  0.46861000  0.40851000  0.59430000  1.0 0.0281757124
C  C37  1  0.66755000  0.53305000  0.06771000  1.0 0.0426546138
C  C38  1  0.53305000  0.66755000  0.43229000  1.0 0.0426546138
C  C39  1  0.33245000  0.46695000  0.93229000  1.0 0.0426546138
C  C40  1  0.46695000  0.33245000  0.56771000  1.0 0.0426546138
C  C41  1  0.76330000  0.61950000  0.06760000  1.0 -0.0302156163
C  C42  1  0.61950000  0.76330000  0.43240000  1.0 -0.0302156163
C  C43  1  0.23670000  0.38050000  0.93240000  1.0 -0.0302156163
C  C44  1  0.38050000  0.23670000  0.56760000  1.0 -0.0302156163
C  C45  1  0.78555000  0.70543000  0.09417000  1.0 0.0096792279
C  C46  1  0.70543000  0.78555000  0.40583000  1.0 0.0096792279
C  C47  1  0.21445000  0.29457000  0.90583000  1.0 0.0096792279
C  C48  1  0.29457000  0.21445000  0.59417000  1.0 0.0096792279
C  C49  1  0.53667000  0.61813000  0.14458000  1.0 0.1217799173
C  C50  1  0.61813000  0.53667000  0.35542000  1.0 0.1217799173
C  C51  1  0.46333000  0.38187000  0.85542000  1.0 0.1217799173
C  C52  1  0.38187000  0.46333000  0.64458000  1.0 0.1217799173
C  C53  1  0.53275000  0.69521000  0.15498000  1.0 -0.1162482343
C  C54  1  0.69521000  0.53275000  0.34502000  1.0 -0.1162482343
C  C55  1  0.46725000  0.30479000  0.84502000  1.0 -0.1129641153
C  C56  1  0.30479000  0.46725000  0.65498000  1.0 -0.1162482343
C  C57  1  0.43595000  0.89405000  0.33020000  1.0 0.6838568531
C  C58  1  0.89405000  0.43595000  0.16980000  1.0 0.6838568531
C  C59  1  0.56405000  0.10595000  0.66980000  1.0 0.6838568531
C  C60  1  0.10595000  0.56405000  0.83020000  1.0 0.6838568531
C  C61  1  0.15747000  0.64993000  0.08980000  1.0 0.6666611218
C  C62  1  0.64993000  0.15747000  0.41020000  1.0 0.6666611218
C  C63  1  0.84253000  0.35007000  0.91020000  1.0 0.6666611218
C  C64  1  0.35007000  0.84253000  0.58980000  1.0 0.6666611218
C  C65  1  0.84199000  0.61881000  0.03340000  1.0 0.6282894992
C  C66  1  0.61881000  0.84199000  0.46660000  1.0 0.6282894992
C  C67  1  0.15801000  0.38119000  0.96660000  1.0 0.6282894992
C  C68  1  0.38119000  0.15801000  0.53340000  1.0 0.6282894992
N  N1  1  0.43483000  0.65151000  0.17777000  1.0 0.1217799173
N  N2  1  0.65151000  0.43483000  0.32223000  1.0 0.1266121798
N  N3  1  0.56517000  0.34849000  0.82223000  1.0 0.1217799173
N  N4  1  0.34849000  0.56517000  0.67777000  1.0 0.1217799173
N  N5  1  0.37821000  0.54741000  0.18146000  1.0 -0.0903045192
N  N6  1  0.54741000  0.37821000  0.31854000  1.0 -0.0903045192
N  N7  1  0.62179000  0.45259000  0.81854000  1.0 -0.0903045192
N  N8  1  0.45259000  0.62179000  0.68146000  1.0 -0.0903045192
N  N9  1  0.44115000  0.52679000  0.16095000  1.0 -0.2248270578
N  N10  1  0.52679000  0.44115000  0.33905000  1.0 -0.2248270578
N  N11  1  0.55885000  0.47321000  0.83905000  1.0 -0.2248270578
N  N12  1  0.47321000  0.55885000  0.66095000  1.0 -0.2248270578
O  O1  1  0.10664000  0.56636000  0.05590000  1.0 -0.7264911152
O  O2  1  0.56636000  0.10664000  0.44410000  1.0 -0.7264911152
O  O3  1  0.89336000  0.43364000  0.94410000  1.0 -0.7264911152
O  O4  1  0.43364000  0.89336000  0.55590000  1.0 -0.7264911152
O  O5  1  0.13229000  0.70307000  0.07890000  1.0 -0.6218280966
O  O6  1  0.70307000  0.13229000  0.42110000  1.0 -0.6218280966
O  O7  1  0.86771000  0.29693000  0.92110000  1.0 -0.6218280966
O  O8  1  0.29693000  0.86771000  0.57890000  1.0 -0.6218280966
O  O9  1  0.93209000  0.69071000  0.04660000  1.0 -0.6275034584
O  O10  1  0.69071000  0.93209000  0.45340000  1.0 -0.6275034584
O  O11  1  0.06791000  0.30929000  0.95340000  1.0 -0.6275034584
O  O12  1  0.30929000  0.06791000  0.54660000  1.0 -0.6275034584
O  O13  1  0.81533000  0.54247000  0.99310000  1.0 -0.6275034584
O  O14  1  0.54247000  0.81533000  0.50690000  1.0 -0.6218280966
O  O15  1  0.18467000  0.45753000  0.00690000  1.0 -0.6218280966
O  O16  1  0.45753000  0.18467000  0.49310000  1.0 -0.6218280966
O  O17  1  0.52285000  0.93345000  0.36360000  1.0 -0.6486468531
O  O18  1  0.93345000  0.52285000  0.13640000  1.0 -0.6486468531
O  O19  1  0.47715000  0.06655000  0.63640000  1.0 -0.6486468531
O  O20  1  0.06655000  0.47715000  0.86360000  1.0 -0.6486468531
O  O21  1  0.38439000  0.91577000  0.35070000  1.0 -0.67355474
O  O22  1  0.91577000  0.38439000  0.14930000  1.0 -0.67355474
O  O23  1  0.61561000  0.08423000  0.64930000  1.0 -0.67355474
O  O24  1  0.08423000  0.61561000  0.85070000  1.0 -0.67355474
