# DDEC6 charges by PACMAN v1.1 (https://github.com/mtap-research/PACMAN-charge/)
data_CUTCAX_ASR_pacman
_symmetry_space_group_name_H-M   'P 1'
_cell_length_a   7.51350000
_cell_length_b   37.15680000
_cell_length_c   12.47330000
_cell_angle_alpha   90.00000000
_cell_angle_beta   117.90300000
_cell_angle_gamma   90.00000000
_symmetry_Int_Tables_number   1
_chemical_formula_structural   Mn3H38C46(N7O2)2
_chemical_formula_sum   'Mn6 H76 C92 N28 O8'
_cell_volume   3077.42183143
_cell_formula_units_Z   2
loop_
 _symmetry_equiv_pos_site_id
 _symmetry_equiv_pos_as_xyz
  1  'x, y, z'
loop_
 _atom_site_type_symbol
 _atom_site_label
 _atom_site_symmetry_multiplicity
 _atom_site_fract_x
 _atom_site_fract_y
 _atom_site_fract_z
 _atom_site_occupancy
 _atom_site_charge
Mn  Mn1  1  0.50000000  0.00000000  0.00000000  1.0 0.9396607264
Mn  Mn2  1  0.50000000  0.50000000  0.50000000  1.0 0.9396607264
Mn  Mn3  1  0.58743000  0.16588000  0.52189000  1.0 0.9000225648
Mn  Mn4  1  0.41257000  0.66588000  0.97811000  1.0 0.9000225648
Mn  Mn5  1  0.41257000  0.83412000  0.47811000  1.0 0.9000225648
Mn  Mn6  1  0.58743000  0.33412000  0.02189000  1.0 0.9000225648
H  H1  1  0.93530000  0.10550000  0.58690000  1.0 0.1870950519
H  H2  1  0.06470000  0.60550000  0.91310000  1.0 0.1870950519
H  H3  1  0.06470000  0.89450000  0.41310000  1.0 0.1870950519
H  H4  1  0.93530000  0.39450000  0.08690000  1.0 0.1870950519
H  H5  1  0.14180000  0.12750000  0.65390000  1.0 0.0883898477
H  H6  1  0.85820000  0.62750000  0.84610000  1.0 0.0883898477
H  H7  1  0.85820000  0.87250000  0.34610000  1.0 0.0883898477
H  H8  1  0.14180000  0.37250000  0.15390000  1.0 0.0883898477
H  H9  1  0.02130000  0.11670000  0.72630000  1.0 0.1014993138
H  H10  1  0.97870000  0.61670000  0.77370000  1.0 0.1014993138
H  H11  1  0.97870000  0.88330000  0.27370000  1.0 0.1014993138
H  H12  1  0.02130000  0.38330000  0.22630000  1.0 0.1014993138
H  H13  1  0.53330000  0.98270000  0.68780000  1.0 0.1250073447
H  H14  1  0.46670000  0.48270000  0.81220000  1.0 0.1250073447
H  H15  1  0.46670000  0.01730000  0.31220000  1.0 0.1250073447
H  H16  1  0.53330000  0.51730000  0.18780000  1.0 0.1250073447
H  H17  1  0.49960000  0.06050000  0.45220000  1.0 0.1191147109
H  H18  1  0.50040000  0.56050000  0.04780000  1.0 0.1191147109
H  H19  1  0.50040000  0.93950000  0.54780000  1.0 0.1191147109
H  H20  1  0.49960000  0.43950000  0.95220000  1.0 0.1191147109
H  H21  1  0.55700000  0.10670000  0.96300000  1.0 0.1191147109
H  H22  1  0.44300000  0.60670000  0.53700000  1.0 0.1191147109
H  H23  1  0.44300000  0.89330000  0.03700000  1.0 0.1191147109
H  H24  1  0.55700000  0.39330000  0.46300000  1.0 0.1191147109
H  H25  1  0.56200000  0.15080000  0.83400000  1.0 0.1191147109
H  H26  1  0.43800000  0.65080000  0.66600000  1.0 0.1191147109
H  H27  1  0.43800000  0.84920000  0.16600000  1.0 0.1191147109
H  H28  1  0.56200000  0.34920000  0.33400000  1.0 0.1191147109
H  H29  1  0.64070000  0.22680000  0.08430000  1.0 0.1191147109
H  H30  1  0.35930000  0.72680000  0.41570000  1.0 0.1191147109
H  H31  1  0.35930000  0.77320000  0.91570000  1.0 0.1191147109
H  H32  1  0.64070000  0.27320000  0.58430000  1.0 0.1191147109
H  H33  1  0.63570000  0.18290000  0.21330000  1.0 0.1191147109
H  H34  1  0.36430000  0.68290000  0.28670000  1.0 0.1191147109
H  H35  1  0.36430000  0.81710000  0.78670000  1.0 0.1191147109
H  H36  1  0.63570000  0.31710000  0.71330000  1.0 0.1191147109
H  H37  1  0.05180000  0.19730000  0.67270000  1.0 0.1014993138
H  H38  1  0.94820000  0.69730000  0.82730000  1.0 0.1014993138
H  H39  1  0.94820000  0.80270000  0.32730000  1.0 0.1014993138
H  H40  1  0.05180000  0.30270000  0.17270000  1.0 0.1014993138
H  H41  1  0.16520000  0.16200000  0.74690000  1.0 0.1014993138
H  H42  1  0.83480000  0.66200000  0.75310000  1.0 0.1014993138
H  H43  1  0.83480000  0.83800000  0.25310000  1.0 0.1014993138
H  H44  1  0.16520000  0.33800000  0.24690000  1.0 0.1014993138
H  H45  1  0.14830000  0.16960000  0.61610000  1.0 0.1060012936
H  H46  1  0.85170000  0.66960000  0.88390000  1.0 0.1060012936
H  H47  1  0.85170000  0.83040000  0.38390000  1.0 0.1060012936
H  H48  1  0.14830000  0.33040000  0.11610000  1.0 0.1060012936
H  H49  1  0.97000000  0.07920000  0.45730000  1.0 0.0806966551
H  H50  1  0.03000000  0.57920000  0.04270000  1.0 0.0806966551
H  H51  1  0.03000000  0.92080000  0.54270000  1.0 0.0806966551
H  H52  1  0.97000000  0.42080000  0.95730000  1.0 0.0806966551
H  H53  1  0.00700000  0.02020000  0.67560000  1.0 0.1014993138
H  H54  1  0.99300000  0.52020000  0.82440000  1.0 0.1014993138
H  H55  1  0.99300000  0.97980000  0.32440000  1.0 0.1014993138
H  H56  1  0.00700000  0.47980000  0.17560000  1.0 0.1014993138
H  H57  1  0.92570000  0.98700000  0.58330000  1.0 0.1014993138
H  H58  1  0.07430000  0.48700000  0.91670000  1.0 0.1014993138
H  H59  1  0.07430000  0.01300000  0.41670000  1.0 0.1014993138
H  H60  1  0.92570000  0.51300000  0.08330000  1.0 0.1014993138
H  H61  1  0.16140000  0.99610000  0.65180000  1.0 0.1014993138
H  H62  1  0.83860000  0.49610000  0.84820000  1.0 0.1014993138
H  H63  1  0.83860000  0.00390000  0.34820000  1.0 0.1014993138
H  H64  1  0.16140000  0.50390000  0.15180000  1.0 0.1014993138
H  H65  1  0.94180000  0.03300000  0.34350000  1.0 0.0806966551
H  H66  1  0.05820000  0.53300000  0.15650000  1.0 0.0806966551
H  H67  1  0.05820000  0.96700000  0.65650000  1.0 0.0806966551
H  H68  1  0.94180000  0.46700000  0.84350000  1.0 0.0806966551
H  H69  1  0.10260000  0.00250000  0.41890000  1.0 0.1014993138
H  H70  1  0.89740000  0.50250000  0.08110000  1.0 0.1014993138
H  H71  1  0.89740000  0.99750000  0.58110000  1.0 0.1014993138
H  H72  1  0.10260000  0.49750000  0.91890000  1.0 0.1014993138
H  H73  1  0.86850000  0.99610000  0.37660000  1.0 0.1191147109
H  H74  1  0.13150000  0.49610000  0.12340000  1.0 0.1191147109
H  H75  1  0.13150000  0.00390000  0.62340000  1.0 0.1191147109
H  H76  1  0.86850000  0.50390000  0.87660000  1.0 0.1191147109
C  C1  1  0.00770000  0.12410000  0.64740000  1.0 0.004039408
C  C2  1  0.99230000  0.62410000  0.85260000  1.0 0.004039408
C  C3  1  0.99230000  0.87590000  0.35260000  1.0 0.004039408
C  C4  1  0.00770000  0.37590000  0.14740000  1.0 0.004039408
C  C5  1  0.51770000  0.02683000  0.58590000  1.0 0.0883898477
C  C6  1  0.48230000  0.52683000  0.91410000  1.0 0.0883898477
C  C7  1  0.48230000  0.97317000  0.41410000  1.0 0.0883898477
C  C8  1  0.51770000  0.47317000  0.08590000  1.0 0.0883898477
C  C9  1  0.51920000  0.98992000  0.61120000  1.0 -0.1791849748
C  C10  1  0.48080000  0.48992000  0.88880000  1.0 -0.1791849748
C  C11  1  0.48080000  0.01008000  0.38880000  1.0 -0.1791849748
C  C12  1  0.51920000  0.51008000  0.11120000  1.0 -0.1791849748
C  C13  1  0.49930000  0.03587000  0.47220000  1.0 -0.192080842
C  C14  1  0.50070000  0.53587000  0.02780000  1.0 -0.192080842
C  C15  1  0.50070000  0.96413000  0.52780000  1.0 -0.192080842
C  C16  1  0.49930000  0.46413000  0.97220000  1.0 -0.192080842
C  C17  1  0.54270000  0.04473000  0.78420000  1.0 0.1014993138
C  C18  1  0.45730000  0.54473000  0.71580000  1.0 0.1014993138
C  C19  1  0.45730000  0.95527000  0.21580000  1.0 0.1014993138
C  C20  1  0.54270000  0.45527000  0.28420000  1.0 0.1014993138
C  C21  1  0.59350000  0.07517000  0.15780000  1.0 0.2304232328
C  C22  1  0.40650000  0.57517000  0.34220000  1.0 0.2304232328
C  C23  1  0.40650000  0.92483000  0.84220000  1.0 0.2304232328
C  C24  1  0.59350000  0.42483000  0.65780000  1.0 0.2304232328
C  C25  1  0.59690000  0.13956000  0.10330000  1.0 0.1014993138
C  C26  1  0.40310000  0.63956000  0.39670000  1.0 0.1014993138
C  C27  1  0.40310000  0.86044000  0.89670000  1.0 0.1014993138
C  C28  1  0.59690000  0.36044000  0.60330000  1.0 0.1014993138
C  C29  1  0.57430000  0.13107000  0.98850000  1.0 -0.1509499733
C  C30  1  0.42570000  0.63107000  0.51150000  1.0 -0.1509499733
C  C31  1  0.42570000  0.86893000  0.01150000  1.0 -0.1509499733
C  C32  1  0.57430000  0.36893000  0.48850000  1.0 -0.1509499733
C  C33  1  0.59950000  0.19399000  0.94380000  1.0 0.1014993138
C  C34  1  0.40050000  0.69399000  0.55620000  1.0 0.1014993138
C  C35  1  0.40050000  0.80601000  0.05620000  1.0 0.1014993138
C  C36  1  0.59950000  0.30601000  0.44380000  1.0 0.1014993138
C  C37  1  0.53880000  0.09062000  0.64750000  1.0 0.0806966551
C  C38  1  0.46120000  0.59062000  0.85250000  1.0 0.0806966551
C  C39  1  0.46120000  0.90938000  0.35250000  1.0 0.0806966551
C  C40  1  0.53880000  0.40938000  0.14750000  1.0 0.0806966551
C  C41  1  0.57650000  0.15754000  0.91120000  1.0 -0.1791849748
C  C42  1  0.42350000  0.65754000  0.58880000  1.0 -0.1791849748
C  C43  1  0.42350000  0.84246000  0.08880000  1.0 -0.1791849748
C  C44  1  0.57650000  0.34246000  0.41120000  1.0 -0.1791849748
C  C45  1  0.60580000  0.21237000  0.75350000  1.0 0.2988647654
C  C46  1  0.39420000  0.71237000  0.74650000  1.0 0.2988647654
C  C47  1  0.39420000  0.78763000  0.24650000  1.0 0.2988647654
C  C48  1  0.60580000  0.28763000  0.25350000  1.0 0.2988647654
C  C49  1  0.57370000  0.12077000  0.28810000  1.0 0.2855513825
C  C50  1  0.42630000  0.62077000  0.21190000  1.0 0.2855513825
C  C51  1  0.42630000  0.87923000  0.71190000  1.0 0.2855513825
C  C52  1  0.57370000  0.37923000  0.78810000  1.0 0.2855513825
C  C53  1  0.62290000  0.20236000  0.05880000  1.0 -0.1586476729
C  C54  1  0.37710000  0.70236000  0.44120000  1.0 -0.1586476729
C  C55  1  0.37710000  0.79764000  0.94120000  1.0 -0.1586476729
C  C56  1  0.62290000  0.29764000  0.55880000  1.0 -0.1586476729
C  C57  1  0.62070000  0.17611000  0.13610000  1.0 -0.1509499733
C  C58  1  0.37930000  0.67611000  0.36390000  1.0 -0.1509499733
C  C59  1  0.37930000  0.82389000  0.86390000  1.0 -0.1509499733
C  C60  1  0.62070000  0.32389000  0.63610000  1.0 -0.1509499733
C  C61  1  0.61850000  0.25829000  0.89430000  1.0 0.2988647654
C  C62  1  0.38150000  0.75829000  0.60570000  1.0 0.2988647654
C  C63  1  0.38150000  0.74171000  0.10570000  1.0 0.2988647654
C  C64  1  0.61850000  0.24171000  0.39430000  1.0 0.2988647654
C  C65  1  0.53470000  0.05448000  0.67420000  1.0 -0.2001257666
C  C66  1  0.46530000  0.55448000  0.82580000  1.0 -0.2001257666
C  C67  1  0.46530000  0.94552000  0.32580000  1.0 -0.2001257666
C  C68  1  0.53470000  0.44552000  0.17420000  1.0 -0.2001257666
C  C69  1  0.59100000  0.11170000  0.18530000  1.0 -0.1586476729
C  C70  1  0.40900000  0.61170000  0.31470000  1.0 -0.1586476729
C  C71  1  0.40900000  0.88830000  0.81470000  1.0 -0.1586476729
C  C72  1  0.59100000  0.38830000  0.68530000  1.0 -0.1586476729
C  C73  1  0.60540000  0.22192000  0.86240000  1.0 -0.2071715311
C  C74  1  0.39460000  0.72192000  0.63760000  1.0 -0.2071715311
C  C75  1  0.39460000  0.77808000  0.13760000  1.0 -0.2071715311
C  C76  1  0.60540000  0.27808000  0.36240000  1.0 -0.2071715311
C  C77  1  0.07940000  0.17180000  0.66590000  1.0 -0.1586476729
C  C78  1  0.92060000  0.67180000  0.83410000  1.0 -0.1586476729
C  C79  1  0.92060000  0.82820000  0.33410000  1.0 -0.1586476729
C  C80  1  0.07940000  0.32820000  0.16590000  1.0 -0.1586476729
C  C81  1  0.99180000  0.06500000  0.52570000  1.0 0.0368352693
C  C82  1  0.00820000  0.56500000  0.97430000  1.0 0.0368352693
C  C83  1  0.00820000  0.93500000  0.47430000  1.0 0.0368352693
C  C84  1  0.99180000  0.43500000  0.02570000  1.0 0.0368352693
C  C85  1  0.02560000  0.00640000  0.61460000  1.0 -0.1715500221
C  C86  1  0.97440000  0.50640000  0.88540000  1.0 -0.1715500221
C  C87  1  0.97440000  0.99360000  0.38540000  1.0 -0.1715500221
C  C88  1  0.02560000  0.49360000  0.11460000  1.0 -0.1715500221
C  C89  1  0.97640000  0.01410000  0.40500000  1.0 -0.1509499733
C  C90  1  0.02360000  0.51410000  0.09500000  1.0 -0.1509499733
C  C91  1  0.02360000  0.98590000  0.59500000  1.0 -0.1509499733
C  C92  1  0.97640000  0.48590000  0.90500000  1.0 -0.1509499733
N  N1  1  0.54640000  0.03395000  0.87210000  1.0 -0.4023875014
N  N2  1  0.45360000  0.53395000  0.62790000  1.0 -0.4023875014
N  N3  1  0.45360000  0.96605000  0.12790000  1.0 -0.4023875014
N  N4  1  0.54640000  0.46605000  0.37210000  1.0 -0.4023875014
N  N5  1  0.54140000  0.11976000  0.61720000  1.0 -0.4142282546
N  N6  1  0.45860000  0.61976000  0.88280000  1.0 -0.4142282546
N  N7  1  0.45860000  0.88024000  0.38280000  1.0 -0.4142282546
N  N8  1  0.54140000  0.38024000  0.11720000  1.0 -0.4142282546
N  N9  1  0.60830000  0.20219000  0.66740000  1.0 -0.4407700515
N  N10  1  0.39170000  0.70219000  0.83260000  1.0 -0.4407700515
N  N11  1  0.39170000  0.79781000  0.33260000  1.0 -0.4407700515
N  N12  1  0.60830000  0.29781000  0.16740000  1.0 -0.4407700515
N  N13  1  0.55800000  0.13076000  0.37040000  1.0 -0.4407700515
N  N14  1  0.44200000  0.63076000  0.12960000  1.0 -0.4407700515
N  N15  1  0.44200000  0.86924000  0.62960000  1.0 -0.4407700515
N  N16  1  0.55800000  0.36924000  0.87040000  1.0 -0.4407700515
N  N17  1  0.59800000  0.04597000  0.12980000  1.0 -0.4178988055
N  N18  1  0.40200000  0.54597000  0.37020000  1.0 -0.4178988055
N  N19  1  0.40200000  0.95403000  0.87020000  1.0 -0.4178988055
N  N20  1  0.59800000  0.45403000  0.62980000  1.0 -0.4178988055
N  N21  1  0.63110000  0.28715000  0.92910000  1.0 -0.4407700515
N  N22  1  0.36890000  0.78715000  0.57090000  1.0 -0.4407700515
N  N23  1  0.36890000  0.71285000  0.07090000  1.0 -0.4407700515
N  N24  1  0.63110000  0.21285000  0.42910000  1.0 -0.4407700515
N  N25  1  0.00030000  0.02980000  0.51670000  1.0 -0.1047559396
N  N26  1  0.99970000  0.52980000  0.98330000  1.0 -0.1047559396
N  N27  1  0.99970000  0.97020000  0.48330000  1.0 -0.1047559396
N  N28  1  0.00030000  0.47020000  0.01670000  1.0 -0.1047559396
O  O1  1  0.90910000  0.15392000  0.61480000  1.0 -0.1509499733
O  O2  1  0.09090000  0.65392000  0.88520000  1.0 -0.1509499733
O  O3  1  0.09090000  0.84608000  0.38520000  1.0 -0.1509499733
O  O4  1  0.90910000  0.34608000  0.11480000  1.0 -0.1509499733
O  O5  1  0.01110000  0.08106000  0.62050000  1.0 -0.2204648272
O  O6  1  0.98890000  0.58106000  0.87950000  1.0 -0.2204648272
O  O7  1  0.98890000  0.91894000  0.37950000  1.0 -0.2204648272
O  O8  1  0.01110000  0.41894000  0.12050000  1.0 -0.2204648272
