# DDEC6 charges by PACMAN v1.1 (https://github.com/mtap-research/PACMAN-charge/)
data_CUTGEF_FSR_pacman
_symmetry_space_group_name_H-M   'P 1'
_cell_length_a   7.22800000
_cell_length_b   17.53000000
_cell_length_c   19.75800000
_cell_angle_alpha   90.00000000
_cell_angle_beta   90.00000000
_cell_angle_gamma   90.00000000
_symmetry_Int_Tables_number   1
_chemical_formula_structural   Cd2H3C19N4O7
_chemical_formula_sum   'Cd8 H12 C76 N16 O28'
_cell_volume   2503.47374472
_cell_formula_units_Z   4
loop_
 _symmetry_equiv_pos_site_id
 _symmetry_equiv_pos_as_xyz
  1  'x, y, z'
loop_
 _atom_site_type_symbol
 _atom_site_label
 _atom_site_symmetry_multiplicity
 _atom_site_fract_x
 _atom_site_fract_y
 _atom_site_fract_z
 _atom_site_occupancy
 _atom_site_charge
Cd  Cd1  1  0.25000000  0.81937000  0.44007000  1.0 0.9624557659
Cd  Cd2  1  0.75000000  0.31937000  0.05993000  1.0 0.9624557659
Cd  Cd3  1  0.75000000  0.18063000  0.55993000  1.0 0.9624557659
Cd  Cd4  1  0.25000000  0.68063000  0.94007000  1.0 0.9624557659
Cd  Cd5  1  0.50000000  0.00000000  0.50000000  1.0 1.04794714
Cd  Cd6  1  0.50000000  0.50000000  0.00000000  1.0 1.04794714
Cd  Cd7  1  0.00000000  0.00000000  0.50000000  1.0 1.04794714
Cd  Cd8  1  0.00000000  0.50000000  0.00000000  1.0 1.04794714
H  H1  1  0.25000000  0.98320000  0.24260000  1.0 0.1387730609
H  H2  1  0.75000000  0.48320000  0.25740000  1.0 0.1387730609
H  H3  1  0.75000000  0.01680000  0.75740000  1.0 0.1387730609
H  H4  1  0.25000000  0.51680000  0.74260000  1.0 0.1387730609
H  H5  1  0.25000000  0.91450000  0.05040000  1.0 0.1481163442
H  H6  1  0.75000000  0.41450000  0.44960000  1.0 0.1481163442
H  H7  1  0.75000000  0.08550000  0.94960000  1.0 0.1481163442
H  H8  1  0.25000000  0.58550000  0.55040000  1.0 0.1481163442
H  H9  1  0.25000000  0.76000000  0.19730000  1.0 0.1387730609
H  H10  1  0.75000000  0.26000000  0.30270000  1.0 0.1387730609
H  H11  1  0.75000000  0.24000000  0.80270000  1.0 0.1387730609
H  H12  1  0.25000000  0.74000000  0.69730000  1.0 0.1387730609
C  C1  1  0.25000000  0.28050000  0.06580000  1.0 0.2769559711
C  C2  1  0.75000000  0.78050000  0.43420000  1.0 0.2769559711
C  C3  1  0.75000000  0.71950000  0.93420000  1.0 0.2769559711
C  C4  1  0.25000000  0.21950000  0.56580000  1.0 0.2769559711
C  C5  1  0.25000000  0.85010000  0.30570000  1.0 0.5367954984
C  C6  1  0.75000000  0.35010000  0.19430000  1.0 0.5367954984
C  C7  1  0.75000000  0.14990000  0.69430000  1.0 0.5367954984
C  C8  1  0.25000000  0.64990000  0.80570000  1.0 0.5367954984
C  C9  1  0.25000000  0.86910000  0.23140000  1.0 0.011565698
C  C10  1  0.75000000  0.36910000  0.26860000  1.0 0.011565698
C  C11  1  0.75000000  0.13090000  0.76860000  1.0 0.011565698
C  C12  1  0.25000000  0.63090000  0.73140000  1.0 0.011565698
C  C13  1  0.25000000  0.94440000  0.21050000  1.0 -0.1341645554
C  C14  1  0.75000000  0.44440000  0.28950000  1.0 -0.1341645554
C  C15  1  0.75000000  0.05560000  0.78950000  1.0 -0.1341645554
C  C16  1  0.25000000  0.55560000  0.71050000  1.0 -0.1341645554
C  C17  1  0.25000000  0.96280000  0.14220000  1.0 0.089536564
C  C18  1  0.75000000  0.46280000  0.35780000  1.0 0.089536564
C  C19  1  0.75000000  0.03720000  0.85780000  1.0 0.089536564
C  C20  1  0.25000000  0.53720000  0.64220000  1.0 0.089536564
C  C21  1  0.25000000  0.04410000  0.12070000  1.0 0.0527364961
C  C22  1  0.75000000  0.54410000  0.37930000  1.0 0.0527364961
C  C23  1  0.75000000  0.95590000  0.87930000  1.0 0.0527364961
C  C24  1  0.25000000  0.45590000  0.62070000  1.0 0.0527364961
C  C25  1  0.25000000  0.76370000  0.06510000  1.0 0.5555851325
C  C26  1  0.75000000  0.26370000  0.43490000  1.0 0.5555851325
C  C27  1  0.75000000  0.23630000  0.93490000  1.0 0.5555851325
C  C28  1  0.25000000  0.73630000  0.56510000  1.0 0.5555851325
C  C29  1  0.25000000  0.82920000  0.11690000  1.0 0.004932853
C  C30  1  0.75000000  0.32920000  0.38310000  1.0 0.004932853
C  C31  1  0.75000000  0.17080000  0.88310000  1.0 0.011565698
C  C32  1  0.25000000  0.67080000  0.61690000  1.0 0.004932853
C  C33  1  0.25000000  0.90350000  0.09650000  1.0 -0.1424489938
C  C34  1  0.75000000  0.40350000  0.40350000  1.0 -0.1424489938
C  C35  1  0.75000000  0.09650000  0.90350000  1.0 -0.1424489938
C  C36  1  0.25000000  0.59650000  0.59650000  1.0 -0.1424489938
C  C37  1  0.25000000  0.81070000  0.18370000  1.0 -0.0992346665
C  C38  1  0.75000000  0.31070000  0.31630000  1.0 -0.0992346665
C  C39  1  0.75000000  0.18930000  0.81630000  1.0 -0.0992346665
C  C40  1  0.25000000  0.68930000  0.68370000  1.0 -0.0992346665
C  C41  1  0.25000000  0.19870000  0.08480000  1.0 0.0308493874
C  C42  1  0.75000000  0.69870000  0.41520000  1.0 0.0308493874
C  C43  1  0.75000000  0.80130000  0.91520000  1.0 0.0308493874
C  C44  1  0.25000000  0.30130000  0.58480000  1.0 0.0308493874
C  C45  1  0.10100000  0.17190000  0.12670000  1.0 -0.0246032004
C  C46  1  0.89900000  0.67190000  0.37330000  1.0 -0.0246032004
C  C47  1  0.60100000  0.82810000  0.87330000  1.0 -0.0246032004
C  C48  1  0.39900000  0.32810000  0.62670000  1.0 -0.0246032004
C  C49  1  0.89900000  0.82810000  0.87330000  1.0 -0.0246032004
C  C50  1  0.10100000  0.32810000  0.62670000  1.0 -0.0246032004
C  C51  1  0.39900000  0.17190000  0.12670000  1.0 -0.0246032004
C  C52  1  0.60100000  0.67190000  0.37330000  1.0 -0.0246032004
C  C53  1  0.12100000  0.15030000  0.06180000  1.0 -0.0149194044
C  C54  1  0.87900000  0.65030000  0.43820000  1.0 -0.0149194044
C  C55  1  0.62100000  0.84970000  0.93820000  1.0 -0.0149194044
C  C56  1  0.37900000  0.34970000  0.56180000  1.0 -0.0149194044
C  C57  1  0.87900000  0.84970000  0.93820000  1.0 -0.0149194044
C  C58  1  0.12100000  0.34970000  0.56180000  1.0 -0.0149194044
C  C59  1  0.37900000  0.15030000  0.06180000  1.0 -0.0149194044
C  C60  1  0.62100000  0.65030000  0.43820000  1.0 -0.0149194044
C  C61  1  0.12900000  0.07200000  0.07800000  1.0 -0.0262012132
C  C62  1  0.87100000  0.57200000  0.42200000  1.0 -0.0246032004
C  C63  1  0.62900000  0.92800000  0.92200000  1.0 -0.0246032004
C  C64  1  0.37100000  0.42800000  0.57800000  1.0 -0.0246032004
C  C65  1  0.87100000  0.92800000  0.92200000  1.0 -0.0246032004
C  C66  1  0.12900000  0.42800000  0.57800000  1.0 -0.0246032004
C  C67  1  0.37100000  0.07200000  0.07800000  1.0 -0.0262012132
C  C68  1  0.62900000  0.57200000  0.42200000  1.0 -0.0246032004
C  C69  1  0.10100000  0.09340000  0.14430000  1.0 -0.0385115724
C  C70  1  0.89900000  0.59340000  0.35570000  1.0 -0.0385115724
C  C71  1  0.60100000  0.90660000  0.85570000  1.0 -0.0385115724
C  C72  1  0.39900000  0.40660000  0.64430000  1.0 -0.0385115724
C  C73  1  0.89900000  0.90660000  0.85570000  1.0 -0.0385115724
C  C74  1  0.10100000  0.40660000  0.64430000  1.0 -0.0385115724
C  C75  1  0.39900000  0.09340000  0.14430000  1.0 -0.0385115724
C  C76  1  0.60100000  0.59340000  0.35570000  1.0 -0.0385115724
N  N1  1  0.09710000  0.32190000  0.05600000  1.0 -0.2154904142
N  N2  1  0.90290000  0.82190000  0.44400000  1.0 -0.2134568677
N  N3  1  0.59710000  0.67810000  0.94400000  1.0 -0.2154904142
N  N4  1  0.40290000  0.17810000  0.55600000  1.0 -0.2154904142
N  N5  1  0.90290000  0.67810000  0.94400000  1.0 -0.2154904142
N  N6  1  0.09710000  0.17810000  0.55600000  1.0 -0.2154904142
N  N7  1  0.40290000  0.32190000  0.05600000  1.0 -0.2154904142
N  N8  1  0.59710000  0.82190000  0.44400000  1.0 -0.2134568677
N  N9  1  0.16110000  0.39100000  0.03940000  1.0 -0.0385115724
N  N10  1  0.83890000  0.89100000  0.46060000  1.0 -0.0385115724
N  N11  1  0.66110000  0.60900000  0.96060000  1.0 -0.0385115724
N  N12  1  0.33890000  0.10900000  0.53940000  1.0 -0.0385115724
N  N13  1  0.83890000  0.60900000  0.96060000  1.0 -0.0385115724
N  N14  1  0.16110000  0.10900000  0.53940000  1.0 -0.0385115724
N  N15  1  0.33890000  0.39100000  0.03940000  1.0 -0.0385115724
N  N16  1  0.66110000  0.89100000  0.46060000  1.0 -0.0385115724
O  O1  1  0.25000000  0.90470000  0.34750000  1.0 -0.4319908381
O  O2  1  0.75000000  0.40470000  0.15250000  1.0 -0.4319908381
O  O3  1  0.75000000  0.09530000  0.65250000  1.0 -0.4319908381
O  O4  1  0.25000000  0.59530000  0.84750000  1.0 -0.4319908381
O  O5  1  0.25000000  0.78230000  0.32580000  1.0 -0.5210240409
O  O6  1  0.75000000  0.28230000  0.17420000  1.0 -0.5210240409
O  O7  1  0.75000000  0.21770000  0.67420000  1.0 -0.5210240409
O  O8  1  0.25000000  0.71770000  0.82580000  1.0 -0.5210240409
O  O9  1  0.25000000  0.78260000  0.00370000  1.0 -0.5256305025
O  O10  1  0.75000000  0.28260000  0.49630000  1.0 -0.5256305025
O  O11  1  0.75000000  0.21740000  0.99630000  1.0 -0.5210240409
O  O12  1  0.25000000  0.71740000  0.50370000  1.0 -0.5256305025
O  O13  1  0.25000000  0.69800000  0.08550000  1.0 -0.3958312855
O  O14  1  0.75000000  0.19800000  0.41450000  1.0 -0.3938194201
O  O15  1  0.75000000  0.30200000  0.91450000  1.0 -0.3938194201
O  O16  1  0.25000000  0.80200000  0.58550000  1.0 -0.3958312855
O  O17  1  0.54390000  0.96350000  0.61370000  1.0 -0.0992346665
O  O18  1  0.45610000  0.46350000  0.88630000  1.0 -0.0927430216
O  O19  1  0.04390000  0.03650000  0.38630000  1.0 -0.0992346665
O  O20  1  0.95610000  0.53650000  0.11370000  1.0 -0.0927430216
O  O21  1  0.45610000  0.03650000  0.38630000  1.0 -0.0927430216
O  O22  1  0.54390000  0.53650000  0.11370000  1.0 -0.0927430216
O  O23  1  0.95610000  0.96350000  0.61370000  1.0 -0.0927430216
O  O24  1  0.04390000  0.46350000  0.88630000  1.0 -0.0927430216
O  O25  1  0.25000000  0.92800000  0.50090000  1.0 -0.8482658749
O  O26  1  0.75000000  0.42800000  0.99910000  1.0 -0.8482658749
O  O27  1  0.75000000  0.07200000  0.49910000  1.0 -0.8482658749
O  O28  1  0.25000000  0.57200000  0.00090000  1.0 -0.8420864627
