# DDEC6 charges by PACMAN v1.1 (https://github.com/mtap-research/PACMAN-charge/)
data_CUVHEH_ASR_pacman
_symmetry_space_group_name_H-M   'P 1'
_cell_length_a   21.37680000
_cell_length_b   21.37680000
_cell_length_c   21.37680000
_cell_angle_alpha   116.75200000
_cell_angle_beta   116.75200000
_cell_angle_gamma   116.75200000
_symmetry_Int_Tables_number   1
_chemical_formula_structural   NdC9I3NO6
_chemical_formula_sum   'Nd6 C54 I18 N6 O36'
_cell_volume   4473.74551585
_cell_formula_units_Z   6
loop_
 _symmetry_equiv_pos_site_id
 _symmetry_equiv_pos_as_xyz
  1  'x, y, z'
loop_
 _atom_site_type_symbol
 _atom_site_label
 _atom_site_symmetry_multiplicity
 _atom_site_fract_x
 _atom_site_fract_y
 _atom_site_fract_z
 _atom_site_occupancy
 _atom_site_charge
Nd  Nd1  1  0.44504000  0.05468000  0.52511000  1.0 2.0670738625
Nd  Nd2  1  0.05468000  0.52511000  0.44504000  1.0 2.0646892953
Nd  Nd3  1  0.52511000  0.44504000  0.05468000  1.0 2.0670738625
Nd  Nd4  1  0.55496000  0.94532000  0.47489000  1.0 2.0670738625
Nd  Nd5  1  0.94532000  0.47489000  0.55496000  1.0 2.0670738625
Nd  Nd6  1  0.47489000  0.55496000  0.94532000  1.0 2.0670738625
C  C1  1  0.47721000  0.02005000  0.37324000  1.0 0.6621423828
C  C2  1  0.02005000  0.37324000  0.47721000  1.0 0.6621423828
C  C3  1  0.37324000  0.47721000  0.02005000  1.0 0.6621423828
C  C4  1  0.52279000  0.97995000  0.62676000  1.0 0.6621423828
C  C5  1  0.97995000  0.62676000  0.52279000  1.0 0.6621423828
C  C6  1  0.62676000  0.52279000  0.97995000  1.0 0.6621423828
C  C7  1  0.46753000  0.02581000  0.30156000  1.0 -0.0536447248
C  C8  1  0.02581000  0.30156000  0.46753000  1.0 -0.0536447248
C  C9  1  0.30156000  0.46753000  0.02581000  1.0 -0.0536447248
C  C10  1  0.53247000  0.97419000  0.69844000  1.0 -0.0536447248
C  C11  1  0.97419000  0.69844000  0.53247000  1.0 -0.0536447248
C  C12  1  0.69844000  0.53247000  0.97419000  1.0 -0.0536447248
C  C13  1  0.57121000  0.13136000  0.36293000  1.0 -0.0281524889
C  C14  1  0.13136000  0.36293000  0.57121000  1.0 -0.0281524889
C  C15  1  0.36293000  0.57121000  0.13136000  1.0 -0.0281524889
C  C16  1  0.42879000  0.86864000  0.63707000  1.0 -0.0281524889
C  C17  1  0.86864000  0.63707000  0.42879000  1.0 -0.0281524889
C  C18  1  0.63707000  0.42879000  0.86864000  1.0 -0.0246289578
C  C19  1  0.57243000  0.13429000  0.29968000  1.0 -0.0431429701
C  C20  1  0.13429000  0.29968000  0.57243000  1.0 -0.0431429701
C  C21  1  0.29968000  0.57243000  0.13429000  1.0 -0.0431429701
C  C22  1  0.42757000  0.86571000  0.70032000  1.0 -0.0431429701
C  C23  1  0.86571000  0.70032000  0.42757000  1.0 -0.0431429701
C  C24  1  0.70032000  0.42757000  0.86571000  1.0 -0.0431429701
C  C25  1  0.69262000  0.24680000  0.37088000  1.0 0.5888936388
C  C26  1  0.24680000  0.37088000  0.69262000  1.0 0.5888936388
C  C27  1  0.37088000  0.69262000  0.24680000  1.0 0.5888936388
C  C28  1  0.30738000  0.75320000  0.62912000  1.0 0.5888936388
C  C29  1  0.75320000  0.62912000  0.30738000  1.0 0.5888936388
C  C30  1  0.62912000  0.30738000  0.75320000  1.0 0.5888936388
C  C31  1  0.46619000  0.02979000  0.17262000  1.0 -0.0281524889
C  C32  1  0.02979000  0.17262000  0.46619000  1.0 -0.0281524889
C  C33  1  0.17262000  0.46619000  0.02979000  1.0 -0.0281524889
C  C34  1  0.53381000  0.97021000  0.82738000  1.0 -0.0281524889
C  C35  1  0.97021000  0.82738000  0.53381000  1.0 -0.0281524889
C  C36  1  0.82738000  0.53381000  0.97021000  1.0 -0.0281524889
C  C37  1  0.35700000  0.92190000  0.10560000  1.0 0.2142593372
C  C38  1  0.92190000  0.10560000  0.35700000  1.0 0.2142593372
C  C39  1  0.10560000  0.35700000  0.92190000  1.0 0.2142593372
C  C40  1  0.64300000  0.07810000  0.89440000  1.0 0.2142593372
C  C41  1  0.07810000  0.89440000  0.64300000  1.0 0.2142593372
C  C42  1  0.89440000  0.64300000  0.07810000  1.0 0.2160500008
C  C43  1  0.36185000  0.92434000  0.17511000  1.0 -0.0562505769
C  C44  1  0.92434000  0.17511000  0.36185000  1.0 -0.0562505769
C  C45  1  0.17511000  0.36185000  0.92434000  1.0 -0.0562505769
C  C46  1  0.63815000  0.07566000  0.82489000  1.0 -0.0536447248
C  C47  1  0.07566000  0.82489000  0.63815000  1.0 -0.0562505769
C  C48  1  0.82489000  0.63815000  0.07566000  1.0 -0.0536447248
C  C49  1  0.73160000  0.20440000  0.69440000  1.0 0.7142560053
C  C50  1  0.20440000  0.69440000  0.73160000  1.0 0.7188086557
C  C51  1  0.69440000  0.73160000  0.20440000  1.0 0.7188086557
C  C52  1  0.26840000  0.79560000  0.30560000  1.0 0.7188086557
C  C53  1  0.79560000  0.30560000  0.26840000  1.0 0.7188086557
C  C54  1  0.30560000  0.26840000  0.79560000  1.0 0.7188086557
I  I1  1  0.72486000  0.28954000  0.55435000  1.0 0.0196171154
I  I2  1  0.28954000  0.55435000  0.72486000  1.0 0.0196171154
I  I3  1  0.55435000  0.72486000  0.28954000  1.0 0.0196171154
I  I4  1  0.27514000  0.71046000  0.44565000  1.0 0.0253386143
I  I5  1  0.71046000  0.44565000  0.27514000  1.0 0.0196171154
I  I6  1  0.44565000  0.27514000  0.71046000  1.0 0.0196171154
I  I7  1  0.46820000  0.03153000  0.07602000  1.0 0.0196171154
I  I8  1  0.03153000  0.07602000  0.46820000  1.0 0.0196171154
I  I9  1  0.07602000  0.46820000  0.03153000  1.0 0.0196171154
I  I10  1  0.53180000  0.96847000  0.92398000  1.0 0.0196171154
I  I11  1  0.96847000  0.92398000  0.53180000  1.0 0.0196171154
I  I12  1  0.92398000  0.53180000  0.96847000  1.0 0.0196171154
I  I13  1  0.20366000  0.76993000  0.08464000  1.0 0.0108397933
I  I14  1  0.76993000  0.08464000  0.20366000  1.0 0.0196171154
I  I15  1  0.08464000  0.20366000  0.76993000  1.0 0.0196171154
I  I16  1  0.79634000  0.23007000  0.91536000  1.0 0.0108397933
I  I17  1  0.23007000  0.91536000  0.79634000  1.0 0.0108397933
I  I18  1  0.91536000  0.79634000  0.23007000  1.0 0.0108397933
N  N1  1  0.25307000  0.81970000  0.98083000  1.0 -0.3894241732
N  N2  1  0.81970000  0.98083000  0.25307000  1.0 -0.3894241732
N  N3  1  0.98083000  0.25307000  0.81970000  1.0 -0.3894241732
N  N4  1  0.74693000  0.18030000  0.01917000  1.0 -0.3894241732
N  N5  1  0.18030000  0.01917000  0.74693000  1.0 -0.3894241732
N  N6  1  0.01917000  0.74693000  0.18030000  1.0 -0.3894241732
O  O1  1  0.44234000  0.03836000  0.40270000  1.0 -0.6482526096
O  O2  1  0.03836000  0.40270000  0.44234000  1.0 -0.6482526096
O  O3  1  0.40270000  0.44234000  0.03836000  1.0 -0.6482526096
O  O4  1  0.55766000  0.96164000  0.59730000  1.0 -0.6482526096
O  O5  1  0.96164000  0.59730000  0.55766000  1.0 -0.6482526096
O  O6  1  0.59730000  0.55766000  0.96164000  1.0 -0.6482526096
O  O7  1  0.52107000  0.99731000  0.39532000  1.0 -0.6380703879
O  O8  1  0.99731000  0.39532000  0.52107000  1.0 -0.6380703879
O  O9  1  0.39532000  0.52107000  0.99731000  1.0 -0.6380703879
O  O10  1  0.47893000  0.00269000  0.60468000  1.0 -0.6380703879
O  O11  1  0.00269000  0.60468000  0.47893000  1.0 -0.6380703879
O  O12  1  0.60468000  0.47893000  0.00269000  1.0 -0.6380703879
O  O13  1  0.76378000  0.25454000  0.40148000  1.0 -0.6077448807
O  O14  1  0.25454000  0.40148000  0.76378000  1.0 -0.6077448807
O  O15  1  0.40148000  0.76378000  0.25454000  1.0 -0.6077448807
O  O16  1  0.23622000  0.74546000  0.59852000  1.0 -0.6077448807
O  O17  1  0.74546000  0.59852000  0.23622000  1.0 -0.6077448807
O  O18  1  0.59852000  0.23622000  0.74546000  1.0 -0.6077448807
O  O19  1  0.71874000  0.32887000  0.40219000  1.0 -0.6077448807
O  O20  1  0.32887000  0.40219000  0.71874000  1.0 -0.6077448807
O  O21  1  0.40219000  0.71874000  0.32887000  1.0 -0.6077448807
O  O22  1  0.28126000  0.67113000  0.59781000  1.0 -0.6077448807
O  O23  1  0.67113000  0.59781000  0.28126000  1.0 -0.6077448807
O  O24  1  0.59781000  0.28126000  0.67113000  1.0 -0.6077448807
O  O25  1  0.62217000  0.12933000  0.61400000  1.0 -0.6857196721
O  O26  1  0.12933000  0.61400000  0.62217000  1.0 -0.6843340826
O  O27  1  0.61400000  0.62217000  0.12933000  1.0 -0.6857196721
O  O28  1  0.37783000  0.87067000  0.38600000  1.0 -0.6843340826
O  O29  1  0.87067000  0.38600000  0.37783000  1.0 -0.6843340826
O  O30  1  0.38600000  0.37783000  0.87067000  1.0 -0.6857196721
O  O31  1  0.76990000  0.17600000  0.68720000  1.0 -0.5201223127
O  O32  1  0.17600000  0.68720000  0.76990000  1.0 -0.5201223127
O  O33  1  0.68720000  0.76990000  0.17600000  1.0 -0.5201223127
O  O34  1  0.23010000  0.82400000  0.31280000  1.0 -0.5201223127
O  O35  1  0.82400000  0.31280000  0.23010000  1.0 -0.5201223127
O  O36  1  0.31280000  0.23010000  0.82400000  1.0 -0.5201223127
