# DDEC6 charges by PACMAN v1.1 (https://github.com/mtap-research/PACMAN-charge/)
data_CUWROC_ASR_pacman
_symmetry_space_group_name_H-M   'P 1'
_cell_length_a   19.75290000
_cell_length_b   18.46140000
_cell_length_c   9.95993000
_cell_angle_alpha   82.21010000
_cell_angle_beta   67.81820000
_cell_angle_gamma   29.97170000
_symmetry_Int_Tables_number   1
_chemical_formula_structural   NbCu2H20C24(N2F3)2
_chemical_formula_sum   'Nb2 Cu4 H40 C48 N8 F12'
_cell_volume   1529.42970891
_cell_formula_units_Z   2
loop_
 _symmetry_equiv_pos_site_id
 _symmetry_equiv_pos_as_xyz
  1  'x, y, z'
loop_
 _atom_site_type_symbol
 _atom_site_label
 _atom_site_symmetry_multiplicity
 _atom_site_fract_x
 _atom_site_fract_y
 _atom_site_fract_z
 _atom_site_occupancy
 _atom_site_charge
Nb  Nb1  1  0.00000000  0.00000000  0.00000000  1.0 2.4167036016
Nb  Nb2  1  0.25000000  0.25000000  0.25000000  1.0 2.4148816068
Cu  Cu1  1  0.11706000  0.11706000  0.88294000  1.0 0.3178916176
Cu  Cu2  1  0.88294000  0.88294000  0.11706000  1.0 0.3178916176
Cu  Cu3  1  0.13294000  0.13294000  0.36706000  1.0 0.3178916176
Cu  Cu4  1  0.36706000  0.36706000  0.13294000  1.0 0.3178916176
H  H1  1  0.32680000  0.03220000  0.88760000  1.0 0.1100535255
H  H2  1  0.75340000  0.88760000  0.03220000  1.0 0.1100535255
H  H3  1  0.03220000  0.32680000  0.75340000  1.0 0.1100535255
H  H4  1  0.88760000  0.75340000  0.32680000  1.0 0.1100535255
H  H5  1  0.92320000  0.21780000  0.36240000  1.0 0.1100535255
H  H6  1  0.49660000  0.36240000  0.21780000  1.0 0.1100535255
H  H7  1  0.21780000  0.92320000  0.49660000  1.0 0.1100535255
H  H8  1  0.36240000  0.49660000  0.92320000  1.0 0.1100535255
H  H9  1  0.48970000  0.88510000  0.98810000  1.0 0.1537318819
H  H10  1  0.63710000  0.98810000  0.88510000  1.0 0.1537318819
H  H11  1  0.88510000  0.48970000  0.63710000  1.0 0.1537318819
H  H12  1  0.98810000  0.63710000  0.48970000  1.0 0.1537318819
H  H13  1  0.76030000  0.36490000  0.26190000  1.0 0.1537318819
H  H14  1  0.61290000  0.26190000  0.36490000  1.0 0.1537318819
H  H15  1  0.36490000  0.76030000  0.61290000  1.0 0.1537318819
H  H16  1  0.26190000  0.61290000  0.76030000  1.0 0.1537318819
H  H17  1  0.40680000  0.74440000  0.12200000  1.0 0.1406077717
H  H18  1  0.72680000  0.12200000  0.74440000  1.0 0.1406077717
H  H19  1  0.74440000  0.40680000  0.72680000  1.0 0.1406077717
H  H20  1  0.12200000  0.72680000  0.40680000  1.0 0.1406077717
H  H21  1  0.84320000  0.50560000  0.12800000  1.0 0.1406077717
H  H22  1  0.52320000  0.12800000  0.50560000  1.0 0.1406077717
H  H23  1  0.50560000  0.84320000  0.52320000  1.0 0.1406077717
H  H24  1  0.12800000  0.52320000  0.84320000  1.0 0.1406077717
H  H25  1  0.25480000  0.88580000  0.00680000  1.0 0.1100535255
H  H26  1  0.85260000  0.00680000  0.88580000  1.0 0.1100535255
H  H27  1  0.88580000  0.25480000  0.85260000  1.0 0.1100535255
H  H28  1  0.00680000  0.85260000  0.25480000  1.0 0.1100535255
H  H29  1  0.99520000  0.36420000  0.24320000  1.0 0.1100535255
H  H30  1  0.39740000  0.24320000  0.36420000  1.0 0.1100535255
H  H31  1  0.36420000  0.99520000  0.39740000  1.0 0.1100535255
H  H32  1  0.24320000  0.39740000  0.99520000  1.0 0.1100535255
H  H33  1  0.64220000  0.68320000  0.09400000  1.0 0.1250336666
H  H34  1  0.58060000  0.09400000  0.68320000  1.0 0.1250336666
H  H35  1  0.68320000  0.64220000  0.58060000  1.0 0.1250336666
H  H36  1  0.09400000  0.58060000  0.64220000  1.0 0.1250336666
H  H37  1  0.60780000  0.56680000  0.15600000  1.0 0.1250336666
H  H38  1  0.66940000  0.15600000  0.56680000  1.0 0.1250336666
H  H39  1  0.56680000  0.60780000  0.66940000  1.0 0.1250336666
H  H40  1  0.15600000  0.66940000  0.60780000  1.0 0.1250336666
C  C1  1  0.34390000  0.97270000  0.93350000  1.0 0.05455336
C  C2  1  0.74990000  0.93350000  0.97270000  1.0 0.05455336
C  C3  1  0.97270000  0.34390000  0.74990000  1.0 0.05455336
C  C4  1  0.93350000  0.74990000  0.34390000  1.0 0.05455336
C  C5  1  0.90610000  0.27730000  0.31650000  1.0 0.05455336
C  C6  1  0.50010000  0.31650000  0.27730000  1.0 0.05455336
C  C7  1  0.27730000  0.90610000  0.50010000  1.0 0.05455336
C  C8  1  0.31650000  0.50010000  0.90610000  1.0 0.05455336
C  C9  1  0.44650000  0.87990000  0.98990000  1.0 -0.2033668819
C  C10  1  0.68370000  0.98990000  0.87990000  1.0 -0.2033668819
C  C11  1  0.87990000  0.44650000  0.68370000  1.0 -0.2033668819
C  C12  1  0.98990000  0.68370000  0.44650000  1.0 -0.2033668819
C  C13  1  0.80350000  0.37010000  0.26010000  1.0 -0.2033668819
C  C14  1  0.56630000  0.26010000  0.37010000  1.0 -0.2033668819
C  C15  1  0.37010000  0.80350000  0.56630000  1.0 -0.2033668819
C  C16  1  0.26010000  0.56630000  0.80350000  1.0 -0.2033668819
C  C17  1  0.48620000  0.77880000  0.04920000  1.0 0.1406077717
C  C18  1  0.68580000  0.04920000  0.77880000  1.0 0.1406077717
C  C19  1  0.77880000  0.48620000  0.68580000  1.0 0.1406077717
C  C20  1  0.04920000  0.68580000  0.48620000  1.0 0.1406077717
C  C21  1  0.76380000  0.47120000  0.20080000  1.0 0.1406077717
C  C22  1  0.56420000  0.20080000  0.47120000  1.0 0.1406077717
C  C23  1  0.47120000  0.76380000  0.56420000  1.0 0.1406077717
C  C24  1  0.20080000  0.56420000  0.76380000  1.0 0.1406077717
C  C25  1  0.39930000  0.79490000  0.06810000  1.0 -0.2234302654
C  C26  1  0.73770000  0.06810000  0.79490000  1.0 -0.2234302654
C  C27  1  0.79490000  0.39930000  0.73770000  1.0 -0.2234302654
C  C28  1  0.06810000  0.73770000  0.39930000  1.0 -0.2234302654
C  C29  1  0.85070000  0.45510000  0.18190000  1.0 -0.2234302654
C  C30  1  0.51230000  0.18190000  0.45510000  1.0 -0.2234302654
C  C31  1  0.45510000  0.85070000  0.51230000  1.0 -0.2234302654
C  C32  1  0.18190000  0.51230000  0.85070000  1.0 -0.2234302654
C  C33  1  0.30020000  0.88820000  0.00500000  1.0 0.0944831234
C  C34  1  0.80660000  0.00500000  0.88820000  1.0 0.0944831234
C  C35  1  0.88820000  0.30020000  0.80660000  1.0 0.0944831234
C  C36  1  0.00500000  0.80660000  0.30020000  1.0 0.0944831234
C  C37  1  0.94980000  0.36180000  0.24500000  1.0 0.0944831234
C  C38  1  0.44340000  0.24500000  0.36180000  1.0 0.0944831234
C  C39  1  0.36180000  0.94980000  0.44340000  1.0 0.0944831234
C  C40  1  0.24500000  0.44340000  0.94980000  1.0 0.0944831234
C  C41  1  0.60050000  0.67570000  0.09930000  1.0 -0.1271841104
C  C42  1  0.62450000  0.09930000  0.67570000  1.0 -0.1271841104
C  C43  1  0.67570000  0.60050000  0.62450000  1.0 -0.1271841104
C  C44  1  0.09930000  0.62450000  0.60050000  1.0 -0.1271841104
C  C45  1  0.64950000  0.57430000  0.15070000  1.0 -0.1271841104
C  C46  1  0.62550000  0.15070000  0.57430000  1.0 -0.1271841104
C  C47  1  0.57430000  0.64950000  0.62550000  1.0 -0.1271841104
C  C48  1  0.15070000  0.62550000  0.64950000  1.0 -0.1271841104
N  N1  1  0.26750000  0.97950000  0.94310000  1.0 -0.2234302654
N  N2  1  0.80990000  0.94310000  0.97950000  1.0 -0.2234302654
N  N3  1  0.97950000  0.26750000  0.80990000  1.0 -0.2234302654
N  N4  1  0.94310000  0.80990000  0.26750000  1.0 -0.2234302654
N  N5  1  0.98250000  0.27050000  0.30690000  1.0 -0.2234302654
N  N6  1  0.44010000  0.30690000  0.27050000  1.0 -0.2234302654
N  N7  1  0.27050000  0.98250000  0.44010000  1.0 -0.2234302654
N  N8  1  0.30690000  0.44010000  0.98250000  1.0 -0.2234302654
F  F1  1  0.05300000  0.05300000  0.94700000  1.0 -0.5650067131
F  F2  1  0.94700000  0.94700000  0.05300000  1.0 -0.5650067131
F  F3  1  0.19700000  0.19700000  0.30300000  1.0 -0.5650067131
F  F4  1  0.30300000  0.30300000  0.19700000  1.0 -0.5650067131
F  F5  1  0.80560000  0.19440000  0.19440000  1.0 -0.6244915228
F  F6  1  0.19440000  0.80560000  0.80560000  1.0 -0.6244915228
F  F7  1  0.44440000  0.05560000  0.05560000  1.0 -0.6244915228
F  F8  1  0.05560000  0.44440000  0.44440000  1.0 -0.6244915228
F  F9  1  0.88580000  0.11420000  0.88580000  1.0 -0.6397158902
F  F10  1  0.11420000  0.88580000  0.11420000  1.0 -0.6397158902
F  F11  1  0.36420000  0.13580000  0.36420000  1.0 -0.6397158902
F  F12  1  0.13580000  0.36420000  0.13580000  1.0 -0.6397158902
