# DDEC6 charges by PACMAN v1.1 (https://github.com/mtap-research/PACMAN-charge/)
data_CUWWEY_ASR_pacman
_symmetry_space_group_name_H-M   'P 1'
_cell_length_a   10.39120000
_cell_length_b   11.33710000
_cell_length_c   12.81680000
_cell_angle_alpha   106.32200000
_cell_angle_beta   98.73000000
_cell_angle_gamma   103.04200000
_symmetry_Int_Tables_number   1
_chemical_formula_structural   EuH11C19N4O7
_chemical_formula_sum   'Eu2 H22 C38 N8 O14'
_cell_volume   1373.76239359
_cell_formula_units_Z   2
loop_
 _symmetry_equiv_pos_site_id
 _symmetry_equiv_pos_as_xyz
  1  'x, y, z'
loop_
 _atom_site_type_symbol
 _atom_site_label
 _atom_site_symmetry_multiplicity
 _atom_site_fract_x
 _atom_site_fract_y
 _atom_site_fract_z
 _atom_site_occupancy
 _atom_site_charge
Eu  Eu1  1  0.47839000  0.44500000  0.33609000  1.0 2.0003865432
Eu  Eu2  1  0.52161000  0.55500000  0.66391000  1.0 2.0003865432
H  H1  1  0.30110000  0.06060000  0.99370000  1.0 0.1389228028
H  H2  1  0.69890000  0.93940000  0.00630000  1.0 0.1389228028
H  H3  1  0.21130000  0.59200000  0.62200000  1.0 0.1586570029
H  H4  1  0.78870000  0.40800000  0.37800000  1.0 0.1586570029
H  H5  1  0.57580000  0.17090000  0.66480000  1.0 0.1302369429
H  H6  1  0.42420000  0.82910000  0.33520000  1.0 0.1302369429
H  H7  1  0.70230000  0.67050000  0.18170000  1.0 0.1302369429
H  H8  1  0.29770000  0.32950000  0.81830000  1.0 0.1302369429
H  H9  1  0.64280000  0.74710000  0.27550000  1.0 0.1389228028
H  H10  1  0.35720000  0.25290000  0.72450000  1.0 0.1389228028
H  H11  1  0.30940000  0.63450000  0.93920000  1.0 0.1586570029
H  H12  1  0.69060000  0.36550000  0.06080000  1.0 0.1586570029
H  H13  1  0.15170000  0.47230000  0.96710000  1.0 0.1499502134
H  H14  1  0.84830000  0.52770000  0.03290000  1.0 0.1499502134
H  H15  1  0.22540000  0.39700000  0.11510000  1.0 0.1302369429
H  H16  1  0.77460000  0.60300000  0.88490000  1.0 0.1302369429
H  H17  1  0.62620000  0.79740000  0.08060000  1.0 0.1302369429
H  H18  1  0.37380000  0.20260000  0.91940000  1.0 0.1302369429
H  H19  1  0.49190000  0.82120000  0.02820000  1.0 0.0977860164
H  H20  1  0.50810000  0.17880000  0.97180000  1.0 0.0977860164
H  H21  1  0.55280000  0.72160000  0.95530000  1.0 0.1199032065
H  H22  1  0.44720000  0.27840000  0.04470000  1.0 0.1199032065
C  C1  1  0.48890000  0.22790000  0.16630000  1.0 0.5756951642
C  C2  1  0.51110000  0.77210000  0.83370000  1.0 0.5756951642
C  C3  1  0.49440000  0.10920000  0.07990000  1.0 -0.0612416699
C  C4  1  0.50560000  0.89080000  0.92010000  1.0 -0.0612416699
C  C5  1  0.38130000  0.03690000  0.99600000  1.0 -0.182022557
C  C6  1  0.61870000  0.96310000  0.00400000  1.0 -0.182022557
C  C7  1  0.61280000  0.07190000  0.08550000  1.0 0.2280692008
C  C8  1  0.38720000  0.92810000  0.91450000  1.0 0.2280692008
C  C9  1  0.23870000  0.45360000  0.42810000  1.0 0.6485609483
C  C10  1  0.76130000  0.54640000  0.57190000  1.0 0.6485609483
C  C11  1  0.11410000  0.47730000  0.46390000  1.0 -0.0612416699
C  C12  1  0.88590000  0.52270000  0.53610000  1.0 -0.0612416699
C  C13  1  0.98710000  0.42510000  0.38870000  1.0 0.1878044428
C  C14  1  0.01290000  0.57490000  0.61130000  1.0 0.1878044428
C  C15  1  0.12600000  0.55430000  0.57380000  1.0 -0.1193698871
C  C16  1  0.87400000  0.44570000  0.42620000  1.0 -0.1193698871
C  C17  1  0.49610000  0.25440000  0.49790000  1.0 0.6429174614
C  C18  1  0.50390000  0.74560000  0.50210000  1.0 0.6429174614
C  C19  1  0.49620000  0.12230000  0.49830000  1.0 -0.0690489079
C  C20  1  0.50380000  0.87770000  0.50170000  1.0 -0.0690489079
C  C21  1  0.54530000  0.10190000  0.59860000  1.0 -0.1668866876
C  C22  1  0.45470000  0.89810000  0.40140000  1.0 -0.1668866876
C  C23  1  0.45120000  0.01690000  0.39960000  1.0 0.1878044428
C  C24  1  0.54880000  0.98310000  0.60040000  1.0 0.1878044428
C  C25  1  0.63530000  0.66220000  0.22640000  1.0 -0.013690376
C  C26  1  0.36470000  0.33780000  0.77360000  1.0 -0.013690376
C  C27  1  0.49650000  0.60690000  0.15080000  1.0 0.1878044428
C  C28  1  0.50350000  0.39310000  0.84920000  1.0 0.1878044428
C  C29  1  0.45840000  0.65450000  0.06310000  1.0 0.0728313174
C  C30  1  0.54160000  0.34550000  0.93690000  1.0 0.0728313174
C  C31  1  0.33320000  0.60350000  0.99710000  1.0 -0.1003645289
C  C32  1  0.66680000  0.39650000  0.00290000  1.0 -0.1003645289
C  C33  1  0.23920000  0.50700000  0.01200000  1.0 -0.1594583656
C  C34  1  0.76080000  0.49300000  0.98800000  1.0 -0.1594583656
C  C35  1  0.28550000  0.46320000  0.10260000  1.0 0.1199032065
C  C36  1  0.71450000  0.53680000  0.89740000  1.0 0.1199032065
C  C37  1  0.54000000  0.75800000  0.02870000  1.0 -0.3825497407
C  C38  1  0.46000000  0.24200000  0.97130000  1.0 -0.3825497407
N  N1  1  0.71200000  0.10800000  0.17100000  1.0 -0.2841618884
N  N2  1  0.28800000  0.89200000  0.82900000  1.0 -0.2850462723
N  N3  1  0.96780000  0.35350000  0.27850000  1.0 -0.1594583656
N  N4  1  0.03220000  0.64650000  0.72150000  1.0 -0.1594583656
N  N5  1  0.38200000  0.02400000  0.29630000  1.0 -0.0690489079
N  N6  1  0.61800000  0.97600000  0.70370000  1.0 -0.0690489079
N  N7  1  0.40830000  0.51180000  0.16830000  1.0 -0.3585404683
N  N8  1  0.59170000  0.48820000  0.83170000  1.0 -0.3585404683
O  O1  1  0.37460000  0.24640000  0.17440000  1.0 -0.5890711772
O  O2  1  0.62540000  0.75360000  0.82560000  1.0 -0.5890711772
O  O3  1  0.59650000  0.30660000  0.22870000  1.0 -0.5659479726
O  O4  1  0.40350000  0.69340000  0.77130000  1.0 -0.5659479726
O  O5  1  0.23760000  0.41100000  0.32610000  1.0 -0.5778406787
O  O6  1  0.76240000  0.58900000  0.67390000  1.0 -0.5778406787
O  O7  1  0.34650000  0.47880000  0.50230000  1.0 -0.7194694805
O  O8  1  0.65350000  0.52120000  0.49770000  1.0 -0.7194694805
O  O9  1  0.46010000  0.27100000  0.40700000  1.0 -0.5890711772
O  O10  1  0.53990000  0.72900000  0.59300000  1.0 -0.5890711772
O  O11  1  0.53270000  0.34070000  0.59170000  1.0 -0.643354826
O  O12  1  0.46730000  0.65930000  0.40830000  1.0 -0.643354826
O  O13  1  0.66230000  0.58870000  0.28850000  1.0 -0.4632424641
O  O14  1  0.33770000  0.41130000  0.71150000  1.0 -0.4632424641
