# DDEC6 charges by PACMAN v1.1 (https://github.com/mtap-research/PACMAN-charge/)
data_CUWXUP_ASR_pacman
_symmetry_space_group_name_H-M   'P 1'
_cell_length_a   16.26310000
_cell_length_b   16.26310000
_cell_length_c   13.35240000
_cell_angle_alpha   84.00100000
_cell_angle_beta   95.99900000
_cell_angle_gamma   131.04000000
_symmetry_Int_Tables_number   1
_chemical_formula_structural   EuH9C18(NO)6
_chemical_formula_sum   'Eu4 H36 C72 N24 O24'
_cell_volume   2646.05932952
_cell_formula_units_Z   4
loop_
 _symmetry_equiv_pos_site_id
 _symmetry_equiv_pos_as_xyz
  1  'x, y, z'
loop_
 _atom_site_type_symbol
 _atom_site_label
 _atom_site_symmetry_multiplicity
 _atom_site_fract_x
 _atom_site_fract_y
 _atom_site_fract_z
 _atom_site_occupancy
 _atom_site_charge
Eu  Eu1  1  0.98324000  0.61094000  0.45860000  1.0 2.0335169401
Eu  Eu2  1  0.61094000  0.98324000  0.04140000  1.0 2.0335169401
Eu  Eu3  1  0.01676000  0.38906000  0.54140000  1.0 2.0335169401
Eu  Eu4  1  0.38906000  0.01676000  0.95860000  1.0 2.0335169401
H  H1  1  0.64860000  0.53320000  0.54120000  1.0 0.1371359652
H  H2  1  0.53320000  0.64860000  0.95880000  1.0 0.1371359652
H  H3  1  0.35140000  0.46680000  0.45880000  1.0 0.1371359652
H  H4  1  0.46680000  0.35140000  0.04120000  1.0 0.1371359652
H  H5  1  0.54140000  0.56800000  0.58940000  1.0 0.1307233241
H  H6  1  0.56800000  0.54140000  0.91060000  1.0 0.1307233241
H  H7  1  0.45860000  0.43200000  0.41060000  1.0 0.1307233241
H  H8  1  0.43200000  0.45860000  0.08940000  1.0 0.1307233241
H  H9  1  0.81260000  0.87520000  0.64640000  1.0 0.1371359652
H  H10  1  0.87520000  0.81260000  0.85360000  1.0 0.1371359652
H  H11  1  0.18740000  0.12480000  0.35360000  1.0 0.1371359652
H  H12  1  0.12480000  0.18740000  0.14640000  1.0 0.1371359652
H  H13  1  0.91910000  0.83690000  0.60690000  1.0 0.1371359652
H  H14  1  0.83690000  0.91910000  0.89310000  1.0 0.1371359652
H  H15  1  0.08090000  0.16310000  0.39310000  1.0 0.1371359652
H  H16  1  0.16310000  0.08090000  0.10690000  1.0 0.1371359652
H  H17  1  0.65100000  0.83100000  0.66800000  1.0 0.095614971
H  H18  1  0.83100000  0.65100000  0.83200000  1.0 0.095614971
H  H19  1  0.34900000  0.16900000  0.33200000  1.0 0.095614971
H  H20  1  0.16900000  0.34900000  0.16800000  1.0 0.095614971
H  H21  1  0.31110000  0.62390000  0.55920000  1.0 0.1529864262
H  H22  1  0.62390000  0.31110000  0.94080000  1.0 0.1529864262
H  H23  1  0.68890000  0.37610000  0.44080000  1.0 0.1529864262
H  H24  1  0.37610000  0.68890000  0.05920000  1.0 0.1529864262
H  H25  1  0.54700000  0.83120000  0.76290000  1.0 0.1371359652
H  H26  1  0.83120000  0.54700000  0.73710000  1.0 0.1371359652
H  H27  1  0.45300000  0.16880000  0.23710000  1.0 0.1371359652
H  H28  1  0.16880000  0.45300000  0.26290000  1.0 0.1371359652
H  H29  1  0.29590000  0.82250000  0.69310000  1.0 0.1529864262
H  H30  1  0.82250000  0.29590000  0.80690000  1.0 0.1529864262
H  H31  1  0.70410000  0.17750000  0.30690000  1.0 0.1529864262
H  H32  1  0.17750000  0.70410000  0.19310000  1.0 0.1529864262
H  H33  1  0.20100000  0.94900000  0.15800000  1.0 0.3020330038
H  H34  1  0.94900000  0.20100000  0.34200000  1.0 0.3020330038
H  H35  1  0.79900000  0.05100000  0.84200000  1.0 0.3020330038
H  H36  1  0.05100000  0.79900000  0.65800000  1.0 0.3020330038
C  C1  1  0.86133000  0.65807000  0.53440000  1.0 0.5839889016
C  C2  1  0.65807000  0.86133000  0.96560000  1.0 0.5839889016
C  C3  1  0.13867000  0.34193000  0.46560000  1.0 0.5839889016
C  C4  1  0.34193000  0.13867000  0.03440000  1.0 0.5839889016
C  C5  1  0.79480000  0.68180000  0.56850000  1.0 -0.0261520777
C  C6  1  0.68180000  0.79480000  0.93150000  1.0 -0.0261520777
C  C7  1  0.20520000  0.31820000  0.43150000  1.0 -0.0261520777
C  C8  1  0.31820000  0.20520000  0.06850000  1.0 -0.0261520777
C  C9  1  0.68150000  0.60170000  0.56310000  1.0 -0.0809538696
C  C10  1  0.60170000  0.68150000  0.93690000  1.0 -0.0809538696
C  C11  1  0.31850000  0.39830000  0.43690000  1.0 -0.0809538696
C  C12  1  0.39830000  0.31850000  0.06310000  1.0 -0.0809538696
C  C13  1  0.61690000  0.62310000  0.58990000  1.0 -0.1215476176
C  C14  1  0.62310000  0.61690000  0.91010000  1.0 -0.1215476176
C  C15  1  0.38310000  0.37690000  0.41010000  1.0 -0.1215476176
C  C16  1  0.37690000  0.38310000  0.08990000  1.0 -0.1215476176
C  C17  1  0.66560000  0.72720000  0.61740000  1.0 0.095614971
C  C18  1  0.72720000  0.66560000  0.88260000  1.0 0.095614971
C  C19  1  0.33440000  0.27280000  0.38260000  1.0 0.095614971
C  C20  1  0.27280000  0.33440000  0.11740000  1.0 0.095614971
C  C21  1  0.77940000  0.80640000  0.62510000  1.0 -0.1215476176
C  C22  1  0.80640000  0.77940000  0.87490000  1.0 -0.1215476176
C  C23  1  0.22060000  0.19360000  0.37490000  1.0 -0.1215476176
C  C24  1  0.19360000  0.22060000  0.12510000  1.0 -0.1215476176
C  C25  1  0.84340000  0.78360000  0.60110000  1.0 -0.0809538696
C  C26  1  0.78360000  0.84340000  0.89890000  1.0 -0.0809538696
C  C27  1  0.15660000  0.21640000  0.39890000  1.0 -0.0809538696
C  C28  1  0.21640000  0.15660000  0.10110000  1.0 -0.0809538696
C  C29  1  0.60160000  0.75800000  0.63670000  1.0 0.0714208822
C  C30  1  0.75800000  0.60160000  0.86330000  1.0 0.0714208822
C  C31  1  0.39840000  0.24200000  0.36330000  1.0 0.0714208822
C  C32  1  0.24200000  0.39840000  0.13670000  1.0 0.0714208822
C  C33  1  0.18518000  0.67582000  0.55840000  1.0 0.6333289709
C  C34  1  0.67582000  0.18518000  0.94160000  1.0 0.6333289709
C  C35  1  0.81482000  0.32418000  0.44160000  1.0 0.6333289709
C  C36  1  0.32418000  0.81482000  0.05840000  1.0 0.6333289709
C  C37  1  0.28988000  0.71892000  0.61590000  1.0 -0.0013720678
C  C38  1  0.71892000  0.28988000  0.88410000  1.0 -0.0013720678
C  C39  1  0.71012000  0.28108000  0.38410000  1.0 -0.0013720678
C  C40  1  0.28108000  0.71012000  0.11590000  1.0 -0.0013720678
C  C41  1  0.34199000  0.67981000  0.60260000  1.0 -0.1594146524
C  C42  1  0.67981000  0.34199000  0.89740000  1.0 -0.1594146524
C  C43  1  0.65801000  0.32019000  0.39740000  1.0 -0.1594146524
C  C44  1  0.32019000  0.65801000  0.10260000  1.0 -0.1594146524
C  C45  1  0.44132000  0.72488000  0.65480000  1.0 0.2161721256
C  C46  1  0.72488000  0.44132000  0.84520000  1.0 0.2161721256
C  C47  1  0.55868000  0.27512000  0.34520000  1.0 0.2161721256
C  C48  1  0.27512000  0.55868000  0.15480000  1.0 0.2161721256
C  C49  1  0.48240000  0.80300000  0.72580000  1.0 -0.152769107
C  C50  1  0.80300000  0.48240000  0.77420000  1.0 -0.152769107
C  C51  1  0.51760000  0.19700000  0.27420000  1.0 -0.152769107
C  C52  1  0.19700000  0.51760000  0.22580000  1.0 -0.152769107
C  C53  1  0.42735000  0.83825000  0.74090000  1.0 0.0043308389
C  C54  1  0.83825000  0.42735000  0.75910000  1.0 0.0043308389
C  C55  1  0.57265000  0.16175000  0.25910000  1.0 0.0043308389
C  C56  1  0.16175000  0.57265000  0.24090000  1.0 0.0043308389
C  C57  1  0.33183000  0.79717000  0.68450000  1.0 -0.0809538696
C  C58  1  0.79717000  0.33183000  0.81550000  1.0 -0.0809538696
C  C59  1  0.66817000  0.20283000  0.31550000  1.0 -0.0809538696
C  C60  1  0.20283000  0.66817000  0.18450000  1.0 -0.0809538696
C  C61  1  0.46834000  0.92026000  0.81900000  1.0 0.6550654736
C  C62  1  0.92026000  0.46834000  0.68100000  1.0 0.6550654736
C  C63  1  0.53166000  0.07974000  0.18100000  1.0 0.6550654736
C  C64  1  0.07974000  0.53166000  0.31900000  1.0 0.6550654736
C  C65  1  0.09950000  0.80850000  0.24730000  1.0 0.5136158135
C  C66  1  0.80850000  0.09950000  0.25270000  1.0 0.5136158135
C  C67  1  0.90050000  0.19150000  0.75270000  1.0 0.5136158135
C  C68  1  0.19150000  0.90050000  0.74730000  1.0 0.5136158135
C  C69  1  0.14540000  0.89080000  0.37950000  1.0 0.4905001637
C  C70  1  0.89080000  0.14540000  0.12050000  1.0 0.4905001637
C  C71  1  0.85460000  0.10920000  0.62050000  1.0 0.4905001637
C  C72  1  0.10920000  0.85460000  0.87950000  1.0 0.4905001637
N  N1  1  0.49517000  0.68643000  0.63630000  1.0 -0.2739093337
N  N2  1  0.68643000  0.49517000  0.86370000  1.0 -0.2739093337
N  N3  1  0.50483000  0.31357000  0.36370000  1.0 -0.2739093337
N  N4  1  0.31357000  0.50483000  0.13630000  1.0 -0.2739093337
N  N5  1  0.08114000  0.79046000  0.34620000  1.0 -0.5899733637
N  N6  1  0.79046000  0.08114000  0.15380000  1.0 -0.5899733637
N  N7  1  0.91886000  0.20954000  0.65380000  1.0 -0.5899733637
N  N8  1  0.20954000  0.91886000  0.84620000  1.0 -0.5899733637
N  N9  1  0.17360000  0.91440000  0.22620000  1.0 -0.1715484593
N  N10  1  0.91440000  0.17360000  0.27380000  1.0 -0.1715484593
N  N11  1  0.82640000  0.08560000  0.77380000  1.0 -0.1715484593
N  N12  1  0.08560000  0.82640000  0.72620000  1.0 -0.1715484593
N  N13  1  0.20590000  0.97090000  0.31050000  1.0 -0.2871040139
N  N14  1  0.97090000  0.20590000  0.18950000  1.0 -0.2871040139
N  N15  1  0.79410000  0.02910000  0.68950000  1.0 -0.2871040139
N  N16  1  0.02910000  0.79410000  0.81050000  1.0 -0.2871040139
N  N17  1  0.04660000  0.73560000  0.17140000  1.0 -0.4193709154
N  N18  1  0.73560000  0.04660000  0.32860000  1.0 -0.4193709154
N  N19  1  0.95340000  0.26440000  0.82860000  1.0 -0.4193709154
N  N20  1  0.26440000  0.95340000  0.67140000  1.0 -0.4193709154
N  N21  1  0.15170000  0.92770000  0.46990000  1.0 -0.4030368585
N  N22  1  0.92770000  0.15170000  0.03010000  1.0 -0.4030368585
N  N23  1  0.84830000  0.07230000  0.53010000  1.0 -0.4030368585
N  N24  1  0.07230000  0.84830000  0.96990000  1.0 -0.4030368585
O  O1  1  0.96529000  0.73051000  0.54070000  1.0 -0.5899733637
O  O2  1  0.73051000  0.96529000  0.95930000  1.0 -0.5899733637
O  O3  1  0.03471000  0.26949000  0.45930000  1.0 -0.5899733637
O  O4  1  0.26949000  0.03471000  0.04070000  1.0 -0.5899733637
O  O5  1  0.81429000  0.56831000  0.49770000  1.0 -0.599728826
O  O6  1  0.56831000  0.81429000  0.00230000  1.0 -0.599728826
O  O7  1  0.18571000  0.43169000  0.50230000  1.0 -0.599728826
O  O8  1  0.43169000  0.18571000  0.99770000  1.0 -0.599728826
O  O9  1  0.12068000  0.57952000  0.53030000  1.0 -0.7128664885
O  O10  1  0.57952000  0.12068000  0.96970000  1.0 -0.7128664885
O  O11  1  0.87932000  0.42048000  0.46970000  1.0 -0.7128664885
O  O12  1  0.42048000  0.87932000  0.03030000  1.0 -0.7128664885
O  O13  1  0.16382000  0.73738000  0.54020000  1.0 -0.5533347163
O  O14  1  0.73738000  0.16382000  0.95980000  1.0 -0.5533347163
O  O15  1  0.83618000  0.26262000  0.45980000  1.0 -0.5533347163
O  O16  1  0.26262000  0.83618000  0.04020000  1.0 -0.5533347163
O  O17  1  0.55622000  0.95658000  0.86690000  1.0 -0.6351333294
O  O18  1  0.95658000  0.55622000  0.63310000  1.0 -0.6351333294
O  O19  1  0.44378000  0.04342000  0.13310000  1.0 -0.6351333294
O  O20  1  0.04342000  0.44378000  0.36690000  1.0 -0.6351333294
O  O21  1  0.41005000  0.94275000  0.83040000  1.0 -0.6187986765
O  O22  1  0.94275000  0.41005000  0.66960000  1.0 -0.6187986765
O  O23  1  0.58995000  0.05725000  0.16960000  1.0 -0.6187986765
O  O24  1  0.05725000  0.58995000  0.33040000  1.0 -0.6187986765
