# DDEC6 charges by PACMAN v1.1 (https://github.com/mtap-research/PACMAN-charge/)
data_CUWXAV_ASR_pacman
_symmetry_space_group_name_H-M   'P 1'
_cell_length_a   15.92330000
_cell_length_b   15.92330000
_cell_length_c   13.63900000
_cell_angle_alpha   81.73200000
_cell_angle_beta   98.26800000
_cell_angle_gamma   125.07000000
_symmetry_Int_Tables_number   1
_chemical_formula_structural   EuH14C19(NO4)2
_chemical_formula_sum   'Eu4 H56 C76 N8 O32'
_cell_volume   2792.93746686
_cell_formula_units_Z   4
loop_
 _symmetry_equiv_pos_site_id
 _symmetry_equiv_pos_as_xyz
  1  'x, y, z'
loop_
 _atom_site_type_symbol
 _atom_site_label
 _atom_site_symmetry_multiplicity
 _atom_site_fract_x
 _atom_site_fract_y
 _atom_site_fract_z
 _atom_site_occupancy
 _atom_site_charge
Eu  Eu1  1  0.47155000  0.10731000  0.96245000  1.0 2.1117124753
Eu  Eu2  1  0.10731000  0.47155000  0.53755000  1.0 2.1117124753
Eu  Eu3  1  0.52845000  0.89269000  0.03755000  1.0 2.1117124753
Eu  Eu4  1  0.89269000  0.52845000  0.46245000  1.0 2.1117124753
H  H1  1  0.37300000  0.31140000  0.09700000  1.0 0.1338035511
H  H2  1  0.31140000  0.37300000  0.40300000  1.0 0.1384189676
H  H3  1  0.62700000  0.68860000  0.90300000  1.0 0.1384189676
H  H4  1  0.68860000  0.62700000  0.59700000  1.0 0.1338035511
H  H5  1  0.26520000  0.34260000  0.15090000  1.0 0.1384189676
H  H6  1  0.34260000  0.26520000  0.34910000  1.0 0.1384189676
H  H7  1  0.73480000  0.65740000  0.84910000  1.0 0.1384189676
H  H8  1  0.65740000  0.73480000  0.65090000  1.0 0.1384189676
H  H9  1  0.02360000  0.04960000  0.10130000  1.0 0.1338035511
H  H10  1  0.04960000  0.02360000  0.39870000  1.0 0.1338035511
H  H11  1  0.97640000  0.95040000  0.89870000  1.0 0.1338035511
H  H12  1  0.95040000  0.97640000  0.60130000  1.0 0.1338035511
H  H13  1  0.13800000  0.02380000  0.04230000  1.0 0.1384189676
H  H14  1  0.02380000  0.13800000  0.45770000  1.0 0.1384189676
H  H15  1  0.86200000  0.97620000  0.95770000  1.0 0.1384189676
H  H16  1  0.97620000  0.86200000  0.54230000  1.0 0.1384189676
H  H17  1  0.75220000  0.29120000  0.22480000  1.0 0.1543104397
H  H18  1  0.29120000  0.75220000  0.27520000  1.0 0.1543104397
H  H19  1  0.24780000  0.70880000  0.77520000  1.0 0.1543104397
H  H20  1  0.70880000  0.24780000  0.72480000  1.0 0.1543104397
H  H21  1  0.00500000  0.28660000  0.29140000  1.0 0.1384189676
H  H22  1  0.28660000  0.00500000  0.20860000  1.0 0.1384189676
H  H23  1  0.99500000  0.71340000  0.70860000  1.0 0.1384189676
H  H24  1  0.71340000  0.99500000  0.79140000  1.0 0.1384189676
H  H25  1  0.78310000  0.10210000  0.09240000  1.0 0.1658000546
H  H26  1  0.10210000  0.78310000  0.40760000  1.0 0.1658000546
H  H27  1  0.21690000  0.89790000  0.90760000  1.0 0.1658000546
H  H28  1  0.89790000  0.21690000  0.59240000  1.0 0.1658000546
H  H29  1  0.16090000  0.96570000  0.56970000  1.0 0.1062846454
H  H30  1  0.96570000  0.16090000  0.93030000  1.0 0.1062846454
H  H31  1  0.83910000  0.03430000  0.43030000  1.0 0.1062846454
H  H32  1  0.03430000  0.83910000  0.06970000  1.0 0.1062846454
H  H33  1  0.25630000  0.04270000  0.50780000  1.0 0.0768479491
H  H34  1  0.04270000  0.25630000  0.99220000  1.0 0.0768479491
H  H35  1  0.74370000  0.95730000  0.49220000  1.0 0.0768479491
H  H36  1  0.95730000  0.74370000  0.00780000  1.0 0.0768479491
H  H37  1  0.22290000  0.92890000  0.53350000  1.0 0.0887984407
H  H38  1  0.92890000  0.22290000  0.96650000  1.0 0.0887984407
H  H39  1  0.77710000  0.07110000  0.46650000  1.0 0.0887984407
H  H40  1  0.07110000  0.77710000  0.03350000  1.0 0.0887984407
H  H41  1  0.08500000  0.28300000  0.09400000  1.0 0.0887984407
H  H42  1  0.28300000  0.08500000  0.40600000  1.0 0.0887984407
H  H43  1  0.91500000  0.71700000  0.90600000  1.0 0.0887984407
H  H44  1  0.71700000  0.91500000  0.59400000  1.0 0.0887984407
H  H45  1  0.23260000  0.90860000  0.55140000  1.0 0.0975763174
H  H46  1  0.90860000  0.23260000  0.94860000  1.0 0.0975763174
H  H47  1  0.76740000  0.09140000  0.44860000  1.0 0.0975763174
H  H48  1  0.09140000  0.76740000  0.05140000  1.0 0.0975763174
H  H49  1  0.34980000  0.95660000  0.58000000  1.0 0.0975763174
H  H50  1  0.95660000  0.34980000  0.92000000  1.0 0.0975763174
H  H51  1  0.65020000  0.04340000  0.42000000  1.0 0.0975763174
H  H52  1  0.04340000  0.65020000  0.08000000  1.0 0.0975763174
H  H53  1  0.26810000  0.87670000  0.65470000  1.0 0.0887984407
H  H54  1  0.87670000  0.26810000  0.84530000  1.0 0.0887984407
H  H55  1  0.73190000  0.12330000  0.34530000  1.0 0.0887984407
H  H56  1  0.12330000  0.73190000  0.15470000  1.0 0.0887984407
C  C1  1  0.33620000  0.14600000  0.02530000  1.0 0.5513983416
C  C2  1  0.14600000  0.33620000  0.47470000  1.0 0.5513983416
C  C3  1  0.66380000  0.85400000  0.97470000  1.0 0.5513983416
C  C4  1  0.85400000  0.66380000  0.52530000  1.0 0.5513983416
C  C5  1  0.26440000  0.16300000  0.06330000  1.0 -0.0200198758
C  C6  1  0.16300000  0.26440000  0.43670000  1.0 -0.0200198758
C  C7  1  0.73560000  0.83700000  0.93670000  1.0 -0.0200198758
C  C8  1  0.83700000  0.73560000  0.56330000  1.0 -0.0200198758
C  C9  1  0.30300000  0.26000000  0.09670000  1.0 -0.0863534413
C  C10  1  0.26000000  0.30300000  0.40330000  1.0 -0.0833077309
C  C11  1  0.69700000  0.74000000  0.90330000  1.0 -0.0863534413
C  C12  1  0.74000000  0.69700000  0.59670000  1.0 -0.0863534413
C  C13  1  0.23880000  0.27880000  0.12840000  1.0 -0.1475033452
C  C14  1  0.27880000  0.23880000  0.37160000  1.0 -0.1475033452
C  C15  1  0.76120000  0.72120000  0.87160000  1.0 -0.1475033452
C  C16  1  0.72120000  0.76120000  0.62840000  1.0 -0.1475033452
C  C17  1  0.13110000  0.20130000  0.12730000  1.0 0.0768479491
C  C18  1  0.20130000  0.13110000  0.37270000  1.0 0.0768479491
C  C19  1  0.86890000  0.79870000  0.87270000  1.0 0.0768479491
C  C20  1  0.79870000  0.86890000  0.62730000  1.0 0.0768479491
C  C21  1  0.09280000  0.10280000  0.09820000  1.0 -0.1088467137
C  C22  1  0.10280000  0.09280000  0.40180000  1.0 -0.1088467137
C  C23  1  0.90720000  0.89720000  0.90180000  1.0 -0.1088467137
C  C24  1  0.89720000  0.90720000  0.59820000  1.0 -0.1088467137
C  C25  1  0.16260000  0.08720000  0.06430000  1.0 -0.0833077309
C  C26  1  0.08720000  0.16260000  0.43570000  1.0 -0.0833077309
C  C27  1  0.83740000  0.91280000  0.93570000  1.0 -0.0833077309
C  C28  1  0.91280000  0.83740000  0.56430000  1.0 -0.0833077309
C  C29  1  0.06670000  0.23190000  0.15450000  1.0 0.0534688579
C  C30  1  0.23190000  0.06670000  0.34550000  1.0 0.0534688579
C  C31  1  0.93330000  0.76810000  0.84550000  1.0 0.0534688579
C  C32  1  0.76810000  0.93330000  0.65450000  1.0 0.0534688579
C  C33  1  0.65230000  0.15410000  0.09180000  1.0 0.6115317988
C  C34  1  0.15410000  0.65230000  0.40820000  1.0 0.6115317988
C  C35  1  0.34770000  0.84590000  0.90820000  1.0 0.6115317988
C  C36  1  0.84590000  0.34770000  0.59180000  1.0 0.6115317988
C  C37  1  0.75250000  0.19230000  0.14940000  1.0 -0.0102618291
C  C38  1  0.19230000  0.75250000  0.35060000  1.0 -0.0102618291
C  C39  1  0.24750000  0.80770000  0.85060000  1.0 -0.0102618291
C  C40  1  0.80770000  0.24750000  0.64940000  1.0 -0.0102618291
C  C41  1  0.79020000  0.26580000  0.21550000  1.0 -0.1010849913
C  C42  1  0.26580000  0.79020000  0.28450000  1.0 -0.1010849913
C  C43  1  0.20980000  0.73420000  0.78450000  1.0 -0.1010849913
C  C44  1  0.73420000  0.20980000  0.71550000  1.0 -0.1010849913
C  C45  1  0.88420000  0.30220000  0.26840000  1.0 -0.0102618291
C  C46  1  0.30220000  0.88420000  0.23160000  1.0 -0.0102618291
C  C47  1  0.11580000  0.69780000  0.73160000  1.0 -0.0102618291
C  C48  1  0.69780000  0.11580000  0.76840000  1.0 -0.0102618291
C  C49  1  0.94290000  0.26410000  0.25440000  1.0 -0.1382885063
C  C50  1  0.26410000  0.94290000  0.24560000  1.0 -0.1382885063
C  C51  1  0.05710000  0.73590000  0.74560000  1.0 -0.1382885063
C  C52  1  0.73590000  0.05710000  0.75440000  1.0 -0.1382885063
C  C53  1  0.90550000  0.19190000  0.18340000  1.0 0.1770765679
C  C54  1  0.19190000  0.90550000  0.31660000  1.0 0.1770765679
C  C55  1  0.09450000  0.80810000  0.81660000  1.0 0.1770765679
C  C56  1  0.80810000  0.09450000  0.68340000  1.0 0.1770765679
C  C57  1  0.81010000  0.15390000  0.13520000  1.0 -0.1195115381
C  C58  1  0.15390000  0.81010000  0.36480000  1.0 -0.1195115381
C  C59  1  0.18990000  0.84610000  0.86480000  1.0 -0.1195115381
C  C60  1  0.84610000  0.18990000  0.63520000  1.0 -0.1195115381
C  C61  1  0.92630000  0.38130000  0.34030000  1.0 0.6255087452
C  C62  1  0.38130000  0.92630000  0.15970000  1.0 0.6255087452
C  C63  1  0.07370000  0.61870000  0.65970000  1.0 0.6255087452
C  C64  1  0.61870000  0.07370000  0.84030000  1.0 0.6255087452
C  C65  1  0.37520000  0.03880000  0.72700000  1.0 0.7329152124
C  C66  1  0.03880000  0.37520000  0.77300000  1.0 0.7329152124
C  C67  1  0.62480000  0.96120000  0.27300000  1.0 0.7329152124
C  C68  1  0.96120000  0.62480000  0.22700000  1.0 0.7329152124
C  C69  1  0.22820000  0.98580000  0.55700000  1.0 -0.1753044976
C  C70  1  0.98580000  0.22820000  0.94300000  1.0 -0.1744105833
C  C71  1  0.77180000  0.01420000  0.44300000  1.0 -0.1744105833
C  C72  1  0.01420000  0.77180000  0.05700000  1.0 -0.1744105833
C  C73  1  0.28560000  0.93240000  0.60500000  1.0 -0.1744105833
C  C74  1  0.93240000  0.28560000  0.89500000  1.0 -0.1744105833
C  C75  1  0.71440000  0.06760000  0.39500000  1.0 -0.1744105833
C  C76  1  0.06760000  0.71440000  0.10500000  1.0 -0.1744105833
N  N1  1  0.96450000  0.15830000  0.16070000  1.0 -0.2697126372
N  N2  1  0.15830000  0.96450000  0.33930000  1.0 -0.2697126372
N  N3  1  0.03550000  0.84170000  0.83930000  1.0 -0.2697126372
N  N4  1  0.84170000  0.03550000  0.66070000  1.0 -0.2697126372
N  N5  1  0.29440000  0.01560000  0.64800000  1.0 -0.1382885063
N  N6  1  0.01560000  0.29440000  0.85200000  1.0 -0.1382885063
N  N7  1  0.70560000  0.98440000  0.35200000  1.0 -0.1382885063
N  N8  1  0.98440000  0.70560000  0.14800000  1.0 -0.1382885063
O  O1  1  0.43190000  0.20670000  0.04610000  1.0 -0.5917417807
O  O2  1  0.20670000  0.43190000  0.45390000  1.0 -0.5917417807
O  O3  1  0.56810000  0.79330000  0.95390000  1.0 -0.5917417807
O  O4  1  0.79330000  0.56810000  0.54610000  1.0 -0.5917417807
O  O5  1  0.30040000  0.07220000  0.97340000  1.0 -0.5230062408
O  O6  1  0.07220000  0.30040000  0.52660000  1.0 -0.5230062408
O  O7  1  0.69960000  0.92780000  0.02660000  1.0 -0.5230062408
O  O8  1  0.92780000  0.69960000  0.47340000  1.0 -0.5230062408
O  O9  1  0.61989000  0.21091000  0.07550000  1.0 -0.5723651154
O  O10  1  0.21091000  0.61989000  0.42450000  1.0 -0.5723651154
O  O11  1  0.38011000  0.78909000  0.92450000  1.0 -0.5723651154
O  O12  1  0.78909000  0.38011000  0.57550000  1.0 -0.5723651154
O  O13  1  0.60270000  0.06790000  0.05640000  1.0 -0.6938511533
O  O14  1  0.06790000  0.60270000  0.44360000  1.0 -0.6938511533
O  O15  1  0.39730000  0.93210000  0.94360000  1.0 -0.6938511533
O  O16  1  0.93210000  0.39730000  0.55640000  1.0 -0.6938511533
O  O17  1  0.01460000  0.41280000  0.38270000  1.0 -0.6464201314
O  O18  1  0.41280000  0.01460000  0.11730000  1.0 -0.6464201314
O  O19  1  0.98540000  0.58720000  0.61730000  1.0 -0.6464201314
O  O20  1  0.58720000  0.98540000  0.88270000  1.0 -0.6464201314
O  O21  1  0.87360000  0.41300000  0.35400000  1.0 -0.5838122023
O  O22  1  0.41300000  0.87360000  0.14600000  1.0 -0.5838122023
O  O23  1  0.12640000  0.58700000  0.64600000  1.0 -0.5838122023
O  O24  1  0.58700000  0.12640000  0.85400000  1.0 -0.5838122023
O  O25  1  0.38040000  0.08960000  0.79200000  1.0 -0.667544703
O  O26  1  0.08960000  0.38040000  0.70800000  1.0 -0.6602083845
O  O27  1  0.61960000  0.91040000  0.20800000  1.0 -0.667544703
O  O28  1  0.91040000  0.61960000  0.29200000  1.0 -0.667544703
O  O29  1  0.39470000  0.09530000  0.79720000  1.0 -0.7317912979
O  O30  1  0.09530000  0.39470000  0.70280000  1.0 -0.7317912979
O  O31  1  0.60530000  0.90470000  0.20280000  1.0 -0.7317912979
O  O32  1  0.90470000  0.60530000  0.29720000  1.0 -0.7317912979
