# DDEC6 charges by PACMAN v1.1 (https://github.com/mtap-research/PACMAN-charge/)
data_CUWXOJ_ASR_pacman
_symmetry_space_group_name_H-M   'P 1'
_cell_length_a   16.20650000
_cell_length_b   16.20650000
_cell_length_c   13.82850000
_cell_angle_alpha   85.19250000
_cell_angle_beta   94.80750000
_cell_angle_gamma   132.82600000
_symmetry_Int_Tables_number   1
_chemical_formula_structural   EuH14C20(NO2)3
_chemical_formula_sum   'Eu4 H56 C80 N12 O24'
_cell_volume   2652.67203631
_cell_formula_units_Z   4
loop_
 _symmetry_equiv_pos_site_id
 _symmetry_equiv_pos_as_xyz
  1  'x, y, z'
loop_
 _atom_site_type_symbol
 _atom_site_label
 _atom_site_symmetry_multiplicity
 _atom_site_fract_x
 _atom_site_fract_y
 _atom_site_fract_z
 _atom_site_occupancy
 _atom_site_charge
Eu  Eu1  1  0.88556000  0.51432000  0.96345000  1.0 2.0025287258
Eu  Eu2  1  0.51432000  0.88556000  0.53655000  1.0 2.0025287258
Eu  Eu3  1  0.11444000  0.48568000  0.03655000  1.0 2.0025287258
Eu  Eu4  1  0.48568000  0.11444000  0.46345000  1.0 2.0025287258
H  H1  1  0.85910000  0.98210000  0.42890000  1.0 0.128947703
H  H2  1  0.98210000  0.85910000  0.07110000  1.0 0.128947703
H  H3  1  0.14090000  0.01790000  0.57110000  1.0 0.128947703
H  H4  1  0.01790000  0.14090000  0.92890000  1.0 0.128947703
H  H5  1  0.96530000  0.94330000  0.38930000  1.0 0.1194983148
H  H6  1  0.94330000  0.96530000  0.11070000  1.0 0.1194983148
H  H7  1  0.03470000  0.05670000  0.61070000  1.0 0.1194983148
H  H8  1  0.05670000  0.03470000  0.88930000  1.0 0.1194983148
H  H9  1  0.58160000  0.65340000  0.42720000  1.0 0.1194983148
H  H10  1  0.65340000  0.58160000  0.07280000  1.0 0.1194983148
H  H11  1  0.41840000  0.34660000  0.57280000  1.0 0.1194983148
H  H12  1  0.34660000  0.41840000  0.92720000  1.0 0.1194983148
H  H13  1  0.68660000  0.61440000  0.38540000  1.0 0.1194983148
H  H14  1  0.61440000  0.68660000  0.11460000  1.0 0.1194983148
H  H15  1  0.31340000  0.38560000  0.61460000  1.0 0.1194983148
H  H16  1  0.38560000  0.31340000  0.88540000  1.0 0.1194983148
H  H17  1  0.18750000  0.65670000  0.31880000  1.0 0.128947703
H  H18  1  0.65670000  0.18750000  0.18120000  1.0 0.128947703
H  H19  1  0.81250000  0.34330000  0.68120000  1.0 0.1194983148
H  H20  1  0.34330000  0.81250000  0.81880000  1.0 0.128947703
H  H21  1  0.95350000  0.66830000  0.23050000  1.0 0.1194983148
H  H22  1  0.66830000  0.95350000  0.26950000  1.0 0.1194983148
H  H23  1  0.04650000  0.33170000  0.76950000  1.0 0.1194983148
H  H24  1  0.33170000  0.04650000  0.73050000  1.0 0.1194983148
H  H25  1  0.18900000  0.87820000  0.43310000  1.0 0.1422820228
H  H26  1  0.87820000  0.18900000  0.06690000  1.0 0.1422820228
H  H27  1  0.81100000  0.12180000  0.56690000  1.0 0.1422820228
H  H28  1  0.12180000  0.81100000  0.93310000  1.0 0.1422820228
H  H29  1  0.69750000  0.27490000  0.82690000  1.0 0.1194983148
H  H30  1  0.27490000  0.69750000  0.67310000  1.0 0.1194983148
H  H31  1  0.30250000  0.72510000  0.17310000  1.0 0.1194983148
H  H32  1  0.72510000  0.30250000  0.32690000  1.0 0.1194983148
H  H33  1  0.49630000  0.31690000  0.71560000  1.0 0.128947703
H  H34  1  0.31690000  0.49630000  0.78440000  1.0 0.128947703
H  H35  1  0.50370000  0.68310000  0.28440000  1.0 0.128947703
H  H36  1  0.68310000  0.50370000  0.21560000  1.0 0.128947703
H  H37  1  0.69520000  0.54600000  0.89120000  1.0 0.128947703
H  H38  1  0.54600000  0.69520000  0.60880000  1.0 0.128947703
H  H39  1  0.30480000  0.45400000  0.10880000  1.0 0.128947703
H  H40  1  0.45400000  0.30480000  0.39120000  1.0 0.128947703
H  H41  1  0.65030000  0.54750000  0.78670000  1.0 0.1422820228
H  H42  1  0.54750000  0.65030000  0.71330000  1.0 0.1422820228
H  H43  1  0.34970000  0.45250000  0.21330000  1.0 0.1422820228
H  H44  1  0.45250000  0.34970000  0.28670000  1.0 0.1422820228
H  H45  1  0.56550000  0.46970000  0.86950000  1.0 0.128947703
H  H46  1  0.46970000  0.56550000  0.63050000  1.0 0.128947703
H  H47  1  0.43450000  0.53030000  0.13050000  1.0 0.128947703
H  H48  1  0.53030000  0.43450000  0.36950000  1.0 0.128947703
H  H49  1  0.85770000  0.66430000  0.35500000  1.0 0.078556108
H  H50  1  0.66430000  0.85770000  0.14500000  1.0 0.078556108
H  H51  1  0.14230000  0.33570000  0.64500000  1.0 0.078556108
H  H52  1  0.33570000  0.14230000  0.85500000  1.0 0.078556108
H  H53  1  0.54420000  0.19780000  0.71000000  1.0 0.2927209127
H  H54  1  0.19780000  0.54420000  0.79000000  1.0 0.2927209127
H  H55  1  0.45580000  0.80220000  0.29000000  1.0 0.2927209127
H  H56  1  0.80220000  0.45580000  0.21000000  1.0 0.2927209127
C  C1  1  0.64216000  0.84744000  0.46090000  1.0 0.5519512283
C  C2  1  0.84744000  0.64216000  0.03910000  1.0 0.5519512283
C  C3  1  0.35784000  0.15256000  0.53910000  1.0 0.5519512283
C  C4  1  0.15256000  0.35784000  0.96090000  1.0 0.5519512283
C  C5  1  0.70920000  0.82220000  0.43160000  1.0 -0.030890772
C  C6  1  0.82220000  0.70920000  0.06840000  1.0 -0.030890772
C  C7  1  0.29080000  0.17780000  0.56840000  1.0 -0.030890772
C  C8  1  0.17780000  0.29080000  0.93160000  1.0 -0.030890772
C  C9  1  0.82425000  0.90795000  0.42030000  1.0 -0.0947503758
C  C10  1  0.90795000  0.82425000  0.07970000  1.0 -0.0947503758
C  C11  1  0.17575000  0.09205000  0.57970000  1.0 -0.0947503758
C  C12  1  0.09205000  0.17575000  0.92030000  1.0 -0.0947503758
C  C13  1  0.88804000  0.88496000  0.39640000  1.0 -0.1262355459
C  C14  1  0.88496000  0.88804000  0.10360000  1.0 -0.1262355459
C  C15  1  0.11196000  0.11504000  0.60360000  1.0 -0.1262355459
C  C16  1  0.11504000  0.11196000  0.89640000  1.0 -0.1262355459
C  C17  1  0.65852000  0.71188000  0.41900000  1.0 -0.1064953667
C  C18  1  0.71188000  0.65852000  0.08100000  1.0 -0.1064953667
C  C19  1  0.34148000  0.28812000  0.58100000  1.0 -0.1064953667
C  C20  1  0.28812000  0.34148000  0.91900000  1.0 -0.1064953667
C  C21  1  0.83652000  0.77448000  0.38300000  1.0 0.078556108
C  C22  1  0.77448000  0.83652000  0.11700000  1.0 0.078556108
C  C23  1  0.16348000  0.22552000  0.61700000  1.0 0.078556108
C  C24  1  0.22552000  0.16348000  0.88300000  1.0 0.078556108
C  C25  1  0.72160000  0.68840000  0.39440000  1.0 -0.1546621633
C  C26  1  0.68840000  0.72160000  0.10560000  1.0 -0.1546621633
C  C27  1  0.27840000  0.31160000  0.60560000  1.0 -0.1546621633
C  C28  1  0.31160000  0.27840000  0.89440000  1.0 -0.1546621633
C  C29  1  0.90182000  0.74558000  0.36240000  1.0 0.0590194004
C  C30  1  0.74558000  0.90182000  0.13760000  1.0 0.0590194004
C  C31  1  0.09818000  0.25442000  0.63760000  1.0 0.0590194004
C  C32  1  0.25442000  0.09818000  0.86240000  1.0 0.0590194004
C  C33  1  0.30645000  0.81795000  0.44500000  1.0 0.6191906321
C  C34  1  0.81795000  0.30645000  0.05500000  1.0 0.6191906321
C  C35  1  0.69355000  0.18205000  0.55500000  1.0 0.6191906321
C  C36  1  0.18205000  0.69355000  0.94500000  1.0 0.6191906321
C  C37  1  0.20445000  0.77495000  0.38480000  1.0 -0.0120053876
C  C38  1  0.77495000  0.20445000  0.11520000  1.0 -0.0120053876
C  C39  1  0.79555000  0.22505000  0.61520000  1.0 -0.0120053876
C  C40  1  0.22505000  0.79555000  0.88480000  1.0 -0.0120053876
C  C41  1  0.15763000  0.68917000  0.32100000  1.0 -0.1388906141
C  C42  1  0.68917000  0.15763000  0.17900000  1.0 -0.1388906141
C  C43  1  0.84237000  0.31083000  0.67900000  1.0 -0.1388906141
C  C44  1  0.31083000  0.84237000  0.82100000  1.0 -0.1388906141
C  C45  1  0.06605000  0.65255000  0.26060000  1.0 -0.0193607449
C  C46  1  0.65255000  0.06605000  0.23940000  1.0 -0.0193607449
C  C47  1  0.93395000  0.34745000  0.73940000  1.0 -0.0193607449
C  C48  1  0.34745000  0.93395000  0.76060000  1.0 -0.0193607449
C  C49  1  0.01614000  0.69446000  0.26970000  1.0 -0.1794441206
C  C50  1  0.69446000  0.01614000  0.23030000  1.0 -0.1794441206
C  C51  1  0.98386000  0.30554000  0.73030000  1.0 -0.1794441206
C  C52  1  0.30554000  0.98386000  0.76970000  1.0 -0.1794441206
C  C53  1  0.05924000  0.77576000  0.33730000  1.0 0.2066712665
C  C54  1  0.77576000  0.05924000  0.16270000  1.0 0.2066712665
C  C55  1  0.94076000  0.22424000  0.66270000  1.0 0.2066712665
C  C56  1  0.22424000  0.94076000  0.83730000  1.0 0.2066712665
C  C57  1  0.15635000  0.81945000  0.39200000  1.0 -0.1724507374
C  C58  1  0.81945000  0.15635000  0.10800000  1.0 -0.1724507374
C  C59  1  0.84365000  0.18055000  0.60800000  1.0 -0.1724507374
C  C60  1  0.18055000  0.84365000  0.89200000  1.0 -0.1724507374
C  C61  1  0.02541000  0.57079000  0.18250000  1.0 0.6400714802
C  C62  1  0.57079000  0.02541000  0.31750000  1.0 0.6400714802
C  C63  1  0.97459000  0.42921000  0.81750000  1.0 0.6400714802
C  C64  1  0.42921000  0.97459000  0.68250000  1.0 0.6400714802
C  C65  1  0.66410000  0.30410000  0.81450000  1.0 0.1770383182
C  C66  1  0.30410000  0.66410000  0.68550000  1.0 0.1770383182
C  C67  1  0.33590000  0.69590000  0.18550000  1.0 0.1770383182
C  C68  1  0.69590000  0.33590000  0.31450000  1.0 0.1770383182
C  C69  1  0.55300000  0.32660000  0.75220000  1.0 -0.1388906141
C  C70  1  0.32660000  0.55300000  0.74780000  1.0 -0.1388906141
C  C71  1  0.44700000  0.67340000  0.24780000  1.0 -0.1388906141
C  C72  1  0.67340000  0.44700000  0.25220000  1.0 -0.1388906141
C  C73  1  0.62680000  0.40820000  0.81660000  1.0 0.2306586194
C  C74  1  0.40820000  0.62680000  0.68340000  1.0 0.2306586194
C  C75  1  0.37320000  0.59180000  0.18340000  1.0 0.2306586194
C  C76  1  0.59180000  0.37320000  0.31660000  1.0 0.2306586194
C  C77  1  0.63521000  0.50119000  0.84340000  1.0 -0.4650606227
C  C78  1  0.50119000  0.63521000  0.65660000  1.0 -0.4650606227
C  C79  1  0.36479000  0.49881000  0.15660000  1.0 -0.4650606227
C  C80  1  0.49881000  0.36479000  0.34340000  1.0 -0.4650606227
N  N1  1  0.00718000  0.81742000  0.35360000  1.0 -0.2681958166
N  N2  1  0.81742000  0.00718000  0.14640000  1.0 -0.2681958166
N  N3  1  0.99282000  0.18258000  0.64640000  1.0 -0.2681958166
N  N4  1  0.18258000  0.99282000  0.85360000  1.0 -0.2681958166
N  N5  1  0.69728000  0.39272000  0.85770000  1.0 -0.4782077012
N  N6  1  0.39272000  0.69728000  0.64230000  1.0 -0.4782077012
N  N7  1  0.30272000  0.60728000  0.14230000  1.0 -0.4782077012
N  N8  1  0.60728000  0.30272000  0.35770000  1.0 -0.4782077012
N  N9  1  0.57797000  0.26103000  0.75150000  1.0 -0.1961936442
N  N10  1  0.26103000  0.57797000  0.74850000  1.0 -0.1961936442
N  N11  1  0.42203000  0.73897000  0.24850000  1.0 -0.1961936442
N  N12  1  0.73897000  0.42203000  0.25150000  1.0 -0.1961936442
O  O1  1  0.53595000  0.76865000  0.46340000  1.0 -0.6270325196
O  O2  1  0.76865000  0.53595000  0.03660000  1.0 -0.6270325196
O  O3  1  0.46405000  0.23135000  0.53660000  1.0 -0.6270325196
O  O4  1  0.23135000  0.46405000  0.96340000  1.0 -0.6270325196
O  O5  1  0.69198000  0.94602000  0.48350000  1.0 -0.6211804313
O  O6  1  0.94602000  0.69198000  0.01650000  1.0 -0.6211804313
O  O7  1  0.30802000  0.05398000  0.51650000  1.0 -0.6211804313
O  O8  1  0.05398000  0.30802000  0.98350000  1.0 -0.6211804313
O  O9  1  0.37315000  0.91765000  0.47460000  1.0 -0.7211099577
O  O10  1  0.91765000  0.37315000  0.02540000  1.0 -0.7211099577
O  O11  1  0.62685000  0.08235000  0.52540000  1.0 -0.7211099577
O  O12  1  0.08235000  0.62685000  0.97460000  1.0 -0.7211099577
O  O13  1  0.32513000  0.75527000  0.46480000  1.0 -0.5944010032
O  O14  1  0.75527000  0.32513000  0.03520000  1.0 -0.5944010032
O  O15  1  0.67487000  0.24473000  0.53520000  1.0 -0.5944010032
O  O16  1  0.24473000  0.67487000  0.96480000  1.0 -0.5944010032
O  O17  1  0.08524000  0.55156000  0.16670000  1.0 -0.6430324925
O  O18  1  0.55156000  0.08524000  0.33333333  1.0 -0.6430324925
O  O19  1  0.91476000  0.44844000  0.83330000  1.0 -0.6430324925
O  O20  1  0.44844000  0.91476000  0.66666667  1.0 -0.6430324925
O  O21  1  0.93254000  0.52826000  0.13760000  1.0 -0.6729039562
O  O22  1  0.52826000  0.93254000  0.36240000  1.0 -0.6729039562
O  O23  1  0.06746000  0.47174000  0.86240000  1.0 -0.6729039562
O  O24  1  0.47174000  0.06746000  0.63760000  1.0 -0.6729039562
