# DDEC6 charges by PACMAN v1.1 (https://github.com/mtap-research/PACMAN-charge/)
data_CUWYUQ_FSR_pacman
_symmetry_space_group_name_H-M   'P 1'
_cell_length_a   16.21180000
_cell_length_b   16.21180000
_cell_length_c   13.78930000
_cell_angle_alpha   85.23670000
_cell_angle_beta   94.76330000
_cell_angle_gamma   133.52300000
_symmetry_Int_Tables_number   1
_chemical_formula_structural   EuH11C19N3O7
_chemical_formula_sum   'Eu4 H44 C76 N12 O28'
_cell_volume   2617.10217220
_cell_formula_units_Z   4
loop_
 _symmetry_equiv_pos_site_id
 _symmetry_equiv_pos_as_xyz
  1  'x, y, z'
loop_
 _atom_site_type_symbol
 _atom_site_label
 _atom_site_symmetry_multiplicity
 _atom_site_fract_x
 _atom_site_fract_y
 _atom_site_fract_z
 _atom_site_occupancy
 _atom_site_charge
Eu  Eu1  1  0.11397000  0.48713000  0.03791000  1.0 1.9972567649
Eu  Eu2  1  0.48713000  0.11397000  0.46209000  1.0 1.9972567649
Eu  Eu3  1  0.88603000  0.51287000  0.96209000  1.0 1.9972567649
Eu  Eu4  1  0.51287000  0.88603000  0.53791000  1.0 1.9972567649
H  H1  1  0.35790000  0.42870000  0.93690000  1.0 0.1327675672
H  H2  1  0.42870000  0.35790000  0.56310000  1.0 0.1327675672
H  H3  1  0.64210000  0.57130000  0.06310000  1.0 0.1327675672
H  H4  1  0.57130000  0.64210000  0.43690000  1.0 0.1327675672
H  H5  1  0.39560000  0.32300000  0.89140000  1.0 0.1366722774
H  H6  1  0.32300000  0.39560000  0.60860000  1.0 0.1366722774
H  H7  1  0.60440000  0.67700000  0.10860000  1.0 0.1366722774
H  H8  1  0.67700000  0.60440000  0.39140000  1.0 0.1366722774
H  H9  1  0.06450000  0.04570000  0.87380000  1.0 0.1327675672
H  H10  1  0.04570000  0.06450000  0.62620000  1.0 0.1327675672
H  H11  1  0.93550000  0.95430000  0.12620000  1.0 0.1327675672
H  H12  1  0.95430000  0.93550000  0.37380000  1.0 0.1327675672
H  H13  1  0.02280000  0.14920000  0.91850000  1.0 0.1366722774
H  H14  1  0.14920000  0.02280000  0.58150000  1.0 0.1366722774
H  H15  1  0.97720000  0.85080000  0.08150000  1.0 0.1366722774
H  H16  1  0.85080000  0.97720000  0.41850000  1.0 0.1366722774
H  H17  1  0.34800000  0.15800000  0.84600000  1.0 0.0935205163
H  H18  1  0.15800000  0.34800000  0.65400000  1.0 0.0935205163
H  H19  1  0.65200000  0.84200000  0.15400000  1.0 0.0935205163
H  H20  1  0.84200000  0.65200000  0.34600000  1.0 0.0935205163
H  H21  1  0.13030000  0.81950000  0.94030000  1.0 0.1528635339
H  H22  1  0.81950000  0.13030000  0.55970000  1.0 0.1528635339
H  H23  1  0.86970000  0.18050000  0.05970000  1.0 0.1528635339
H  H24  1  0.18050000  0.86970000  0.44030000  1.0 0.1528635339
H  H25  1  0.34020000  0.05620000  0.73580000  1.0 0.1327675672
H  H26  1  0.05620000  0.34020000  0.76420000  1.0 0.1327675672
H  H27  1  0.65980000  0.94380000  0.26420000  1.0 0.1327675672
H  H28  1  0.94380000  0.65980000  0.23580000  1.0 0.1327675672
H  H29  1  0.34190000  0.81270000  0.81660000  1.0 0.1366722774
H  H30  1  0.81270000  0.34190000  0.68340000  1.0 0.1366722774
H  H31  1  0.65810000  0.18730000  0.18340000  1.0 0.1366722774
H  H32  1  0.18730000  0.65810000  0.31660000  1.0 0.1366722774
H  H33  1  0.34970000  0.52350000  0.16220000  1.0 0.1163883505
H  H34  1  0.52350000  0.34970000  0.33780000  1.0 0.1163883505
H  H35  1  0.65030000  0.47650000  0.83780000  1.0 0.1163883505
H  H36  1  0.47650000  0.65030000  0.66220000  1.0 0.1163883505
H  H37  1  0.47990000  0.65610000  0.29300000  1.0 0.1071871908
H  H38  1  0.65610000  0.47990000  0.20700000  1.0 0.1071871908
H  H39  1  0.52010000  0.34390000  0.70700000  1.0 0.1071871908
H  H40  1  0.34390000  0.52010000  0.79300000  1.0 0.1071871908
H  H41  1  0.32140000  0.74340000  0.17170000  1.0 0.1163883505
H  H42  1  0.74340000  0.32140000  0.32830000  1.0 0.1163883505
H  H43  1  0.67860000  0.25660000  0.82830000  1.0 0.1163883505
H  H44  1  0.25660000  0.67860000  0.67170000  1.0 0.1163883505
C  C1  1  0.15860000  0.36500000  0.96290000  1.0 0.544801125
C  C2  1  0.36500000  0.15860000  0.53710000  1.0 0.544801125
C  C3  1  0.84140000  0.63500000  0.03710000  1.0 0.544801125
C  C4  1  0.63500000  0.84140000  0.46290000  1.0 0.544801125
C  C5  1  0.18500000  0.29860000  0.93170000  1.0 -0.0021955346
C  C6  1  0.29860000  0.18500000  0.56830000  1.0 -0.0021955346
C  C7  1  0.81500000  0.70140000  0.06830000  1.0 -0.0021955346
C  C8  1  0.70140000  0.81500000  0.43170000  1.0 -0.0021955346
C  C9  1  0.29850000  0.35190000  0.92450000  1.0 -0.0846171521
C  C10  1  0.35190000  0.29850000  0.57550000  1.0 -0.0846171521
C  C11  1  0.70150000  0.64810000  0.07550000  1.0 -0.0846171521
C  C12  1  0.64810000  0.70150000  0.42450000  1.0 -0.0846171521
C  C13  1  0.32080000  0.28780000  0.89840000  1.0 -0.1408164355
C  C14  1  0.28780000  0.32080000  0.60160000  1.0 -0.1408164355
C  C15  1  0.67920000  0.71220000  0.10160000  1.0 -0.1408164355
C  C16  1  0.71220000  0.67920000  0.39840000  1.0 -0.1408164355
C  C17  1  0.23390000  0.17370000  0.88300000  1.0 0.0772888117
C  C18  1  0.17370000  0.23390000  0.61700000  1.0 0.0772888117
C  C19  1  0.76610000  0.82630000  0.11700000  1.0 0.0772888117
C  C20  1  0.82630000  0.76610000  0.38300000  1.0 0.0772888117
C  C21  1  0.12320000  0.12220000  0.88770000  1.0 -0.120995438
C  C22  1  0.12220000  0.12320000  0.61230000  1.0 -0.120995438
C  C23  1  0.87680000  0.87780000  0.11230000  1.0 -0.120995438
C  C24  1  0.87780000  0.87680000  0.38770000  1.0 -0.120995438
C  C25  1  0.09810000  0.18470000  0.91360000  1.0 -0.0846171521
C  C26  1  0.18470000  0.09810000  0.58640000  1.0 -0.0846171521
C  C27  1  0.90190000  0.81530000  0.08640000  1.0 -0.0846171521
C  C28  1  0.81530000  0.90190000  0.41360000  1.0 -0.0846171521
C  C29  1  0.26660000  0.11080000  0.86270000  1.0 0.0772888117
C  C30  1  0.11080000  0.26660000  0.63730000  1.0 0.0772888117
C  C31  1  0.73340000  0.88920000  0.13730000  1.0 0.0772888117
C  C32  1  0.88920000  0.73340000  0.36270000  1.0 0.0772888117
C  C33  1  0.18710000  0.69830000  0.94780000  1.0 0.6154050918
C  C34  1  0.69830000  0.18710000  0.55220000  1.0 0.6154050918
C  C35  1  0.81290000  0.30170000  0.05220000  1.0 0.6154050918
C  C36  1  0.30170000  0.81290000  0.44780000  1.0 0.6154050918
C  C37  1  0.22830000  0.79890000  0.88800000  1.0 -0.0195038656
C  C38  1  0.79890000  0.22830000  0.61200000  1.0 -0.0195038656
C  C39  1  0.77170000  0.20110000  0.11200000  1.0 -0.0195038656
C  C40  1  0.20110000  0.77170000  0.38800000  1.0 -0.0195038656
C  C41  1  0.18730000  0.85070000  0.89720000  1.0 -0.1408164355
C  C42  1  0.85070000  0.18730000  0.60280000  1.0 -0.1408164355
C  C43  1  0.81270000  0.14930000  0.10280000  1.0 -0.1408164355
C  C44  1  0.14930000  0.81270000  0.39720000  1.0 -0.1408164355
C  C45  1  0.23190000  0.94870000  0.84190000  1.0 0.2016006351
C  C46  1  0.94870000  0.23190000  0.65810000  1.0 0.2016006351
C  C47  1  0.76810000  0.05130000  0.15810000  1.0 0.2016006351
C  C48  1  0.05130000  0.76810000  0.34190000  1.0 0.2016006351
C  C49  1  0.31210000  0.99170000  0.77360000  1.0 -0.154377203
C  C50  1  0.99170000  0.31210000  0.72640000  1.0 -0.154377203
C  C51  1  0.68790000  0.00830000  0.22640000  1.0 -0.1552532374
C  C52  1  0.00830000  0.68790000  0.27360000  1.0 -0.154377203
C  C53  1  0.35170000  0.93910000  0.76080000  1.0 0.0039358751
C  C54  1  0.93910000  0.35170000  0.73920000  1.0 0.0039358751
C  C55  1  0.64830000  0.06090000  0.23920000  1.0 0.0039358751
C  C56  1  0.06090000  0.64830000  0.26080000  1.0 0.0039358751
C  C57  1  0.31220000  0.84480000  0.82110000  1.0 -0.0903027116
C  C58  1  0.84480000  0.31220000  0.67890000  1.0 -0.0903027116
C  C59  1  0.68780000  0.15520000  0.17890000  1.0 -0.0903027116
C  C60  1  0.15520000  0.68780000  0.32110000  1.0 -0.0903027116
C  C61  1  0.43450000  0.98190000  0.68360000  1.0 0.6296511532
C  C62  1  0.98190000  0.43450000  0.81640000  1.0 0.6296511532
C  C63  1  0.56550000  0.01810000  0.31640000  1.0 0.6296511532
C  C64  1  0.01810000  0.56550000  0.18360000  1.0 0.6296511532
C  C65  1  0.35770000  0.58250000  0.18070000  1.0 0.013200972
C  C66  1  0.58250000  0.35770000  0.31930000  1.0 0.013200972
C  C67  1  0.64230000  0.41750000  0.81930000  1.0 0.013200972
C  C68  1  0.41750000  0.64230000  0.68070000  1.0 0.013200972
C  C69  1  0.43220000  0.65780000  0.25260000  1.0 -0.0195038656
C  C70  1  0.65780000  0.43220000  0.24740000  1.0 -0.0195038656
C  C71  1  0.56780000  0.34220000  0.74740000  1.0 -0.0195038656
C  C72  1  0.34220000  0.56780000  0.75260000  1.0 -0.0195038656
C  C73  1  0.34350000  0.70370000  0.18620000  1.0 0.1755620444
C  C74  1  0.70370000  0.34350000  0.31380000  1.0 0.1755620444
C  C75  1  0.65650000  0.29630000  0.81380000  1.0 0.1755620444
C  C76  1  0.29630000  0.65650000  0.68620000  1.0 0.1755620444
N  N1  1  0.19200000  0.00160000  0.85700000  1.0 -0.250999546
N  N2  1  0.00160000  0.19200000  0.64300000  1.0 -0.250999546
N  N3  1  0.80800000  0.99840000  0.14300000  1.0 -0.250999546
N  N4  1  0.99840000  0.80800000  0.35700000  1.0 -0.250999546
N  N5  1  0.29840000  0.60780000  0.14150000  1.0 -0.4090562968
N  N6  1  0.60780000  0.29840000  0.35850000  1.0 -0.4090562968
N  N7  1  0.70160000  0.39220000  0.85850000  1.0 -0.4090562968
N  N8  1  0.39220000  0.70160000  0.64150000  1.0 -0.4090562968
N  N9  1  0.42300000  0.73340000  0.25320000  1.0 -0.2274450309
N  N10  1  0.73340000  0.42300000  0.24680000  1.0 -0.2274450309
N  N11  1  0.57700000  0.26660000  0.74680000  1.0 -0.2274450309
N  N12  1  0.26660000  0.57700000  0.75320000  1.0 -0.2274450309
O  O1  1  0.23713000  0.46987000  0.97020000  1.0 -0.5663138537
O  O2  1  0.46987000  0.23713000  0.52980000  1.0 -0.5663138537
O  O3  1  0.76287000  0.53013000  0.02980000  1.0 -0.5663138537
O  O4  1  0.53013000  0.76287000  0.47020000  1.0 -0.5663138537
O  O5  1  0.05750000  0.31170000  0.98270000  1.0 -0.5515363573
O  O6  1  0.31170000  0.05750000  0.51730000  1.0 -0.5515363573
O  O7  1  0.94250000  0.68830000  0.01730000  1.0 -0.5515363573
O  O8  1  0.68830000  0.94250000  0.48270000  1.0 -0.5515363573
O  O9  1  0.24910000  0.67890000  0.96520000  1.0 -0.5515363573
O  O10  1  0.67890000  0.24910000  0.53480000  1.0 -0.5515363573
O  O11  1  0.75090000  0.32110000  0.03480000  1.0 -0.5515363573
O  O12  1  0.32110000  0.75090000  0.46520000  1.0 -0.5515363573
O  O13  1  0.08567000  0.62913000  0.97770000  1.0 -0.6894737838
O  O14  1  0.62913000  0.08567000  0.52230000  1.0 -0.6894737838
O  O15  1  0.91433000  0.37087000  0.02230000  1.0 -0.6894737838
O  O16  1  0.37087000  0.91433000  0.47770000  1.0 -0.6894737838
O  O17  1  0.47544000  0.07156000  0.63610000  1.0 -0.6041523128
O  O18  1  0.07156000  0.47544000  0.86390000  1.0 -0.6041523128
O  O19  1  0.52456000  0.92844000  0.36390000  1.0 -0.6041523128
O  O20  1  0.92844000  0.52456000  0.13610000  1.0 -0.6041523128
O  O21  1  0.45510000  0.92090000  0.67070000  1.0 -0.6131241231
O  O22  1  0.92090000  0.45510000  0.82930000  1.0 -0.6131241231
O  O23  1  0.54490000  0.07910000  0.32930000  1.0 -0.6131241231
O  O24  1  0.07910000  0.54490000  0.17070000  1.0 -0.6131241231
O  O25  1  0.08310000  0.36590000  0.17440000  1.0 -0.4090562968
O  O26  1  0.36590000  0.08310000  0.32560000  1.0 -0.4090562968
O  O27  1  0.91690000  0.63410000  0.82560000  1.0 -0.4090562968
O  O28  1  0.63410000  0.91690000  0.67440000  1.0 -0.4090562968
