# DDEC6 charges by PACMAN v1.1 (https://github.com/mtap-research/PACMAN-charge/)
data_CUWYAW_ASR_pacman
_symmetry_space_group_name_H-M   'P 1'
_cell_length_a   16.13370000
_cell_length_b   16.13370000
_cell_length_c   14.23610000
_cell_angle_alpha   85.77940000
_cell_angle_beta   94.22060000
_cell_angle_gamma   132.60500000
_symmetry_Int_Tables_number   1
_chemical_formula_structural   EuH8C16NO6
_chemical_formula_sum   'Eu4 H32 C64 N4 O24'
_cell_volume   2718.64134303
_cell_formula_units_Z   4
loop_
 _symmetry_equiv_pos_site_id
 _symmetry_equiv_pos_as_xyz
  1  'x, y, z'
loop_
 _atom_site_type_symbol
 _atom_site_label
 _atom_site_symmetry_multiplicity
 _atom_site_fract_x
 _atom_site_fract_y
 _atom_site_fract_z
 _atom_site_occupancy
 _atom_site_charge
Eu  Eu1  1  0.11336000  0.48654000  0.03245000  1.0 2.0767615671
Eu  Eu2  1  0.48654000  0.11336000  0.46755000  1.0 2.0767615671
Eu  Eu3  1  0.88664000  0.51346000  0.96755000  1.0 2.0767615671
Eu  Eu4  1  0.51346000  0.88664000  0.53245000  1.0 2.0767615671
H  H1  1  0.33430000  0.41990000  0.88690000  1.0 0.1209226406
H  H2  1  0.41990000  0.33430000  0.61310000  1.0 0.1209226406
H  H3  1  0.66570000  0.58010000  0.11310000  1.0 0.1209226406
H  H4  1  0.58010000  0.66570000  0.38690000  1.0 0.1209226406
H  H5  1  0.37800000  0.31560000  0.84950000  1.0 0.1209226406
H  H6  1  0.31560000  0.37800000  0.65050000  1.0 0.1209226406
H  H7  1  0.62200000  0.68440000  0.15050000  1.0 0.1209226406
H  H8  1  0.68440000  0.62200000  0.34950000  1.0 0.1209226406
H  H9  1  0.05890000  0.03190000  0.89940000  1.0 0.1209226406
H  H10  1  0.03190000  0.05890000  0.60060000  1.0 0.1209226406
H  H11  1  0.94110000  0.96810000  0.10060000  1.0 0.1209226406
H  H12  1  0.96810000  0.94110000  0.39940000  1.0 0.1209226406
H  H13  1  0.02000000  0.13720000  0.94240000  1.0 0.1209226406
H  H14  1  0.13720000  0.02000000  0.55760000  1.0 0.1320889408
H  H15  1  0.98000000  0.86280000  0.05760000  1.0 0.1209226406
H  H16  1  0.86280000  0.98000000  0.44240000  1.0 0.1209226406
H  H17  1  0.12600000  0.81240000  0.93130000  1.0 0.140479588
H  H18  1  0.81240000  0.12600000  0.56870000  1.0 0.140479588
H  H19  1  0.87400000  0.18760000  0.06870000  1.0 0.140479588
H  H20  1  0.18760000  0.87400000  0.43130000  1.0 0.140479588
H  H21  1  0.32970000  0.04250000  0.73010000  1.0 0.1209226406
H  H22  1  0.04250000  0.32970000  0.76990000  1.0 0.1209226406
H  H23  1  0.67030000  0.95750000  0.26990000  1.0 0.1209226406
H  H24  1  0.95750000  0.67030000  0.23010000  1.0 0.1209226406
H  H25  1  0.32640000  0.79540000  0.80080000  1.0 0.1320889408
H  H26  1  0.79540000  0.32640000  0.69920000  1.0 0.1320889408
H  H27  1  0.67360000  0.20460000  0.19920000  1.0 0.1320889408
H  H28  1  0.20460000  0.67360000  0.30080000  1.0 0.1320889408
H  H29  1  0.33300000  0.15500000  0.83700000  1.0 0.084320684
H  H30  1  0.15500000  0.33300000  0.66300000  1.0 0.084320684
H  H31  1  0.66700000  0.84500000  0.16300000  1.0 0.084320684
H  H32  1  0.84500000  0.66700000  0.33700000  1.0 0.084320684
C  C1  1  0.15300000  0.35760000  0.95940000  1.0 0.5712400908
C  C2  1  0.35760000  0.15300000  0.54060000  1.0 0.5712400908
C  C3  1  0.84700000  0.64240000  0.04060000  1.0 0.5712400908
C  C4  1  0.64240000  0.84700000  0.45940000  1.0 0.5712400908
C  C5  1  0.17450000  0.28910000  0.92240000  1.0 -0.0272496627
C  C6  1  0.28910000  0.17450000  0.57760000  1.0 -0.0272496627
C  C7  1  0.82550000  0.71090000  0.07760000  1.0 -0.0272496627
C  C8  1  0.71090000  0.82550000  0.42240000  1.0 -0.0272496627
C  C9  1  0.27960000  0.34160000  0.89160000  1.0 -0.0945447599
C  C10  1  0.34160000  0.27960000  0.60840000  1.0 -0.0945447599
C  C11  1  0.72040000  0.65840000  0.10840000  1.0 -0.0976792065
C  C12  1  0.65840000  0.72040000  0.39160000  1.0 -0.0976792065
C  C13  1  0.30560000  0.27940000  0.86720000  1.0 -0.1604928365
C  C14  1  0.27940000  0.30560000  0.63280000  1.0 -0.1604928365
C  C15  1  0.69440000  0.72060000  0.13280000  1.0 -0.1604928365
C  C16  1  0.72060000  0.69440000  0.36720000  1.0 -0.1604928365
C  C17  1  0.22260000  0.16300000  0.86980000  1.0 0.0667573894
C  C18  1  0.16300000  0.22260000  0.63020000  1.0 0.0667573894
C  C19  1  0.77740000  0.83700000  0.13020000  1.0 0.0667573894
C  C20  1  0.83700000  0.77740000  0.36980000  1.0 0.0667573894
C  C21  1  0.11520000  0.11020000  0.89800000  1.0 -0.1354052154
C  C22  1  0.11020000  0.11520000  0.60200000  1.0 -0.1354052154
C  C23  1  0.88480000  0.88980000  0.10200000  1.0 -0.1354052154
C  C24  1  0.88980000  0.88480000  0.39800000  1.0 -0.1354052154
C  C25  1  0.09200000  0.17320000  0.92380000  1.0 -0.0976792065
C  C26  1  0.17320000  0.09200000  0.57620000  1.0 -0.0976792065
C  C27  1  0.90800000  0.82680000  0.07620000  1.0 -0.0976792065
C  C28  1  0.82680000  0.90800000  0.42380000  1.0 -0.0976792065
C  C29  1  0.25380000  0.09960000  0.84930000  1.0 0.0556426691
C  C30  1  0.09960000  0.25380000  0.65070000  1.0 0.0556426691
C  C31  1  0.74620000  0.90040000  0.15070000  1.0 0.0556426691
C  C32  1  0.90040000  0.74620000  0.34930000  1.0 0.0556426691
C  C33  1  0.17960000  0.68920000  0.93490000  1.0 0.6311797137
C  C34  1  0.68920000  0.17960000  0.56510000  1.0 0.6311797137
C  C35  1  0.82040000  0.31080000  0.06510000  1.0 0.6311797137
C  C36  1  0.31080000  0.82040000  0.43490000  1.0 0.6311797137
C  C37  1  0.22166000  0.79054000  0.87550000  1.0 -0.0166532858
C  C38  1  0.79054000  0.22166000  0.62450000  1.0 -0.0166532858
C  C39  1  0.77834000  0.20946000  0.12450000  1.0 -0.0166532858
C  C40  1  0.20946000  0.77834000  0.37550000  1.0 -0.0166532858
C  C41  1  0.18130000  0.84230000  0.88800000  1.0 -0.1699451497
C  C42  1  0.84230000  0.18130000  0.61200000  1.0 -0.1699451497
C  C43  1  0.81870000  0.15770000  0.11200000  1.0 -0.1699451497
C  C44  1  0.15770000  0.81870000  0.38800000  1.0 -0.1699451497
C  C45  1  0.22430000  0.93890000  0.83520000  1.0 0.2015986303
C  C46  1  0.93890000  0.22430000  0.66480000  1.0 0.2015986303
C  C47  1  0.77570000  0.06110000  0.16480000  1.0 0.2015986303
C  C48  1  0.06110000  0.77570000  0.33520000  1.0 0.2015986303
C  C49  1  0.30210000  0.97870000  0.76680000  1.0 -0.1699451497
C  C50  1  0.97870000  0.30210000  0.73320000  1.0 -0.1699451497
C  C51  1  0.69790000  0.02130000  0.23320000  1.0 -0.1699451497
C  C52  1  0.02130000  0.69790000  0.26680000  1.0 -0.1699451497
C  C53  1  0.33929000  0.92411000  0.75270000  1.0 -0.0107433315
C  C54  1  0.92411000  0.33929000  0.74730000  1.0 -0.0107433315
C  C55  1  0.66071000  0.07589000  0.24730000  1.0 -0.0107433315
C  C56  1  0.07589000  0.66071000  0.25270000  1.0 -0.0107433315
C  C57  1  0.30010000  0.83090000  0.80840000  1.0 -0.0976792065
C  C58  1  0.83090000  0.30010000  0.69160000  1.0 -0.0976792065
C  C59  1  0.69990000  0.16910000  0.19160000  1.0 -0.0976792065
C  C60  1  0.16910000  0.69990000  0.30840000  1.0 -0.0976792065
C  C61  1  0.41840000  0.96380000  0.67490000  1.0 0.6482123071
C  C62  1  0.96380000  0.41840000  0.82510000  1.0 0.6482123071
C  C63  1  0.58160000  0.03620000  0.32510000  1.0 0.6482123071
C  C64  1  0.03620000  0.58160000  0.17490000  1.0 0.6482123071
N  N1  1  0.18415000  0.99205000  0.85210000  1.0 -0.2762023201
N  N2  1  0.99205000  0.18415000  0.64790000  1.0 -0.2762023201
N  N3  1  0.81585000  0.00795000  0.14790000  1.0 -0.2762023201
N  N4  1  0.00795000  0.81585000  0.35210000  1.0 -0.2762023201
O  O1  1  0.05816000  0.30824000  0.99130000  1.0 -0.6345388656
O  O2  1  0.30824000  0.05816000  0.50870000  1.0 -0.6345388656
O  O3  1  0.94184000  0.69176000  0.00870000  1.0 -0.6388423329
O  O4  1  0.69176000  0.94184000  0.49130000  1.0 -0.6388423329
O  O5  1  0.23011000  0.46349000  0.95690000  1.0 -0.6388423329
O  O6  1  0.46349000  0.23011000  0.54310000  1.0 -0.6388423329
O  O7  1  0.76989000  0.53651000  0.04310000  1.0 -0.6388423329
O  O8  1  0.53651000  0.76989000  0.45690000  1.0 -0.6388423329
O  O9  1  0.24191000  0.66829000  0.94970000  1.0 -0.6048440998
O  O10  1  0.66829000  0.24191000  0.55030000  1.0 -0.6048440998
O  O11  1  0.75809000  0.33171000  0.05030000  1.0 -0.6048440998
O  O12  1  0.33171000  0.75809000  0.44970000  1.0 -0.6048440998
O  O13  1  0.08294000  0.62486000  0.97040000  1.0 -0.7620296245
O  O14  1  0.62486000  0.08294000  0.52960000  1.0 -0.7620296245
O  O15  1  0.91706000  0.37514000  0.02960000  1.0 -0.7620296245
O  O16  1  0.37514000  0.91706000  0.47040000  1.0 -0.7620296245
O  O17  1  0.45585000  0.05215000  0.62990000  1.0 -0.6388423329
O  O18  1  0.05215000  0.45585000  0.87010000  1.0 -0.6388423329
O  O19  1  0.54415000  0.94785000  0.37010000  1.0 -0.6388423329
O  O20  1  0.94785000  0.54415000  0.12990000  1.0 -0.6388423329
O  O21  1  0.43864000  0.90376000  0.65920000  1.0 -0.6763300215
O  O22  1  0.90376000  0.43864000  0.84080000  1.0 -0.6763300215
O  O23  1  0.56136000  0.09624000  0.34080000  1.0 -0.6763300215
O  O24  1  0.09624000  0.56136000  0.15920000  1.0 -0.6763300215
