# DDEC6 charges by PACMAN v1.1 (https://github.com/mtap-research/PACMAN-charge/)
data_CUWZAX_ASR_pacman
_symmetry_space_group_name_H-M   'P 1'
_cell_length_a   16.15120000
_cell_length_b   16.15120000
_cell_length_c   13.49910000
_cell_angle_alpha   82.88770000
_cell_angle_beta   97.11230000
_cell_angle_gamma   128.17900000
_symmetry_Int_Tables_number   1
_chemical_formula_structural   EuH7C16NO6
_chemical_formula_sum   'Eu4 H28 C64 N4 O24'
_cell_volume   2741.75793698
_cell_formula_units_Z   4
loop_
 _symmetry_equiv_pos_site_id
 _symmetry_equiv_pos_as_xyz
  1  'x, y, z'
loop_
 _atom_site_type_symbol
 _atom_site_label
 _atom_site_symmetry_multiplicity
 _atom_site_fract_x
 _atom_site_fract_y
 _atom_site_fract_z
 _atom_site_occupancy
 _atom_site_charge
Eu  Eu1  1  0.10975000  0.47843000  0.53870000  1.0 2.0862465277
Eu  Eu2  1  0.47843000  0.10975000  0.96130000  1.0 2.0821624969
Eu  Eu3  1  0.89025000  0.52157000  0.46130000  1.0 2.0862465277
Eu  Eu4  1  0.52157000  0.89025000  0.03870000  1.0 2.0862465277
H  H1  1  0.02480000  0.13860000  0.45540000  1.0 0.1297270594
H  H2  1  0.13860000  0.02480000  0.04460000  1.0 0.1297270594
H  H3  1  0.97520000  0.86140000  0.54460000  1.0 0.1297270594
H  H4  1  0.86140000  0.97520000  0.95540000  1.0 0.1297270594
H  H5  1  0.05770000  0.03130000  0.41340000  1.0 0.1133117316
H  H6  1  0.03130000  0.05770000  0.08660000  1.0 0.1133117316
H  H7  1  0.94230000  0.96870000  0.58660000  1.0 0.1133117316
H  H8  1  0.96870000  0.94230000  0.91340000  1.0 0.1133117316
H  H9  1  0.34790000  0.28090000  0.34740000  1.0 0.1179337458
H  H10  1  0.28090000  0.34790000  0.15260000  1.0 0.1179337458
H  H11  1  0.65210000  0.71910000  0.65260000  1.0 0.1179337458
H  H12  1  0.71910000  0.65210000  0.84740000  1.0 0.1179337458
H  H13  1  0.31820000  0.39300000  0.40040000  1.0 0.1297270594
H  H14  1  0.39300000  0.31820000  0.09960000  1.0 0.1297270594
H  H15  1  0.68180000  0.60700000  0.59960000  1.0 0.1297270594
H  H16  1  0.60700000  0.68180000  0.90040000  1.0 0.1297270594
H  H17  1  0.11420000  0.80080000  0.42270000  1.0 0.1442401682
H  H18  1  0.80080000  0.11420000  0.07730000  1.0 0.1442401682
H  H19  1  0.88580000  0.19920000  0.57730000  1.0 0.1442401682
H  H20  1  0.19920000  0.88580000  0.92270000  1.0 0.1442401682
H  H21  1  0.30990000  0.02730000  0.22200000  1.0 0.1297270594
H  H22  1  0.02730000  0.30990000  0.27800000  1.0 0.1297270594
H  H23  1  0.69010000  0.97270000  0.77800000  1.0 0.1297270594
H  H24  1  0.97270000  0.69010000  0.72200000  1.0 0.1297270594
H  H25  1  0.31030000  0.77930000  0.29430000  1.0 0.1297270594
H  H26  1  0.77930000  0.31030000  0.20570000  1.0 0.1297270594
H  H27  1  0.68970000  0.22070000  0.70570000  1.0 0.1297270594
H  H28  1  0.22070000  0.68970000  0.79430000  1.0 0.1297270594
C  C1  1  0.14940000  0.34620000  0.47400000  1.0 0.5665226554
C  C2  1  0.34620000  0.14940000  0.02600000  1.0 0.5665226554
C  C3  1  0.85060000  0.65380000  0.52600000  1.0 0.5665226554
C  C4  1  0.65380000  0.85060000  0.97400000  1.0 0.5665226554
C  C5  1  0.16920000  0.27720000  0.43480000  1.0 -0.0113648532
C  C6  1  0.27720000  0.16920000  0.06520000  1.0 -0.0113648532
C  C7  1  0.83080000  0.72280000  0.56520000  1.0 -0.0113648532
C  C8  1  0.72280000  0.83080000  0.93480000  1.0 -0.0113648532
C  C9  1  0.09140000  0.16780000  0.43570000  1.0 -0.1065370465
C  C10  1  0.16780000  0.09140000  0.06430000  1.0 -0.1065370465
C  C11  1  0.90860000  0.83220000  0.56430000  1.0 -0.1065370465
C  C12  1  0.83220000  0.90860000  0.93570000  1.0 -0.1065370465
C  C13  1  0.10980000  0.10400000  0.40920000  1.0 -0.1233623537
C  C14  1  0.10400000  0.10980000  0.09080000  1.0 -0.1233623537
C  C15  1  0.89020000  0.89600000  0.59080000  1.0 -0.1233623537
C  C16  1  0.89600000  0.89020000  0.90920000  1.0 -0.1233623537
C  C17  1  0.20850000  0.14750000  0.37490000  1.0 0.0600441595
C  C18  1  0.14750000  0.20850000  0.12510000  1.0 0.0600441595
C  C19  1  0.79150000  0.85250000  0.62510000  1.0 0.0600441595
C  C20  1  0.85250000  0.79150000  0.87490000  1.0 0.0600441595
C  C21  1  0.28290000  0.25210000  0.37110000  1.0 -0.1431231971
C  C22  1  0.25210000  0.28290000  0.12890000  1.0 -0.1431231971
C  C23  1  0.71710000  0.74790000  0.62890000  1.0 -0.1431231971
C  C24  1  0.74790000  0.71710000  0.87110000  1.0 -0.1431231971
C  C25  1  0.26530000  0.32030000  0.40220000  1.0 -0.0922956148
C  C26  1  0.32030000  0.26530000  0.09780000  1.0 -0.0922956148
C  C27  1  0.73470000  0.67970000  0.59780000  1.0 -0.0922956148
C  C28  1  0.67970000  0.73470000  0.90220000  1.0 -0.0922956148
C  C29  1  0.23900000  0.08260000  0.34920000  1.0 0.046441004
C  C30  1  0.08260000  0.23900000  0.15080000  1.0 0.046441004
C  C31  1  0.76100000  0.91740000  0.65080000  1.0 0.046441004
C  C32  1  0.91740000  0.76100000  0.84920000  1.0 0.046441004
C  C33  1  0.16670000  0.67410000  0.42520000  1.0 0.6252850865
C  C34  1  0.67410000  0.16670000  0.07480000  1.0 0.6252850865
C  C35  1  0.83330000  0.32590000  0.57480000  1.0 0.6247187828
C  C36  1  0.32590000  0.83330000  0.92520000  1.0 0.6252850865
C  C37  1  0.20800000  0.77560000  0.37160000  1.0 -0.0379381716
C  C38  1  0.77560000  0.20800000  0.12840000  1.0 -0.0379381716
C  C39  1  0.79200000  0.22440000  0.62840000  1.0 -0.0379381716
C  C40  1  0.22440000  0.79200000  0.87160000  1.0 -0.0379381716
C  C41  1  0.16940000  0.83020000  0.38150000  1.0 -0.1468166138
C  C42  1  0.83020000  0.16940000  0.11850000  1.0 -0.1468166138
C  C43  1  0.83060000  0.16980000  0.61850000  1.0 -0.1468166138
C  C44  1  0.16980000  0.83060000  0.88150000  1.0 -0.1468166138
C  C45  1  0.20990000  0.92550000  0.33280000  1.0 0.2075962809
C  C46  1  0.92550000  0.20990000  0.16720000  1.0 0.2075962809
C  C47  1  0.79010000  0.07450000  0.66720000  1.0 0.2075962809
C  C48  1  0.07450000  0.79010000  0.83280000  1.0 0.2075962809
C  C49  1  0.28590000  0.96530000  0.26060000  1.0 -0.1592023285
C  C50  1  0.96530000  0.28590000  0.23940000  1.0 -0.1592023285
C  C51  1  0.71410000  0.03470000  0.73940000  1.0 -0.1592023285
C  C52  1  0.03470000  0.71410000  0.76060000  1.0 -0.1592023285
C  C53  1  0.32270000  0.91030000  0.24940000  1.0 -0.0164840581
C  C54  1  0.91030000  0.32270000  0.25060000  1.0 -0.0164840581
C  C55  1  0.67730000  0.08970000  0.75060000  1.0 -0.0164840581
C  C56  1  0.08970000  0.67730000  0.74940000  1.0 -0.0164840581
C  C57  1  0.28480000  0.81580000  0.30340000  1.0 -0.0922956148
C  C58  1  0.81580000  0.28480000  0.19660000  1.0 -0.084668825
C  C59  1  0.71520000  0.18420000  0.69660000  1.0 -0.084668825
C  C60  1  0.18420000  0.71520000  0.80340000  1.0 -0.084668825
C  C61  1  0.40280000  0.95040000  0.17280000  1.0 0.6604067658
C  C62  1  0.95040000  0.40280000  0.32720000  1.0 0.6604067658
C  C63  1  0.59720000  0.04960000  0.82720000  1.0 0.6604067658
C  C64  1  0.04960000  0.59720000  0.67280000  1.0 0.6604067658
N  N1  1  0.17330000  0.98270000  0.35290000  1.0 -0.2434820707
N  N2  1  0.98270000  0.17330000  0.14710000  1.0 -0.2434820707
N  N3  1  0.82670000  0.01730000  0.64710000  1.0 -0.2434820707
N  N4  1  0.01730000  0.82670000  0.85290000  1.0 -0.2434820707
O  O1  1  0.21750000  0.44470000  0.45890000  1.0 -0.6302201971
O  O2  1  0.44470000  0.21750000  0.04110000  1.0 -0.6358810688
O  O3  1  0.78250000  0.55530000  0.54110000  1.0 -0.6358810688
O  O4  1  0.55530000  0.78250000  0.95890000  1.0 -0.6302201971
O  O5  1  0.06610000  0.30650000  0.51400000  1.0 -0.6302201971
O  O6  1  0.30650000  0.06610000  0.98600000  1.0 -0.6302201971
O  O7  1  0.93390000  0.69350000  0.48600000  1.0 -0.6302201971
O  O8  1  0.69350000  0.93390000  0.01400000  1.0 -0.6302201971
O  O9  1  0.22450000  0.64590000  0.44640000  1.0 -0.6082934166
O  O10  1  0.64590000  0.22450000  0.05360000  1.0 -0.6082934166
O  O11  1  0.77550000  0.35410000  0.55360000  1.0 -0.6082934166
O  O12  1  0.35410000  0.77550000  0.94640000  1.0 -0.6082934166
O  O13  1  0.07320000  0.61560000  0.45450000  1.0 -0.7597327108
O  O14  1  0.61560000  0.07320000  0.04550000  1.0 -0.7597327108
O  O15  1  0.92680000  0.38440000  0.54550000  1.0 -0.7597327108
O  O16  1  0.38440000  0.92680000  0.95450000  1.0 -0.7597327108
O  O17  1  0.42640000  0.89180000  0.15720000  1.0 -0.6890355671
O  O18  1  0.89180000  0.42640000  0.34280000  1.0 -0.6890355671
O  O19  1  0.57360000  0.10820000  0.84280000  1.0 -0.6890355671
O  O20  1  0.10820000  0.57360000  0.65720000  1.0 -0.6890355671
O  O21  1  0.43810000  0.03870000  0.12710000  1.0 -0.6582594241
O  O22  1  0.03870000  0.43810000  0.37290000  1.0 -0.6582594241
O  O23  1  0.56190000  0.96130000  0.87290000  1.0 -0.6582594241
O  O24  1  0.96130000  0.56190000  0.62710000  1.0 -0.6582594241
