# DDEC6 charges by PACMAN v1.1 (https://github.com/mtap-research/PACMAN-charge/)
data_CUXFUX_FSR_pacman
_symmetry_space_group_name_H-M   'P 1'
_cell_length_a   13.01220000
_cell_length_b   13.01220000
_cell_length_c   12.00850000
_cell_angle_alpha   83.94930000
_cell_angle_beta   96.05070000
_cell_angle_gamma   40.34800000
_symmetry_Int_Tables_number   1
_chemical_formula_structural   CoH16C25(NO3)2
_chemical_formula_sum   'Co2 H32 C50 N4 O12'
_cell_volume   1253.38755328
_cell_formula_units_Z   2
loop_
 _symmetry_equiv_pos_site_id
 _symmetry_equiv_pos_as_xyz
  1  'x, y, z'
loop_
 _atom_site_type_symbol
 _atom_site_label
 _atom_site_symmetry_multiplicity
 _atom_site_fract_x
 _atom_site_fract_y
 _atom_site_fract_z
 _atom_site_occupancy
 _atom_site_charge
Co  Co1  1  0.18563000  0.18563000  0.50000000  1.0 0.7005580442
Co  Co2  1  0.81437000  0.81437000  0.50000000  1.0 0.7005580442
H  H1  1  0.86750000  0.30730000  0.47950000  1.0 0.1088616464
H  H2  1  0.30730000  0.86750000  0.52050000  1.0 0.1088616464
H  H3  1  0.13250000  0.69270000  0.52050000  1.0 0.1088616464
H  H4  1  0.69270000  0.13250000  0.47950000  1.0 0.1088616464
H  H5  1  0.64240000  0.43260000  0.33730000  1.0 0.1088616464
H  H6  1  0.43260000  0.64240000  0.66270000  1.0 0.1088616464
H  H7  1  0.35760000  0.56740000  0.66270000  1.0 0.1088616464
H  H8  1  0.56740000  0.35760000  0.33730000  1.0 0.1088616464
H  H9  1  0.86850000  0.34410000  0.10620000  1.0 0.1204836556
H  H10  1  0.34410000  0.86850000  0.89380000  1.0 0.1204836556
H  H11  1  0.13150000  0.65590000  0.89380000  1.0 0.1204836556
H  H12  1  0.65590000  0.13150000  0.10620000  1.0 0.1204836556
H  H13  1  0.09530000  0.21810000  0.24790000  1.0 0.1299426209
H  H14  1  0.21810000  0.09530000  0.75210000  1.0 0.1299426209
H  H15  1  0.90470000  0.78190000  0.75210000  1.0 0.1299426209
H  H16  1  0.78190000  0.90470000  0.24790000  1.0 0.1299426209
H  H17  1  0.80490000  0.49210000  0.37070000  1.0 0.1299426209
H  H18  1  0.49210000  0.80490000  0.62930000  1.0 0.1299426209
H  H19  1  0.19510000  0.50790000  0.62930000  1.0 0.1299426209
H  H20  1  0.50790000  0.19510000  0.37070000  1.0 0.1299426209
H  H21  1  0.62180000  0.56260000  0.21350000  1.0 0.1299426209
H  H22  1  0.56260000  0.62180000  0.78650000  1.0 0.1299426209
H  H23  1  0.37820000  0.43740000  0.78650000  1.0 0.1299426209
H  H24  1  0.43740000  0.37820000  0.21350000  1.0 0.1299426209
H  H25  1  0.96300000  0.10400000  0.20590000  1.0 0.1204836556
H  H26  1  0.10400000  0.96300000  0.79410000  1.0 0.1204836556
H  H27  1  0.03700000  0.89600000  0.79410000  1.0 0.1204836556
H  H28  1  0.89600000  0.03700000  0.20590000  1.0 0.1204836556
H  H29  1  0.14450000  0.02930000  0.36240000  1.0 0.1088616464
H  H30  1  0.02930000  0.14450000  0.63760000  1.0 0.1088616464
H  H31  1  0.85550000  0.97070000  0.63760000  1.0 0.1088616464
H  H32  1  0.97070000  0.85550000  0.36240000  1.0 0.1088616464
C  C1  1  0.87100000  0.31200000  0.40070000  1.0 -0.0215339198
C  C2  1  0.31200000  0.87100000  0.59930000  1.0 -0.0215339198
C  C3  1  0.12900000  0.68800000  0.59930000  1.0 -0.0215339198
C  C4  1  0.68800000  0.12900000  0.40070000  1.0 -0.0215339198
C  C5  1  0.74080000  0.37820000  0.31850000  1.0 -0.1063527948
C  C6  1  0.37820000  0.74080000  0.68150000  1.0 -0.1063527948
C  C7  1  0.25920000  0.62180000  0.68150000  1.0 -0.1063527948
C  C8  1  0.62180000  0.25920000  0.31850000  1.0 -0.1063527948
C  C9  1  0.75442000  0.36402000  0.19950000  1.0 0.0692830646
C  C10  1  0.36402000  0.75442000  0.80050000  1.0 0.0692830646
C  C11  1  0.24558000  0.63598000  0.80050000  1.0 0.0692830646
C  C12  1  0.63598000  0.24558000  0.19950000  1.0 0.0692830646
C  C13  1  0.86920000  0.32620000  0.18520000  1.0 -0.0853112152
C  C14  1  0.32620000  0.86920000  0.81480000  1.0 -0.0853112152
C  C15  1  0.13080000  0.67380000  0.81480000  1.0 -0.0853112152
C  C16  1  0.67380000  0.13080000  0.18520000  1.0 -0.0853112152
C  C17  1  0.00330000  0.25950000  0.26940000  1.0 0.0123714575
C  C18  1  0.25950000  0.00330000  0.73060000  1.0 0.0123714575
C  C19  1  0.99670000  0.74050000  0.73060000  1.0 0.0123714575
C  C20  1  0.74050000  0.99670000  0.26940000  1.0 0.0123714575
C  C21  1  0.66690000  0.38370000  0.08460000  1.0 0.0692830646
C  C22  1  0.38370000  0.66690000  0.91540000  1.0 0.0692830646
C  C23  1  0.33310000  0.61630000  0.91540000  1.0 0.0692830646
C  C24  1  0.61630000  0.33310000  0.08460000  1.0 0.0692830646
C  C25  1  0.55970000  0.55970000  0.00000000  1.0 -0.1366736366
C  C26  1  0.44030000  0.44030000  0.00000000  1.0 -0.1366736366
C  C27  1  0.50858000  0.02238000  0.55440000  1.0 0.4611831979
C  C28  1  0.02238000  0.50858000  0.44560000  1.0 0.4611831979
C  C29  1  0.49142000  0.97762000  0.44560000  1.0 0.4611831979
C  C30  1  0.97762000  0.49142000  0.55440000  1.0 0.4611831979
C  C31  1  0.84300000  0.40860000  0.33720000  1.0 0.0279929378
C  C32  1  0.40860000  0.84300000  0.66280000  1.0 0.0279929378
C  C33  1  0.15700000  0.59140000  0.66280000  1.0 0.0279929378
C  C34  1  0.59140000  0.15700000  0.33720000  1.0 0.0279929378
C  C35  1  0.73000000  0.44920000  0.24240000  1.0 -0.0516683831
C  C36  1  0.44920000  0.73000000  0.75760000  1.0 -0.0516683831
C  C37  1  0.27000000  0.55080000  0.75760000  1.0 -0.0516683831
C  C38  1  0.55080000  0.27000000  0.24240000  1.0 -0.0516683831
C  C39  1  0.93030000  0.18390000  0.24140000  1.0 -0.1498308218
C  C40  1  0.18390000  0.93030000  0.75860000  1.0 -0.1498308218
C  C41  1  0.06970000  0.81610000  0.75860000  1.0 -0.1498308218
C  C42  1  0.81610000  0.06970000  0.24140000  1.0 -0.1498308218
C  C43  1  0.03720000  0.14280000  0.33080000  1.0 -0.0407436899
C  C44  1  0.14280000  0.03720000  0.66920000  1.0 -0.0407436899
C  C45  1  0.96280000  0.85720000  0.66920000  1.0 -0.0407436899
C  C46  1  0.85720000  0.96280000  0.33080000  1.0 -0.0407436899
C  C47  1  0.58310000  0.46590000  0.11750000  1.0 0.0692830646
C  C48  1  0.46590000  0.58310000  0.88250000  1.0 0.0692830646
C  C49  1  0.41690000  0.53410000  0.88250000  1.0 0.0692830646
C  C50  1  0.53410000  0.41690000  0.11750000  1.0 0.0692830646
N  N1  1  0.00033000  0.25473000  0.37850000  1.0 -0.062777087
N  N2  1  0.25473000  0.00033000  0.62150000  1.0 -0.062777087
N  N3  1  0.99967000  0.74527000  0.62150000  1.0 -0.062777087
N  N4  1  0.74527000  0.99967000  0.37850000  1.0 -0.062777087
O  O1  1  0.43310000  0.56690000  0.15390000  1.0 -0.4426093771
O  O2  1  0.56690000  0.43310000  0.84610000  1.0 -0.4426093771
O  O3  1  0.39210000  0.10810000  0.59760000  1.0 -0.482988946
O  O4  1  0.10810000  0.39210000  0.40240000  1.0 -0.482988946
O  O5  1  0.60790000  0.89190000  0.40240000  1.0 -0.482988946
O  O6  1  0.89190000  0.60790000  0.59760000  1.0 -0.482988946
O  O7  1  0.36030000  0.02890000  0.41180000  1.0 -0.5187066718
O  O8  1  0.02890000  0.36030000  0.58820000  1.0 -0.5187066718
O  O9  1  0.63970000  0.97110000  0.58820000  1.0 -0.5187066718
O  O10  1  0.97110000  0.63970000  0.41180000  1.0 -0.5187066718
O  O11  1  0.75890000  0.24110000  0.03190000  1.0 -0.4150017722
O  O12  1  0.24110000  0.75890000  0.96810000  1.0 -0.4150017722
