# DDEC6 charges by PACMAN v1.1 (https://github.com/mtap-research/PACMAN-charge/)
data_CUXFUX_ASR_pacman
_symmetry_space_group_name_H-M   'P 1'
_cell_length_a   8.97510000
_cell_length_b   24.42780000
_cell_length_c   12.00850000
_cell_angle_alpha   90.00000000
_cell_angle_beta   107.79700000
_cell_angle_gamma   90.00000000
_symmetry_Int_Tables_number   1
_chemical_formula_structural   CoH12C15N2O5
_chemical_formula_sum   'Co4 H48 C60 N8 O20'
_cell_volume   2506.77691529
_cell_formula_units_Z   4
loop_
 _symmetry_equiv_pos_site_id
 _symmetry_equiv_pos_as_xyz
  1  'x, y, z'
loop_
 _atom_site_type_symbol
 _atom_site_label
 _atom_site_symmetry_multiplicity
 _atom_site_fract_x
 _atom_site_fract_y
 _atom_site_fract_z
 _atom_site_occupancy
 _atom_site_charge
Co  Co1  1  0.50000000  0.31038000  0.50000000  1.0 0.7570156876
Co  Co2  1  0.50000000  0.68962000  0.50000000  1.0 0.7570156876
Co  Co3  1  0.00000000  0.81038000  0.50000000  1.0 0.7570156876
Co  Co4  1  0.00000000  0.18962000  0.50000000  1.0 0.7570156876
H  H1  1  0.73005000  0.40071000  0.49731000  1.0 0.1013243302
H  H2  1  0.26995000  0.59929000  0.50269000  1.0 0.1013243302
H  H3  1  0.26995000  0.40071000  0.50269000  1.0 0.1013243302
H  H4  1  0.73005000  0.59929000  0.49731000  1.0 0.1013243302
H  H5  1  0.23005000  0.90071000  0.49731000  1.0 0.1013243302
H  H6  1  0.76995000  0.09929000  0.50269000  1.0 0.1013243302
H  H7  1  0.76995000  0.90071000  0.50269000  1.0 0.1013243302
H  H8  1  0.23005000  0.09929000  0.49731000  1.0 0.1013243302
H  H9  1  0.90611000  0.46059000  0.64329000  1.0 0.1092558044
H  H10  1  0.09389000  0.53941000  0.35671000  1.0 0.1092558044
H  H11  1  0.09389000  0.46059000  0.35671000  1.0 0.1092558044
H  H12  1  0.90611000  0.53941000  0.64329000  1.0 0.1092558044
H  H13  1  0.40611000  0.96059000  0.64329000  1.0 0.1092558044
H  H14  1  0.59389000  0.03941000  0.35671000  1.0 0.1092558044
H  H15  1  0.59389000  0.96059000  0.35671000  1.0 0.1092558044
H  H16  1  0.40611000  0.03941000  0.64329000  1.0 0.1092558044
H  H17  1  0.71296000  0.39134000  0.90181000  1.0 0.1092558044
H  H18  1  0.28704000  0.60866000  0.09819000  1.0 0.1092558044
H  H19  1  0.28704000  0.39134000  0.09819000  1.0 0.1092558044
H  H20  1  0.71296000  0.60866000  0.90181000  1.0 0.1092558044
H  H21  1  0.21296000  0.89134000  0.90181000  1.0 0.1092558044
H  H22  1  0.78704000  0.10866000  0.09819000  1.0 0.1092558044
H  H23  1  0.78704000  0.89134000  0.09819000  1.0 0.1092558044
H  H24  1  0.21296000  0.10866000  0.90181000  1.0 0.1092558044
H  H25  1  0.54473000  0.33326000  0.74622000  1.0 0.1092558044
H  H26  1  0.45527000  0.66674000  0.25378000  1.0 0.1092558044
H  H27  1  0.45527000  0.33326000  0.25378000  1.0 0.1092558044
H  H28  1  0.54473000  0.66674000  0.74622000  1.0 0.1092558044
H  H29  1  0.04473000  0.83326000  0.74622000  1.0 0.1092558044
H  H30  1  0.95527000  0.16674000  0.25378000  1.0 0.1092558044
H  H31  1  0.95527000  0.83326000  0.25378000  1.0 0.1092558044
H  H32  1  0.04473000  0.16674000  0.74622000  1.0 0.1092558044
H  H33  1  0.67164000  0.50000000  0.96297000  1.0 0.3544755254
H  H34  1  0.32836000  0.50000000  0.03703000  1.0 0.3544755254
H  H35  1  0.17164000  0.00000000  0.96297000  1.0 0.3544755254
H  H36  1  0.82836000  0.00000000  0.03703000  1.0 0.3544755254
H  H37  1  0.16242000  0.46682000  0.97134000  1.0 0.2934366401
H  H38  1  0.83758000  0.53318000  0.02866000  1.0 0.2934366401
H  H39  1  0.83758000  0.46682000  0.02866000  1.0 0.2934366401
H  H40  1  0.16242000  0.53318000  0.97134000  1.0 0.2934366401
H  H41  1  0.66242000  0.96682000  0.97134000  1.0 0.2934366401
H  H42  1  0.33758000  0.03318000  0.02866000  1.0 0.2934366401
H  H43  1  0.33758000  0.96682000  0.02866000  1.0 0.2934366401
H  H44  1  0.66242000  0.03318000  0.97134000  1.0 0.2934366401
H  H45  1  0.00000000  0.39969000  0.00000000  1.0 0.1092558044
H  H46  1  0.00000000  0.60031000  0.00000000  1.0 0.1092558044
H  H47  1  0.50000000  0.89969000  0.00000000  1.0 0.1092558044
H  H48  1  0.50000000  0.10031000  0.00000000  1.0 0.1092558044
C  C1  1  0.72593000  0.40101000  0.58741000  1.0 0.0945396248
C  C2  1  0.27407000  0.59899000  0.41259000  1.0 0.0945396248
C  C3  1  0.27407000  0.40101000  0.41259000  1.0 0.0945396248
C  C4  1  0.72593000  0.59899000  0.58741000  1.0 0.0945396248
C  C5  1  0.22593000  0.90101000  0.58741000  1.0 0.0945396248
C  C6  1  0.77407000  0.09899000  0.41259000  1.0 0.0945396248
C  C7  1  0.77407000  0.90101000  0.41259000  1.0 0.0945396248
C  C8  1  0.22593000  0.09899000  0.58741000  1.0 0.0945396248
C  C9  1  0.82308000  0.43558000  0.67092000  1.0 -0.1781778045
C  C10  1  0.17692000  0.56442000  0.32908000  1.0 -0.1781778045
C  C11  1  0.17692000  0.43558000  0.32908000  1.0 -0.1781778045
C  C12  1  0.82308000  0.56442000  0.67092000  1.0 -0.1781778045
C  C13  1  0.32308000  0.93558000  0.67092000  1.0 -0.1781778045
C  C14  1  0.67692000  0.06442000  0.32908000  1.0 -0.1781778045
C  C15  1  0.67692000  0.93558000  0.32908000  1.0 -0.1781778045
C  C16  1  0.32308000  0.06442000  0.67092000  1.0 -0.1781778045
C  C17  1  0.82296000  0.43592000  0.78964000  1.0 0.0793738656
C  C18  1  0.17704000  0.56408000  0.21036000  1.0 0.0793738656
C  C19  1  0.17704000  0.43592000  0.21036000  1.0 0.0793738656
C  C20  1  0.82296000  0.56408000  0.78964000  1.0 0.0793738656
C  C21  1  0.32296000  0.93592000  0.78964000  1.0 0.0793738656
C  C22  1  0.67704000  0.06408000  0.21036000  1.0 0.0793738656
C  C23  1  0.67704000  0.93592000  0.21036000  1.0 0.0793738656
C  C24  1  0.32296000  0.06408000  0.78964000  1.0 0.0793738656
C  C25  1  0.72048000  0.39610000  0.81303000  1.0 -0.1984299503
C  C26  1  0.27952000  0.60390000  0.18697000  1.0 -0.1984299503
C  C27  1  0.27952000  0.39610000  0.18697000  1.0 -0.1984299503
C  C28  1  0.72048000  0.60390000  0.81303000  1.0 -0.1984299503
C  C29  1  0.22048000  0.89610000  0.81303000  1.0 -0.1984299503
C  C30  1  0.77952000  0.10390000  0.18697000  1.0 -0.1984299503
C  C31  1  0.77952000  0.89610000  0.18697000  1.0 -0.1984299503
C  C32  1  0.22048000  0.10390000  0.81303000  1.0 -0.1984299503
C  C33  1  0.62481000  0.36269000  0.72579000  1.0 0.1092558044
C  C34  1  0.37519000  0.63731000  0.27421000  1.0 0.1092558044
C  C35  1  0.37519000  0.36269000  0.27421000  1.0 0.1092558044
C  C36  1  0.62481000  0.63731000  0.72579000  1.0 0.1092558044
C  C37  1  0.12481000  0.86269000  0.72579000  1.0 0.1092558044
C  C38  1  0.87519000  0.13731000  0.27421000  1.0 0.1092558044
C  C39  1  0.87519000  0.86269000  0.27421000  1.0 0.1092558044
C  C40  1  0.12481000  0.13731000  0.72579000  1.0 0.1092558044
C  C41  1  0.92103000  0.47124000  0.88351000  1.0 -0.014163681
C  C42  1  0.07897000  0.52876000  0.11649000  1.0 -0.014163681
C  C43  1  0.07897000  0.47124000  0.11649000  1.0 -0.014163681
C  C44  1  0.92103000  0.52876000  0.88351000  1.0 -0.014163681
C  C45  1  0.42103000  0.97124000  0.88351000  1.0 -0.014163681
C  C46  1  0.57897000  0.02876000  0.11649000  1.0 -0.014163681
C  C47  1  0.57897000  0.97124000  0.11649000  1.0 -0.014163681
C  C48  1  0.42103000  0.02876000  0.88351000  1.0 -0.014163681
C  C49  1  0.00000000  0.44448000  0.00000000  1.0 -0.2398457106
C  C50  1  0.00000000  0.55552000  0.00000000  1.0 -0.2398457106
C  C51  1  0.50000000  0.94448000  0.00000000  1.0 -0.2398457106
C  C52  1  0.50000000  0.05552000  0.00000000  1.0 -0.2398457106
C  C53  1  0.25889000  0.23502000  0.44622000  1.0 0.4654126141
C  C54  1  0.74111000  0.76498000  0.55378000  1.0 0.4654126141
C  C55  1  0.74111000  0.23502000  0.55378000  1.0 0.4654126141
C  C56  1  0.25889000  0.76498000  0.44622000  1.0 0.4654126141
C  C57  1  0.75889000  0.73502000  0.44622000  1.0 0.4654126141
C  C58  1  0.24111000  0.26498000  0.55378000  1.0 0.4654126141
C  C59  1  0.24111000  0.73502000  0.55378000  1.0 0.4654126141
C  C60  1  0.75889000  0.26498000  0.44622000  1.0 0.4654126141
N  N1  1  0.62397000  0.36446000  0.61106000  1.0 -0.2647101011
N  N2  1  0.37603000  0.63554000  0.38894000  1.0 -0.2650863554
N  N3  1  0.37603000  0.36446000  0.38894000  1.0 -0.2647101011
N  N4  1  0.62397000  0.63554000  0.61106000  1.0 -0.2650863554
N  N5  1  0.12397000  0.86446000  0.61106000  1.0 -0.2650863554
N  N6  1  0.87603000  0.13554000  0.38894000  1.0 -0.2647101011
N  N7  1  0.87603000  0.86446000  0.38894000  1.0 -0.2650863554
N  N8  1  0.12397000  0.13554000  0.61106000  1.0 -0.2647101011
O  O1  1  0.36815000  0.25128000  0.40594000  1.0 -0.4833670285
O  O2  1  0.63185000  0.74872000  0.59406000  1.0 -0.4833670285
O  O3  1  0.63185000  0.25128000  0.59406000  1.0 -0.4833670285
O  O4  1  0.36815000  0.74872000  0.40594000  1.0 -0.4833670285
O  O5  1  0.86815000  0.75128000  0.40594000  1.0 -0.4833670285
O  O6  1  0.13185000  0.24872000  0.59406000  1.0 -0.4833670285
O  O7  1  0.13185000  0.75128000  0.59406000  1.0 -0.4833670285
O  O8  1  0.86815000  0.24872000  0.40594000  1.0 -0.4833670285
O  O9  1  0.16306000  0.19621000  0.40565000  1.0 -0.4999012079
O  O10  1  0.83694000  0.80379000  0.59435000  1.0 -0.4999012079
O  O11  1  0.83694000  0.19621000  0.59435000  1.0 -0.4999012079
O  O12  1  0.16306000  0.80379000  0.40565000  1.0 -0.4999012079
O  O13  1  0.66306000  0.69621000  0.40565000  1.0 -0.4999012079
O  O14  1  0.33694000  0.30379000  0.59435000  1.0 -0.4999012079
O  O15  1  0.33694000  0.69621000  0.59435000  1.0 -0.4999012079
O  O16  1  0.66306000  0.30379000  0.40565000  1.0 -0.4999012079
O  O17  1  0.75628000  0.50000000  0.03766000  1.0 -0.6452460911
O  O18  1  0.24372000  0.50000000  0.96234000  1.0 -0.6452460911
O  O19  1  0.25628000  0.00000000  0.03766000  1.0 -0.6452460911
O  O20  1  0.74372000  0.00000000  0.96234000  1.0 -0.6452460911
