# DDEC6 charges by PACMAN v1.1 (https://github.com/mtap-research/PACMAN-charge/)
data_CUYQIX_ASR_pacman
_symmetry_space_group_name_H-M   'P 1'
_cell_length_a   8.32070000
_cell_length_b   13.11200000
_cell_length_c   13.42530000
_cell_angle_alpha   108.28400000
_cell_angle_beta   100.24200000
_cell_angle_gamma   88.05500000
_symmetry_Int_Tables_number   1
_chemical_formula_structural   Zn3H50C44(N2O3)4
_chemical_formula_sum   'Zn3 H50 C44 N8 O12'
_cell_volume   1368.22998177
_cell_formula_units_Z   1
loop_
 _symmetry_equiv_pos_site_id
 _symmetry_equiv_pos_as_xyz
  1  'x, y, z'
loop_
 _atom_site_type_symbol
 _atom_site_label
 _atom_site_symmetry_multiplicity
 _atom_site_fract_x
 _atom_site_fract_y
 _atom_site_fract_z
 _atom_site_occupancy
 _atom_site_charge
Zn  Zn1  1  0.77437000  0.63699000  0.63916000  1.0 0.7288471967
Zn  Zn2  1  0.22563000  0.36301000  0.36084000  1.0 0.7288471967
Zn  Zn3  1  0.00000000  0.00000000  0.00000000  1.0 0.8353856116
H  H1  1  0.83410000  0.51800000  0.78780000  1.0 0.1211488873
H  H2  1  0.16590000  0.48200000  0.21220000  1.0 0.1211488873
H  H3  1  0.88400000  0.34670000  0.79710000  1.0 0.140038649
H  H4  1  0.11600000  0.65330000  0.20290000  1.0 0.140038649
H  H5  1  0.73120000  0.23090000  0.47870000  1.0 0.15142463
H  H6  1  0.26880000  0.76910000  0.52130000  1.0 0.15142463
H  H7  1  0.67850000  0.40480000  0.47810000  1.0 0.1093939795
H  H8  1  0.32150000  0.59520000  0.52190000  1.0 0.1093939795
H  H9  1  0.94190000  0.16320000  0.70650000  1.0 0.1211488873
H  H10  1  0.05810000  0.83680000  0.29350000  1.0 0.1211488873
H  H11  1  0.75250000  0.13120000  0.66580000  1.0 0.1271968295
H  H12  1  0.24750000  0.86880000  0.33420000  1.0 0.1211488873
H  H13  1  0.80760000  0.95120000  0.58430000  1.0 0.1093939795
H  H14  1  0.19240000  0.04880000  0.41570000  1.0 0.1093939795
H  H15  1  0.99710000  0.98050000  0.63190000  1.0 0.1211488873
H  H16  1  0.00290000  0.01950000  0.36810000  1.0 0.1211488873
H  H17  1  0.13110000  0.11700000  0.58960000  1.0 0.0903653972
H  H18  1  0.86890000  0.88300000  0.41040000  1.0 0.0903653972
H  H19  1  0.03180000  0.17980000  0.51410000  1.0 0.1029375181
H  H20  1  0.96820000  0.82020000  0.48590000  1.0 0.1029375181
H  H21  1  0.59400000  0.77240000  0.51770000  1.0 0.1211488873
H  H22  1  0.40600000  0.22760000  0.48230000  1.0 0.1211488873
H  H23  1  0.54770000  0.78960000  0.34860000  1.0 0.140038649
H  H24  1  0.45230000  0.21040000  0.65140000  1.0 0.140038649
H  H25  1  0.83110000  0.53250000  0.25450000  1.0 0.15142463
H  H26  1  0.16890000  0.46750000  0.74550000  1.0 0.15142463
H  H27  1  0.87180000  0.52260000  0.42570000  1.0 0.1093939795
H  H28  1  0.12820000  0.47740000  0.57430000  1.0 0.1093939795
H  H29  1  0.56030000  0.72170000  0.16580000  1.0 0.1211488873
H  H30  1  0.43970000  0.27830000  0.83420000  1.0 0.1211488873
H  H31  1  0.75020000  0.70480000  0.15990000  1.0 0.140038649
H  H32  1  0.24980000  0.29520000  0.84010000  1.0 0.140038649
H  H33  1  0.37530000  0.56660000  0.10490000  1.0 0.0903653972
H  H34  1  0.62470000  0.43340000  0.89510000  1.0 0.0903653972
H  H35  1  0.49180000  0.50380000  0.17360000  1.0 0.1093939795
H  H36  1  0.50820000  0.49620000  0.82640000  1.0 0.1093939795
H  H37  1  0.67210000  0.62050000  0.97180000  1.0 0.1211488873
H  H38  1  0.32790000  0.37950000  0.02820000  1.0 0.1211488873
H  H39  1  0.48370000  0.63670000  0.98340000  1.0 0.1093939795
H  H40  1  0.51630000  0.36330000  0.01660000  1.0 0.1093939795
H  H41  1  0.57520000  0.90130000  0.88320000  1.0 0.140038649
H  H42  1  0.42480000  0.09870000  0.11680000  1.0 0.140038649
H  H43  1  0.51460000  0.80720000  0.92060000  1.0 0.1271968295
H  H44  1  0.48540000  0.19280000  0.07940000  1.0 0.1271968295
H  H45  1  0.35280000  0.85380000  0.73290000  1.0 0.0903653972
H  H46  1  0.64720000  0.14620000  0.26710000  1.0 0.0903653972
H  H47  1  0.31220000  0.67570000  0.73150000  1.0 0.1093939795
H  H48  1  0.68780000  0.32430000  0.26850000  1.0 0.1093939795
H  H49  1  0.24750000  0.71950000  0.84190000  1.0 0.1211488873
H  H50  1  0.75250000  0.28050000  0.15810000  1.0 0.1211488873
C  C1  1  0.81210000  0.45880000  0.72421000  1.0 0.0787256326
C  C2  1  0.18790000  0.54120000  0.27579000  1.0 0.0787256326
C  C3  1  0.84340000  0.35685000  0.73021000  1.0 -0.2263173252
C  C4  1  0.15660000  0.64315000  0.26979000  1.0 -0.2263173252
C  C5  1  0.81550000  0.26882000  0.63838000  1.0 0.15142463
C  C6  1  0.18450000  0.73118000  0.36162000  1.0 0.15142463
C  C7  1  0.75290000  0.28871000  0.54348000  1.0 -0.1999200672
C  C8  1  0.24710000  0.71129000  0.45652000  1.0 -0.1999200672
C  C9  1  0.72250000  0.39275000  0.54371000  1.0 0.072326383
C  C10  1  0.27750000  0.60725000  0.45629000  1.0 0.072326383
C  C11  1  0.84950000  0.15783000  0.64726000  1.0 -0.1904975961
C  C12  1  0.15050000  0.84217000  0.35274000  1.0 -0.1904975961
C  C13  1  0.91050000  0.97395000  0.56914000  1.0 -0.1196817585
C  C14  1  0.08950000  0.02605000  0.43086000  1.0 -0.1196817585
C  C15  1  0.04330000  0.10945000  0.52721000  1.0 -0.1285232041
C  C16  1  0.95670000  0.89055000  0.47279000  1.0 -0.1285232041
C  C17  1  0.64210000  0.72301000  0.46334000  1.0 0.0903653972
C  C18  1  0.35790000  0.27699000  0.53666000  1.0 0.0903653972
C  C19  1  0.61410000  0.73367000  0.36268000  1.0 -0.2159407228
C  C20  1  0.38590000  0.26633000  0.63732000  1.0 -0.2159407228
C  C21  1  0.68320000  0.66249000  0.28208000  1.0 0.15142463
C  C22  1  0.31680000  0.33751000  0.71792000  1.0 0.15142463
C  C23  1  0.78090000  0.58258000  0.30733000  1.0 -0.1904975961
C  C24  1  0.21910000  0.41742000  0.69267000  1.0 -0.1904975961
C  C25  1  0.80410000  0.57699000  0.40928000  1.0 0.0787256326
C  C26  1  0.19590000  0.42301000  0.59072000  1.0 0.0787256326
C  C27  1  0.65200000  0.67261000  0.17161000  1.0 -0.1904975961
C  C28  1  0.34800000  0.32739000  0.82839000  1.0 -0.1904975961
C  C29  1  0.46860000  0.51757000  0.10402000  1.0 -0.1285232041
C  C30  1  0.53140000  0.48243000  0.89598000  1.0 -0.1285232041
C  C31  1  0.57570000  0.58687000  0.98403000  1.0 -0.1196817585
C  C32  1  0.42430000  0.41313000  0.01597000  1.0 -0.1196817585
C  C33  1  0.62530000  0.75083000  0.78896000  1.0 0.6244276374
C  C34  1  0.37470000  0.24917000  0.21104000  1.0 0.6244276374
C  C35  1  0.52080000  0.82951000  0.85742000  1.0 -0.3509521574
C  C36  1  0.47920000  0.17049000  0.14258000  1.0 -0.3509521574
C  C37  1  0.34680000  0.83904000  0.80084000  1.0 -0.0617385615
C  C38  1  0.65320000  0.16096000  0.19916000  1.0 -0.0617385615
C  C39  1  0.25130000  0.73434000  0.77441000  1.0 -0.3635569454
C  C40  1  0.74870000  0.26566000  0.22559000  1.0 -0.3635569454
C  C41  1  0.07840000  0.73047000  0.71464000  1.0 0.6320797116
C  C42  1  0.92160000  0.26953000  0.28536000  1.0 0.6320797116
C  C43  1  0.26790000  0.93470000  0.87292000  1.0 0.5983103424
C  C44  1  0.73210000  0.06530000  0.12708000  1.0 0.5983103424
N  N1  1  0.75210000  0.47815000  0.63255000  1.0 -0.2479382545
N  N2  1  0.24790000  0.52185000  0.36745000  1.0 -0.2479382545
N  N3  1  0.88870000  0.07907000  0.55053000  1.0 -0.084299849
N  N4  1  0.11130000  0.92093000  0.44947000  1.0 -0.0917164052
N  N5  1  0.73510000  0.64515000  0.48707000  1.0 -0.2399772197
N  N6  1  0.26490000  0.35485000  0.51293000  1.0 -0.2399772197
N  N7  1  0.61270000  0.56867000  0.08842000  1.0 -0.0917164052
N  N8  1  0.38730000  0.43133000  0.91158000  1.0 -0.0917164052
O  O1  1  0.74636000  0.71227000  0.83232000  1.0 -0.5785210818
O  O2  1  0.25364000  0.28773000  0.16768000  1.0 -0.5785210818
O  O3  1  0.58935000  0.72749000  0.68792000  1.0 -0.5680307538
O  O4  1  0.41065000  0.27251000  0.31208000  1.0 -0.5680307538
O  O5  1  0.01024000  0.63705000  0.68227000  1.0 -0.5785210818
O  O6  1  0.98976000  0.36295000  0.31773000  1.0 -0.5851019114
O  O7  1  0.00937000  0.81085000  0.69923000  1.0 -0.562316367
O  O8  1  0.99063000  0.18915000  0.30077000  1.0 -0.562316367
O  O9  1  0.18361000  0.91482000  0.93407000  1.0 -0.5680307538
O  O10  1  0.81639000  0.08518000  0.06593000  1.0 -0.5680307538
O  O11  1  0.29648000  0.02672000  0.86911000  1.0 -0.6044843882
O  O12  1  0.70352000  0.97328000  0.13089000  1.0 -0.6044843882
