# DDEC6 charges by PACMAN v1.1 (https://github.com/mtap-research/PACMAN-charge/)
data_DABMUR_FSR_pacman
_symmetry_space_group_name_H-M   'P 1'
_cell_length_a   17.91850000
_cell_length_b   14.16100000
_cell_length_c   21.85180000
_cell_angle_alpha   90.00000000
_cell_angle_beta   108.16500000
_cell_angle_gamma   90.00000000
_symmetry_Int_Tables_number   1
_chemical_formula_structural   CuC12(NF)4
_chemical_formula_sum   'Cu8 C96 N32 F32'
_cell_volume   5268.42441960
_cell_formula_units_Z   8
loop_
 _symmetry_equiv_pos_site_id
 _symmetry_equiv_pos_as_xyz
  1  'x, y, z'
loop_
 _atom_site_type_symbol
 _atom_site_label
 _atom_site_symmetry_multiplicity
 _atom_site_fract_x
 _atom_site_fract_y
 _atom_site_fract_z
 _atom_site_occupancy
 _atom_site_charge
Cu  Cu1  1  0.52374000  0.61806000  0.18937000  1.0 0.4839913614
Cu  Cu2  1  0.97626000  0.11806000  0.81063000  1.0 0.4858966238
Cu  Cu3  1  0.47626000  0.38194000  0.81063000  1.0 0.4839913614
Cu  Cu4  1  0.02374000  0.88194000  0.18937000  1.0 0.4839913614
Cu  Cu5  1  0.41529000  0.10454000  0.24821000  1.0 0.6605401702
Cu  Cu6  1  0.08471000  0.60454000  0.75179000  1.0 0.6605401702
Cu  Cu7  1  0.58471000  0.89546000  0.75179000  1.0 0.6605401702
Cu  Cu8  1  0.91529000  0.39546000  0.24821000  1.0 0.6605401702
C  C1  1  0.73930000  0.57110000  0.50510000  1.0 0.1280506445
C  C2  1  0.76070000  0.07110000  0.49490000  1.0 0.1280506445
C  C3  1  0.26070000  0.42890000  0.49490000  1.0 0.1280506445
C  C4  1  0.23930000  0.92890000  0.50510000  1.0 0.1280506445
C  C5  1  0.18680000  0.45830000  0.99613000  1.0 0.1280506445
C  C6  1  0.31320000  0.95830000  0.00387000  1.0 0.1280506445
C  C7  1  0.81320000  0.54170000  0.00387000  1.0 0.1280506445
C  C8  1  0.68680000  0.04170000  0.99613000  1.0 0.1280506445
C  C9  1  0.91850000  0.59410000  0.65253000  1.0 0.3296122699
C  C10  1  0.58150000  0.09410000  0.34747000  1.0 0.3296122699
C  C11  1  0.08150000  0.40590000  0.34747000  1.0 0.3296122699
C  C12  1  0.41850000  0.90590000  0.65253000  1.0 0.3296122699
C  C13  1  0.35520000  0.37750000  0.13879000  1.0 -0.1337966778
C  C14  1  0.14480000  0.87750000  0.86121000  1.0 -0.1337966778
C  C15  1  0.64480000  0.62250000  0.86121000  1.0 -0.1337966778
C  C16  1  0.85520000  0.12250000  0.13879000  1.0 -0.1337966778
C  C17  1  0.09600000  0.37740000  0.89964000  1.0 -0.1337966778
C  C18  1  0.40400000  0.87740000  0.10036000  1.0 -0.1337966778
C  C19  1  0.90400000  0.62260000  0.10036000  1.0 -0.1337966778
C  C20  1  0.59600000  0.12260000  0.89964000  1.0 -0.1337966778
C  C21  1  0.29020000  0.37740000  0.07925000  1.0 -0.0711746255
C  C22  1  0.20980000  0.87740000  0.92075000  1.0 -0.0711746255
C  C23  1  0.70980000  0.62260000  0.92075000  1.0 -0.0711746255
C  C24  1  0.79020000  0.12260000  0.07925000  1.0 -0.0711746255
C  C25  1  0.04910000  0.29830000  0.87567000  1.0 0.3463870428
C  C26  1  0.45090000  0.79830000  0.12433000  1.0 0.3463870428
C  C27  1  0.95090000  0.70170000  0.12433000  1.0 0.3463870428
C  C28  1  0.54910000  0.20170000  0.87567000  1.0 0.3463870428
C  C29  1  0.26150000  0.29480000  0.04442000  1.0 0.1280506445
C  C30  1  0.23850000  0.79480000  0.95558000  1.0 0.1280506445
C  C31  1  0.73850000  0.70520000  0.95558000  1.0 0.1280506445
C  C32  1  0.76150000  0.20520000  0.04442000  1.0 0.1280506445
C  C33  1  0.08620000  0.45550000  0.85810000  1.0 0.3296122699
C  C34  1  0.41380000  0.95550000  0.14190000  1.0 0.3296122699
C  C35  1  0.91380000  0.54450000  0.14190000  1.0 0.3296122699
C  C36  1  0.58620000  0.04450000  0.85810000  1.0 0.3296122699
C  C37  1  0.75120000  0.54770000  0.33542000  1.0 -0.1381329157
C  C38  1  0.74880000  0.04770000  0.66458000  1.0 -0.1381329157
C  C39  1  0.24880000  0.45230000  0.66458000  1.0 -0.1381329157
C  C40  1  0.25120000  0.95230000  0.33542000  1.0 -0.1381329157
C  C41  1  0.15910000  0.37610000  0.96066000  1.0 -0.0816351243
C  C42  1  0.34090000  0.87610000  0.03934000  1.0 -0.0816351243
C  C43  1  0.84090000  0.62390000  0.03934000  1.0 -0.0816351243
C  C44  1  0.65910000  0.12390000  0.96066000  1.0 -0.0816351243
C  C45  1  0.67900000  0.57870000  0.29342000  1.0 0.3397369898
C  C46  1  0.82100000  0.07870000  0.70658000  1.0 0.3397369898
C  C47  1  0.32100000  0.42130000  0.70658000  1.0 0.3397369898
C  C48  1  0.17900000  0.92130000  0.29342000  1.0 0.3397369898
C  C49  1  0.84990000  0.55370000  0.44530000  1.0 0.1227660303
C  C50  1  0.65010000  0.05370000  0.55470000  1.0 0.1280506445
C  C51  1  0.15010000  0.44630000  0.55470000  1.0 0.1227660303
C  C52  1  0.34990000  0.94630000  0.44530000  1.0 0.1227660303
C  C53  1  0.71900000  0.56380000  0.43910000  1.0 0.1227660303
C  C54  1  0.78100000  0.06380000  0.56090000  1.0 0.1227660303
C  C55  1  0.28100000  0.43620000  0.56090000  1.0 0.1227660303
C  C56  1  0.21900000  0.93620000  0.43910000  1.0 0.1227660303
C  C57  1  0.81700000  0.56900000  0.54499000  1.0 -0.0711746255
C  C58  1  0.68300000  0.06900000  0.45501000  1.0 -0.0711746255
C  C59  1  0.18300000  0.43100000  0.45501000  1.0 -0.0711746255
C  C60  1  0.31700000  0.93100000  0.54499000  1.0 -0.0711746255
C  C61  1  0.19900000  0.29470000  0.98842000  1.0 0.1280506445
C  C62  1  0.30100000  0.79470000  0.01158000  1.0 0.1280506445
C  C63  1  0.80100000  0.70530000  0.01158000  1.0 0.1280506445
C  C64  1  0.69900000  0.20530000  0.98842000  1.0 0.1280506445
C  C65  1  0.87090000  0.55920000  0.51136000  1.0 0.1227660303
C  C66  1  0.62910000  0.05920000  0.48864000  1.0 0.1227660303
C  C67  1  0.12910000  0.44080000  0.48864000  1.0 0.1227660303
C  C68  1  0.37090000  0.94080000  0.51136000  1.0 0.1227660303
C  C69  1  0.24900000  0.45860000  0.05172000  1.0 0.1280506445
C  C70  1  0.25100000  0.95860000  0.94828000  1.0 0.1227660303
C  C71  1  0.75100000  0.54140000  0.94828000  1.0 0.1227660303
C  C72  1  0.74900000  0.04140000  0.05172000  1.0 0.1280506445
C  C73  1  0.40800000  0.45230000  0.15521000  1.0 0.3397369898
C  C74  1  0.09200000  0.95230000  0.84479000  1.0 0.3397369898
C  C75  1  0.59200000  0.54770000  0.84479000  1.0 0.3397369898
C  C76  1  0.90800000  0.04770000  0.15521000  1.0 0.3397369898
C  C77  1  0.37100000  0.29800000  0.17989000  1.0 0.3463870428
C  C78  1  0.12900000  0.79800000  0.82011000  1.0 0.3463870428
C  C79  1  0.62900000  0.70200000  0.82011000  1.0 0.3463870428
C  C80  1  0.87100000  0.20200000  0.17989000  1.0 0.3463870428
C  C81  1  0.79850000  0.49900000  0.30609000  1.0 0.3296122699
C  C82  1  0.70150000  0.99900000  0.69391000  1.0 0.3296122699
C  C83  1  0.20150000  0.50100000  0.69391000  1.0 0.3296122699
C  C84  1  0.29850000  0.00100000  0.30609000  1.0 0.3249381549
C  C85  1  0.84090000  0.57800000  0.61495000  1.0 -0.0711746255
C  C86  1  0.65910000  0.07800000  0.38505000  1.0 -0.0711746255
C  C87  1  0.15910000  0.42200000  0.38505000  1.0 -0.0711746255
C  C88  1  0.34090000  0.92200000  0.61495000  1.0 -0.0711746255
C  C89  1  0.77260000  0.55530000  0.40590000  1.0 -0.0903743582
C  C90  1  0.72740000  0.05530000  0.59410000  1.0 -0.0903743582
C  C91  1  0.22740000  0.44470000  0.59410000  1.0 -0.0903743582
C  C92  1  0.27260000  0.94470000  0.40590000  1.0 -0.0903743582
C  C93  1  0.78730000  0.57250000  0.65000000  1.0 0.2385411925
C  C94  1  0.71270000  0.07250000  0.35000000  1.0 0.2385411925
C  C95  1  0.21270000  0.42750000  0.35000000  1.0 0.2385411925
C  C96  1  0.28730000  0.92750000  0.65000000  1.0 0.2385411925
N  N1  1  0.98010000  0.60830000  0.68690000  1.0 -0.3995070431
N  N2  1  0.51990000  0.10830000  0.31310000  1.0 -0.3995070431
N  N3  1  0.01990000  0.39170000  0.31310000  1.0 -0.4091221445
N  N4  1  0.48010000  0.89170000  0.68690000  1.0 -0.3995070431
N  N5  1  0.62200000  0.60250000  0.25648000  1.0 -0.4192185559
N  N6  1  0.87800000  0.10250000  0.74352000  1.0 -0.4192185559
N  N7  1  0.37800000  0.39750000  0.74352000  1.0 -0.4192185559
N  N8  1  0.12200000  0.89750000  0.25648000  1.0 -0.4192185559
N  N9  1  0.01010000  0.23410000  0.85516000  1.0 -0.3995070431
N  N10  1  0.48990000  0.73410000  0.14484000  1.0 -0.3995070431
N  N11  1  0.98990000  0.76590000  0.14484000  1.0 -0.3995070431
N  N12  1  0.51010000  0.26590000  0.85516000  1.0 -0.3995070431
N  N13  1  0.38280000  0.23160000  0.21176000  1.0 -0.3995070431
N  N14  1  0.11720000  0.73160000  0.78824000  1.0 -0.3995070431
N  N15  1  0.61720000  0.76840000  0.78824000  1.0 -0.3995070431
N  N16  1  0.88280000  0.26840000  0.21176000  1.0 -0.3995070431
N  N17  1  0.83670000  0.45730000  0.28173000  1.0 -0.4192185559
N  N18  1  0.66330000  0.95730000  0.71827000  1.0 -0.4192185559
N  N19  1  0.16330000  0.54270000  0.71827000  1.0 -0.4192185559
N  N20  1  0.33670000  0.04270000  0.28173000  1.0 -0.4192185559
N  N21  1  0.07980000  0.51820000  0.82327000  1.0 -0.3995070431
N  N22  1  0.42020000  0.01820000  0.17673000  1.0 -0.3995070431
N  N23  1  0.92020000  0.48180000  0.17673000  1.0 -0.3995070431
N  N24  1  0.57980000  0.98180000  0.82327000  1.0 -0.3995070431
N  N25  1  0.45350000  0.51290000  0.16842000  1.0 -0.4091221445
N  N26  1  0.04650000  0.01290000  0.83158000  1.0 -0.4091221445
N  N27  1  0.54650000  0.48710000  0.83158000  1.0 -0.4091221445
N  N28  1  0.95350000  0.98710000  0.16842000  1.0 -0.4091221445
N  N29  1  0.74790000  0.57040000  0.68290000  1.0 -0.360442751
N  N30  1  0.75210000  0.07040000  0.31710000  1.0 -0.353816135
N  N31  1  0.25210000  0.42960000  0.31710000  1.0 -0.353816135
N  N32  1  0.24790000  0.92960000  0.68290000  1.0 -0.353816135
F  F1  1  0.27006000  0.54202000  0.08281000  1.0 -0.0903743582
F  F2  1  0.22994000  0.04202000  0.91719000  1.0 -0.0903743582
F  F3  1  0.72994000  0.45798000  0.91719000  1.0 -0.0903743582
F  F4  1  0.77006000  0.95798000  0.08281000  1.0 -0.0903743582
F  F5  1  0.15029000  0.54079000  0.97551000  1.0 -0.0972879239
F  F6  1  0.34971000  0.04079000  0.02449000  1.0 -0.0972879239
F  F7  1  0.84971000  0.45921000  0.02449000  1.0 -0.0972879239
F  F8  1  0.65029000  0.95921000  0.97551000  1.0 -0.0972879239
F  F9  1  0.29657000  0.21193000  0.06538000  1.0 -0.0903743582
F  F10  1  0.20343000  0.71193000  0.93462000  1.0 -0.0903743582
F  F11  1  0.70343000  0.78807000  0.93462000  1.0 -0.0903743582
F  F12  1  0.79657000  0.28807000  0.06538000  1.0 -0.0903743582
F  F13  1  0.17701000  0.21120000  0.95883000  1.0 -0.0903743582
F  F14  1  0.32299000  0.71120000  0.04117000  1.0 -0.0972879239
F  F15  1  0.82299000  0.78880000  0.04117000  1.0 -0.0903743582
F  F16  1  0.67701000  0.28880000  0.95883000  1.0 -0.0903743582
F  F17  1  0.64130000  0.56420000  0.40572000  1.0 -0.1168942664
F  F18  1  0.85870000  0.06420000  0.59428000  1.0 -0.1168942664
F  F19  1  0.35870000  0.43580000  0.59428000  1.0 -0.1168942664
F  F20  1  0.14130000  0.93580000  0.40572000  1.0 -0.1168942664
F  F21  1  0.90827000  0.54690000  0.41852000  1.0 -0.0903743582
F  F22  1  0.59173000  0.04690000  0.58148000  1.0 -0.0903743582
F  F23  1  0.09173000  0.45310000  0.58148000  1.0 -0.0903743582
F  F24  1  0.40827000  0.95310000  0.41852000  1.0 -0.0903743582
F  F25  1  0.68138000  0.57850000  0.53183000  1.0 -0.0903743582
F  F26  1  0.81862000  0.07850000  0.46817000  1.0 -0.0816351243
F  F27  1  0.31862000  0.42150000  0.46817000  1.0 -0.0903743582
F  F28  1  0.18138000  0.92150000  0.53183000  1.0 -0.0903743582
F  F29  1  0.94847000  0.55620000  0.54404000  1.0 -0.0903743582
F  F30  1  0.55153000  0.05620000  0.45596000  1.0 -0.0903743582
F  F31  1  0.05153000  0.44380000  0.45596000  1.0 -0.0903743582
F  F32  1  0.44847000  0.94380000  0.54404000  1.0 -0.0903743582
