# DDEC6 charges by PACMAN v1.1 (https://github.com/mtap-research/PACMAN-charge/)
data_DACDAQ_FSR_pacman
_symmetry_space_group_name_H-M   'P 1'
_cell_length_a   16.41670000
_cell_length_b   16.41670000
_cell_length_c   16.41670000
_cell_angle_alpha   99.71860000
_cell_angle_beta   99.71860000
_cell_angle_gamma   99.71860000
_symmetry_Int_Tables_number   1
_chemical_formula_structural   Zn4H9C30S3(NO6)3
_chemical_formula_sum   'Zn16 H36 C120 S12 N12 O72'
_cell_volume   4208.77095225
_cell_formula_units_Z   4
loop_
 _symmetry_equiv_pos_site_id
 _symmetry_equiv_pos_as_xyz
  1  'x, y, z'
loop_
 _atom_site_type_symbol
 _atom_site_label
 _atom_site_symmetry_multiplicity
 _atom_site_fract_x
 _atom_site_fract_y
 _atom_site_fract_z
 _atom_site_occupancy
 _atom_site_charge
Zn  Zn1  1  0.22419000  0.31149000  0.16950000  1.0 0.4987592475
Zn  Zn2  1  0.31149000  0.16950000  0.22419000  1.0 0.4987592475
Zn  Zn3  1  0.16950000  0.22419000  0.31149000  1.0 0.4987592475
Zn  Zn4  1  0.27581000  0.33050000  0.18851000  1.0 0.4987592475
Zn  Zn5  1  0.18851000  0.27581000  0.33050000  1.0 0.4987592475
Zn  Zn6  1  0.33050000  0.18851000  0.27581000  1.0 0.4987592475
Zn  Zn7  1  0.77581000  0.68851000  0.83050000  1.0 0.4987592475
Zn  Zn8  1  0.68851000  0.83050000  0.77581000  1.0 0.4987592475
Zn  Zn9  1  0.83050000  0.77581000  0.68851000  1.0 0.4987592475
Zn  Zn10  1  0.72419000  0.66950000  0.81149000  1.0 0.4987592475
Zn  Zn11  1  0.81149000  0.72419000  0.66950000  1.0 0.4987592475
Zn  Zn12  1  0.66950000  0.81149000  0.72419000  1.0 0.4987592475
Zn  Zn13  1  0.15248000  0.15248000  0.15248000  1.0 0.532430269
Zn  Zn14  1  0.34752000  0.34752000  0.34752000  1.0 0.532430269
Zn  Zn15  1  0.84752000  0.84752000  0.84752000  1.0 0.532430269
Zn  Zn16  1  0.65248000  0.65248000  0.65248000  1.0 0.532430269
H  H1  1  0.29430000  0.05490000  0.97210000  1.0 0.1471165147
H  H2  1  0.32510000  0.29540000  0.94260000  1.0 0.1471165147
H  H3  1  0.36720000  0.25610000  0.81620000  1.0 0.1608630346
H  H4  1  0.05490000  0.97210000  0.29430000  1.0 0.1471165147
H  H5  1  0.29540000  0.94260000  0.32510000  1.0 0.1471165147
H  H6  1  0.25610000  0.81620000  0.36720000  1.0 0.1608630346
H  H7  1  0.97210000  0.29430000  0.05490000  1.0 0.1471165147
H  H8  1  0.94260000  0.32510000  0.29540000  1.0 0.1471165147
H  H9  1  0.81620000  0.36720000  0.25610000  1.0 0.1608630346
H  H10  1  0.20570000  0.52790000  0.44510000  1.0 0.1471165147
H  H11  1  0.17490000  0.55740000  0.20460000  1.0 0.1471165147
H  H12  1  0.13280000  0.68380000  0.24390000  1.0 0.1608630346
H  H13  1  0.44510000  0.20570000  0.52790000  1.0 0.1471165147
H  H14  1  0.20460000  0.17490000  0.55740000  1.0 0.1471165147
H  H15  1  0.24390000  0.13280000  0.68380000  1.0 0.1608630346
H  H16  1  0.52790000  0.44510000  0.20570000  1.0 0.1471165147
H  H17  1  0.55740000  0.20460000  0.17490000  1.0 0.1471165147
H  H18  1  0.68380000  0.24390000  0.13280000  1.0 0.1608630346
H  H19  1  0.70570000  0.94510000  0.02790000  1.0 0.1471165147
H  H20  1  0.67490000  0.70460000  0.05740000  1.0 0.1471165147
H  H21  1  0.63280000  0.74390000  0.18380000  1.0 0.1608630346
H  H22  1  0.94510000  0.02790000  0.70570000  1.0 0.1471165147
H  H23  1  0.70460000  0.05740000  0.67490000  1.0 0.1471165147
H  H24  1  0.74390000  0.18380000  0.63280000  1.0 0.1608630346
H  H25  1  0.02790000  0.70570000  0.94510000  1.0 0.1471165147
H  H26  1  0.05740000  0.67490000  0.70460000  1.0 0.1471165147
H  H27  1  0.18380000  0.63280000  0.74390000  1.0 0.1608630346
H  H28  1  0.79430000  0.47210000  0.55490000  1.0 0.1471165147
H  H29  1  0.82510000  0.44260000  0.79540000  1.0 0.1471165147
H  H30  1  0.86720000  0.31620000  0.75610000  1.0 0.1608630346
H  H31  1  0.55490000  0.79430000  0.47210000  1.0 0.1471165147
H  H32  1  0.79540000  0.82510000  0.44260000  1.0 0.1471165147
H  H33  1  0.75610000  0.86720000  0.31620000  1.0 0.1608630346
H  H34  1  0.47210000  0.55490000  0.79430000  1.0 0.1471165147
H  H35  1  0.44260000  0.79540000  0.82510000  1.0 0.1471165147
H  H36  1  0.31620000  0.75610000  0.86720000  1.0 0.1608630346
C  C1  1  0.27380000  0.20360000  0.04790000  1.0 0.5603614824
C  C2  1  0.30400000  0.18020000  0.96790000  1.0 -0.0346386245
C  C3  1  0.30850000  0.09470000  0.94000000  1.0 -0.0858391205
C  C4  1  0.32690000  0.23930000  0.92310000  1.0 -0.0527690871
C  C5  1  0.33400000  0.07050000  0.86460000  1.0 -0.1653978947
C  C6  1  0.35300000  0.21590000  0.84780000  1.0 -0.1607687057
C  C7  1  0.35810000  0.13350000  0.82010000  1.0 0.2612721201
C  C8  1  0.97800000  0.09600000  0.02500000  1.0 0.051514432
C  C9  1  0.90200000  0.05800000  0.11800000  1.0 0.0326586988
C  C10  1  0.85900000  0.08900000  0.98900000  1.0 0.0182345623
C  C11  1  0.20360000  0.04790000  0.27380000  1.0 0.5603614824
C  C12  1  0.18020000  0.96790000  0.30400000  1.0 -0.0346386245
C  C13  1  0.09470000  0.94000000  0.30850000  1.0 -0.0858391205
C  C14  1  0.23930000  0.92310000  0.32690000  1.0 -0.0527690871
C  C15  1  0.07050000  0.86460000  0.33400000  1.0 -0.1653978947
C  C16  1  0.21590000  0.84780000  0.35300000  1.0 -0.1607687057
C  C17  1  0.13350000  0.82010000  0.35810000  1.0 0.2612721201
C  C18  1  0.09600000  0.02500000  0.97800000  1.0 0.051514432
C  C19  1  0.05800000  0.11800000  0.90200000  1.0 0.0326586988
C  C20  1  0.08900000  0.98900000  0.85900000  1.0 0.0182345623
C  C21  1  0.04790000  0.27380000  0.20360000  1.0 0.5603614824
C  C22  1  0.96790000  0.30400000  0.18020000  1.0 -0.0346386245
C  C23  1  0.94000000  0.30850000  0.09470000  1.0 -0.0858391205
C  C24  1  0.92310000  0.32690000  0.23930000  1.0 -0.0527690871
C  C25  1  0.86460000  0.33400000  0.07050000  1.0 -0.1653978947
C  C26  1  0.84780000  0.35300000  0.21590000  1.0 -0.1607687057
C  C27  1  0.82010000  0.35810000  0.13350000  1.0 0.2612721201
C  C28  1  0.02500000  0.97800000  0.09600000  1.0 0.051514432
C  C29  1  0.11800000  0.90200000  0.05800000  1.0 0.0326586988
C  C30  1  0.98900000  0.85900000  0.08900000  1.0 0.0182345623
C  C31  1  0.22620000  0.45210000  0.29640000  1.0 0.5603614824
C  C32  1  0.19600000  0.53210000  0.31980000  1.0 -0.0346386245
C  C33  1  0.19150000  0.56000000  0.40530000  1.0 -0.0858391205
C  C34  1  0.17310000  0.57690000  0.26070000  1.0 -0.0527690871
C  C35  1  0.16600000  0.63540000  0.42950000  1.0 -0.1653978947
C  C36  1  0.14700000  0.65220000  0.28410000  1.0 -0.1607687057
C  C37  1  0.14190000  0.67990000  0.36650000  1.0 0.2612721201
C  C38  1  0.52200000  0.47500000  0.40400000  1.0 0.051514432
C  C39  1  0.59800000  0.38200000  0.44200000  1.0 0.0326586988
C  C40  1  0.64100000  0.51100000  0.41100000  1.0 0.0182345623
C  C41  1  0.29640000  0.22620000  0.45210000  1.0 0.5603614824
C  C42  1  0.31980000  0.19600000  0.53210000  1.0 -0.0346386245
C  C43  1  0.40530000  0.19150000  0.56000000  1.0 -0.0858391205
C  C44  1  0.26070000  0.17310000  0.57690000  1.0 -0.0527690871
C  C45  1  0.42950000  0.16600000  0.63540000  1.0 -0.1653978947
C  C46  1  0.28410000  0.14700000  0.65220000  1.0 -0.1607687057
C  C47  1  0.36650000  0.14190000  0.67990000  1.0 0.2612721201
C  C48  1  0.40400000  0.52200000  0.47500000  1.0 0.051514432
C  C49  1  0.44200000  0.59800000  0.38200000  1.0 0.0326586988
C  C50  1  0.41100000  0.64100000  0.51100000  1.0 0.0182345623
C  C51  1  0.45210000  0.29640000  0.22620000  1.0 0.5603614824
C  C52  1  0.53210000  0.31980000  0.19600000  1.0 -0.0346386245
C  C53  1  0.56000000  0.40530000  0.19150000  1.0 -0.0858391205
C  C54  1  0.57690000  0.26070000  0.17310000  1.0 -0.0527690871
C  C55  1  0.63540000  0.42950000  0.16600000  1.0 -0.1653978947
C  C56  1  0.65220000  0.28410000  0.14700000  1.0 -0.1607687057
C  C57  1  0.67990000  0.36650000  0.14190000  1.0 0.2612721201
C  C58  1  0.47500000  0.40400000  0.52200000  1.0 0.051514432
C  C59  1  0.38200000  0.44200000  0.59800000  1.0 0.0326586988
C  C60  1  0.51100000  0.41100000  0.64100000  1.0 0.0182345623
C  C61  1  0.72620000  0.79640000  0.95210000  1.0 0.5603614824
C  C62  1  0.69600000  0.81980000  0.03210000  1.0 -0.0346386245
C  C63  1  0.69150000  0.90530000  0.06000000  1.0 -0.0858391205
C  C64  1  0.67310000  0.76070000  0.07690000  1.0 -0.0527690871
C  C65  1  0.66600000  0.92950000  0.13540000  1.0 -0.1653978947
C  C66  1  0.64700000  0.78410000  0.15220000  1.0 -0.1607687057
C  C67  1  0.64190000  0.86650000  0.17990000  1.0 0.2612721201
C  C68  1  0.02200000  0.90400000  0.97500000  1.0 0.051514432
C  C69  1  0.09800000  0.94200000  0.88200000  1.0 0.0326586988
C  C70  1  0.14100000  0.91100000  0.01100000  1.0 0.0182345623
C  C71  1  0.79640000  0.95210000  0.72620000  1.0 0.5603614824
C  C72  1  0.81980000  0.03210000  0.69600000  1.0 -0.0346386245
C  C73  1  0.90530000  0.06000000  0.69150000  1.0 -0.0858391205
C  C74  1  0.76070000  0.07690000  0.67310000  1.0 -0.0527690871
C  C75  1  0.92950000  0.13540000  0.66600000  1.0 -0.1653978947
C  C76  1  0.78410000  0.15220000  0.64700000  1.0 -0.1607687057
C  C77  1  0.86650000  0.17990000  0.64190000  1.0 0.2612721201
C  C78  1  0.90400000  0.97500000  0.02200000  1.0 0.051514432
C  C79  1  0.94200000  0.88200000  0.09800000  1.0 0.0326586988
C  C80  1  0.91100000  0.01100000  0.14100000  1.0 0.0182345623
C  C81  1  0.95210000  0.72620000  0.79640000  1.0 0.5603614824
C  C82  1  0.03210000  0.69600000  0.81980000  1.0 -0.0346386245
C  C83  1  0.06000000  0.69150000  0.90530000  1.0 -0.0858391205
C  C84  1  0.07690000  0.67310000  0.76070000  1.0 -0.0527690871
C  C85  1  0.13540000  0.66600000  0.92950000  1.0 -0.1653978947
C  C86  1  0.15220000  0.64700000  0.78410000  1.0 -0.1607687057
C  C87  1  0.17990000  0.64190000  0.86650000  1.0 0.2612721201
C  C88  1  0.97500000  0.02200000  0.90400000  1.0 0.051514432
C  C89  1  0.88200000  0.09800000  0.94200000  1.0 0.0326586988
C  C90  1  0.01100000  0.14100000  0.91100000  1.0 0.0182345623
C  C91  1  0.77380000  0.54790000  0.70360000  1.0 0.5603614824
C  C92  1  0.80400000  0.46790000  0.68020000  1.0 -0.0346386245
C  C93  1  0.80850000  0.44000000  0.59470000  1.0 -0.0858391205
C  C94  1  0.82690000  0.42310000  0.73930000  1.0 -0.0527690871
C  C95  1  0.83400000  0.36460000  0.57050000  1.0 -0.1653978947
C  C96  1  0.85300000  0.34780000  0.71590000  1.0 -0.1607687057
C  C97  1  0.85810000  0.32010000  0.63350000  1.0 0.2612721201
C  C98  1  0.47800000  0.52500000  0.59600000  1.0 0.051514432
C  C99  1  0.40200000  0.61800000  0.55800000  1.0 0.0326586988
C  C100  1  0.35900000  0.48900000  0.58900000  1.0 0.0182345623
C  C101  1  0.70360000  0.77380000  0.54790000  1.0 0.5603614824
C  C102  1  0.68020000  0.80400000  0.46790000  1.0 -0.0346386245
C  C103  1  0.59470000  0.80850000  0.44000000  1.0 -0.0858391205
C  C104  1  0.73930000  0.82690000  0.42310000  1.0 -0.0527690871
C  C105  1  0.57050000  0.83400000  0.36460000  1.0 -0.1653978947
C  C106  1  0.71590000  0.85300000  0.34780000  1.0 -0.1607687057
C  C107  1  0.63350000  0.85810000  0.32010000  1.0 0.2612721201
C  C108  1  0.59600000  0.47800000  0.52500000  1.0 0.051514432
C  C109  1  0.55800000  0.40200000  0.61800000  1.0 0.0326586988
C  C110  1  0.58900000  0.35900000  0.48900000  1.0 0.0182345623
C  C111  1  0.54790000  0.70360000  0.77380000  1.0 0.5603614824
C  C112  1  0.46790000  0.68020000  0.80400000  1.0 -0.0346386245
C  C113  1  0.44000000  0.59470000  0.80850000  1.0 -0.0858391205
C  C114  1  0.42310000  0.73930000  0.82690000  1.0 -0.0527690871
C  C115  1  0.36460000  0.57050000  0.83400000  1.0 -0.1653978947
C  C116  1  0.34780000  0.71590000  0.85300000  1.0 -0.1607687057
C  C117  1  0.32010000  0.63350000  0.85810000  1.0 0.2612721201
C  C118  1  0.52500000  0.59600000  0.47800000  1.0 0.051514432
C  C119  1  0.61800000  0.55800000  0.40200000  1.0 0.0326586988
C  C120  1  0.48900000  0.58900000  0.35900000  1.0 0.0182345623
S  S1  1  0.33690000  0.96311000  0.82818000  1.0 1.1857202129
S  S2  1  0.96311000  0.82818000  0.33690000  1.0 1.1857202129
S  S3  1  0.82818000  0.33690000  0.96311000  1.0 1.1845500716
S  S4  1  0.16310000  0.67182000  0.53689000  1.0 1.1857202129
S  S5  1  0.53689000  0.16310000  0.67182000  1.0 1.1845500716
S  S6  1  0.67182000  0.53689000  0.16310000  1.0 1.1845500716
S  S7  1  0.66310000  0.03689000  0.17182000  1.0 1.1845500716
S  S8  1  0.03689000  0.17182000  0.66310000  1.0 1.1845500716
S  S9  1  0.17182000  0.66310000  0.03689000  1.0 1.1857202129
S  S10  1  0.83690000  0.32818000  0.46311000  1.0 1.1845500716
S  S11  1  0.46311000  0.83690000  0.32818000  1.0 1.1857202129
S  S12  1  0.32818000  0.46311000  0.83690000  1.0 1.1845500716
N  N1  1  0.90200000  0.06200000  0.03600000  1.0 0.0991372847
N  N2  1  0.06200000  0.03600000  0.90200000  1.0 0.0991372847
N  N3  1  0.03600000  0.90200000  0.06200000  1.0 0.0991372847
N  N4  1  0.59800000  0.46400000  0.43800000  1.0 0.0991372847
N  N5  1  0.43800000  0.59800000  0.46400000  1.0 0.0991372847
N  N6  1  0.46400000  0.43800000  0.59800000  1.0 0.0991372847
N  N7  1  0.09800000  0.93800000  0.96400000  1.0 0.0991372847
N  N8  1  0.93800000  0.96400000  0.09800000  1.0 0.0991372847
N  N9  1  0.96400000  0.09800000  0.93800000  1.0 0.0991372847
N  N10  1  0.40200000  0.53600000  0.56200000  1.0 0.0991372847
N  N11  1  0.56200000  0.40200000  0.53600000  1.0 0.0991372847
N  N12  1  0.53600000  0.56200000  0.40200000  1.0 0.0991372847
O  O1  1  0.25310000  0.14390000  0.08480000  1.0 -0.5003196521
O  O2  1  0.26870000  0.27830000  0.07100000  1.0 -0.4321048482
O  O3  1  0.30270000  0.91810000  0.88630000  1.0 -0.5833920363
O  O4  1  0.42440000  0.96030000  0.82890000  1.0 -0.530778013
O  O5  1  0.28760000  0.94050000  0.74280000  1.0 -0.536926858
O  O6  1  0.14390000  0.08480000  0.25310000  1.0 -0.5003196521
O  O7  1  0.27830000  0.07100000  0.26870000  1.0 -0.4321048482
O  O8  1  0.91810000  0.88630000  0.30270000  1.0 -0.5833920363
O  O9  1  0.96030000  0.82890000  0.42440000  1.0 -0.530778013
O  O10  1  0.94050000  0.74280000  0.28760000  1.0 -0.536926858
O  O11  1  0.08480000  0.25310000  0.14390000  1.0 -0.5003196521
O  O12  1  0.07100000  0.26870000  0.27830000  1.0 -0.4321048482
O  O13  1  0.88630000  0.30270000  0.91810000  1.0 -0.5833920363
O  O14  1  0.82890000  0.42440000  0.96030000  1.0 -0.530778013
O  O15  1  0.74280000  0.28760000  0.94050000  1.0 -0.536926858
O  O16  1  0.24690000  0.41520000  0.35610000  1.0 -0.5003196521
O  O17  1  0.23130000  0.42900000  0.22170000  1.0 -0.4321048482
O  O18  1  0.19730000  0.61370000  0.58190000  1.0 -0.5833920363
O  O19  1  0.07560000  0.67110000  0.53970000  1.0 -0.530778013
O  O20  1  0.21240000  0.75720000  0.55950000  1.0 -0.536926858
O  O21  1  0.35610000  0.24690000  0.41520000  1.0 -0.5003196521
O  O22  1  0.22170000  0.23130000  0.42900000  1.0 -0.4321048482
O  O23  1  0.58190000  0.19730000  0.61370000  1.0 -0.5833920363
O  O24  1  0.53970000  0.07560000  0.67110000  1.0 -0.530778013
O  O25  1  0.55950000  0.21240000  0.75720000  1.0 -0.536926858
O  O26  1  0.41520000  0.35610000  0.24690000  1.0 -0.5003196521
O  O27  1  0.42900000  0.22170000  0.23130000  1.0 -0.4321048482
O  O28  1  0.61370000  0.58190000  0.19730000  1.0 -0.5833920363
O  O29  1  0.67110000  0.53970000  0.07560000  1.0 -0.530778013
O  O30  1  0.75720000  0.55950000  0.21240000  1.0 -0.536926858
O  O31  1  0.74690000  0.85610000  0.91520000  1.0 -0.5003196521
O  O32  1  0.73130000  0.72170000  0.92900000  1.0 -0.4321048482
O  O33  1  0.69730000  0.08190000  0.11370000  1.0 -0.5833920363
O  O34  1  0.57560000  0.03970000  0.17110000  1.0 -0.530778013
O  O35  1  0.71240000  0.05950000  0.25720000  1.0 -0.536926858
O  O36  1  0.85610000  0.91520000  0.74690000  1.0 -0.5003196521
O  O37  1  0.72170000  0.92900000  0.73130000  1.0 -0.4321048482
O  O38  1  0.08190000  0.11370000  0.69730000  1.0 -0.5833920363
O  O39  1  0.03970000  0.17110000  0.57560000  1.0 -0.530778013
O  O40  1  0.05950000  0.25720000  0.71240000  1.0 -0.536926858
O  O41  1  0.91520000  0.74690000  0.85610000  1.0 -0.5003196521
O  O42  1  0.92900000  0.73130000  0.72170000  1.0 -0.4321048482
O  O43  1  0.11370000  0.69730000  0.08190000  1.0 -0.5833920363
O  O44  1  0.17110000  0.57560000  0.03970000  1.0 -0.530778013
O  O45  1  0.25720000  0.71240000  0.05950000  1.0 -0.536926858
O  O46  1  0.75310000  0.58480000  0.64390000  1.0 -0.5003196521
O  O47  1  0.76870000  0.57100000  0.77830000  1.0 -0.4321048482
O  O48  1  0.80270000  0.38630000  0.41810000  1.0 -0.5833920363
O  O49  1  0.92440000  0.32890000  0.46030000  1.0 -0.530778013
O  O50  1  0.78760000  0.24280000  0.44050000  1.0 -0.536926858
O  O51  1  0.64390000  0.75310000  0.58480000  1.0 -0.5003196521
O  O52  1  0.77830000  0.76870000  0.57100000  1.0 -0.4321048482
O  O53  1  0.41810000  0.80270000  0.38630000  1.0 -0.5833920363
O  O54  1  0.46030000  0.92440000  0.32890000  1.0 -0.530778013
O  O55  1  0.44050000  0.78760000  0.24280000  1.0 -0.536926858
O  O56  1  0.58480000  0.64390000  0.75310000  1.0 -0.5003196521
O  O57  1  0.57100000  0.77830000  0.76870000  1.0 -0.4321048482
O  O58  1  0.38630000  0.41810000  0.80270000  1.0 -0.5833920363
O  O59  1  0.32890000  0.46030000  0.92440000  1.0 -0.530778013
O  O60  1  0.24280000  0.44050000  0.78760000  1.0 -0.536926858
O  O61  1  0.06870000  0.06870000  0.06870000  1.0 -0.2082461788
O  O62  1  0.43130000  0.43130000  0.43130000  1.0 -0.2082461788
O  O63  1  0.93130000  0.93130000  0.93130000  1.0 -0.2082461788
O  O64  1  0.56870000  0.56870000  0.56870000  1.0 -0.2082461788
O  O65  1  0.25000000  0.25000000  0.25000000  1.0 -0.6408821566
O  O66  1  0.75000000  0.75000000  0.75000000  1.0 -0.6408821566
O  O67  1  0.39095000  0.10905000  0.75000000  1.0 -0.1607687057
O  O68  1  0.10905000  0.75000000  0.39095000  1.0 -0.1607687057
O  O69  1  0.75000000  0.39095000  0.10905000  1.0 -0.1607687057
O  O70  1  0.60905000  0.89095000  0.25000000  1.0 -0.1607687057
O  O71  1  0.89095000  0.25000000  0.60905000  1.0 -0.1607687057
O  O72  1  0.25000000  0.60905000  0.89095000  1.0 -0.1607687057
