# DDEC6 charges by PACMAN v1.1 (https://github.com/mtap-research/PACMAN-charge/)
data_DACDOE_FSR_pacman
_symmetry_space_group_name_H-M   'P 1'
_cell_length_a   23.48510000
_cell_length_b   23.48510000
_cell_length_c   7.13400000
_cell_angle_alpha   82.36280000
_cell_angle_beta   97.63720000
_cell_angle_gamma   140.44800000
_symmetry_Int_Tables_number   1
_chemical_formula_structural   K4ZnH14C28(SO6)4
_chemical_formula_sum   'K8 Zn2 H28 C56 S8 O48'
_cell_volume   2480.45430317
_cell_formula_units_Z   2
loop_
 _symmetry_equiv_pos_site_id
 _symmetry_equiv_pos_as_xyz
  1  'x, y, z'
loop_
 _atom_site_type_symbol
 _atom_site_label
 _atom_site_symmetry_multiplicity
 _atom_site_fract_x
 _atom_site_fract_y
 _atom_site_fract_z
 _atom_site_occupancy
 _atom_site_charge
K  K1  1  0.75490000  0.41832000  0.02480000  1.0 0.8734414842
K  K2  1  0.92566000  0.49598000  0.65158000  1.0 0.886008453
K  K3  1  0.41832000  0.75490000  0.47520000  1.0 0.8734414842
K  K4  1  0.49598000  0.92566000  0.84842000  1.0 0.886008453
K  K5  1  0.24510000  0.58168000  0.97520000  1.0 0.8734414842
K  K6  1  0.07434000  0.50402000  0.34842000  1.0 0.886008453
K  K7  1  0.58168000  0.24510000  0.52480000  1.0 0.8734414842
K  K8  1  0.50402000  0.07434000  0.15158000  1.0 0.886008453
Zn  Zn1  1  0.46255000  0.46255000  0.25000000  1.0 0.9632734027
Zn  Zn2  1  0.53745000  0.53745000  0.75000000  1.0 0.9632734027
H  H1  1  0.34020000  0.04960000  0.16480000  1.0 0.3770953682
H  H2  1  0.64620000  0.47660000  0.36160000  1.0 0.1479103731
H  H3  1  0.88590000  0.66930000  0.97060000  1.0 0.1479103731
H  H4  1  0.76690000  0.64050000  0.89730000  1.0 0.1300507155
H  H5  1  0.17670000  0.77110000  0.12760000  1.0 0.1479103731
H  H6  1  0.13470000  0.89670000  0.26020000  1.0 0.1197211411
H  H7  1  0.98490000  0.76150000  0.28630000  1.0 0.1428247061
H  H8  1  0.04960000  0.34020000  0.33520000  1.0 0.3770953682
H  H9  1  0.47660000  0.64620000  0.13840000  1.0 0.1479103731
H  H10  1  0.66930000  0.88590000  0.52940000  1.0 0.1479103731
H  H11  1  0.64050000  0.76690000  0.60270000  1.0 0.1300507155
H  H12  1  0.77110000  0.17670000  0.37240000  1.0 0.1479103731
H  H13  1  0.89670000  0.13470000  0.23980000  1.0 0.1197211411
H  H14  1  0.76150000  0.98490000  0.21370000  1.0 0.1428247061
H  H15  1  0.65980000  0.95040000  0.83520000  1.0 0.3770953682
H  H16  1  0.35380000  0.52340000  0.63840000  1.0 0.1479103731
H  H17  1  0.11410000  0.33070000  0.02940000  1.0 0.1479103731
H  H18  1  0.23310000  0.35950000  0.10270000  1.0 0.1300507155
H  H19  1  0.82330000  0.22890000  0.87240000  1.0 0.1479103731
H  H20  1  0.86530000  0.10330000  0.73980000  1.0 0.1197211411
H  H21  1  0.01510000  0.23850000  0.71370000  1.0 0.1428247061
H  H22  1  0.95040000  0.65980000  0.66480000  1.0 0.3770953682
H  H23  1  0.52340000  0.35380000  0.86160000  1.0 0.1479103731
H  H24  1  0.33070000  0.11410000  0.47060000  1.0 0.1479103731
H  H25  1  0.35950000  0.23310000  0.39730000  1.0 0.1300507155
H  H26  1  0.22890000  0.82330000  0.62760000  1.0 0.1479103731
H  H27  1  0.10330000  0.86530000  0.76020000  1.0 0.1197211411
H  H28  1  0.23850000  0.01510000  0.78630000  1.0 0.1428247061
C  C1  1  0.62127000  0.54233000  0.08650000  1.0 0.608212274
C  C2  1  0.69683000  0.55897000  0.12800000  1.0 -0.0350334975
C  C3  1  0.69511000  0.51649000  0.28540000  1.0 -0.0606640284
C  C4  1  0.76515000  0.53285000  0.32940000  1.0 -0.2113947361
C  C5  1  0.83761000  0.59159000  0.21150000  1.0 0.238792744
C  C6  1  0.83816000  0.63144000  0.04980000  1.0 -0.225255977
C  C7  1  0.76755000  0.61465000  0.00710000  1.0 -0.0508498676
C  C8  1  0.99193000  0.68587000  0.22520000  1.0 0.2559070927
C  C9  1  0.04866000  0.68794000  0.17530000  1.0 -0.1787316124
C  C10  1  0.13793000  0.76887000  0.16050000  1.0 -0.0713913055
C  C11  1  0.17121000  0.84799000  0.19420000  1.0 -0.0508498676
C  C12  1  0.11305000  0.84415000  0.23980000  1.0 -0.0713913055
C  C13  1  0.02375000  0.76365000  0.25540000  1.0 -0.2113947361
C  C14  1  0.26803000  0.93377000  0.17570000  1.0 0.5318675753
C  C15  1  0.54233000  0.62127000  0.41350000  1.0 0.608212274
C  C16  1  0.55897000  0.69683000  0.37200000  1.0 -0.0350334975
C  C17  1  0.51649000  0.69511000  0.21460000  1.0 -0.0606640284
C  C18  1  0.53285000  0.76515000  0.17060000  1.0 -0.2113947361
C  C19  1  0.59159000  0.83761000  0.28850000  1.0 0.238792744
C  C20  1  0.63144000  0.83816000  0.45020000  1.0 -0.225255977
C  C21  1  0.61465000  0.76755000  0.49290000  1.0 -0.0508498676
C  C22  1  0.68587000  0.99193000  0.27480000  1.0 0.2559070927
C  C23  1  0.68794000  0.04866000  0.32470000  1.0 -0.1787316124
C  C24  1  0.76887000  0.13793000  0.33950000  1.0 -0.0713913055
C  C25  1  0.84799000  0.17121000  0.30580000  1.0 -0.0508498676
C  C26  1  0.84415000  0.11305000  0.26020000  1.0 -0.0713913055
C  C27  1  0.76365000  0.02375000  0.24460000  1.0 -0.2113947361
C  C28  1  0.93377000  0.26803000  0.32430000  1.0 0.5318675753
C  C29  1  0.37873000  0.45767000  0.91350000  1.0 0.608212274
C  C30  1  0.30317000  0.44103000  0.87200000  1.0 -0.0350334975
C  C31  1  0.30489000  0.48351000  0.71460000  1.0 -0.0606640284
C  C32  1  0.23485000  0.46715000  0.67060000  1.0 -0.2113947361
C  C33  1  0.16239000  0.40841000  0.78850000  1.0 0.238792744
C  C34  1  0.16184000  0.36856000  0.95020000  1.0 -0.225255977
C  C35  1  0.23245000  0.38535000  0.99290000  1.0 -0.0508498676
C  C36  1  0.00807000  0.31413000  0.77480000  1.0 0.2559070927
C  C37  1  0.95134000  0.31206000  0.82470000  1.0 -0.1787316124
C  C38  1  0.86207000  0.23113000  0.83950000  1.0 -0.0713913055
C  C39  1  0.82879000  0.15201000  0.80580000  1.0 -0.0508498676
C  C40  1  0.88695000  0.15585000  0.76020000  1.0 -0.0713913055
C  C41  1  0.97625000  0.23635000  0.74460000  1.0 -0.2113947361
C  C42  1  0.73197000  0.06623000  0.82430000  1.0 0.5318675753
C  C43  1  0.45767000  0.37873000  0.58650000  1.0 0.608212274
C  C44  1  0.44103000  0.30317000  0.62800000  1.0 -0.0350334975
C  C45  1  0.48351000  0.30489000  0.78540000  1.0 -0.0606640284
C  C46  1  0.46715000  0.23485000  0.82940000  1.0 -0.2113947361
C  C47  1  0.40841000  0.16239000  0.71150000  1.0 0.238792744
C  C48  1  0.36856000  0.16184000  0.54980000  1.0 -0.225255977
C  C49  1  0.38535000  0.23245000  0.50710000  1.0 -0.0508498676
C  C50  1  0.31413000  0.00807000  0.72520000  1.0 0.2559070927
C  C51  1  0.31206000  0.95134000  0.67530000  1.0 -0.1787316124
C  C52  1  0.23113000  0.86207000  0.66050000  1.0 -0.0713913055
C  C53  1  0.15201000  0.82879000  0.69420000  1.0 -0.0508498676
C  C54  1  0.15585000  0.88695000  0.73980000  1.0 -0.0713913055
C  C55  1  0.23635000  0.97625000  0.75540000  1.0 -0.2113947361
C  C56  1  0.06623000  0.73197000  0.67570000  1.0 0.5318675753
S  S1  1  0.75887000  0.47223000  0.52206000  1.0 1.1786778834
S  S2  1  0.00644000  0.58782000  0.12705000  1.0 1.2041590777
S  S3  1  0.47223000  0.75887000  0.97794000  1.0 1.1786778834
S  S4  1  0.58782000  0.00644000  0.37295000  1.0 1.2041590777
S  S5  1  0.24113000  0.52777000  0.47794000  1.0 1.1786778834
S  S6  1  0.99356000  0.41218000  0.87295000  1.0 1.2041590777
S  S7  1  0.52777000  0.24113000  0.02206000  1.0 1.1786778834
S  S8  1  0.41218000  0.99356000  0.62705000  1.0 1.2041590777
O  O1  1  0.62854000  0.58626000  0.94690000  1.0 -0.5422121915
O  O2  1  0.55745000  0.48735000  0.19300000  1.0 -0.5500349137
O  O3  1  0.90431000  0.60309000  0.25660000  1.0 -0.2152990397
O  O4  1  0.29122000  0.00398000  0.20800000  1.0 -0.4711802396
O  O5  1  0.31981000  0.93939000  0.13340000  1.0 -0.4761508239
O  O6  1  0.67494000  0.41526000  0.60590000  1.0 -0.6213072572
O  O7  1  0.83471000  0.53669000  0.65080000  1.0 -0.6357684765
O  O8  1  0.76266000  0.42254000  0.43750000  1.0 -0.6606057319
O  O9  1  0.93238000  0.54342000  0.99190000  1.0 -0.6546912525
O  O10  1  0.97966000  0.53694000  0.30400000  1.0 -0.6606057319
O  O11  1  0.07940000  0.61620000  0.05260000  1.0 -0.5159768645
O  O12  1  0.76760000  0.32420000  0.92100000  1.0 -0.3025795254
O  O13  1  0.58626000  0.62854000  0.55310000  1.0 -0.5422121915
O  O14  1  0.48735000  0.55745000  0.30700000  1.0 -0.5500349137
O  O15  1  0.60309000  0.90431000  0.24340000  1.0 -0.2152990397
O  O16  1  0.00398000  0.29122000  0.29200000  1.0 -0.4711802396
O  O17  1  0.93939000  0.31981000  0.36660000  1.0 -0.4711802396
O  O18  1  0.41526000  0.67494000  0.89410000  1.0 -0.6213072572
O  O19  1  0.53669000  0.83471000  0.84920000  1.0 -0.6357684765
O  O20  1  0.42254000  0.76266000  0.06250000  1.0 -0.6606057319
O  O21  1  0.54342000  0.93238000  0.50810000  1.0 -0.6546912525
O  O22  1  0.53694000  0.97966000  0.19600000  1.0 -0.6606057319
O  O23  1  0.61620000  0.07940000  0.44740000  1.0 -0.5159768645
O  O24  1  0.32420000  0.76760000  0.57900000  1.0 -0.3025795254
O  O25  1  0.37146000  0.41374000  0.05310000  1.0 -0.5422121915
O  O26  1  0.44255000  0.51265000  0.80700000  1.0 -0.5500349137
O  O27  1  0.09569000  0.39691000  0.74340000  1.0 -0.2152990397
O  O28  1  0.70878000  0.99602000  0.79200000  1.0 -0.4711802396
O  O29  1  0.68019000  0.06061000  0.86660000  1.0 -0.4761508239
O  O30  1  0.32506000  0.58474000  0.39410000  1.0 -0.6213072572
O  O31  1  0.16529000  0.46331000  0.34920000  1.0 -0.6357684765
O  O32  1  0.23734000  0.57746000  0.56250000  1.0 -0.6606057319
O  O33  1  0.06762000  0.45658000  0.00810000  1.0 -0.6546912525
O  O34  1  0.02034000  0.46306000  0.69600000  1.0 -0.6606057319
O  O35  1  0.92060000  0.38380000  0.94740000  1.0 -0.5159768645
O  O36  1  0.23240000  0.67580000  0.07900000  1.0 -0.3025795254
O  O37  1  0.41374000  0.37146000  0.44690000  1.0 -0.5422121915
O  O38  1  0.51265000  0.44255000  0.69300000  1.0 -0.5500349137
O  O39  1  0.39691000  0.09569000  0.75660000  1.0 -0.2152990397
O  O40  1  0.99602000  0.70878000  0.70800000  1.0 -0.4711802396
O  O41  1  0.06061000  0.68019000  0.63340000  1.0 -0.4761508239
O  O42  1  0.58474000  0.32506000  0.10590000  1.0 -0.6213072572
O  O43  1  0.46331000  0.16529000  0.15080000  1.0 -0.6357684765
O  O44  1  0.57746000  0.23734000  0.93750000  1.0 -0.6606057319
O  O45  1  0.45658000  0.06762000  0.49190000  1.0 -0.6546912525
O  O46  1  0.46306000  0.02034000  0.80400000  1.0 -0.6606057319
O  O47  1  0.38380000  0.92060000  0.55260000  1.0 -0.5159768645
O  O48  1  0.67580000  0.23240000  0.42100000  1.0 -0.3025795254
