# DDEC6 charges by PACMAN v1.1 (https://github.com/mtap-research/PACMAN-charge/)
data_DACSAE_ASR_pacman
_symmetry_space_group_name_H-M   'P 1'
_cell_length_a   16.83400000
_cell_length_b   16.83400000
_cell_length_c   16.83400000
_cell_angle_alpha   67.73880000
_cell_angle_beta   67.73880000
_cell_angle_gamma   67.73880000
_symmetry_Int_Tables_number   1
_chemical_formula_structural   CuH7C19(N2O3)2
_chemical_formula_sum   'Cu6 H42 C114 N24 O36'
_cell_volume   3928.62058327
_cell_formula_units_Z   6
loop_
 _symmetry_equiv_pos_site_id
 _symmetry_equiv_pos_as_xyz
  1  'x, y, z'
loop_
 _atom_site_type_symbol
 _atom_site_label
 _atom_site_symmetry_multiplicity
 _atom_site_fract_x
 _atom_site_fract_y
 _atom_site_fract_z
 _atom_site_occupancy
 _atom_site_charge
Cu  Cu1  1  0.50528000  0.07443000  0.50528000  1.0 0.8829405233
Cu  Cu2  1  0.07443000  0.50528000  0.50528000  1.0 0.8829405233
Cu  Cu3  1  0.50528000  0.50528000  0.07443000  1.0 0.8829405233
Cu  Cu4  1  0.49472000  0.49472000  0.92557000  1.0 0.8829405233
Cu  Cu5  1  0.92557000  0.49472000  0.49472000  1.0 0.8829405233
Cu  Cu6  1  0.49472000  0.92557000  0.49472000  1.0 0.8829405233
H  H1  1  0.52840000  0.23020000  0.23020000  1.0 0.1831449916
H  H2  1  0.23020000  0.23020000  0.52840000  1.0 0.1831449916
H  H3  1  0.23020000  0.52840000  0.23020000  1.0 0.1831449916
H  H4  1  0.47160000  0.76980000  0.76980000  1.0 0.1831449916
H  H5  1  0.76980000  0.47160000  0.76980000  1.0 0.1831449916
H  H6  1  0.76980000  0.76980000  0.47160000  1.0 0.1831449916
H  H7  1  0.51900000  0.00170000  0.21520000  1.0 0.1431958104
H  H8  1  0.00170000  0.21520000  0.51900000  1.0 0.1431958104
H  H9  1  0.21520000  0.51900000  0.00170000  1.0 0.1431958104
H  H10  1  0.48100000  0.78480000  0.99830000  1.0 0.1431958104
H  H11  1  0.99830000  0.48100000  0.78480000  1.0 0.1431958104
H  H12  1  0.78480000  0.99830000  0.48100000  1.0 0.1431958104
H  H13  1  0.48100000  0.99830000  0.78480000  1.0 0.1431958104
H  H14  1  0.99830000  0.78480000  0.48100000  1.0 0.1431958104
H  H15  1  0.78480000  0.48100000  0.99830000  1.0 0.1431958104
H  H16  1  0.51900000  0.21520000  0.00170000  1.0 0.1431958104
H  H17  1  0.00170000  0.51900000  0.21520000  1.0 0.1431958104
H  H18  1  0.21520000  0.00170000  0.51900000  1.0 0.1431958104
H  H19  1  0.55040000  0.84990000  0.04400000  1.0 0.1491732622
H  H20  1  0.84990000  0.04400000  0.55040000  1.0 0.1491732622
H  H21  1  0.04400000  0.55040000  0.84990000  1.0 0.1491732622
H  H22  1  0.44960000  0.95600000  0.15010000  1.0 0.1491732622
H  H23  1  0.15010000  0.44960000  0.95600000  1.0 0.1491732622
H  H24  1  0.95600000  0.15010000  0.44960000  1.0 0.1491732622
H  H25  1  0.44960000  0.15010000  0.95600000  1.0 0.1491732622
H  H26  1  0.15010000  0.95600000  0.44960000  1.0 0.1491732622
H  H27  1  0.95600000  0.44960000  0.15010000  1.0 0.1491732622
H  H28  1  0.55040000  0.04400000  0.84990000  1.0 0.1491732622
H  H29  1  0.84990000  0.55040000  0.04400000  1.0 0.1491732622
H  H30  1  0.04400000  0.84990000  0.55040000  1.0 0.1491732622
H  H31  1  0.58360000  0.93270000  0.10650000  1.0 0.1491732622
H  H32  1  0.93270000  0.10650000  0.58360000  1.0 0.1491732622
H  H33  1  0.10650000  0.58360000  0.93270000  1.0 0.1491732622
H  H34  1  0.41640000  0.89350000  0.06730000  1.0 0.1491732622
H  H35  1  0.06730000  0.41640000  0.89350000  1.0 0.1491732622
H  H36  1  0.89350000  0.06730000  0.41640000  1.0 0.1491732622
H  H37  1  0.41640000  0.06730000  0.89350000  1.0 0.1491732622
H  H38  1  0.06730000  0.89350000  0.41640000  1.0 0.1491732622
H  H39  1  0.89350000  0.41640000  0.06730000  1.0 0.1491732622
H  H40  1  0.58360000  0.10650000  0.93270000  1.0 0.1491732622
H  H41  1  0.93270000  0.58360000  0.10650000  1.0 0.1491732622
H  H42  1  0.10650000  0.93270000  0.58360000  1.0 0.1491732622
C  C1  1  0.51980000  0.06757000  0.33456000  1.0 0.5975900317
C  C2  1  0.06757000  0.33456000  0.51980000  1.0 0.5975900317
C  C3  1  0.33456000  0.51980000  0.06757000  1.0 0.5975900317
C  C4  1  0.48020000  0.66544000  0.93243000  1.0 0.5975900317
C  C5  1  0.93243000  0.48020000  0.66544000  1.0 0.5975900317
C  C6  1  0.66544000  0.93243000  0.48020000  1.0 0.5975900317
C  C7  1  0.48020000  0.93243000  0.66544000  1.0 0.5975900317
C  C8  1  0.93243000  0.66544000  0.48020000  1.0 0.5975900317
C  C9  1  0.66544000  0.48020000  0.93243000  1.0 0.5975900317
C  C10  1  0.51980000  0.33456000  0.06757000  1.0 0.5975900317
C  C11  1  0.06757000  0.51980000  0.33456000  1.0 0.5975900317
C  C12  1  0.33456000  0.06757000  0.51980000  1.0 0.5975900317
C  C13  1  0.52332000  0.10983000  0.23775000  1.0 0.018153744
C  C14  1  0.10983000  0.23775000  0.52332000  1.0 0.018153744
C  C15  1  0.23775000  0.52332000  0.10983000  1.0 0.018153744
C  C16  1  0.47668000  0.76225000  0.89017000  1.0 0.018153744
C  C17  1  0.89017000  0.47668000  0.76225000  1.0 0.018153744
C  C18  1  0.76225000  0.89017000  0.47668000  1.0 0.018153744
C  C19  1  0.47668000  0.89017000  0.76225000  1.0 0.018153744
C  C20  1  0.89017000  0.76225000  0.47668000  1.0 0.018153744
C  C21  1  0.76225000  0.47668000  0.89017000  1.0 0.018153744
C  C22  1  0.52332000  0.23775000  0.10983000  1.0 0.018153744
C  C23  1  0.10983000  0.52332000  0.23775000  1.0 0.018153744
C  C24  1  0.23775000  0.10983000  0.52332000  1.0 0.018153744
C  C25  1  0.52549000  0.19774000  0.19774000  1.0 -0.0791888162
C  C26  1  0.19774000  0.19774000  0.52549000  1.0 -0.0791888162
C  C27  1  0.19774000  0.52549000  0.19774000  1.0 -0.0791888162
C  C28  1  0.47451000  0.80226000  0.80226000  1.0 -0.0791888162
C  C29  1  0.80226000  0.47451000  0.80226000  1.0 -0.0791888162
C  C30  1  0.80226000  0.80226000  0.47451000  1.0 -0.0791888162
C  C31  1  0.51956000  0.06104000  0.18866000  1.0 -0.2052817677
C  C32  1  0.06104000  0.18866000  0.51956000  1.0 -0.2052817677
C  C33  1  0.18866000  0.51956000  0.06104000  1.0 -0.2052817677
C  C34  1  0.48044000  0.81134000  0.93896000  1.0 -0.2052817677
C  C35  1  0.93896000  0.48044000  0.81134000  1.0 -0.2052817677
C  C36  1  0.81134000  0.93896000  0.48044000  1.0 -0.204420574
C  C37  1  0.48044000  0.93896000  0.81134000  1.0 -0.2052817677
C  C38  1  0.93896000  0.81134000  0.48044000  1.0 -0.2052817677
C  C39  1  0.81134000  0.48044000  0.93896000  1.0 -0.2052817677
C  C40  1  0.51956000  0.18866000  0.06104000  1.0 -0.2052817677
C  C41  1  0.06104000  0.51956000  0.18866000  1.0 -0.2052817677
C  C42  1  0.18866000  0.06104000  0.51956000  1.0 -0.2052817677
C  C43  1  0.51678000  0.10059000  0.10059000  1.0 0.0483794361
C  C44  1  0.10059000  0.10059000  0.51678000  1.0 0.0483794361
C  C45  1  0.10059000  0.51678000  0.10059000  1.0 0.0483794361
C  C46  1  0.48322000  0.89941000  0.89941000  1.0 0.0483794361
C  C47  1  0.89941000  0.48322000  0.89941000  1.0 0.0483794361
C  C48  1  0.89941000  0.89941000  0.48322000  1.0 0.0483794361
C  C49  1  0.50490000  0.05250000  0.05250000  1.0 0.0424040696
C  C50  1  0.05250000  0.05250000  0.50490000  1.0 0.0424040696
C  C51  1  0.05250000  0.50490000  0.05250000  1.0 0.0424040696
C  C52  1  0.49510000  0.94750000  0.94750000  1.0 0.0424040696
C  C53  1  0.94750000  0.49510000  0.94750000  1.0 0.0424040696
C  C54  1  0.94750000  0.94750000  0.49510000  1.0 0.0424040696
C  C55  1  0.44890000  0.09570000  0.99690000  1.0 0.0259791427
C  C56  1  0.09570000  0.99690000  0.44890000  1.0 0.0259791427
C  C57  1  0.99690000  0.44890000  0.09570000  1.0 0.0259791427
C  C58  1  0.55110000  0.00310000  0.90430000  1.0 0.0259791427
C  C59  1  0.90430000  0.55110000  0.00310000  1.0 0.0259791427
C  C60  1  0.00310000  0.90430000  0.55110000  1.0 0.0259791427
C  C61  1  0.55110000  0.90430000  0.00310000  1.0 0.0259791427
C  C62  1  0.90430000  0.00310000  0.55110000  1.0 0.0259791427
C  C63  1  0.00310000  0.55110000  0.90430000  1.0 0.0259791427
C  C64  1  0.44890000  0.99690000  0.09570000  1.0 0.0259791427
C  C65  1  0.09570000  0.44890000  0.99690000  1.0 0.0259791427
C  C66  1  0.99690000  0.09570000  0.44890000  1.0 0.0259791427
C  C67  1  0.43660000  0.04800000  0.95280000  1.0 0.0046669666
C  C68  1  0.04800000  0.95280000  0.43660000  1.0 0.0046669666
C  C69  1  0.95280000  0.43660000  0.04800000  1.0 0.0070496679
C  C70  1  0.56340000  0.04720000  0.95200000  1.0 0.0046669666
C  C71  1  0.95200000  0.56340000  0.04720000  1.0 0.0046669666
C  C72  1  0.04720000  0.95200000  0.56340000  1.0 0.0070496679
C  C73  1  0.56340000  0.95200000  0.04720000  1.0 0.0070496679
C  C74  1  0.95200000  0.04720000  0.56340000  1.0 0.0070496679
C  C75  1  0.04720000  0.56340000  0.95200000  1.0 0.0046669666
C  C76  1  0.43660000  0.95280000  0.04800000  1.0 0.0046669666
C  C77  1  0.04800000  0.43660000  0.95280000  1.0 0.0046669666
C  C78  1  0.95280000  0.04800000  0.43660000  1.0 0.0046669666
C  C79  1  0.48520000  0.95710000  0.95940000  1.0 -0.0043868711
C  C80  1  0.95710000  0.95940000  0.48520000  1.0 -0.0043868711
C  C81  1  0.95940000  0.48520000  0.95710000  1.0 -0.0043868711
C  C82  1  0.51480000  0.04060000  0.04290000  1.0 -0.0062161547
C  C83  1  0.04290000  0.51480000  0.04060000  1.0 -0.0062161547
C  C84  1  0.04060000  0.04290000  0.51480000  1.0 -0.0062161547
C  C85  1  0.51480000  0.04290000  0.04060000  1.0 -0.0062161547
C  C86  1  0.04290000  0.04060000  0.51480000  1.0 -0.0062161547
C  C87  1  0.04060000  0.51480000  0.04290000  1.0 -0.0062161547
C  C88  1  0.48520000  0.95940000  0.95710000  1.0 -0.0043868711
C  C89  1  0.95710000  0.48520000  0.95940000  1.0 -0.0043868711
C  C90  1  0.95940000  0.95710000  0.48520000  1.0 -0.0043868711
C  C91  1  0.53350000  0.91400000  0.02290000  1.0 0.018153744
C  C92  1  0.91400000  0.02290000  0.53350000  1.0 0.018153744
C  C93  1  0.02290000  0.53350000  0.91400000  1.0 0.018153744
C  C94  1  0.46650000  0.97710000  0.08600000  1.0 0.018153744
C  C95  1  0.08600000  0.46650000  0.97710000  1.0 0.018153744
C  C96  1  0.97710000  0.08600000  0.46650000  1.0 0.018153744
C  C97  1  0.46650000  0.08600000  0.97710000  1.0 0.018153744
C  C98  1  0.08600000  0.97710000  0.46650000  1.0 0.018153744
C  C99  1  0.97710000  0.46650000  0.08600000  1.0 0.018153744
C  C100  1  0.53350000  0.02290000  0.91400000  1.0 0.018153744
C  C101  1  0.91400000  0.53350000  0.02290000  1.0 0.018153744
C  C102  1  0.02290000  0.91400000  0.53350000  1.0 0.018153744
C  C103  1  0.54580000  0.96170000  0.06700000  1.0 0.018153744
C  C104  1  0.96170000  0.06700000  0.54580000  1.0 0.018153744
C  C105  1  0.06700000  0.54580000  0.96170000  1.0 0.018153744
C  C106  1  0.45420000  0.93300000  0.03830000  1.0 0.018153744
C  C107  1  0.03830000  0.45420000  0.93300000  1.0 0.018153744
C  C108  1  0.93300000  0.03830000  0.45420000  1.0 0.018153744
C  C109  1  0.45420000  0.03830000  0.93300000  1.0 0.018153744
C  C110  1  0.03830000  0.93300000  0.45420000  1.0 0.018153744
C  C111  1  0.93300000  0.45420000  0.03830000  1.0 0.018153744
C  C112  1  0.54580000  0.06700000  0.96170000  1.0 0.018153744
C  C113  1  0.96170000  0.54580000  0.06700000  1.0 0.018153744
C  C114  1  0.06700000  0.96170000  0.54580000  1.0 0.018153744
N  N1  1  0.38930000  0.09760000  0.88960000  1.0 -0.1638620135
N  N2  1  0.09760000  0.88960000  0.38930000  1.0 -0.1638620135
N  N3  1  0.88960000  0.38930000  0.09760000  1.0 -0.1638620135
N  N4  1  0.61070000  0.11040000  0.90240000  1.0 -0.1638620135
N  N5  1  0.90240000  0.61070000  0.11040000  1.0 -0.1638620135
N  N6  1  0.11040000  0.90240000  0.61070000  1.0 -0.1638620135
N  N7  1  0.61070000  0.90240000  0.11040000  1.0 -0.1638620135
N  N8  1  0.90240000  0.11040000  0.61070000  1.0 -0.1638620135
N  N9  1  0.11040000  0.61070000  0.90240000  1.0 -0.1638620135
N  N10  1  0.38930000  0.88960000  0.09760000  1.0 -0.1638620135
N  N11  1  0.09760000  0.38930000  0.88960000  1.0 -0.1638620135
N  N12  1  0.88960000  0.09760000  0.38930000  1.0 -0.1638620135
N  N13  1  0.40000000  0.18060000  0.96420000  1.0 -0.1260980504
N  N14  1  0.18060000  0.96420000  0.40000000  1.0 -0.1260980504
N  N15  1  0.96420000  0.40000000  0.18060000  1.0 -0.1260980504
N  N16  1  0.60000000  0.03580000  0.81940000  1.0 -0.1260980504
N  N17  1  0.81940000  0.60000000  0.03580000  1.0 -0.1260980504
N  N18  1  0.03580000  0.81940000  0.60000000  1.0 -0.1260980504
N  N19  1  0.60000000  0.81940000  0.03580000  1.0 -0.1260980504
N  N20  1  0.81940000  0.03580000  0.60000000  1.0 -0.1260980504
N  N21  1  0.03580000  0.60000000  0.81940000  1.0 -0.1260980504
N  N22  1  0.40000000  0.96420000  0.18060000  1.0 -0.1260980504
N  N23  1  0.18060000  0.40000000  0.96420000  1.0 -0.1260980504
N  N24  1  0.96420000  0.18060000  0.40000000  1.0 -0.1260980504
O  O1  1  0.52125000  0.11512000  0.37616000  1.0 -0.5089204932
O  O2  1  0.11512000  0.37616000  0.52125000  1.0 -0.5089204932
O  O3  1  0.37616000  0.52125000  0.11512000  1.0 -0.5089204932
O  O4  1  0.47875000  0.62384000  0.88488000  1.0 -0.5089204932
O  O5  1  0.88488000  0.47875000  0.62384000  1.0 -0.5089204932
O  O6  1  0.62384000  0.88488000  0.47875000  1.0 -0.5089204932
O  O7  1  0.47875000  0.88488000  0.62384000  1.0 -0.5089204932
O  O8  1  0.88488000  0.62384000  0.47875000  1.0 -0.5089204932
O  O9  1  0.62384000  0.47875000  0.88488000  1.0 -0.5089204932
O  O10  1  0.52125000  0.37616000  0.11512000  1.0 -0.5089204932
O  O11  1  0.11512000  0.52125000  0.37616000  1.0 -0.5089204932
O  O12  1  0.37616000  0.11512000  0.52125000  1.0 -0.5089204932
O  O13  1  0.51360000  0.98930000  0.36713000  1.0 -0.5089204932
O  O14  1  0.98930000  0.36713000  0.51360000  1.0 -0.5089204932
O  O15  1  0.36713000  0.51360000  0.98930000  1.0 -0.5089204932
O  O16  1  0.48640000  0.63287000  0.01070000  1.0 -0.5089204932
O  O17  1  0.01070000  0.48640000  0.63287000  1.0 -0.5089204932
O  O18  1  0.63287000  0.01070000  0.48640000  1.0 -0.5089204932
O  O19  1  0.48640000  0.01070000  0.63287000  1.0 -0.5089204932
O  O20  1  0.01070000  0.63287000  0.48640000  1.0 -0.5089204932
O  O21  1  0.63287000  0.48640000  0.01070000  1.0 -0.5089204932
O  O22  1  0.51360000  0.36713000  0.98930000  1.0 -0.5089204932
O  O23  1  0.98930000  0.51360000  0.36713000  1.0 -0.5089204932
O  O24  1  0.36713000  0.98930000  0.51360000  1.0 -0.5089204932
O  O25  1  0.36000000  0.18250000  0.90600000  1.0 -0.145561479
O  O26  1  0.18250000  0.90600000  0.36000000  1.0 -0.145561479
O  O27  1  0.90600000  0.36000000  0.18250000  1.0 -0.145561479
O  O28  1  0.64000000  0.09400000  0.81750000  1.0 -0.145561479
O  O29  1  0.81750000  0.64000000  0.09400000  1.0 -0.145561479
O  O30  1  0.09400000  0.81750000  0.64000000  1.0 -0.145561479
O  O31  1  0.64000000  0.81750000  0.09400000  1.0 -0.145561479
O  O32  1  0.81750000  0.09400000  0.64000000  1.0 -0.145561479
O  O33  1  0.09400000  0.64000000  0.81750000  1.0 -0.145561479
O  O34  1  0.36000000  0.90600000  0.18250000  1.0 -0.145561479
O  O35  1  0.18250000  0.36000000  0.90600000  1.0 -0.145561479
O  O36  1  0.90600000  0.18250000  0.36000000  1.0 -0.145561479
