# DDEC6 charges by PACMAN v1.1 (https://github.com/mtap-research/PACMAN-charge/)
data_DACSEI_ASR_pacman
_symmetry_space_group_name_H-M   'P 1'
_cell_length_a   16.79910000
_cell_length_b   16.79910000
_cell_length_c   16.79910000
_cell_angle_alpha   67.04040000
_cell_angle_beta   67.04040000
_cell_angle_gamma   67.04040000
_symmetry_Int_Tables_number   1
_chemical_formula_structural   CuH7C18Se2(NO)4
_chemical_formula_sum   'Cu6 H42 C108 Se12 N24 O24'
_cell_volume   3857.97595819
_cell_formula_units_Z   6
loop_
 _symmetry_equiv_pos_site_id
 _symmetry_equiv_pos_as_xyz
  1  'x, y, z'
loop_
 _atom_site_type_symbol
 _atom_site_label
 _atom_site_symmetry_multiplicity
 _atom_site_fract_x
 _atom_site_fract_y
 _atom_site_fract_z
 _atom_site_occupancy
 _atom_site_charge
Cu  Cu1  1  0.42430000  0.99623000  0.99623000  1.0 0.9046763996
Cu  Cu2  1  0.99623000  0.99623000  0.42430000  1.0 0.9046763996
Cu  Cu3  1  0.99623000  0.42430000  0.99623000  1.0 0.9046763996
Cu  Cu4  1  0.57570000  0.00377000  0.00377000  1.0 0.9046763996
Cu  Cu5  1  0.00377000  0.00377000  0.57570000  1.0 0.905494974
Cu  Cu6  1  0.00377000  0.57570000  0.00377000  1.0 0.9046763996
H  H1  1  0.27165000  0.27165000  0.97180000  1.0 0.1573764393
H  H2  1  0.27165000  0.97180000  0.27165000  1.0 0.1573764393
H  H3  1  0.97180000  0.27165000  0.27165000  1.0 0.1573764393
H  H4  1  0.72835000  0.02820000  0.72835000  1.0 0.1573764393
H  H5  1  0.02820000  0.72835000  0.72835000  1.0 0.1573764393
H  H6  1  0.72835000  0.72835000  0.02820000  1.0 0.1573764393
H  H7  1  0.50270000  0.28390000  0.97480000  1.0 0.1540434072
H  H8  1  0.28390000  0.97480000  0.50270000  1.0 0.1540434072
H  H9  1  0.97480000  0.50270000  0.28390000  1.0 0.1540434072
H  H10  1  0.49730000  0.02520000  0.71610000  1.0 0.1540434072
H  H11  1  0.02520000  0.71610000  0.49730000  1.0 0.1540434072
H  H12  1  0.71610000  0.49730000  0.02520000  1.0 0.1540434072
H  H13  1  0.49730000  0.71610000  0.02520000  1.0 0.1540434072
H  H14  1  0.71610000  0.02520000  0.49730000  1.0 0.1540434072
H  H15  1  0.02520000  0.49730000  0.71610000  1.0 0.1540434072
H  H16  1  0.50270000  0.97480000  0.28390000  1.0 0.1540434072
H  H17  1  0.97480000  0.28390000  0.50270000  1.0 0.1540434072
H  H18  1  0.28390000  0.50270000  0.97480000  1.0 0.1540434072
H  H19  1  0.49870000  0.36460000  0.07480000  1.0 0.1386650008
H  H20  1  0.36460000  0.07480000  0.49870000  1.0 0.1386650008
H  H21  1  0.07480000  0.49870000  0.36460000  1.0 0.1386650008
H  H22  1  0.50130000  0.92520000  0.63540000  1.0 0.1386650008
H  H23  1  0.92520000  0.63540000  0.50130000  1.0 0.1386650008
H  H24  1  0.63540000  0.50130000  0.92520000  1.0 0.1386650008
H  H25  1  0.50130000  0.63540000  0.92520000  1.0 0.1386650008
H  H26  1  0.63540000  0.92520000  0.50130000  1.0 0.1386650008
H  H27  1  0.92520000  0.50130000  0.63540000  1.0 0.1386650008
H  H28  1  0.49870000  0.07480000  0.36460000  1.0 0.1386650008
H  H29  1  0.07480000  0.36460000  0.49870000  1.0 0.1386650008
H  H30  1  0.36460000  0.49870000  0.07480000  1.0 0.1386650008
H  H31  1  0.57730000  0.44080000  0.09490000  1.0 0.1386650008
H  H32  1  0.44080000  0.09490000  0.57730000  1.0 0.1386650008
H  H33  1  0.09490000  0.57730000  0.44080000  1.0 0.1386650008
H  H34  1  0.42270000  0.90510000  0.55920000  1.0 0.1386650008
H  H35  1  0.90510000  0.55920000  0.42270000  1.0 0.1386650008
H  H36  1  0.55920000  0.42270000  0.90510000  1.0 0.1386650008
H  H37  1  0.42270000  0.55920000  0.90510000  1.0 0.1386650008
H  H38  1  0.55920000  0.90510000  0.42270000  1.0 0.1386650008
H  H39  1  0.90510000  0.42270000  0.55920000  1.0 0.1386650008
H  H40  1  0.57730000  0.09490000  0.44080000  1.0 0.1386650008
H  H41  1  0.09490000  0.44080000  0.57730000  1.0 0.1386650008
H  H42  1  0.44080000  0.57730000  0.09490000  1.0 0.1386650008
C  C1  1  0.43400000  0.16820000  0.97830000  1.0 0.5967612176
C  C2  1  0.16820000  0.97830000  0.43400000  1.0 0.5967612176
C  C3  1  0.97830000  0.43400000  0.16820000  1.0 0.5967612176
C  C4  1  0.56600000  0.02170000  0.83180000  1.0 0.5967612176
C  C5  1  0.02170000  0.83180000  0.56600000  1.0 0.5967612176
C  C6  1  0.83180000  0.56600000  0.02170000  1.0 0.5967612176
C  C7  1  0.56600000  0.83180000  0.02170000  1.0 0.5967612176
C  C8  1  0.83180000  0.02170000  0.56600000  1.0 0.5967612176
C  C9  1  0.02170000  0.56600000  0.83180000  1.0 0.5967612176
C  C10  1  0.43400000  0.97830000  0.16820000  1.0 0.5967612176
C  C11  1  0.97830000  0.16820000  0.43400000  1.0 0.5967612176
C  C12  1  0.16820000  0.43400000  0.97830000  1.0 0.5967612176
C  C13  1  0.39270000  0.26220000  0.97540000  1.0 -0.0325500372
C  C14  1  0.26220000  0.97540000  0.39270000  1.0 -0.0325500372
C  C15  1  0.97540000  0.39270000  0.26220000  1.0 -0.0325500372
C  C16  1  0.60730000  0.02460000  0.73780000  1.0 -0.0325500372
C  C17  1  0.02460000  0.73780000  0.60730000  1.0 -0.0325500372
C  C18  1  0.73780000  0.60730000  0.02460000  1.0 -0.0325500372
C  C19  1  0.60730000  0.73780000  0.02460000  1.0 -0.0325500372
C  C20  1  0.73780000  0.02460000  0.60730000  1.0 -0.0325500372
C  C21  1  0.02460000  0.60730000  0.73780000  1.0 -0.0325500372
C  C22  1  0.39270000  0.97540000  0.26220000  1.0 -0.0325500372
C  C23  1  0.97540000  0.26220000  0.39270000  1.0 -0.0325500372
C  C24  1  0.26220000  0.39270000  0.97540000  1.0 -0.0325500372
C  C25  1  0.30420000  0.30420000  0.97390000  1.0 -0.0588594964
C  C26  1  0.30420000  0.97390000  0.30420000  1.0 -0.0588594964
C  C27  1  0.97390000  0.30420000  0.30420000  1.0 -0.0588594964
C  C28  1  0.69580000  0.02610000  0.69580000  1.0 -0.0588594964
C  C29  1  0.02610000  0.69580000  0.69580000  1.0 -0.0588594964
C  C30  1  0.69580000  0.69580000  0.02610000  1.0 -0.0588594964
C  C31  1  0.44130000  0.30900000  0.98140000  1.0 -0.1917384966
C  C32  1  0.30900000  0.98140000  0.44130000  1.0 -0.1917384966
C  C33  1  0.98140000  0.44130000  0.30900000  1.0 -0.1917384966
C  C34  1  0.55870000  0.01860000  0.69100000  1.0 -0.1917384966
C  C35  1  0.01860000  0.69100000  0.55870000  1.0 -0.1917384966
C  C36  1  0.69100000  0.55870000  0.01860000  1.0 -0.1917384966
C  C37  1  0.55870000  0.69100000  0.01860000  1.0 -0.1917384966
C  C38  1  0.69100000  0.01860000  0.55870000  1.0 -0.1917384966
C  C39  1  0.01860000  0.55870000  0.69100000  1.0 -0.1917384966
C  C40  1  0.44130000  0.98140000  0.30900000  1.0 -0.1917384966
C  C41  1  0.98140000  0.30900000  0.44130000  1.0 -0.1917384966
C  C42  1  0.30900000  0.44130000  0.98140000  1.0 -0.1917384966
C  C43  1  0.39710000  0.39710000  0.99810000  1.0 0.1386650008
C  C44  1  0.39710000  0.99810000  0.39710000  1.0 0.1386650008
C  C45  1  0.99810000  0.39710000  0.39710000  1.0 0.1386650008
C  C46  1  0.60290000  0.00190000  0.60290000  1.0 0.1386650008
C  C47  1  0.00190000  0.60290000  0.60290000  1.0 0.1386650008
C  C48  1  0.60290000  0.60290000  0.00190000  1.0 0.1386650008
C  C49  1  0.46250000  0.46250000  0.96600000  1.0 0.00049502
C  C50  1  0.46250000  0.96600000  0.46250000  1.0 0.00049502
C  C51  1  0.96600000  0.46250000  0.46250000  1.0 0.00049502
C  C52  1  0.53750000  0.03400000  0.53750000  1.0 0.00049502
C  C53  1  0.03400000  0.53750000  0.53750000  1.0 0.00049502
C  C54  1  0.53750000  0.53750000  0.03400000  1.0 0.00049502
C  C55  1  0.50260000  0.42340000  0.03550000  1.0 0.0200810442
C  C56  1  0.42340000  0.03550000  0.50260000  1.0 0.0200810442
C  C57  1  0.03550000  0.50260000  0.42340000  1.0 0.0200810442
C  C58  1  0.49740000  0.96450000  0.57660000  1.0 0.0200810442
C  C59  1  0.96450000  0.57660000  0.49740000  1.0 0.0200810442
C  C60  1  0.57660000  0.49740000  0.96450000  1.0 0.0200810442
C  C61  1  0.49740000  0.57660000  0.96450000  1.0 0.0200810442
C  C62  1  0.57660000  0.96450000  0.49740000  1.0 0.0200810442
C  C63  1  0.96450000  0.49740000  0.57660000  1.0 0.0200810442
C  C64  1  0.50260000  0.03550000  0.42340000  1.0 0.0200810442
C  C65  1  0.03550000  0.42340000  0.50260000  1.0 0.0200810442
C  C66  1  0.42340000  0.50260000  0.03550000  1.0 0.0200810442
C  C67  1  0.54910000  0.46850000  0.04680000  1.0 0.0200810442
C  C68  1  0.46850000  0.04680000  0.54910000  1.0 0.0200810442
C  C69  1  0.04680000  0.54910000  0.46850000  1.0 0.0200810442
C  C70  1  0.45090000  0.95320000  0.53150000  1.0 0.0200810442
C  C71  1  0.95320000  0.53150000  0.45090000  1.0 0.0200810442
C  C72  1  0.53150000  0.45090000  0.95320000  1.0 0.0200810442
C  C73  1  0.45090000  0.53150000  0.95320000  1.0 0.0200810442
C  C74  1  0.53150000  0.95320000  0.45090000  1.0 0.0200810442
C  C75  1  0.95320000  0.45090000  0.53150000  1.0 0.0200810442
C  C76  1  0.54910000  0.04680000  0.46850000  1.0 0.0200810442
C  C77  1  0.04680000  0.46850000  0.54910000  1.0 0.0200810442
C  C78  1  0.46850000  0.54910000  0.04680000  1.0 0.0200810442
C  C79  1  0.55320000  0.55320000  0.99070000  1.0 -0.0087136645
C  C80  1  0.55320000  0.99070000  0.55320000  1.0 -0.0087136645
C  C81  1  0.99070000  0.55320000  0.55320000  1.0 -0.0087136645
C  C82  1  0.44680000  0.00930000  0.44680000  1.0 -0.0087136645
C  C83  1  0.00930000  0.44680000  0.44680000  1.0 -0.0087136645
C  C84  1  0.44680000  0.44680000  0.00930000  1.0 -0.0087136645
C  C85  1  0.51480000  0.59160000  0.92020000  1.0 0.0392774713
C  C86  1  0.59160000  0.92020000  0.51480000  1.0 0.0392774713
C  C87  1  0.92020000  0.51480000  0.59160000  1.0 0.0392774713
C  C88  1  0.48520000  0.07980000  0.40840000  1.0 0.0392774713
C  C89  1  0.07980000  0.40840000  0.48520000  1.0 0.0392774713
C  C90  1  0.40840000  0.48520000  0.07980000  1.0 0.0392774713
C  C91  1  0.48520000  0.40840000  0.07980000  1.0 0.0392774713
C  C92  1  0.40840000  0.07980000  0.48520000  1.0 0.0392774713
C  C93  1  0.07980000  0.48520000  0.40840000  1.0 0.0392774713
C  C94  1  0.51480000  0.92020000  0.59160000  1.0 0.0392774713
C  C95  1  0.92020000  0.59160000  0.51480000  1.0 0.0392774713
C  C96  1  0.59160000  0.51480000  0.92020000  1.0 0.0392774713
C  C97  1  0.46980000  0.54540000  0.90760000  1.0 0.0345858252
C  C98  1  0.54540000  0.90760000  0.46980000  1.0 0.0345858252
C  C99  1  0.90760000  0.46980000  0.54540000  1.0 0.0345858252
C  C100  1  0.53020000  0.09240000  0.45460000  1.0 0.0345858252
C  C101  1  0.09240000  0.45460000  0.53020000  1.0 0.0345858252
C  C102  1  0.45460000  0.53020000  0.09240000  1.0 0.0345858252
C  C103  1  0.53020000  0.45460000  0.09240000  1.0 0.0345858252
C  C104  1  0.45460000  0.09240000  0.53020000  1.0 0.0345858252
C  C105  1  0.09240000  0.53020000  0.45460000  1.0 0.0345858252
C  C106  1  0.46980000  0.90760000  0.54540000  1.0 0.0345858252
C  C107  1  0.90760000  0.54540000  0.46980000  1.0 0.0345858252
C  C108  1  0.54540000  0.46980000  0.90760000  1.0 0.0345858252
Se  Se1  1  0.43320000  0.69700000  0.80220000  1.0 0.0461079078
Se  Se2  1  0.69700000  0.80220000  0.43320000  1.0 0.0392774713
Se  Se3  1  0.80220000  0.43320000  0.69700000  1.0 0.0392774713
Se  Se4  1  0.56680000  0.19780000  0.30300000  1.0 0.0392774713
Se  Se5  1  0.19780000  0.30300000  0.56680000  1.0 0.0392774713
Se  Se6  1  0.30300000  0.56680000  0.19780000  1.0 0.0392774713
Se  Se7  1  0.56680000  0.30300000  0.19780000  1.0 0.0392774713
Se  Se8  1  0.30300000  0.19780000  0.56680000  1.0 0.0392774713
Se  Se9  1  0.19780000  0.56680000  0.30300000  1.0 0.0392774713
Se  Se10  1  0.43320000  0.80220000  0.69700000  1.0 0.0392774713
Se  Se11  1  0.80220000  0.69700000  0.43320000  1.0 0.0392774713
Se  Se12  1  0.69700000  0.43320000  0.80220000  1.0 0.0461079078
N  N1  1  0.42220000  0.58160000  0.85090000  1.0 -0.2589656354
N  N2  1  0.58160000  0.85090000  0.42220000  1.0 -0.2589656354
N  N3  1  0.85090000  0.42220000  0.58160000  1.0 -0.2589656354
N  N4  1  0.57780000  0.14910000  0.41840000  1.0 -0.2589656354
N  N5  1  0.14910000  0.41840000  0.57780000  1.0 -0.2589656354
N  N6  1  0.41840000  0.57780000  0.14910000  1.0 -0.2589656354
N  N7  1  0.57780000  0.41840000  0.14910000  1.0 -0.2589656354
N  N8  1  0.41840000  0.14910000  0.57780000  1.0 -0.2589656354
N  N9  1  0.14910000  0.57780000  0.41840000  1.0 -0.2589656354
N  N10  1  0.42220000  0.85090000  0.58160000  1.0 -0.2589656354
N  N11  1  0.85090000  0.58160000  0.42220000  1.0 -0.2589656354
N  N12  1  0.58160000  0.42220000  0.85090000  1.0 -0.2589656354
N  N13  1  0.50910000  0.67450000  0.86880000  1.0 -0.2589656354
N  N14  1  0.67450000  0.86880000  0.50910000  1.0 -0.2589656354
N  N15  1  0.86880000  0.50910000  0.67450000  1.0 -0.2589656354
N  N16  1  0.49090000  0.13120000  0.32550000  1.0 -0.2589656354
N  N17  1  0.13120000  0.32550000  0.49090000  1.0 -0.2589656354
N  N18  1  0.32550000  0.49090000  0.13120000  1.0 -0.2589656354
N  N19  1  0.49090000  0.32550000  0.13120000  1.0 -0.2589656354
N  N20  1  0.32550000  0.13120000  0.49090000  1.0 -0.2589656354
N  N21  1  0.13120000  0.49090000  0.32550000  1.0 -0.2589656354
N  N22  1  0.50910000  0.86880000  0.67450000  1.0 -0.2589656354
N  N23  1  0.86880000  0.67450000  0.50910000  1.0 -0.2589656354
N  N24  1  0.67450000  0.50910000  0.86880000  1.0 -0.2589656354
O  O1  1  0.38614000  0.12674000  0.97774000  1.0 -0.5006257833
O  O2  1  0.12674000  0.97774000  0.38614000  1.0 -0.5006257833
O  O3  1  0.97774000  0.38614000  0.12674000  1.0 -0.5006257833
O  O4  1  0.61386000  0.02226000  0.87326000  1.0 -0.5006257833
O  O5  1  0.02226000  0.87326000  0.61386000  1.0 -0.5006257833
O  O6  1  0.87326000  0.61386000  0.02226000  1.0 -0.5006257833
O  O7  1  0.61386000  0.87326000  0.02226000  1.0 -0.5006257833
O  O8  1  0.87326000  0.02226000  0.61386000  1.0 -0.5006257833
O  O9  1  0.02226000  0.61386000  0.87326000  1.0 -0.5006257833
O  O10  1  0.38614000  0.97774000  0.12674000  1.0 -0.5006257833
O  O11  1  0.97774000  0.12674000  0.38614000  1.0 -0.5006257833
O  O12  1  0.12674000  0.38614000  0.97774000  1.0 -0.5006257833
O  O13  1  0.51397000  0.13127000  0.98617000  1.0 -0.5066183648
O  O14  1  0.13127000  0.98617000  0.51397000  1.0 -0.5066183648
O  O15  1  0.98617000  0.51397000  0.13127000  1.0 -0.5066183648
O  O16  1  0.48603000  0.01383000  0.86873000  1.0 -0.5066183648
O  O17  1  0.01383000  0.86873000  0.48603000  1.0 -0.5066183648
O  O18  1  0.86873000  0.48603000  0.01383000  1.0 -0.5066183648
O  O19  1  0.48603000  0.86873000  0.01383000  1.0 -0.5066183648
O  O20  1  0.86873000  0.01383000  0.48603000  1.0 -0.5066183648
O  O21  1  0.01383000  0.48603000  0.86873000  1.0 -0.5066183648
O  O22  1  0.51397000  0.98617000  0.13127000  1.0 -0.5066183648
O  O23  1  0.98617000  0.13127000  0.51397000  1.0 -0.5066183648
O  O24  1  0.13127000  0.51397000  0.98617000  1.0 -0.5066183648
