# DDEC6 charges by PACMAN v1.1 (https://github.com/mtap-research/PACMAN-charge/)
data_DACXUB_FSR_pacman
_symmetry_space_group_name_H-M   'P 1'
_cell_length_a   10.80200000
_cell_length_b   12.14300000
_cell_length_c   12.24500000
_cell_angle_alpha   94.03100000
_cell_angle_beta   106.64100000
_cell_angle_gamma   101.35600000
_symmetry_Int_Tables_number   1
_chemical_formula_structural   HoH17C30(NO3)2
_chemical_formula_sum   'Ho2 H34 C60 N4 O12'
_cell_volume   1494.98021746
_cell_formula_units_Z   2
loop_
 _symmetry_equiv_pos_site_id
 _symmetry_equiv_pos_as_xyz
  1  'x, y, z'
loop_
 _atom_site_type_symbol
 _atom_site_label
 _atom_site_symmetry_multiplicity
 _atom_site_fract_x
 _atom_site_fract_y
 _atom_site_fract_z
 _atom_site_occupancy
 _atom_site_charge
Ho  Ho1  1  0.08300000  0.80966000  0.99812000  1.0 1.8983590051
Ho  Ho2  1  0.91700000  0.19034000  0.00188000  1.0 1.8942526027
H  H1  1  0.02190000  0.81410000  0.28640000  1.0 0.1293835759
H  H2  1  0.97810000  0.18590000  0.71360000  1.0 0.1293835759
H  H3  1  0.01860000  0.78960000  0.46870000  1.0 0.1199977023
H  H4  1  0.98140000  0.21040000  0.53130000  1.0 0.1199977023
H  H5  1  0.98620000  0.13350000  0.33910000  1.0 0.1293835759
H  H6  1  0.01380000  0.86650000  0.66090000  1.0 0.1293835759
H  H7  1  0.89210000  0.53330000  0.66320000  1.0 0.1293835759
H  H8  1  0.10790000  0.46670000  0.33680000  1.0 0.1293835759
H  H9  1  0.76160000  0.39350000  0.48990000  1.0 0.1293835759
H  H10  1  0.23840000  0.60650000  0.51010000  1.0 0.1293835759
H  H11  1  0.25720000  0.69740000  0.68390000  1.0 0.1199977023
H  H12  1  0.74280000  0.30260000  0.31610000  1.0 0.1199977023
H  H13  1  0.60180000  0.66950000  0.90820000  1.0 0.1199977023
H  H14  1  0.39820000  0.33050000  0.09180000  1.0 0.1199977023
H  H15  1  0.36030000  0.58690000  0.83140000  1.0 0.1133935999
H  H16  1  0.63970000  0.41310000  0.16860000  1.0 0.1133935999
H  H17  1  0.82070000  0.54270000  0.16880000  1.0 0.1199977023
H  H18  1  0.17930000  0.45730000  0.83120000  1.0 0.1199977023
H  H19  1  0.28270000  0.06670000  0.02260000  1.0 0.1133935999
H  H20  1  0.71730000  0.93330000  0.97740000  1.0 0.1133935999
H  H21  1  0.49920000  0.17140000  0.09280000  1.0 0.1293835759
H  H22  1  0.50080000  0.82860000  0.90720000  1.0 0.1293835759
H  H23  1  0.66180000  0.08930000  0.19700000  1.0 0.1293835759
H  H24  1  0.33820000  0.91070000  0.80300000  1.0 0.1293835759
H  H25  1  0.72430000  0.92040000  0.28690000  1.0 0.1199977023
H  H26  1  0.27570000  0.07960000  0.71310000  1.0 0.1199977023
H  H27  1  0.66600000  0.73770000  0.31070000  1.0 0.1293835759
H  H28  1  0.33400000  0.26230000  0.68930000  1.0 0.1293835759
H  H29  1  0.48530000  0.56420000  0.29290000  1.0 0.1199977023
H  H30  1  0.51470000  0.43580000  0.70710000  1.0 0.1199977023
H  H31  1  0.26680000  0.47590000  0.22080000  1.0 0.1382040575
H  H32  1  0.73320000  0.52410000  0.77920000  1.0 0.1382040575
H  H33  1  0.11870000  0.56920000  0.11600000  1.0 0.1199977023
H  H34  1  0.88130000  0.43080000  0.88400000  1.0 0.1199977023
C  C1  1  0.00840000  0.99400000  0.17660000  1.0 0.6633654281
C  C2  1  0.99160000  0.00600000  0.82340000  1.0 0.6633654281
C  C3  1  0.00650000  0.97930000  0.29670000  1.0 -0.0291606963
C  C4  1  0.99350000  0.02070000  0.70330000  1.0 -0.0291606963
C  C5  1  0.01520000  0.87360000  0.33490000  1.0 -0.1102306128
C  C6  1  0.98480000  0.12640000  0.66510000  1.0 -0.1102306128
C  C7  1  0.01360000  0.85970000  0.44390000  1.0 -0.148633806
C  C8  1  0.98640000  0.14030000  0.55610000  1.0 -0.148633806
C  C9  1  0.00450000  0.94720000  0.51960000  1.0 0.0699596244
C  C10  1  0.99550000  0.05280000  0.48040000  1.0 0.0699596244
C  C11  1  0.99480000  0.06500000  0.36650000  1.0 -0.1570004032
C  C12  1  0.00520000  0.93500000  0.63350000  1.0 -0.1570004032
C  C13  1  0.08800000  0.68250000  0.80670000  1.0 0.5370466157
C  C14  1  0.91200000  0.31750000  0.19330000  1.0 0.5370466157
C  C15  1  0.07500000  0.62340000  0.69080000  1.0 -0.0103527766
C  C16  1  0.92500000  0.37660000  0.30920000  1.0 -0.0103527766
C  C17  1  0.96160000  0.54770000  0.63190000  1.0 -0.1570004032
C  C18  1  0.03840000  0.45230000  0.36810000  1.0 -0.1570004032
C  C19  1  0.94750000  0.48970000  0.52240000  1.0 0.0758914843
C  C20  1  0.05250000  0.51030000  0.47760000  1.0 0.0758914843
C  C21  1  0.83190000  0.40950000  0.45960000  1.0 -0.148633806
C  C22  1  0.16810000  0.59050000  0.54040000  1.0 -0.148633806
C  C23  1  0.17930000  0.64490000  0.64360000  1.0 -0.1200808093
C  C24  1  0.82070000  0.35510000  0.35640000  1.0 -0.1200808093
C  C25  1  0.85030000  0.69390000  0.02730000  1.0 0.5549262806
C  C26  1  0.14970000  0.30610000  0.97270000  1.0 0.5554649278
C  C27  1  0.72970000  0.61900000  0.03580000  1.0 -0.0291606963
C  C28  1  0.27030000  0.38100000  0.96420000  1.0 -0.0291606963
C  C29  1  0.60880000  0.61740000  0.96060000  1.0 -0.1663491384
C  C30  1  0.39120000  0.38260000  0.03940000  1.0 -0.1663491384
C  C31  1  0.49480000  0.53900000  0.96030000  1.0 0.0699596244
C  C32  1  0.50520000  0.46100000  0.03970000  1.0 0.0699596244
C  C33  1  0.36910000  0.53510000  0.88390000  1.0 -0.148633806
C  C34  1  0.63090000  0.46490000  0.11610000  1.0 -0.148633806
C  C35  1  0.73910000  0.54130000  0.11570000  1.0 -0.0998689153
C  C36  1  0.26090000  0.45870000  0.88430000  1.0 -0.0998689153
C  C37  1  0.34810000  0.03280000  0.06410000  1.0 0.1133935999
C  C38  1  0.65190000  0.96720000  0.93590000  1.0 0.1133935999
C  C39  1  0.47830000  0.09660000  0.10650000  1.0 -0.1375821151
C  C40  1  0.52170000  0.90340000  0.89350000  1.0 -0.1375821151
C  C41  1  0.57440000  0.04790000  0.16820000  1.0 -0.084123756
C  C42  1  0.42560000  0.95210000  0.83180000  1.0 -0.084123756
C  C43  1  0.54170000  0.93710000  0.18810000  1.0 0.0436002731
C  C44  1  0.45830000  0.06290000  0.81190000  1.0 0.0436002731
C  C45  1  0.63660000  0.88100000  0.25440000  1.0 -0.1375821151
C  C46  1  0.36340000  0.11900000  0.74560000  1.0 -0.1375821151
C  C47  1  0.60150000  0.77330000  0.27050000  1.0 -0.1375821151
C  C48  1  0.39850000  0.22670000  0.72950000  1.0 -0.1375821151
C  C49  1  0.46840000  0.71240000  0.22780000  1.0 0.050537166
C  C50  1  0.53160000  0.28760000  0.77220000  1.0 0.050537166
C  C51  1  0.42480000  0.60140000  0.24940000  1.0 -0.0998689153
C  C52  1  0.57520000  0.39860000  0.75060000  1.0 -0.0998689153
C  C53  1  0.29620000  0.54950000  0.20740000  1.0 -0.1375821151
C  C54  1  0.70380000  0.45050000  0.79260000  1.0 -0.1375821151
C  C55  1  0.20770000  0.60630000  0.14390000  1.0 0.1133935999
C  C56  1  0.79230000  0.39370000  0.85610000  1.0 0.1133935999
C  C57  1  0.37170000  0.76570000  0.16380000  1.0 0.1293835759
C  C58  1  0.62830000  0.23430000  0.83620000  1.0 0.1293835759
C  C59  1  0.41030000  0.87910000  0.14150000  1.0 0.1199977023
C  C60  1  0.58970000  0.12090000  0.85850000  1.0 0.1199977023
N  N1  1  0.31420000  0.92680000  0.08030000  1.0 -0.3627941713
N  N2  1  0.68580000  0.07320000  0.91970000  1.0 -0.3627941713
N  N3  1  0.24240000  0.71090000  0.12020000  1.0 -0.3814063028
N  N4  1  0.75760000  0.28910000  0.87980000  1.0 -0.3814063028
O  O1  1  0.06800000  0.93440000  0.13330000  1.0 -0.6503374831
O  O2  1  0.93200000  0.06560000  0.86670000  1.0 -0.6503374831
O  O3  1  0.95440000  0.06710000  0.12830000  1.0 -0.6503374831
O  O4  1  0.04560000  0.93290000  0.87170000  1.0 -0.6503374831
O  O5  1  0.99090000  0.66240000  0.84510000  1.0 -0.6067739085
O  O6  1  0.00910000  0.33760000  0.15490000  1.0 -0.6067739085
O  O7  1  0.19130000  0.75150000  0.86160000  1.0 -0.5944241837
O  O8  1  0.80870000  0.24850000  0.13840000  1.0 -0.5944241837
O  O9  1  0.96200000  0.68150000  0.08660000  1.0 -0.638512905
O  O10  1  0.03800000  0.31850000  0.91340000  1.0 -0.638512905
O  O11  1  0.84330000  0.77000000  0.96130000  1.0 -0.6046768681
O  O12  1  0.15670000  0.23000000  0.03870000  1.0 -0.6046768681
