# DDEC6 charges by PACMAN v1.1 (https://github.com/mtap-research/PACMAN-charge/)
data_DACYUE_ASR_pacman
_symmetry_space_group_name_H-M   'P 1'
_cell_length_a   11.90920000
_cell_length_b   11.90920000
_cell_length_c   15.56670000
_cell_angle_alpha   84.21900000
_cell_angle_beta   95.78100000
_cell_angle_gamma   53.72350000
_symmetry_Int_Tables_number   1
_chemical_formula_structural   MgH6C16(NO4)2
_chemical_formula_sum   'Mg2 H12 C32 N4 O16'
_cell_volume   1735.08308575
_cell_formula_units_Z   2
loop_
 _symmetry_equiv_pos_site_id
 _symmetry_equiv_pos_as_xyz
  1  'x, y, z'
loop_
 _atom_site_type_symbol
 _atom_site_label
 _atom_site_symmetry_multiplicity
 _atom_site_fract_x
 _atom_site_fract_y
 _atom_site_fract_z
 _atom_site_occupancy
 _atom_site_charge
Mg  Mg1  1  0.85140000  0.85140000  0.75000000  1.0 1.3884565084
Mg  Mg2  1  0.14860000  0.14860000  0.25000000  1.0 1.3884565084
H  H1  1  0.85170000  0.64750000  0.98700000  1.0 0.120295733
H  H2  1  0.64750000  0.85170000  0.51300000  1.0 0.120295733
H  H3  1  0.14830000  0.35250000  0.01300000  1.0 0.120295733
H  H4  1  0.35250000  0.14830000  0.48700000  1.0 0.120295733
H  H5  1  0.50640000  0.70380000  0.86090000  1.0 0.129927188
H  H6  1  0.70380000  0.50640000  0.63910000  1.0 0.129927188
H  H7  1  0.49360000  0.29620000  0.13910000  1.0 0.129927188
H  H8  1  0.29620000  0.49360000  0.36090000  1.0 0.129927188
H  H9  1  0.72280000  0.43020000  0.09320000  1.0 0.1134097015
H  H10  1  0.43020000  0.72280000  0.40680000  1.0 0.1134097015
H  H11  1  0.27720000  0.56980000  0.90680000  1.0 0.1134097015
H  H12  1  0.56980000  0.27720000  0.59320000  1.0 0.1134097015
C  C1  1  0.78874000  0.62528000  0.98402000  1.0 -0.0809041823
C  C2  1  0.62528000  0.78874000  0.51598000  1.0 -0.0809041823
C  C3  1  0.21126000  0.37472000  0.01598000  1.0 -0.0809041823
C  C4  1  0.37472000  0.21126000  0.48402000  1.0 -0.0809041823
C  C5  1  0.58172000  0.65972000  0.90877000  1.0 -0.1441219302
C  C6  1  0.65972000  0.58172000  0.59123000  1.0 -0.1441219302
C  C7  1  0.41828000  0.34028000  0.09123000  1.0 -0.1441219302
C  C8  1  0.34028000  0.41828000  0.40877000  1.0 -0.1515833529
C  C9  1  0.71135000  0.49595000  0.04824000  1.0 -0.1515833529
C  C10  1  0.49595000  0.71135000  0.45176000  1.0 -0.1515833529
C  C11  1  0.28865000  0.50405000  0.95176000  1.0 -0.1515833529
C  C12  1  0.50405000  0.28865000  0.54824000  1.0 -0.1515833529
C  C13  1  0.80678000  0.52676000  0.05203000  1.0 0.0090338944
C  C14  1  0.52676000  0.80678000  0.44797000  1.0 0.0090338944
C  C15  1  0.19322000  0.47324000  0.94797000  1.0 0.0090338944
C  C16  1  0.47324000  0.19322000  0.55203000  1.0 0.0090338944
C  C17  1  0.59818000  0.56378000  0.97694000  1.0 0.137886077
C  C18  1  0.56378000  0.59818000  0.52306000  1.0 0.137886077
C  C19  1  0.40182000  0.43622000  0.02306000  1.0 0.137886077
C  C20  1  0.43622000  0.40182000  0.47694000  1.0 0.137886077
C  C21  1  0.67797000  0.68999000  0.91229000  1.0 0.0174989075
C  C22  1  0.68999000  0.67797000  0.58771000  1.0 0.0174989075
C  C23  1  0.32203000  0.31001000  0.08771000  1.0 0.0174989075
C  C24  1  0.31001000  0.32203000  0.41229000  1.0 0.0174989075
C  C25  1  0.66259000  0.79039000  0.83581000  1.0 0.5598193256
C  C26  1  0.79039000  0.66259000  0.66419000  1.0 0.5598193256
C  C27  1  0.33741000  0.20961000  0.16419000  1.0 0.5598193256
C  C28  1  0.20961000  0.33741000  0.33581000  1.0 0.5598193256
C  C29  1  0.92785000  0.45245000  0.12999000  1.0 0.5598193256
C  C30  1  0.45245000  0.92785000  0.37001000  1.0 0.5598193256
C  C31  1  0.07215000  0.54755000  0.87001000  1.0 0.5598193256
C  C32  1  0.54755000  0.07215000  0.62999000  1.0 0.5598193256
N  N1  1  0.49340000  0.53992000  0.96760000  1.0 -0.1011903958
N  N2  1  0.53992000  0.49340000  0.53240000  1.0 -0.1011903958
N  N3  1  0.50660000  0.46008000  0.03240000  1.0 -0.1011903958
N  N4  1  0.46008000  0.50660000  0.46760000  1.0 -0.1011903958
O  O1  1  0.74930000  0.81490000  0.83691000  1.0 -0.528343335
O  O2  1  0.81490000  0.74930000  0.66309000  1.0 -0.528343335
O  O3  1  0.25070000  0.18510000  0.16309000  1.0 -0.528343335
O  O4  1  0.18510000  0.25070000  0.33691000  1.0 -0.528343335
O  O5  1  0.55630000  0.84094000  0.77335000  1.0 -0.3885932001
O  O6  1  0.84094000  0.55630000  0.72665000  1.0 -0.3885932001
O  O7  1  0.44370000  0.15906000  0.22665000  1.0 -0.3885932001
O  O8  1  0.15906000  0.44370000  0.27335000  1.0 -0.3849135788
O  O9  1  0.98333000  0.51465000  0.14401000  1.0 -0.3885932001
O  O10  1  0.51465000  0.98333000  0.35599000  1.0 -0.3885932001
O  O11  1  0.01667000  0.48535000  0.85599000  1.0 -0.3955571206
O  O12  1  0.48535000  0.01667000  0.64401000  1.0 -0.3955571206
O  O13  1  0.96319000  0.33997000  0.17448000  1.0 -0.5538253736
O  O14  1  0.33997000  0.96319000  0.32552000  1.0 -0.5538253736
O  O15  1  0.03681000  0.66003000  0.82552000  1.0 -0.5551694783
O  O16  1  0.66003000  0.03681000  0.67448000  1.0 -0.5538253736
