# DDEC6 charges by PACMAN v1.1 (https://github.com/mtap-research/PACMAN-charge/)
data_DACZUF_FSR_pacman
_symmetry_space_group_name_H-M   'P 1'
_cell_length_a   18.14040000
_cell_length_b   18.14040000
_cell_length_c   13.66900000
_cell_angle_alpha   68.02930000
_cell_angle_beta   111.97100000
_cell_angle_gamma   147.04700000
_symmetry_Int_Tables_number   1
_chemical_formula_structural   Co2H7C15N4O7
_chemical_formula_sum   'Co8 H28 C60 N16 O28'
_cell_volume   2252.84477333
_cell_formula_units_Z   4
loop_
 _symmetry_equiv_pos_site_id
 _symmetry_equiv_pos_as_xyz
  1  'x, y, z'
loop_
 _atom_site_type_symbol
 _atom_site_label
 _atom_site_symmetry_multiplicity
 _atom_site_fract_x
 _atom_site_fract_y
 _atom_site_fract_z
 _atom_site_occupancy
 _atom_site_charge
Co  Co1  1  0.97930000  0.97930000  0.75000000  1.0 1.0295978966
Co  Co2  1  0.02070000  0.02070000  0.25000000  1.0 1.0295978966
Co  Co3  1  0.89695000  0.09089000  0.52895000  1.0 0.9178688807
Co  Co4  1  0.09089000  0.89695000  0.97105000  1.0 0.9178688807
Co  Co5  1  0.10305000  0.90911000  0.47105000  1.0 0.9178688807
Co  Co6  1  0.90911000  0.10305000  0.02895000  1.0 0.9178688807
Co  Co7  1  0.00000000  0.00000000  0.50000000  1.0 1.0295978966
Co  Co8  1  0.00000000  0.00000000  0.00000000  1.0 1.0234050137
H  H1  1  0.49940000  0.12760000  0.55500000  1.0 0.1109409315
H  H2  1  0.12760000  0.49940000  0.94500000  1.0 0.1109409315
H  H3  1  0.50060000  0.87240000  0.44500000  1.0 0.1109409315
H  H4  1  0.87240000  0.50060000  0.05500000  1.0 0.1109409315
H  H5  1  0.63420000  0.46020000  0.45920000  1.0 0.130561879
H  H6  1  0.46020000  0.63420000  0.04080000  1.0 0.130561879
H  H7  1  0.36580000  0.53980000  0.54080000  1.0 0.130561879
H  H8  1  0.53980000  0.36580000  0.95920000  1.0 0.130561879
H  H9  1  0.90250000  0.49970000  0.57680000  1.0 0.1196899404
H  H10  1  0.49970000  0.90250000  0.92320000  1.0 0.1196899404
H  H11  1  0.09750000  0.50030000  0.42320000  1.0 0.1196899404
H  H12  1  0.50030000  0.09750000  0.07680000  1.0 0.1196899404
H  H13  1  0.86080000  0.35040000  0.75880000  1.0 0.1196899404
H  H14  1  0.35040000  0.86080000  0.74120000  1.0 0.1196899404
H  H15  1  0.13920000  0.64960000  0.24120000  1.0 0.1196899404
H  H16  1  0.64960000  0.13920000  0.25880000  1.0 0.1196899404
H  H17  1  0.64910000  0.13690000  0.51290000  1.0 0.1196899404
H  H18  1  0.13690000  0.64910000  0.98710000  1.0 0.1196899404
H  H19  1  0.35090000  0.86310000  0.48710000  1.0 0.1196899404
H  H20  1  0.86310000  0.35090000  0.01290000  1.0 0.1196899404
H  H21  1  0.71170000  0.05750000  0.58550000  1.0 0.1196899404
H  H22  1  0.05750000  0.71170000  0.91450000  1.0 0.1196899404
H  H23  1  0.28830000  0.94250000  0.41450000  1.0 0.1196899404
H  H24  1  0.94250000  0.28830000  0.08550000  1.0 0.1196899404
H  H25  1  0.93200000  0.27720000  0.82910000  1.0 0.1196899404
H  H26  1  0.27720000  0.93200000  0.67090000  1.0 0.1196899404
H  H27  1  0.06800000  0.72280000  0.17090000  1.0 0.1196899404
H  H28  1  0.72280000  0.06800000  0.32910000  1.0 0.1196899404
C  C1  1  0.71180000  0.31040000  0.57620000  1.0 0.0499507022
C  C2  1  0.31040000  0.71180000  0.92380000  1.0 0.0499507022
C  C3  1  0.28820000  0.68960000  0.42380000  1.0 0.0499507022
C  C4  1  0.68960000  0.28820000  0.07620000  1.0 0.0499507022
C  C5  1  0.90250000  0.65890000  0.49110000  1.0 0.5320691449
C  C6  1  0.65890000  0.90250000  0.00890000  1.0 0.5320691449
C  C7  1  0.09750000  0.34110000  0.50890000  1.0 0.5320691449
C  C8  1  0.34110000  0.09750000  0.99110000  1.0 0.5320691449
C  C9  1  0.57010000  0.22190000  0.54610000  1.0 -0.1383415795
C  C10  1  0.22190000  0.57010000  0.95390000  1.0 -0.1383415795
C  C11  1  0.42990000  0.77810000  0.45390000  1.0 -0.1383415795
C  C12  1  0.77810000  0.42990000  0.04610000  1.0 -0.1383415795
C  C13  1  0.65400000  0.42220000  0.48940000  1.0 -0.1159569117
C  C14  1  0.42220000  0.65400000  0.01060000  1.0 -0.1159569117
C  C15  1  0.34600000  0.57780000  0.51060000  1.0 -0.1159569117
C  C16  1  0.57780000  0.34600000  0.98940000  1.0 -0.1159569117
C  C17  1  0.81230000  0.44350000  0.55990000  1.0 -0.1383415795
C  C18  1  0.44350000  0.81230000  0.94010000  1.0 -0.1383415795
C  C19  1  0.18770000  0.55650000  0.44010000  1.0 -0.1383415795
C  C20  1  0.55650000  0.18770000  0.05990000  1.0 -0.1383415795
C  C21  1  0.54330000  0.27690000  0.50620000  1.0 -0.0304487
C  C22  1  0.27690000  0.54330000  0.99380000  1.0 -0.0304487
C  C23  1  0.45670000  0.72310000  0.49380000  1.0 -0.0304487
C  C24  1  0.72310000  0.45670000  0.00620000  1.0 -0.0304487
C  C25  1  0.77970000  0.50290000  0.51420000  1.0 0.0071354435
C  C26  1  0.50290000  0.77970000  0.98580000  1.0 0.0071354435
C  C27  1  0.22030000  0.49710000  0.48580000  1.0 0.0071354435
C  C28  1  0.49710000  0.22030000  0.01420000  1.0 0.0071354435
C  C29  1  0.74470000  0.24950000  0.62500000  1.0 0.0712089894
C  C30  1  0.24950000  0.74470000  0.87500000  1.0 0.0712089894
C  C31  1  0.25530000  0.75050000  0.37500000  1.0 0.0712089894
C  C32  1  0.75050000  0.25530000  0.12500000  1.0 0.0712089894
C  C33  1  0.83270000  0.29330000  0.72400000  1.0 -0.1519051286
C  C34  1  0.29330000  0.83270000  0.77600000  1.0 -0.1519051286
C  C35  1  0.16730000  0.70670000  0.27600000  1.0 -0.1519051286
C  C36  1  0.70670000  0.16730000  0.22400000  1.0 -0.1519051286
C  C37  1  0.70430000  0.16370000  0.57760000  1.0 -0.1629009115
C  C38  1  0.16370000  0.70430000  0.92240000  1.0 -0.1629009115
C  C39  1  0.29570000  0.83630000  0.42240000  1.0 -0.1629009115
C  C40  1  0.83630000  0.29570000  0.07760000  1.0 -0.1629009115
C  C41  1  0.86750000  0.10510000  0.75770000  1.0 0.2882085648
C  C42  1  0.10510000  0.86750000  0.74230000  1.0 0.2882085648
C  C43  1  0.13250000  0.89490000  0.24230000  1.0 0.2882085648
C  C44  1  0.89490000  0.13250000  0.25770000  1.0 0.2882085648
C  C45  1  0.82060000  0.15200000  0.70960000  1.0 0.0344728363
C  C46  1  0.15200000  0.82060000  0.79040000  1.0 0.0344728363
C  C47  1  0.17940000  0.84800000  0.29040000  1.0 0.0344728363
C  C48  1  0.84800000  0.17940000  0.20960000  1.0 0.0344728363
C  C49  1  0.74220000  0.11580000  0.62080000  1.0 -0.0832670945
C  C50  1  0.11580000  0.74220000  0.87920000  1.0 -0.0832670945
C  C51  1  0.25780000  0.88420000  0.37920000  1.0 -0.0832670945
C  C52  1  0.88420000  0.25780000  0.12080000  1.0 -0.0832670945
C  C53  1  0.87340000  0.24860000  0.76630000  1.0 -0.0867652314
C  C54  1  0.24860000  0.87340000  0.73370000  1.0 -0.0867652314
C  C55  1  0.12660000  0.75140000  0.23370000  1.0 -0.0867652314
C  C56  1  0.75140000  0.12660000  0.26630000  1.0 -0.0867652314
C  C57  1  0.40130000  0.19330000  0.47500000  1.0 0.555654226
C  C58  1  0.19330000  0.40130000  0.02500000  1.0 0.555654226
C  C59  1  0.59870000  0.80670000  0.52500000  1.0 0.555654226
C  C60  1  0.80670000  0.59870000  0.97500000  1.0 0.555654226
N  N1  1  0.89010000  0.08230000  0.70020000  1.0 -0.2773703242
N  N2  1  0.08230000  0.89010000  0.79980000  1.0 -0.2773703242
N  N3  1  0.10990000  0.91770000  0.29980000  1.0 -0.2773703242
N  N4  1  0.91770000  0.10990000  0.20020000  1.0 -0.2773703242
N  N5  1  0.93220000  0.04480000  0.77210000  1.0 -0.0498250061
N  N6  1  0.04480000  0.93220000  0.72790000  1.0 -0.0498250061
N  N7  1  0.06780000  0.95520000  0.22790000  1.0 -0.0498250061
N  N8  1  0.95520000  0.06780000  0.27210000  1.0 -0.0498250061
N  N9  1  0.93390000  0.04590000  0.86690000  1.0 -0.0498250061
N  N10  1  0.04590000  0.93390000  0.63310000  1.0 -0.0498250061
N  N11  1  0.06610000  0.95410000  0.13310000  1.0 -0.0498250061
N  N12  1  0.95410000  0.06610000  0.36690000  1.0 -0.0498250061
N  N13  1  0.89950000  0.09110000  0.86020000  1.0 -0.2773703242
N  N14  1  0.09110000  0.89950000  0.63980000  1.0 -0.2773703242
N  N15  1  0.10050000  0.90890000  0.13980000  1.0 -0.2773703242
N  N16  1  0.90890000  0.10050000  0.36020000  1.0 -0.2773703242
O  O1  1  0.18370000  0.18370000  0.75000000  1.0 -0.1519051286
O  O2  1  0.81630000  0.81630000  0.25000000  1.0 -0.1519051286
O  O3  1  0.87500000  0.71180000  0.45230000  1.0 -0.4523675236
O  O4  1  0.71180000  0.87500000  0.04770000  1.0 -0.4523675236
O  O5  1  0.12500000  0.28820000  0.54770000  1.0 -0.4523675236
O  O6  1  0.28820000  0.12500000  0.95230000  1.0 -0.4523675236
O  O7  1  0.91320000  0.98260000  0.59050000  1.0 -0.8371680843
O  O8  1  0.98260000  0.91320000  0.90950000  1.0 -0.8371680843
O  O9  1  0.08680000  0.01740000  0.40950000  1.0 -0.8371680843
O  O10  1  0.01740000  0.08680000  0.09050000  1.0 -0.8371680843
O  O11  1  0.30480000  0.06040000  0.50140000  1.0 -0.5841229973
O  O12  1  0.06040000  0.30480000  0.99860000  1.0 -0.5841229973
O  O13  1  0.69520000  0.93960000  0.49860000  1.0 -0.5855453628
O  O14  1  0.93960000  0.69520000  0.00140000  1.0 -0.5841229973
O  O15  1  0.02040000  0.72860000  0.51580000  1.0 -0.5224635321
O  O16  1  0.72860000  0.02040000  0.98420000  1.0 -0.5224635321
O  O17  1  0.97960000  0.27140000  0.48420000  1.0 -0.5224635321
O  O18  1  0.27140000  0.97960000  0.01580000  1.0 -0.5224635321
O  O19  1  0.37570000  0.24390000  0.43420000  1.0 -0.3831976074
O  O20  1  0.24390000  0.37570000  0.06580000  1.0 -0.3831976074
O  O21  1  0.62430000  0.75610000  0.56580000  1.0 -0.3831976074
O  O22  1  0.75610000  0.62430000  0.93420000  1.0 -0.3831976074
O  O23  1  0.76220000  0.76220000  0.75000000  1.0 0.248129068
O  O24  1  0.23780000  0.23780000  0.25000000  1.0 0.248129068
O  O25  1  0.19900000  0.20880000  0.52150000  1.0 -0.0357572975
O  O26  1  0.20880000  0.19900000  0.97850000  1.0 -0.0207959561
O  O27  1  0.80100000  0.79120000  0.47850000  1.0 -0.0357572975
O  O28  1  0.79120000  0.80100000  0.02150000  1.0 -0.0304487
