# DDEC6 charges by PACMAN v1.1 (https://github.com/mtap-research/PACMAN-charge/)
data_DADLEC_FSR_pacman
_symmetry_space_group_name_H-M   'P 1'
_cell_length_a   10.40940000
_cell_length_b   10.40940000
_cell_length_c   37.47500000
_cell_angle_alpha   90.00000000
_cell_angle_beta   90.00000000
_cell_angle_gamma   100.39500000
_symmetry_Int_Tables_number   1
_chemical_formula_structural   MnH25C39NO8
_chemical_formula_sum   'Mn4 H100 C156 N4 O32'
_cell_volume   3993.98025651
_cell_formula_units_Z   4
loop_
 _symmetry_equiv_pos_site_id
 _symmetry_equiv_pos_as_xyz
  1  'x, y, z'
loop_
 _atom_site_type_symbol
 _atom_site_label
 _atom_site_symmetry_multiplicity
 _atom_site_fract_x
 _atom_site_fract_y
 _atom_site_fract_z
 _atom_site_occupancy
 _atom_site_charge
Mn  Mn1  1  0.99717000  0.27477000  0.97164000  1.0 1.1403465708
Mn  Mn2  1  0.72523000  0.00283000  0.02836000  1.0 1.1403465708
Mn  Mn3  1  0.49717000  0.77477000  0.52836000  1.0 1.1403465708
Mn  Mn4  1  0.22523000  0.50283000  0.47164000  1.0 1.1403465708
H  H1  1  0.13140000  0.89940000  0.75230000  1.0 0.12856793
H  H2  1  0.10060000  0.86860000  0.24770000  1.0 0.12856793
H  H3  1  0.63140000  0.39940000  0.74770000  1.0 0.12856793
H  H4  1  0.60060000  0.36860000  0.25230000  1.0 0.12856793
H  H5  1  0.85300000  0.61780000  0.67950000  1.0 0.1195088203
H  H6  1  0.38220000  0.14700000  0.32050000  1.0 0.1195088203
H  H7  1  0.35300000  0.11780000  0.82050000  1.0 0.1195088203
H  H8  1  0.88220000  0.64700000  0.17950000  1.0 0.1195088203
H  H9  1  0.83830000  0.63150000  0.79460000  1.0 0.12856793
H  H10  1  0.36850000  0.16170000  0.20540000  1.0 0.12856793
H  H11  1  0.33830000  0.13150000  0.70540000  1.0 0.12856793
H  H12  1  0.86850000  0.66170000  0.29460000  1.0 0.12856793
H  H13  1  0.28240000  0.32880000  0.86930000  1.0 0.1091283209
H  H14  1  0.67120000  0.71760000  0.13070000  1.0 0.1091283209
H  H15  1  0.78240000  0.82880000  0.63070000  1.0 0.1091283209
H  H16  1  0.17120000  0.21760000  0.36930000  1.0 0.1091283209
H  H17  1  0.77290000  0.70270000  0.73010000  1.0 0.12856793
H  H18  1  0.29730000  0.22710000  0.26990000  1.0 0.12856793
H  H19  1  0.27290000  0.20270000  0.76990000  1.0 0.12856793
H  H20  1  0.79730000  0.72710000  0.23010000  1.0 0.12856793
H  H21  1  0.30020000  0.64820000  0.93070000  1.0 0.12856793
H  H22  1  0.35180000  0.69980000  0.06930000  1.0 0.12856793
H  H23  1  0.80020000  0.14820000  0.56930000  1.0 0.12856793
H  H24  1  0.85180000  0.19980000  0.43070000  1.0 0.12856793
H  H25  1  0.22000000  0.69020000  0.78600000  1.0 0.1195088203
H  H26  1  0.30980000  0.78000000  0.21400000  1.0 0.1195088203
H  H27  1  0.72000000  0.19020000  0.71400000  1.0 0.1195088203
H  H28  1  0.80980000  0.28000000  0.28600000  1.0 0.1195088203
H  H29  1  0.15210000  0.48090000  0.76650000  1.0 0.1195088203
H  H30  1  0.51910000  0.84790000  0.23350000  1.0 0.1195088203
H  H31  1  0.65210000  0.98090000  0.73350000  1.0 0.1195088203
H  H32  1  0.01910000  0.34790000  0.26650000  1.0 0.1195088203
H  H33  1  0.20670000  0.81530000  0.70080000  1.0 0.1195088203
H  H34  1  0.18470000  0.79330000  0.29920000  1.0 0.1091283209
H  H35  1  0.70670000  0.31530000  0.79920000  1.0 0.1091283209
H  H36  1  0.68470000  0.29330000  0.20080000  1.0 0.1195088203
H  H37  1  0.98790000  0.29530000  0.74800000  1.0 0.12856793
H  H38  1  0.70470000  0.01210000  0.25200000  1.0 0.12856793
H  H39  1  0.48790000  0.79530000  0.75200000  1.0 0.12856793
H  H40  1  0.20470000  0.51210000  0.24800000  1.0 0.12856793
H  H41  1  0.44550000  0.44190000  0.83260000  1.0 0.1091283209
H  H42  1  0.55810000  0.55450000  0.16740000  1.0 0.1091283209
H  H43  1  0.94550000  0.94190000  0.66740000  1.0 0.1091283209
H  H44  1  0.05810000  0.05450000  0.33260000  1.0 0.1091283209
H  H45  1  0.46230000  0.75850000  0.89450000  1.0 0.1195088203
H  H46  1  0.24150000  0.53770000  0.10550000  1.0 0.1195088203
H  H47  1  0.96230000  0.25850000  0.60550000  1.0 0.1195088203
H  H48  1  0.74150000  0.03770000  0.39450000  1.0 0.1195088203
H  H49  1  0.99670000  0.54390000  0.57360000  1.0 0.12856793
H  H50  1  0.45610000  0.00330000  0.42640000  1.0 0.12856793
H  H51  1  0.49670000  0.04390000  0.92640000  1.0 0.12856793
H  H52  1  0.95610000  0.50330000  0.07360000  1.0 0.12856793
H  H53  1  0.52990000  0.85910000  0.83830000  1.0 0.1195088203
H  H54  1  0.14090000  0.47010000  0.16170000  1.0 0.1195088203
H  H55  1  0.02990000  0.35910000  0.66170000  1.0 0.1195088203
H  H56  1  0.64090000  0.97010000  0.33830000  1.0 0.1195088203
H  H57  1  0.69920000  0.96360000  0.80400000  1.0 0.1195088203
H  H58  1  0.03640000  0.30080000  0.19600000  1.0 0.1195088203
H  H59  1  0.19920000  0.46360000  0.69600000  1.0 0.1195088203
H  H60  1  0.53640000  0.80080000  0.30400000  1.0 0.1195088203
H  H61  1  0.96470000  0.39350000  0.85740000  1.0 0.12856793
H  H62  1  0.60650000  0.03530000  0.14260000  1.0 0.12856793
H  H63  1  0.46470000  0.89350000  0.64260000  1.0 0.12856793
H  H64  1  0.10650000  0.53530000  0.35740000  1.0 0.12856793
H  H65  1  0.66450000  0.52550000  0.83020000  1.0 0.1195088203
H  H66  1  0.47450000  0.33550000  0.16980000  1.0 0.1195088203
H  H67  1  0.16450000  0.02550000  0.66980000  1.0 0.1195088203
H  H68  1  0.97450000  0.83550000  0.33020000  1.0 0.1195088203
H  H69  1  0.92140000  0.59020000  0.62880000  1.0 0.1195088203
H  H70  1  0.40980000  0.07860000  0.37120000  1.0 0.1195088203
H  H71  1  0.42140000  0.09020000  0.87120000  1.0 0.1195088203
H  H72  1  0.90980000  0.57860000  0.12880000  1.0 0.1195088203
H  H73  1  0.02200000  0.60180000  0.87610000  1.0 0.12856793
H  H74  1  0.39820000  0.97800000  0.12390000  1.0 0.12856793
H  H75  1  0.52200000  0.10180000  0.62390000  1.0 0.12856793
H  H76  1  0.89820000  0.47800000  0.37610000  1.0 0.12856793
H  H77  1  0.98060000  0.98520000  0.83580000  1.0 0.12856793
H  H78  1  0.01480000  0.01940000  0.16420000  1.0 0.12856793
H  H79  1  0.48060000  0.48520000  0.66420000  1.0 0.12856793
H  H80  1  0.51480000  0.51940000  0.33580000  1.0 0.12856793
H  H81  1  0.04790000  0.19770000  0.84770000  1.0 0.1383711834
H  H82  1  0.80230000  0.95210000  0.15230000  1.0 0.1383711834
H  H83  1  0.54790000  0.69770000  0.65230000  1.0 0.1383711834
H  H84  1  0.30230000  0.45210000  0.34770000  1.0 0.1383711834
H  H85  1  0.36100000  0.66260000  0.60730000  1.0 0.1195088203
H  H86  1  0.33740000  0.63900000  0.39270000  1.0 0.1195088203
H  H87  1  0.86100000  0.16260000  0.89270000  1.0 0.1195088203
H  H88  1  0.83740000  0.13900000  0.10730000  1.0 0.1195088203
H  H89  1  0.93150000  0.07870000  0.73340000  1.0 0.12856793
H  H90  1  0.92130000  0.06850000  0.26660000  1.0 0.12856793
H  H91  1  0.43150000  0.57870000  0.76660000  1.0 0.12856793
H  H92  1  0.42130000  0.56850000  0.23340000  1.0 0.12856793
H  H93  1  0.27770000  0.71770000  0.66110000  1.0 0.1091283209
H  H94  1  0.28230000  0.72230000  0.33890000  1.0 0.1091283209
H  H95  1  0.77770000  0.21770000  0.83890000  1.0 0.1091283209
H  H96  1  0.78230000  0.22230000  0.16110000  1.0 0.1091283209
H  H97  1  0.15250000  0.90350000  0.88200000  1.0 0.3599503179
H  H98  1  0.09650000  0.84750000  0.11800000  1.0 0.3599503179
H  H99  1  0.65250000  0.40350000  0.61800000  1.0 0.3599503179
H  H100  1  0.59650000  0.34750000  0.38200000  1.0 0.3599503179
C  C1  1  0.94190000  0.81230000  0.74608000  1.0 0.1786722028
C  C2  1  0.18770000  0.05810000  0.25392000  1.0 0.1786722028
C  C3  1  0.44190000  0.31230000  0.75392000  1.0 0.1786722028
C  C4  1  0.68770000  0.55810000  0.24608000  1.0 0.1786722028
C  C5  1  0.03840000  0.70660000  0.68552000  1.0 0.0688422787
C  C6  1  0.29340000  0.96160000  0.31448000  1.0 0.0688422787
C  C7  1  0.53840000  0.20660000  0.81448000  1.0 0.0688422787
C  C8  1  0.79340000  0.46160000  0.18552000  1.0 0.0688422787
C  C9  1  0.05590000  0.40970000  0.80996000  1.0 0.0688422787
C  C10  1  0.59030000  0.94410000  0.19004000  1.0 0.0688422787
C  C11  1  0.55590000  0.90970000  0.69004000  1.0 0.0688422787
C  C12  1  0.09030000  0.44410000  0.30996000  1.0 0.0688422787
C  C13  1  0.57890000  0.67890000  0.83798000  1.0 0.0618307012
C  C14  1  0.32110000  0.42110000  0.16202000  1.0 0.0618307012
C  C15  1  0.07890000  0.17890000  0.66202000  1.0 0.0618307012
C  C16  1  0.82110000  0.92110000  0.33798000  1.0 0.0618307012
C  C17  1  0.02160000  0.27120000  0.80019000  1.0 0.0515000065
C  C18  1  0.72880000  0.97840000  0.19981000  1.0 0.0515000065
C  C19  1  0.52160000  0.77120000  0.69981000  1.0 0.0515000065
C  C20  1  0.22880000  0.47840000  0.30019000  1.0 0.0515000065
C  C21  1  0.07410000  0.84410000  0.73760000  1.0 -0.1802613261
C  C22  1  0.15590000  0.92590000  0.26240000  1.0 -0.1802613261
C  C23  1  0.57410000  0.34410000  0.76240000  1.0 -0.1802613261
C  C24  1  0.65590000  0.42590000  0.23760000  1.0 -0.1802613261
C  C25  1  0.90910000  0.67470000  0.69410000  1.0 -0.1193050523
C  C26  1  0.32530000  0.09090000  0.30590000  1.0 -0.1193050523
C  C27  1  0.40910000  0.17470000  0.80590000  1.0 -0.1193050523
C  C28  1  0.82530000  0.59090000  0.19410000  1.0 -0.1193050523
C  C29  1  0.77720000  0.67820000  0.80355000  1.0 -0.1802613261
C  C30  1  0.32180000  0.22280000  0.19645000  1.0 -0.1802613261
C  C31  1  0.27720000  0.17820000  0.69645000  1.0 -0.1802613261
C  C32  1  0.82180000  0.72280000  0.30355000  1.0 -0.1802613261
C  C33  1  0.31980000  0.41460000  0.87470000  1.0 -0.0894075966
C  C34  1  0.58540000  0.68020000  0.12530000  1.0 -0.0894075966
C  C35  1  0.81980000  0.91460000  0.62530000  1.0 -0.0894075966
C  C36  1  0.08540000  0.18020000  0.37470000  1.0 -0.0894075966
C  C37  1  0.47210000  0.61130000  0.85966000  1.0 0.0688422787
C  C38  1  0.38870000  0.52790000  0.14034000  1.0 0.0688422787
C  C39  1  0.97210000  0.11130000  0.64034000  1.0 0.0688422787
C  C40  1  0.88870000  0.02790000  0.35966000  1.0 0.0688422787
C  C41  1  0.18730000  0.59950000  0.58485000  1.0 -0.0262410102
C  C42  1  0.40050000  0.81270000  0.41515000  1.0 -0.0262410102
C  C43  1  0.68730000  0.09950000  0.91515000  1.0 -0.0262410102
C  C44  1  0.90050000  0.31270000  0.08485000  1.0 -0.0262410102
C  C45  1  0.09160000  0.66320000  0.64999000  1.0 0.0688422787
C  C46  1  0.33680000  0.90840000  0.35001000  1.0 0.0688422787
C  C47  1  0.59160000  0.16320000  0.85001000  1.0 0.0688422787
C  C48  1  0.83680000  0.40840000  0.14999000  1.0 0.0688422787
C  C49  1  0.27850000  0.47430000  0.90511000  1.0 -0.0236907454
C  C50  1  0.52570000  0.72150000  0.09489000  1.0 -0.0236907454
C  C51  1  0.77850000  0.97430000  0.59489000  1.0 -0.0236907454
C  C52  1  0.02570000  0.22150000  0.40511000  1.0 -0.0236907454
C  C53  1  0.86090000  0.72630000  0.72439000  1.0 -0.1707651191
C  C54  1  0.27370000  0.13910000  0.27561000  1.0 -0.1707651191
C  C55  1  0.36090000  0.22630000  0.77561000  1.0 -0.1707651191
C  C56  1  0.77370000  0.63910000  0.22439000  1.0 -0.1707651191
C  C57  1  0.78830000  0.80770000  0.79637000  1.0 0.1786722028
C  C58  1  0.19230000  0.21170000  0.20363000  1.0 0.1786722028
C  C59  1  0.28830000  0.30770000  0.70363000  1.0 0.1786722028
C  C60  1  0.69230000  0.71170000  0.29637000  1.0 0.1786722028
C  C61  1  0.33040000  0.60540000  0.91154000  1.0 -0.0894075966
C  C62  1  0.39460000  0.66960000  0.08846000  1.0 -0.0894075966
C  C63  1  0.83040000  0.10540000  0.58846000  1.0 -0.0894075966
C  C64  1  0.89460000  0.16960000  0.41154000  1.0 -0.0894075966
C  C65  1  0.16750000  0.63050000  0.80070000  1.0 -0.1030121428
C  C66  1  0.36950000  0.83250000  0.19930000  1.0 -0.1030121428
C  C67  1  0.66750000  0.13050000  0.69930000  1.0 -0.1030121428
C  C68  1  0.86950000  0.33250000  0.30070000  1.0 -0.1030121428
C  C69  1  0.12820000  0.50340000  0.78927000  1.0 -0.1517426133
C  C70  1  0.49660000  0.87180000  0.21073000  1.0 -0.1517426133
C  C71  1  0.62820000  0.00340000  0.71073000  1.0 -0.1517426133
C  C72  1  0.99660000  0.37180000  0.28927000  1.0 -0.1517426133
C  C73  1  0.11910000  0.79170000  0.70691000  1.0 -0.1418224993
C  C74  1  0.20830000  0.88090000  0.29309000  1.0 -0.1418224993
C  C75  1  0.61910000  0.29170000  0.79309000  1.0 -0.1418224993
C  C76  1  0.70830000  0.38090000  0.20691000  1.0 -0.1418224993
C  C77  1  0.98680000  0.23240000  0.76569000  1.0 -0.1418224993
C  C78  1  0.76760000  0.01320000  0.23431000  1.0 -0.1418224993
C  C79  1  0.48680000  0.73240000  0.73431000  1.0 -0.1418224993
C  C80  1  0.26760000  0.51320000  0.26569000  1.0 -0.1418224993
C  C81  1  0.41750000  0.48330000  0.85240000  1.0 -0.1517426133
C  C82  1  0.51670000  0.58250000  0.14760000  1.0 -0.1517426133
C  C83  1  0.91750000  0.98330000  0.64760000  1.0 -0.1517426133
C  C84  1  0.01670000  0.08250000  0.35240000  1.0 -0.1517426133
C  C85  1  0.42690000  0.67190000  0.88947000  1.0 -0.1418224993
C  C86  1  0.32810000  0.57310000  0.11053000  1.0 -0.1418224993
C  C87  1  0.92690000  0.17190000  0.61053000  1.0 -0.1418224993
C  C88  1  0.82810000  0.07310000  0.38947000  1.0 -0.1418224993
C  C89  1  0.05530000  0.57830000  0.59130000  1.0 -0.0894075966
C  C90  1  0.42170000  0.94470000  0.40870000  1.0 -0.0894075966
C  C91  1  0.55530000  0.07830000  0.90870000  1.0 -0.0894075966
C  C92  1  0.92170000  0.44470000  0.09130000  1.0 -0.0894075966
C  C93  1  0.59160000  0.81240000  0.82975000  1.0 -0.1193050523
C  C94  1  0.18760000  0.40840000  0.17025000  1.0 -0.1193050523
C  C95  1  0.09160000  0.31240000  0.67025000  1.0 -0.1193050523
C  C96  1  0.68760000  0.90840000  0.32975000  1.0 -0.1193050523
C  C97  1  0.94190000  0.00810000  0.78226000  1.0 0.170908763
C  C98  1  0.99190000  0.05810000  0.21774000  1.0 0.170908763
C  C99  1  0.44190000  0.50810000  0.71774000  1.0 0.170908763
C  C100  1  0.49190000  0.55810000  0.28226000  1.0 0.170908763
C  C101  1  0.69340000  0.87540000  0.80930000  1.0 -0.1802613261
C  C102  1  0.12460000  0.30660000  0.19070000  1.0 -0.1802613261
C  C103  1  0.19340000  0.37540000  0.69070000  1.0 -0.1802613261
C  C104  1  0.62460000  0.80660000  0.30930000  1.0 -0.1802613261
C  C105  1  0.23900000  0.57740000  0.54810000  1.0 0.5823817243
C  C106  1  0.42260000  0.76100000  0.45190000  1.0 0.5823817243
C  C107  1  0.73900000  0.07740000  0.95190000  1.0 0.5823817243
C  C108  1  0.92260000  0.26100000  0.04810000  1.0 0.5823817243
C  C109  1  0.17450000  0.40030000  0.92860000  1.0 0.5211100866
C  C110  1  0.59970000  0.82550000  0.07140000  1.0 0.5211100866
C  C111  1  0.67450000  0.90030000  0.57140000  1.0 0.5211100866
C  C112  1  0.09970000  0.32550000  0.42860000  1.0 0.5211100866
C  C113  1  0.01700000  0.45320000  0.84270000  1.0 -0.1289706688
C  C114  1  0.54680000  0.98300000  0.15730000  1.0 -0.1289706688
C  C115  1  0.51700000  0.95320000  0.65730000  1.0 -0.1289706688
C  C116  1  0.04680000  0.48300000  0.34270000  1.0 -0.1289706688
C  C117  1  0.13000000  0.66980000  0.83350000  1.0 -0.048273136
C  C118  1  0.33020000  0.87000000  0.16650000  1.0 -0.048273136
C  C119  1  0.63000000  0.16980000  0.66650000  1.0 -0.048273136
C  C120  1  0.83020000  0.37000000  0.33350000  1.0 -0.048273136
C  C121  1  0.67070000  0.61370000  0.82506000  1.0 -0.1289706688
C  C122  1  0.38630000  0.32930000  0.17494000  1.0 -0.1289706688
C  C123  1  0.17070000  0.11370000  0.67494000  1.0 -0.1289706688
C  C124  1  0.88630000  0.82930000  0.32506000  1.0 -0.1289706688
C  C125  1  0.01060000  0.60840000  0.62429000  1.0 -0.1517426133
C  C126  1  0.39160000  0.98940000  0.37571000  1.0 -0.1517426133
C  C127  1  0.51060000  0.10840000  0.87571000  1.0 -0.1517426133
C  C128  1  0.89160000  0.48940000  0.12429000  1.0 -0.1517426133
C  C129  1  0.05150000  0.57790000  0.85410000  1.0 -0.0894075966
C  C130  1  0.42210000  0.94850000  0.14590000  1.0 -0.0894075966
C  C131  1  0.55150000  0.07790000  0.64590000  1.0 -0.0894075966
C  C132  1  0.92210000  0.44850000  0.35410000  1.0 -0.0894075966
C  C133  1  0.98160000  0.04700000  0.81787000  1.0 -0.1605106044
C  C134  1  0.95300000  0.01840000  0.18213000  1.0 -0.1605106044
C  C135  1  0.48160000  0.54700000  0.68213000  1.0 -0.1605106044
C  C136  1  0.45300000  0.51840000  0.31787000  1.0 -0.1605106044
C  C137  1  0.02010000  0.17390000  0.82462000  1.0 -0.1193050523
C  C138  1  0.82610000  0.97990000  0.17538000  1.0 -0.1193050523
C  C139  1  0.52010000  0.67390000  0.67538000  1.0 -0.1193050523
C  C140  1  0.32610000  0.47990000  0.32462000  1.0 -0.1193050523
C  C141  1  0.27120000  0.64980000  0.61090000  1.0 -0.0894075966
C  C142  1  0.35020000  0.72880000  0.38910000  1.0 -0.0894075966
C  C143  1  0.77120000  0.14980000  0.88910000  1.0 -0.0894075966
C  C144  1  0.85020000  0.22880000  0.11090000  1.0 -0.0894075966
C  C145  1  0.17810000  0.80710000  0.84410000  1.0 0.528276517
C  C146  1  0.19290000  0.82190000  0.15590000  1.0 0.528276517
C  C147  1  0.67810000  0.30710000  0.65590000  1.0 0.528276517
C  C148  1  0.69290000  0.32190000  0.34410000  1.0 0.528276517
C  C149  1  0.95040000  0.10220000  0.75702000  1.0 -0.1707651191
C  C150  1  0.89780000  0.04960000  0.24298000  1.0 -0.1707651191
C  C151  1  0.45040000  0.60220000  0.74298000  1.0 -0.1707651191
C  C152  1  0.39780000  0.54960000  0.25702000  1.0 -0.1707651191
C  C153  1  0.22010000  0.68170000  0.64323000  1.0 -0.1605106044
C  C154  1  0.31830000  0.77990000  0.35677000  1.0 -0.1605106044
C  C155  1  0.72010000  0.18170000  0.85677000  1.0 -0.1605106044
C  C156  1  0.81830000  0.27990000  0.14323000  1.0 -0.1605106044
N  N1  1  0.89380000  0.87260000  0.77557000  1.0 -0.1707651191
N  N2  1  0.12740000  0.10620000  0.22443000  1.0 -0.1707651191
N  N3  1  0.39380000  0.37260000  0.72443000  1.0 -0.1707651191
N  N4  1  0.62740000  0.60620000  0.27557000  1.0 -0.1707651191
O  O1  1  0.11120000  0.29240000  0.91899000  1.0 -0.5695690076
O  O2  1  0.70760000  0.88880000  0.08101000  1.0 -0.5695690076
O  O3  1  0.61120000  0.79240000  0.58101000  1.0 -0.5641178052
O  O4  1  0.20760000  0.38880000  0.41899000  1.0 -0.5695690076
O  O5  1  0.15050000  0.45270000  0.95823000  1.0 -0.5502427529
O  O6  1  0.54730000  0.84950000  0.04177000  1.0 -0.5502427529
O  O7  1  0.65050000  0.95270000  0.54177000  1.0 -0.5502427529
O  O8  1  0.04730000  0.34950000  0.45823000  1.0 -0.5502427529
O  O9  1  0.36140000  0.60620000  0.54299000  1.0 -0.5695690076
O  O10  1  0.39380000  0.63860000  0.45701000  1.0 -0.5695690076
O  O11  1  0.86140000  0.10620000  0.95701000  1.0 -0.5695690076
O  O12  1  0.89380000  0.13860000  0.04299000  1.0 -0.5695690076
O  O13  1  0.16000000  0.52220000  0.52473000  1.0 -0.5757365684
O  O14  1  0.47780000  0.84000000  0.47527000  1.0 -0.5757365684
O  O15  1  0.66000000  0.02220000  0.97527000  1.0 -0.5757365684
O  O16  1  0.97780000  0.34000000  0.02473000  1.0 -0.5757365684
O  O17  1  0.12380000  0.82880000  0.87538000  1.0 -0.4229827384
O  O18  1  0.17120000  0.87620000  0.12462000  1.0 -0.4229827384
O  O19  1  0.62380000  0.32880000  0.62462000  1.0 -0.4229827384
O  O20  1  0.67120000  0.37620000  0.37538000  1.0 -0.4229827384
O  O21  1  0.25090000  0.88550000  0.82884000  1.0 -0.4525688152
O  O22  1  0.11450000  0.74910000  0.17116000  1.0 -0.4525688152
O  O23  1  0.75090000  0.38550000  0.67116000  1.0 -0.4525688152
O  O24  1  0.61450000  0.24910000  0.32884000  1.0 -0.4525688152
O  O25  1  0.12990000  0.14430000  0.99020000  1.0 -0.1030121428
O  O26  1  0.85570000  0.87010000  0.00980000  1.0 -0.1030121428
O  O27  1  0.62990000  0.64430000  0.50980000  1.0 -0.1030121428
O  O28  1  0.35570000  0.37010000  0.49020000  1.0 -0.1030121428
O  O29  1  0.84860000  0.39020000  0.95520000  1.0 -0.2291259813
O  O30  1  0.60980000  0.15140000  0.04480000  1.0 -0.2291259813
O  O31  1  0.34860000  0.89020000  0.54480000  1.0 -0.2291259813
O  O32  1  0.10980000  0.65140000  0.45520000  1.0 -0.2291259813
