# DDEC6 charges by PACMAN v1.1 (https://github.com/mtap-research/PACMAN-charge/)
data_DAFTIQ_FSR_pacman
_symmetry_space_group_name_H-M   'P 1'
_cell_length_a   9.15040000
_cell_length_b   10.60760000
_cell_length_c   19.49640000
_cell_angle_alpha   85.41480000
_cell_angle_beta   86.27270000
_cell_angle_gamma   67.77510000
_symmetry_Int_Tables_number   1
_chemical_formula_structural   Zn3H12C20(N3O4)2
_chemical_formula_sum   'Zn6 H24 C40 N12 O16'
_cell_volume   1744.95465988
_cell_formula_units_Z   2
loop_
 _symmetry_equiv_pos_site_id
 _symmetry_equiv_pos_as_xyz
  1  'x, y, z'
loop_
 _atom_site_type_symbol
 _atom_site_label
 _atom_site_symmetry_multiplicity
 _atom_site_fract_x
 _atom_site_fract_y
 _atom_site_fract_z
 _atom_site_occupancy
 _atom_site_charge
Zn  Zn1  1  0.91285000  0.41687000  0.47067000  1.0 0.7089922441
Zn  Zn2  1  0.56023000  0.14548000  0.98817000  1.0 0.7781880511
Zn  Zn3  1  0.05670000  0.60026000  0.52382000  1.0 0.6568912281
Zn  Zn4  1  0.44533000  0.81628000  0.00893000  1.0 0.7875632657
Zn  Zn5  1  0.49488000  0.49276000  0.50867000  1.0 0.9164004339
Zn  Zn6  1  0.01066000  0.98965000  0.99569000  1.0 0.8620716346
H  H1  1  0.46933000  0.48132000  0.29235000  1.0 0.1008664576
H  H2  1  0.43887000  0.41121000  0.17544000  1.0 0.1192596344
H  H3  1  0.94898000  0.16476000  0.14871000  1.0 0.1192596344
H  H4  1  0.97946000  0.23395000  0.26639000  1.0 0.1192596344
H  H5  1  0.42328000  0.78493000  0.62243000  1.0 0.1107026526
H  H6  1  0.69720000  0.84007000  0.63373000  1.0 0.1422948006
H  H7  1  0.03700000  0.68384000  0.04023000  1.0 0.1422948006
H  H8  1  0.76315000  0.62025000  0.04726000  1.0 0.1310225391
H  H9  1  0.54343000  0.48049000  0.70993000  1.0 0.1008664576
H  H10  1  0.58109000  0.52637000  0.83133000  1.0 0.1192596344
H  H11  1  0.10365000  0.86209000  0.84307000  1.0 0.1008664576
H  H12  1  0.06781000  0.81225000  0.72210000  1.0 0.1107026526
H  H13  1  0.52631000  0.20672000  0.39451000  1.0 0.1310225391
H  H14  1  0.23968000  0.17024000  0.38471000  1.0 0.1517693562
H  H15  1  0.92085000  0.99579000  0.24575000  1.0 0.1107026526
H  H16  1  0.93288000  0.95948000  0.37567000  1.0 0.1008664576
H  H17  1  0.43449000  0.69063000  0.34921000  1.0 0.1192596344
H  H18  1  0.42678000  0.72670000  0.21857000  1.0 0.1107026526
H  H19  1  0.03835000  0.06951000  0.77493000  1.0 0.1107026526
H  H20  1  0.02684000  0.11222000  0.64435000  1.0 0.1107026526
H  H21  1  0.51124000  0.27923000  0.66895000  1.0 0.1192596344
H  H22  1  0.52025000  0.23155000  0.80002000  1.0 0.1008664576
H  H23  1  0.98913000  0.26190000  0.90074000  1.0 0.1422948006
H  H24  1  0.25411000  0.34017000  0.89156000  1.0 0.1310225391
C  C1  1  0.74655000  0.39664000  0.35770000  1.0 0.5801559103
C  C2  1  0.72597000  0.36240000  0.28639000  1.0 -0.02883431
C  C3  1  0.57386000  0.41236000  0.26043000  1.0 -0.1000973318
C  C4  1  0.55715000  0.37356000  0.19534000  1.0 -0.1000973318
C  C5  1  0.69289000  0.28470000  0.15492000  1.0 -0.0134939641
C  C6  1  0.84528000  0.23683000  0.18021000  1.0 -0.1000973318
C  C7  1  0.86166000  0.27470000  0.24541000  1.0 -0.0882529361
C  C8  1  0.68182000  0.23387000  0.08661000  1.0 0.589857977
C  C9  1  0.54571000  0.73523000  0.59934000  1.0 0.0458290068
C  C10  1  0.68013000  0.76211000  0.60514000  1.0 -0.0395502053
C  C11  1  0.91249000  0.75018000  0.03160000  1.0 -0.0212478941
C  C12  1  0.77829000  0.71891000  0.03494000  1.0 -0.02883431
C  C13  1  0.28392000  0.61657000  0.63632000  1.0 0.5801559103
C  C14  1  0.30359000  0.64311000  0.70911000  1.0 -0.0395502053
C  C15  1  0.44825000  0.56293000  0.74004000  1.0 -0.1063947702
C  C16  1  0.46888000  0.58821000  0.80709000  1.0 -0.1000973318
C  C17  1  0.34367000  0.69646000  0.84400000  1.0 -0.0212478941
C  C18  1  0.19817000  0.77608000  0.81380000  1.0 -0.1063947702
C  C19  1  0.17886000  0.74956000  0.74674000  1.0 -0.1000973318
C  C20  1  0.36420000  0.73823000  0.91284000  1.0 0.5709505094
C  C21  1  0.40494000  0.26326000  0.41695000  1.0 0.0092821437
C  C22  1  0.26452000  0.24559000  0.41196000  1.0 -0.0395502053
C  C23  1  0.17251000  0.87240000  0.14467000  1.0 0.589857977
C  C24  1  0.17330000  0.86092000  0.22320000  1.0 -0.02883431
C  C25  1  0.03447000  0.92900000  0.26768000  1.0 -0.0882529361
C  C26  1  0.04053000  0.91069000  0.34035000  1.0 -0.1000973318
C  C27  1  0.18445000  0.82372000  0.37000000  1.0 -0.0134939641
C  C28  1  0.32435000  0.76117000  0.32570000  1.0 -0.1000973318
C  C29  1  0.31872000  0.77927000  0.25314000  1.0 -0.1000973318
C  C30  1  0.18762000  0.77931000  0.44659000  1.0 0.5709505094
C  C31  1  0.78035000  0.14230000  0.87365000  1.0 0.589857977
C  C32  1  0.77951000  0.15151000  0.79540000  1.0 -0.0395502053
C  C33  1  0.92291000  0.11347000  0.75160000  1.0 -0.1063947702
C  C34  1  0.91719000  0.13603000  0.67920000  1.0 -0.0882529361
C  C35  1  0.76790000  0.19848000  0.64969000  1.0 -0.0212478941
C  C36  1  0.62558000  0.22751000  0.69318000  1.0 -0.1063947702
C  C37  1  0.63119000  0.20410000  0.76557000  1.0 -0.0882529361
C  C38  1  0.75541000  0.25532000  0.57510000  1.0 0.5960728539
C  C39  1  0.10821000  0.20888000  0.92036000  1.0 -0.0212478941
C  C40  1  0.23853000  0.24664000  0.91560000  1.0 -0.0212478941
N  N1  1  0.59034000  0.62603000  0.55643000  1.0 -0.1437419491
N  N2  1  0.74779000  0.58586000  0.53598000  1.0 -0.0714620488
N  N3  1  0.80393000  0.66852000  0.56583000  1.0 -0.1316676797
N  N4  1  0.86518000  0.88978000  0.01291000  1.0 -0.1437419491
N  N5  1  0.70555000  0.94486000  0.00428000  1.0 -0.0528253527
N  N6  1  0.65158000  0.84073000  0.01794000  1.0 -0.1944583343
N  N7  1  0.36812000  0.37492000  0.45750000  1.0 -0.1437419491
N  N8  1  0.20989000  0.42553000  0.47726000  1.0 -0.0609888477
N  N9  1  0.14533000  0.34714000  0.44918000  1.0 -0.1437419491
N  N10  1  0.15198000  0.08180000  0.95634000  1.0 -0.1316676797
N  N11  1  0.30520000  0.03995000  0.97354000  1.0 -0.0609888477
N  N12  1  0.35928000  0.14062000  0.94906000  1.0 -0.1965773987
O  O1  1  0.62468000  0.46824000  0.39709000  1.0 -0.6076454507
O  O2  1  0.89394000  0.34802000  0.37405000  1.0 -0.5175321685
O  O3  1  0.54139000  0.24615000  0.07233000  1.0 -0.5280991422
O  O4  1  0.80801000  0.18041000  0.04578000  1.0 -0.5944382535
O  O5  1  0.40521000  0.53502000  0.59948000  1.0 -0.5280991422
O  O6  1  0.14010000  0.68040000  0.61569000  1.0 -0.5280991422
O  O7  1  0.50806000  0.70734000  0.92946000  1.0 -0.5032054769
O  O8  1  0.24124000  0.80952000  0.95310000  1.0 -0.5814309107
O  O9  1  0.04303000  0.94696000  0.11626000  1.0 -0.5613588082
O  O10  1  0.30964000  0.80313000  0.11191000  1.0 -0.6252756702
O  O11  1  0.05045000  0.80458000  0.48087000  1.0 -0.5280991422
O  O12  1  0.32181000  0.71312000  0.47229000  1.0 -0.5539284931
O  O13  1  0.91162000  0.07214000  0.90175000  1.0 -0.5395472037
O  O14  1  0.64160000  0.21164000  0.90637000  1.0 -0.5697834479
O  O15  1  0.88695000  0.25200000  0.54134000  1.0 -0.5613588082
O  O16  1  0.61787000  0.31126000  0.55105000  1.0 -0.5280991422
