# DDEC6 charges by PACMAN v1.1 (https://github.com/mtap-research/PACMAN-charge/)
data_DAFTEM_ASR_pacman
_symmetry_space_group_name_H-M   'P 1'
_cell_length_a   8.30000000
_cell_length_b   19.38000000
_cell_length_c   9.10541000
_cell_angle_alpha   90.00000000
_cell_angle_beta   111.20000000
_cell_angle_gamma   90.00000000
_symmetry_Int_Tables_number   1
_chemical_formula_structural   Zn3H12C20(N3O4)2
_chemical_formula_sum   'Zn6 H24 C40 N12 O16'
_cell_volume   1365.52024271
_cell_formula_units_Z   2
loop_
 _symmetry_equiv_pos_site_id
 _symmetry_equiv_pos_as_xyz
  1  'x, y, z'
loop_
 _atom_site_type_symbol
 _atom_site_label
 _atom_site_symmetry_multiplicity
 _atom_site_fract_x
 _atom_site_fract_y
 _atom_site_fract_z
 _atom_site_occupancy
 _atom_site_charge
Zn  Zn1  1  0.50000000  0.50000000  0.00000000  1.0 0.9023746342
Zn  Zn2  1  0.00000000  0.00000000  0.00000000  1.0 0.9023746342
Zn  Zn3  1  0.03312000  0.53854000  0.65890000  1.0 0.6920660228
Zn  Zn4  1  0.46688000  0.03854000  0.34110000  1.0 0.6920660228
Zn  Zn5  1  0.96688000  0.46146000  0.34110000  1.0 0.6920660228
Zn  Zn6  1  0.53312000  0.96146000  0.65890000  1.0 0.6920660228
H  H1  1  0.55568000  0.70196000  0.11690000  1.0 0.1093447758
H  H2  1  0.94432000  0.20196000  0.88310000  1.0 0.1093447758
H  H3  1  0.44432000  0.29804000  0.88310000  1.0 0.1093447758
H  H4  1  0.05568000  0.79804000  0.11690000  1.0 0.1093447758
H  H5  1  0.59871000  0.83137000  0.18688000  1.0 0.1093447758
H  H6  1  0.90129000  0.33137000  0.81312000  1.0 0.1093447758
H  H7  1  0.40129000  0.16863000  0.81312000  1.0 0.1093447758
H  H8  1  0.09871000  0.66863000  0.18688000  1.0 0.1093447758
H  H9  1  0.12380000  0.88044000  0.82001000  1.0 0.0981050372
H  H10  1  0.37620000  0.38044000  0.17999000  1.0 0.0981050372
H  H11  1  0.87620000  0.11956000  0.17999000  1.0 0.0981050372
H  H12  1  0.62380000  0.61956000  0.82001000  1.0 0.0981050372
H  H13  1  0.08154000  0.75129000  0.74788000  1.0 0.1093447758
H  H14  1  0.41846000  0.25129000  0.25212000  1.0 0.1093447758
H  H15  1  0.91846000  0.24871000  0.25212000  1.0 0.1093447758
H  H16  1  0.58154000  0.74871000  0.74788000  1.0 0.1093447758
H  H17  1  0.63797000  0.41610000  0.72318000  1.0 0.147421667
H  H18  1  0.86203000  0.91610000  0.27682000  1.0 0.147421667
H  H19  1  0.36203000  0.58390000  0.27682000  1.0 0.147421667
H  H20  1  0.13797000  0.08390000  0.72318000  1.0 0.147421667
H  H21  1  0.40549000  0.40062000  0.41778000  1.0 0.1288699448
H  H22  1  0.09451000  0.90062000  0.58222000  1.0 0.1288699448
H  H23  1  0.59451000  0.59938000  0.58222000  1.0 0.1288699448
H  H24  1  0.90549000  0.09938000  0.41778000  1.0 0.1288699448
C  C1  1  0.29076000  0.64164000  0.89185000  1.0 0.600302586
C  C2  1  0.20924000  0.14164000  0.10815000  1.0 0.600302586
C  C3  1  0.70924000  0.35836000  0.10815000  1.0 0.600302586
C  C4  1  0.79076000  0.85836000  0.89185000  1.0 0.600302586
C  C5  1  0.31609000  0.71919000  0.92887000  1.0 -0.0316209992
C  C6  1  0.18391000  0.21919000  0.07113000  1.0 -0.0316209992
C  C7  1  0.68391000  0.28081000  0.07113000  1.0 -0.0316209992
C  C8  1  0.81609000  0.78081000  0.92887000  1.0 -0.0316209992
C  C9  1  0.46224000  0.74174000  0.05216000  1.0 -0.0933555966
C  C10  1  0.03776000  0.24174000  0.94784000  1.0 -0.0933555966
C  C11  1  0.53776000  0.25826000  0.94784000  1.0 -0.0991638854
C  C12  1  0.96224000  0.75826000  0.05216000  1.0 -0.0933555966
C  C13  1  0.48576000  0.81341000  0.09089000  1.0 -0.0933555966
C  C14  1  0.01424000  0.31341000  0.90911000  1.0 -0.0933555966
C  C15  1  0.51424000  0.18659000  0.90911000  1.0 -0.0933555966
C  C16  1  0.98576000  0.68659000  0.09089000  1.0 -0.0933555966
C  C17  1  0.36326000  0.86351000  0.00679000  1.0 -0.014681619
C  C18  1  0.13674000  0.36351000  0.99321000  1.0 -0.014681619
C  C19  1  0.63674000  0.13649000  0.99321000  1.0 -0.014681619
C  C20  1  0.86326000  0.63649000  0.00679000  1.0 -0.014681619
C  C21  1  0.22007000  0.84102000  0.88085000  1.0 -0.0933555966
C  C22  1  0.27993000  0.34102000  0.11915000  1.0 -0.0933555966
C  C23  1  0.77993000  0.15898000  0.11915000  1.0 -0.0933555966
C  C24  1  0.72007000  0.65898000  0.88085000  1.0 -0.0933555966
C  C25  1  0.19603000  0.76934000  0.84218000  1.0 -0.0991638854
C  C26  1  0.30397000  0.26934000  0.15782000  1.0 -0.0991638854
C  C27  1  0.80397000  0.23066000  0.15782000  1.0 -0.0991638854
C  C28  1  0.69603000  0.73066000  0.84218000  1.0 -0.0991638854
C  C29  1  0.37385000  0.93916000  0.05872000  1.0 0.5882672757
C  C30  1  0.12615000  0.43916000  0.94128000  1.0 0.5882672757
C  C31  1  0.62615000  0.06084000  0.94128000  1.0 0.5882672757
C  C32  1  0.87385000  0.56084000  0.05872000  1.0 0.5882672757
C  C33  1  0.50500000  0.43184000  0.67001000  1.0 -0.0316209992
C  C34  1  0.99500000  0.93184000  0.32999000  1.0 -0.0316209992
C  C35  1  0.49500000  0.56816000  0.32999000  1.0 -0.0316209992
C  C36  1  0.00500000  0.06816000  0.67001000  1.0 -0.0316209992
C  C37  1  0.39076000  0.42482000  0.51824000  1.0 -0.0388056024
C  C38  1  0.10924000  0.92482000  0.48176000  1.0 -0.0388056024
C  C39  1  0.60924000  0.57518000  0.48176000  1.0 -0.0388056024
C  C40  1  0.89076000  0.07518000  0.51824000  1.0 -0.0388056024
N  N1  1  0.42397000  0.46538000  0.75247000  1.0 -0.129162541
N  N2  1  0.07603000  0.96538000  0.24753000  1.0 -0.129162541
N  N3  1  0.57603000  0.53462000  0.24753000  1.0 -0.129162541
N  N4  1  0.92397000  0.03462000  0.75247000  1.0 -0.129162541
N  N5  1  0.26321000  0.47926000  0.65379000  1.0 -0.053946812
N  N6  1  0.23679000  0.97926000  0.34621000  1.0 -0.053946812
N  N7  1  0.73679000  0.52074000  0.34621000  1.0 -0.053946812
N  N8  1  0.76321000  0.02074000  0.65379000  1.0 -0.053946812
N  N9  1  0.24073000  0.45454000  0.50931000  1.0 -0.1751950629
N  N10  1  0.25927000  0.95454000  0.49069000  1.0 -0.1751950629
N  N11  1  0.75927000  0.54546000  0.49069000  1.0 -0.1751950629
N  N12  1  0.74073000  0.04546000  0.50931000  1.0 -0.1751950629
O  O1  1  0.41908000  0.60175000  0.95458000  1.0 -0.5688561707
O  O2  1  0.08092000  0.10175000  0.04542000  1.0 -0.5688561707
O  O3  1  0.58092000  0.39825000  0.04542000  1.0 -0.5688561707
O  O4  1  0.91908000  0.89825000  0.95458000  1.0 -0.5688561707
O  O5  1  0.14085000  0.62306000  0.79785000  1.0 -0.5224350005
O  O6  1  0.35915000  0.12306000  0.20215000  1.0 -0.5224350005
O  O7  1  0.85915000  0.37694000  0.20215000  1.0 -0.5224350005
O  O8  1  0.64085000  0.87694000  0.79785000  1.0 -0.5224350005
O  O9  1  0.50786000  0.95722000  0.17637000  1.0 -0.5319251328
O  O10  1  0.99214000  0.45722000  0.82363000  1.0 -0.5319251328
O  O11  1  0.49214000  0.04278000  0.82363000  1.0 -0.5319251328
O  O12  1  0.00786000  0.54278000  0.17637000  1.0 -0.5319251328
O  O13  1  0.25070000  0.98101000  0.99012000  1.0 -0.5553214907
O  O14  1  0.24930000  0.48101000  0.00988000  1.0 -0.5553214907
O  O15  1  0.74930000  0.01899000  0.00988000  1.0 -0.5553214907
O  O16  1  0.75070000  0.51899000  0.99012000  1.0 -0.5553214907
