# DDEC6 charges by PACMAN v1.1 (https://github.com/mtap-research/PACMAN-charge/)
data_DAFYOB_ASR_pacman
_symmetry_space_group_name_H-M   'P 1'
_cell_length_a   16.21220000
_cell_length_b   16.21220000
_cell_length_c   16.06420000
_cell_angle_alpha   90.00000000
_cell_angle_beta   90.00000000
_cell_angle_gamma   120.00000000
_symmetry_Int_Tables_number   1
_chemical_formula_structural   Mg3H12C24O25
_chemical_formula_sum   'Mg6 H24 C48 O50'
_cell_volume   3656.56787681
_cell_formula_units_Z   2
loop_
 _symmetry_equiv_pos_site_id
 _symmetry_equiv_pos_as_xyz
  1  'x, y, z'
loop_
 _atom_site_type_symbol
 _atom_site_label
 _atom_site_symmetry_multiplicity
 _atom_site_fract_x
 _atom_site_fract_y
 _atom_site_fract_z
 _atom_site_occupancy
 _atom_site_charge
Mg  Mg1  1  0.26181000  0.73819000  0.25000000  1.0 1.3794093237
Mg  Mg2  1  0.52362000  0.26181000  0.75000000  1.0 1.3794093237
Mg  Mg3  1  0.26181000  0.52362000  0.25000000  1.0 1.3794093237
Mg  Mg4  1  0.73819000  0.26181000  0.75000000  1.0 1.3794093237
Mg  Mg5  1  0.47638000  0.73819000  0.25000000  1.0 1.3794093237
Mg  Mg6  1  0.73819000  0.47638000  0.75000000  1.0 1.3794093237
H  H1  1  0.10680000  0.41310000  0.09640000  1.0 0.3617685096
H  H2  1  0.69370000  0.10680000  0.59640000  1.0 0.3617685096
H  H3  1  0.58690000  0.69370000  0.09640000  1.0 0.3617685096
H  H4  1  0.89320000  0.58690000  0.59640000  1.0 0.3617685096
H  H5  1  0.30630000  0.89320000  0.09640000  1.0 0.3617685096
H  H6  1  0.41310000  0.30630000  0.59640000  1.0 0.3617685096
H  H7  1  0.58690000  0.89320000  0.40360000  1.0 0.3617685096
H  H8  1  0.69370000  0.58690000  0.90360000  1.0 0.3617685096
H  H9  1  0.10680000  0.69370000  0.40360000  1.0 0.3617685096
H  H10  1  0.41310000  0.10680000  0.90360000  1.0 0.3617685096
H  H11  1  0.30630000  0.41310000  0.40360000  1.0 0.3617685096
H  H12  1  0.89320000  0.30630000  0.90360000  1.0 0.3617685096
H  H13  1  0.89320000  0.58690000  0.90360000  1.0 0.3617685096
H  H14  1  0.30630000  0.89320000  0.40360000  1.0 0.3617685096
H  H15  1  0.41310000  0.30630000  0.90360000  1.0 0.3617685096
H  H16  1  0.10680000  0.41310000  0.40360000  1.0 0.3617685096
H  H17  1  0.69370000  0.10680000  0.90360000  1.0 0.3617685096
H  H18  1  0.58690000  0.69370000  0.40360000  1.0 0.3617685096
H  H19  1  0.41310000  0.10680000  0.59640000  1.0 0.3617685096
H  H20  1  0.30630000  0.41310000  0.09640000  1.0 0.3617685096
H  H21  1  0.89320000  0.30630000  0.59640000  1.0 0.3617685096
H  H22  1  0.58690000  0.89320000  0.09640000  1.0 0.3617685096
H  H23  1  0.69370000  0.58690000  0.59640000  1.0 0.3617685096
H  H24  1  0.10680000  0.69370000  0.09640000  1.0 0.3617685096
C  C1  1  0.03364000  0.44307000  0.03188000  1.0 0.1905099495
C  C2  1  0.59057000  0.03364000  0.53188000  1.0 0.1905099495
C  C3  1  0.55693000  0.59057000  0.03188000  1.0 0.1905099495
C  C4  1  0.96636000  0.55693000  0.53188000  1.0 0.1905099495
C  C5  1  0.40943000  0.96636000  0.03188000  1.0 0.1905099495
C  C6  1  0.44307000  0.40943000  0.53188000  1.0 0.1905099495
C  C7  1  0.55693000  0.96636000  0.46812000  1.0 0.1905099495
C  C8  1  0.59057000  0.55693000  0.96812000  1.0 0.1905099495
C  C9  1  0.03364000  0.59057000  0.46812000  1.0 0.1905099495
C  C10  1  0.44307000  0.03364000  0.96812000  1.0 0.1905099495
C  C11  1  0.40943000  0.44307000  0.46812000  1.0 0.1905099495
C  C12  1  0.96636000  0.40943000  0.96812000  1.0 0.1905099495
C  C13  1  0.96636000  0.55693000  0.96812000  1.0 0.1905099495
C  C14  1  0.40943000  0.96636000  0.46812000  1.0 0.1905099495
C  C15  1  0.44307000  0.40943000  0.96812000  1.0 0.1905099495
C  C16  1  0.03364000  0.44307000  0.46812000  1.0 0.1905099495
C  C17  1  0.59057000  0.03364000  0.96812000  1.0 0.1905099495
C  C18  1  0.55693000  0.59057000  0.46812000  1.0 0.1905099495
C  C19  1  0.44307000  0.03364000  0.53188000  1.0 0.1905099495
C  C20  1  0.40943000  0.44307000  0.03188000  1.0 0.1905099495
C  C21  1  0.96636000  0.40943000  0.53188000  1.0 0.1905099495
C  C22  1  0.55693000  0.96636000  0.03188000  1.0 0.1905099495
C  C23  1  0.59057000  0.55693000  0.53188000  1.0 0.1905099495
C  C24  1  0.03364000  0.59057000  0.03188000  1.0 0.1905099495
C  C25  1  0.06880000  0.53440000  0.06374000  1.0 -0.2920957375
C  C26  1  0.53440000  0.06880000  0.56374000  1.0 -0.2920957375
C  C27  1  0.46560000  0.53440000  0.06374000  1.0 -0.2920957375
C  C28  1  0.93120000  0.46560000  0.56374000  1.0 -0.2920957375
C  C29  1  0.46560000  0.93120000  0.06374000  1.0 -0.2920957375
C  C30  1  0.53440000  0.46560000  0.56374000  1.0 -0.2920957375
C  C31  1  0.46560000  0.93120000  0.43626000  1.0 -0.2920957375
C  C32  1  0.53440000  0.46560000  0.93626000  1.0 -0.2920957375
C  C33  1  0.06880000  0.53440000  0.43626000  1.0 -0.2920957375
C  C34  1  0.53440000  0.06880000  0.93626000  1.0 -0.2920957375
C  C35  1  0.46560000  0.53440000  0.43626000  1.0 -0.2920957375
C  C36  1  0.93120000  0.46560000  0.93626000  1.0 -0.2920957375
C  C37  1  0.14200000  0.57100000  0.13133000  1.0 0.6622032678
C  C38  1  0.57100000  0.14200000  0.63133000  1.0 0.6622032678
C  C39  1  0.42900000  0.57100000  0.13133000  1.0 0.6622032678
C  C40  1  0.85800000  0.42900000  0.63133000  1.0 0.6622032678
C  C41  1  0.42900000  0.85800000  0.13133000  1.0 0.6622032678
C  C42  1  0.57100000  0.42900000  0.63133000  1.0 0.6622032678
C  C43  1  0.42900000  0.85800000  0.36867000  1.0 0.6622032678
C  C44  1  0.57100000  0.42900000  0.86867000  1.0 0.6622032678
C  C45  1  0.14200000  0.57100000  0.36867000  1.0 0.6622032678
C  C46  1  0.57100000  0.14200000  0.86867000  1.0 0.6622032678
C  C47  1  0.42900000  0.57100000  0.36867000  1.0 0.6622032678
C  C48  1  0.85800000  0.42900000  0.86867000  1.0 0.6622032678
O  O1  1  0.33333333  0.66666667  0.25000000  1.0 -1.0178332422
O  O2  1  0.66666667  0.33333333  0.75000000  1.0 -1.0285006855
O  O3  1  0.16931000  0.65341000  0.15827000  1.0 -0.6104588552
O  O4  1  0.51590000  0.16931000  0.65827000  1.0 -0.6104588552
O  O5  1  0.34659000  0.51590000  0.15827000  1.0 -0.6104588552
O  O6  1  0.83069000  0.34659000  0.65827000  1.0 -0.6104588552
O  O7  1  0.48410000  0.83069000  0.15827000  1.0 -0.6104588552
O  O8  1  0.65341000  0.48410000  0.65827000  1.0 -0.6104588552
O  O9  1  0.34659000  0.83069000  0.34173000  1.0 -0.6104588552
O  O10  1  0.51590000  0.34659000  0.84173000  1.0 -0.6104588552
O  O11  1  0.16931000  0.51590000  0.34173000  1.0 -0.6104588552
O  O12  1  0.65341000  0.16931000  0.84173000  1.0 -0.6104588552
O  O13  1  0.48410000  0.65341000  0.34173000  1.0 -0.6104588552
O  O14  1  0.83069000  0.48410000  0.84173000  1.0 -0.6104588552
O  O15  1  0.83069000  0.34659000  0.84173000  1.0 -0.6104588552
O  O16  1  0.48410000  0.83069000  0.34173000  1.0 -0.6104588552
O  O17  1  0.65341000  0.48410000  0.84173000  1.0 -0.6104588552
O  O18  1  0.16931000  0.65341000  0.34173000  1.0 -0.6104588552
O  O19  1  0.51590000  0.16931000  0.84173000  1.0 -0.6104588552
O  O20  1  0.34659000  0.51590000  0.34173000  1.0 -0.6104588552
O  O21  1  0.65341000  0.16931000  0.65827000  1.0 -0.6104588552
O  O22  1  0.48410000  0.65341000  0.15827000  1.0 -0.6104588552
O  O23  1  0.83069000  0.48410000  0.65827000  1.0 -0.6104588552
O  O24  1  0.34659000  0.83069000  0.15827000  1.0 -0.6104588552
O  O25  1  0.51590000  0.34659000  0.65827000  1.0 -0.6104588552
O  O26  1  0.16931000  0.51590000  0.15827000  1.0 -0.6104588552
O  O27  1  0.06330000  0.38340000  0.05830000  1.0 -0.3864617863
O  O28  1  0.67990000  0.06330000  0.55830000  1.0 -0.3864617863
O  O29  1  0.61660000  0.67990000  0.05830000  1.0 -0.3864617863
O  O30  1  0.93670000  0.61660000  0.55830000  1.0 -0.3864617863
O  O31  1  0.32010000  0.93670000  0.05830000  1.0 -0.3864617863
O  O32  1  0.38340000  0.32010000  0.55830000  1.0 -0.3864617863
O  O33  1  0.61660000  0.93670000  0.44170000  1.0 -0.3864617863
O  O34  1  0.67990000  0.61660000  0.94170000  1.0 -0.3864617863
O  O35  1  0.06330000  0.67990000  0.44170000  1.0 -0.3864617863
O  O36  1  0.38340000  0.06330000  0.94170000  1.0 -0.3864617863
O  O37  1  0.32010000  0.38340000  0.44170000  1.0 -0.3864617863
O  O38  1  0.93670000  0.32010000  0.94170000  1.0 -0.3864617863
O  O39  1  0.93670000  0.61660000  0.94170000  1.0 -0.3864617863
O  O40  1  0.32010000  0.93670000  0.44170000  1.0 -0.3864617863
O  O41  1  0.38340000  0.32010000  0.94170000  1.0 -0.3864617863
O  O42  1  0.06330000  0.38340000  0.44170000  1.0 -0.3864617863
O  O43  1  0.67990000  0.06330000  0.94170000  1.0 -0.3864617863
O  O44  1  0.61660000  0.67990000  0.44170000  1.0 -0.3864617863
O  O45  1  0.38340000  0.06330000  0.55830000  1.0 -0.3864617863
O  O46  1  0.32010000  0.38340000  0.05830000  1.0 -0.3864617863
O  O47  1  0.93670000  0.32010000  0.55830000  1.0 -0.3864617863
O  O48  1  0.61660000  0.93670000  0.05830000  1.0 -0.3864617863
O  O49  1  0.67990000  0.61660000  0.55830000  1.0 -0.3864617863
O  O50  1  0.06330000  0.67990000  0.05830000  1.0 -0.3864617863
