# DDEC6 charges by PACMAN v1.1 (https://github.com/mtap-research/PACMAN-charge/)
data_DAJVUI_ASR_pacman
_symmetry_space_group_name_H-M   'P 1'
_cell_length_a   32.47710000
_cell_length_b   32.47710000
_cell_length_c   16.75590000
_cell_angle_alpha   90.00000000
_cell_angle_beta   90.00000000
_cell_angle_gamma   120.00000000
_symmetry_Int_Tables_number   1
_chemical_formula_structural   Mn3Co3H36C72N6O19
_chemical_formula_sum   'Mn6 Co6 H72 C144 N12 O38'
_cell_volume   15305.68871962
_cell_formula_units_Z   2
loop_
 _symmetry_equiv_pos_site_id
 _symmetry_equiv_pos_as_xyz
  1  'x, y, z'
loop_
 _atom_site_type_symbol
 _atom_site_label
 _atom_site_symmetry_multiplicity
 _atom_site_fract_x
 _atom_site_fract_y
 _atom_site_fract_z
 _atom_site_occupancy
 _atom_site_charge
Mn  Mn1  1  0.70376000  0.29624000  0.50000000  1.0 1.1327622855
Mn  Mn2  1  0.70376000  0.40752000  0.50000000  1.0 1.1327622855
Mn  Mn3  1  0.59248000  0.29624000  0.50000000  1.0 1.1327622855
Mn  Mn4  1  0.29624000  0.70376000  0.50000000  1.0 1.1327622855
Mn  Mn5  1  0.29624000  0.59248000  0.50000000  1.0 1.1327622855
Mn  Mn6  1  0.40752000  0.70376000  0.50000000  1.0 1.1327622855
Co  Co1  1  0.00000000  0.49270000  0.00000000  1.0 0.3926835382
Co  Co2  1  0.50730000  0.50730000  0.00000000  1.0 0.3926835382
Co  Co3  1  0.49270000  0.00000000  0.00000000  1.0 0.3926835382
Co  Co4  1  0.00000000  0.50730000  0.00000000  1.0 0.3926835382
Co  Co5  1  0.49270000  0.49270000  0.00000000  1.0 0.3926835382
Co  Co6  1  0.50730000  0.00000000  0.00000000  1.0 0.3926835382
H  H1  1  0.95680000  0.47840000  0.70450000  1.0 0.1263821333
H  H2  1  0.52160000  0.47840000  0.70450000  1.0 0.1263821333
H  H3  1  0.52160000  0.04320000  0.70450000  1.0 0.1263821333
H  H4  1  0.04320000  0.52160000  0.70450000  1.0 0.1263821333
H  H5  1  0.47840000  0.52160000  0.70450000  1.0 0.1263821333
H  H6  1  0.47840000  0.95680000  0.70450000  1.0 0.1263821333
H  H7  1  0.47840000  0.95680000  0.29550000  1.0 0.1263821333
H  H8  1  0.47840000  0.52160000  0.29550000  1.0 0.1263821333
H  H9  1  0.04320000  0.52160000  0.29550000  1.0 0.1263821333
H  H10  1  0.52160000  0.04320000  0.29550000  1.0 0.1263821333
H  H11  1  0.52160000  0.47840000  0.29550000  1.0 0.1263821333
H  H12  1  0.95680000  0.47840000  0.29550000  1.0 0.1263821333
H  H13  1  0.81080000  0.34370000  0.68710000  1.0 0.1196258307
H  H14  1  0.65630000  0.46710000  0.68710000  1.0 0.1196258307
H  H15  1  0.53290000  0.18920000  0.68710000  1.0 0.1196258307
H  H16  1  0.18920000  0.65630000  0.68710000  1.0 0.1196258307
H  H17  1  0.34370000  0.53290000  0.68710000  1.0 0.1196258307
H  H18  1  0.46710000  0.81080000  0.68710000  1.0 0.1196258307
H  H19  1  0.34370000  0.81080000  0.31290000  1.0 0.1196258307
H  H20  1  0.46710000  0.65630000  0.31290000  1.0 0.1196258307
H  H21  1  0.18920000  0.53290000  0.31290000  1.0 0.1196258307
H  H22  1  0.65630000  0.18920000  0.31290000  1.0 0.1196258307
H  H23  1  0.53290000  0.34370000  0.31290000  1.0 0.1196258307
H  H24  1  0.81080000  0.46710000  0.31290000  1.0 0.1196258307
H  H25  1  0.18920000  0.65630000  0.31290000  1.0 0.1196258307
H  H26  1  0.34370000  0.53290000  0.31290000  1.0 0.1196258307
H  H27  1  0.46710000  0.81080000  0.31290000  1.0 0.1196258307
H  H28  1  0.81080000  0.34370000  0.31290000  1.0 0.1196258307
H  H29  1  0.65630000  0.46710000  0.31290000  1.0 0.1196258307
H  H30  1  0.53290000  0.18920000  0.31290000  1.0 0.1196258307
H  H31  1  0.65630000  0.18920000  0.68710000  1.0 0.1196258307
H  H32  1  0.53290000  0.34370000  0.68710000  1.0 0.1196258307
H  H33  1  0.81080000  0.46710000  0.68710000  1.0 0.1196258307
H  H34  1  0.34370000  0.81080000  0.68710000  1.0 0.1196258307
H  H35  1  0.46710000  0.65630000  0.68710000  1.0 0.1196258307
H  H36  1  0.18920000  0.53290000  0.68710000  1.0 0.1196258307
H  H37  1  0.87140000  0.37370000  0.78140000  1.0 0.1196258307
H  H38  1  0.62630000  0.49770000  0.78140000  1.0 0.1196258307
H  H39  1  0.50230000  0.12860000  0.78140000  1.0 0.1196258307
H  H40  1  0.12860000  0.62630000  0.78140000  1.0 0.1196258307
H  H41  1  0.37370000  0.50230000  0.78140000  1.0 0.1196258307
H  H42  1  0.49770000  0.87140000  0.78140000  1.0 0.1196258307
H  H43  1  0.37370000  0.87140000  0.21860000  1.0 0.1196258307
H  H44  1  0.49770000  0.62630000  0.21860000  1.0 0.1196258307
H  H45  1  0.12860000  0.50230000  0.21860000  1.0 0.1196258307
H  H46  1  0.62630000  0.12860000  0.21860000  1.0 0.1196258307
H  H47  1  0.50230000  0.37370000  0.21860000  1.0 0.1196258307
H  H48  1  0.87140000  0.49770000  0.21860000  1.0 0.1196258307
H  H49  1  0.12860000  0.62630000  0.21860000  1.0 0.1196258307
H  H50  1  0.37370000  0.50230000  0.21860000  1.0 0.1196258307
H  H51  1  0.49770000  0.87140000  0.21860000  1.0 0.1196258307
H  H52  1  0.87140000  0.37370000  0.21860000  1.0 0.1196258307
H  H53  1  0.62630000  0.49770000  0.21860000  1.0 0.1196258307
H  H54  1  0.50230000  0.12860000  0.21860000  1.0 0.1196258307
H  H55  1  0.62630000  0.12860000  0.78140000  1.0 0.1196258307
H  H56  1  0.50230000  0.37370000  0.78140000  1.0 0.1196258307
H  H57  1  0.87140000  0.49770000  0.78140000  1.0 0.1196258307
H  H58  1  0.37370000  0.87140000  0.78140000  1.0 0.1196258307
H  H59  1  0.49770000  0.62630000  0.78140000  1.0 0.1196258307
H  H60  1  0.12860000  0.50230000  0.78140000  1.0 0.1196258307
H  H61  1  0.82490000  0.41245000  0.92690000  1.0 0.1263821333
H  H62  1  0.58755000  0.41245000  0.92690000  1.0 0.1263821333
H  H63  1  0.58755000  0.17510000  0.92690000  1.0 0.1263821333
H  H64  1  0.17510000  0.58755000  0.92690000  1.0 0.1263821333
H  H65  1  0.41245000  0.58755000  0.92690000  1.0 0.1263821333
H  H66  1  0.41245000  0.82490000  0.92690000  1.0 0.1263821333
H  H67  1  0.41245000  0.82490000  0.07310000  1.0 0.1263821333
H  H68  1  0.41245000  0.58755000  0.07310000  1.0 0.1263821333
H  H69  1  0.17510000  0.58755000  0.07310000  1.0 0.1263821333
H  H70  1  0.58755000  0.17510000  0.07310000  1.0 0.1263821333
H  H71  1  0.58755000  0.41245000  0.07310000  1.0 0.1263821333
H  H72  1  0.82490000  0.41245000  0.07310000  1.0 0.1263821333
C  C1  1  0.76570000  0.38285000  0.61270000  1.0 0.5801112675
C  C2  1  0.61715000  0.38285000  0.61270000  1.0 0.5801112675
C  C3  1  0.61715000  0.23430000  0.61270000  1.0 0.5801112675
C  C4  1  0.23430000  0.61715000  0.61270000  1.0 0.5801112675
C  C5  1  0.38285000  0.61715000  0.61270000  1.0 0.5801112675
C  C6  1  0.38285000  0.76570000  0.61270000  1.0 0.5801112675
C  C7  1  0.38285000  0.76570000  0.38730000  1.0 0.5801112675
C  C8  1  0.38285000  0.61715000  0.38730000  1.0 0.5801112675
C  C9  1  0.23430000  0.61715000  0.38730000  1.0 0.5801112675
C  C10  1  0.61715000  0.23430000  0.38730000  1.0 0.5801112675
C  C11  1  0.61715000  0.38285000  0.38730000  1.0 0.5801112675
C  C12  1  0.76570000  0.38285000  0.38730000  1.0 0.5801112675
C  C13  1  0.80580000  0.40290000  0.67560000  1.0 -0.0317909573
C  C14  1  0.59710000  0.40290000  0.67560000  1.0 -0.0317909573
C  C15  1  0.59710000  0.19420000  0.67560000  1.0 -0.0317909573
C  C16  1  0.19420000  0.59710000  0.67560000  1.0 -0.0317909573
C  C17  1  0.40290000  0.59710000  0.67560000  1.0 -0.0317909573
C  C18  1  0.40290000  0.80580000  0.67560000  1.0 -0.0317909573
C  C19  1  0.40290000  0.80580000  0.32440000  1.0 -0.0317909573
C  C20  1  0.40290000  0.59710000  0.32440000  1.0 -0.0317909573
C  C21  1  0.19420000  0.59710000  0.32440000  1.0 -0.0317909573
C  C22  1  0.59710000  0.19420000  0.32440000  1.0 -0.0317909573
C  C23  1  0.59710000  0.40290000  0.32440000  1.0 -0.0317909573
C  C24  1  0.80580000  0.40290000  0.32440000  1.0 -0.0317909573
C  C25  1  0.87660000  0.43830000  0.79300000  1.0 0.0933300454
C  C26  1  0.56170000  0.43830000  0.79300000  1.0 0.0933300454
C  C27  1  0.56170000  0.12340000  0.79300000  1.0 0.0933300454
C  C28  1  0.12340000  0.56170000  0.79300000  1.0 0.0933300454
C  C29  1  0.43830000  0.56170000  0.79300000  1.0 0.0933300454
C  C30  1  0.43830000  0.87660000  0.79300000  1.0 0.0933300454
C  C31  1  0.43830000  0.87660000  0.20700000  1.0 0.0933300454
C  C32  1  0.43830000  0.56170000  0.20700000  1.0 0.0933300454
C  C33  1  0.12340000  0.56170000  0.20700000  1.0 0.0933300454
C  C34  1  0.56170000  0.12340000  0.20700000  1.0 0.0933300454
C  C35  1  0.56170000  0.43830000  0.20700000  1.0 0.0933300454
C  C36  1  0.87660000  0.43830000  0.20700000  1.0 0.0933300454
C  C37  1  0.91410000  0.45705000  0.85590000  1.0 -0.0983995244
C  C38  1  0.54295000  0.45705000  0.85590000  1.0 -0.0983995244
C  C39  1  0.54295000  0.08590000  0.85590000  1.0 -0.0983995244
C  C40  1  0.08590000  0.54295000  0.85590000  1.0 -0.0983995244
C  C41  1  0.45705000  0.54295000  0.85590000  1.0 -0.0983995244
C  C42  1  0.45705000  0.91410000  0.85590000  1.0 -0.0983995244
C  C43  1  0.45705000  0.91410000  0.14410000  1.0 -0.0983995244
C  C44  1  0.45705000  0.54295000  0.14410000  1.0 -0.0983995244
C  C45  1  0.08590000  0.54295000  0.14410000  1.0 -0.0983995244
C  C46  1  0.54295000  0.08590000  0.14410000  1.0 -0.0983995244
C  C47  1  0.54295000  0.45705000  0.14410000  1.0 -0.0983995244
C  C48  1  0.91410000  0.45705000  0.14410000  1.0 -0.0983995244
C  C49  1  0.96160000  0.48080000  0.83320000  1.0 0.1471828842
C  C50  1  0.51920000  0.48080000  0.83320000  1.0 0.1471828842
C  C51  1  0.51920000  0.03840000  0.83320000  1.0 0.1471828842
C  C52  1  0.03840000  0.51920000  0.83320000  1.0 0.1471828842
C  C53  1  0.48080000  0.51920000  0.83320000  1.0 0.1471828842
C  C54  1  0.48080000  0.96160000  0.83320000  1.0 0.1471828842
C  C55  1  0.48080000  0.96160000  0.16680000  1.0 0.1471828842
C  C56  1  0.48080000  0.51920000  0.16680000  1.0 0.1471828842
C  C57  1  0.03840000  0.51920000  0.16680000  1.0 0.1471828842
C  C58  1  0.51920000  0.03840000  0.16680000  1.0 0.1471828842
C  C59  1  0.51920000  0.48080000  0.16680000  1.0 0.1471828842
C  C60  1  0.96160000  0.48080000  0.16680000  1.0 0.1471828842
C  C61  1  0.90080000  0.45040000  0.93230000  1.0 0.1263821333
C  C62  1  0.54960000  0.45040000  0.93230000  1.0 0.1263821333
C  C63  1  0.54960000  0.09920000  0.93230000  1.0 0.1263821333
C  C64  1  0.09920000  0.54960000  0.93230000  1.0 0.1263821333
C  C65  1  0.45040000  0.54960000  0.93230000  1.0 0.1263821333
C  C66  1  0.45040000  0.90080000  0.93230000  1.0 0.1196258307
C  C67  1  0.45040000  0.90080000  0.06770000  1.0 0.1196258307
C  C68  1  0.45040000  0.54960000  0.06770000  1.0 0.1263821333
C  C69  1  0.09920000  0.54960000  0.06770000  1.0 0.1263821333
C  C70  1  0.54960000  0.09920000  0.06770000  1.0 0.1263821333
C  C71  1  0.54960000  0.45040000  0.06770000  1.0 0.1263821333
C  C72  1  0.90080000  0.45040000  0.06770000  1.0 0.1263821333
C  C73  1  0.97650000  0.48825000  0.74900000  1.0 -0.1405311961
C  C74  1  0.51175000  0.48825000  0.74900000  1.0 -0.1405311961
C  C75  1  0.51175000  0.02350000  0.74900000  1.0 -0.1405311961
C  C76  1  0.02350000  0.51175000  0.74900000  1.0 -0.1405311961
C  C77  1  0.48825000  0.51175000  0.74900000  1.0 -0.1405311961
C  C78  1  0.48825000  0.97650000  0.74900000  1.0 -0.1405311961
C  C79  1  0.48825000  0.97650000  0.25100000  1.0 -0.1405311961
C  C80  1  0.48825000  0.51175000  0.25100000  1.0 -0.1405311961
C  C81  1  0.02350000  0.51175000  0.25100000  1.0 -0.1405311961
C  C82  1  0.51175000  0.02350000  0.25100000  1.0 -0.1405311961
C  C83  1  0.51175000  0.48825000  0.25100000  1.0 -0.1405311961
C  C84  1  0.97650000  0.48825000  0.25100000  1.0 -0.1405311961
C  C85  1  0.82320000  0.37470000  0.70550000  1.0 -0.09212744
C  C86  1  0.62530000  0.44850000  0.70550000  1.0 -0.09212744
C  C87  1  0.55150000  0.17680000  0.70550000  1.0 -0.09212744
C  C88  1  0.17680000  0.62530000  0.70550000  1.0 -0.09212744
C  C89  1  0.37470000  0.55150000  0.70550000  1.0 -0.09212744
C  C90  1  0.44850000  0.82320000  0.70550000  1.0 -0.09212744
C  C91  1  0.37470000  0.82320000  0.29450000  1.0 -0.09212744
C  C92  1  0.44850000  0.62530000  0.29450000  1.0 -0.09212744
C  C93  1  0.17680000  0.55150000  0.29450000  1.0 -0.09212744
C  C94  1  0.62530000  0.17680000  0.29450000  1.0 -0.09212744
C  C95  1  0.55150000  0.37470000  0.29450000  1.0 -0.09212744
C  C96  1  0.82320000  0.44850000  0.29450000  1.0 -0.09212744
C  C97  1  0.17680000  0.62530000  0.29450000  1.0 -0.09212744
C  C98  1  0.37470000  0.55150000  0.29450000  1.0 -0.09212744
C  C99  1  0.44850000  0.82320000  0.29450000  1.0 -0.09212744
C  C100  1  0.82320000  0.37470000  0.29450000  1.0 -0.09212744
C  C101  1  0.62530000  0.44850000  0.29450000  1.0 -0.09212744
C  C102  1  0.55150000  0.17680000  0.29450000  1.0 -0.09212744
C  C103  1  0.62530000  0.17680000  0.70550000  1.0 -0.09212744
C  C104  1  0.55150000  0.37470000  0.70550000  1.0 -0.09212744
C  C105  1  0.82320000  0.44850000  0.70550000  1.0 -0.09212744
C  C106  1  0.37470000  0.82320000  0.70550000  1.0 -0.09212744
C  C107  1  0.44850000  0.62530000  0.70550000  1.0 -0.09212744
C  C108  1  0.17680000  0.55150000  0.70550000  1.0 -0.09212744
C  C109  1  0.85910000  0.39240000  0.76310000  1.0 -0.1581148034
C  C110  1  0.60760000  0.46670000  0.76310000  1.0 -0.1581148034
C  C111  1  0.53330000  0.14090000  0.76310000  1.0 -0.1581148034
C  C112  1  0.14090000  0.60760000  0.76310000  1.0 -0.1581148034
C  C113  1  0.39240000  0.53330000  0.76310000  1.0 -0.1581148034
C  C114  1  0.46670000  0.85910000  0.76310000  1.0 -0.1581148034
C  C115  1  0.39240000  0.85910000  0.23690000  1.0 -0.1581148034
C  C116  1  0.46670000  0.60760000  0.23690000  1.0 -0.1581148034
C  C117  1  0.14090000  0.53330000  0.23690000  1.0 -0.1581148034
C  C118  1  0.60760000  0.14090000  0.23690000  1.0 -0.1581148034
C  C119  1  0.53330000  0.39240000  0.23690000  1.0 -0.1581148034
C  C120  1  0.85910000  0.46670000  0.23690000  1.0 -0.1581148034
C  C121  1  0.14090000  0.60760000  0.23690000  1.0 -0.1581148034
C  C122  1  0.39240000  0.53330000  0.23690000  1.0 -0.1581148034
C  C123  1  0.46670000  0.85910000  0.23690000  1.0 -0.1581148034
C  C124  1  0.85910000  0.39240000  0.23690000  1.0 -0.1581148034
C  C125  1  0.60760000  0.46670000  0.23690000  1.0 -0.1581148034
C  C126  1  0.53330000  0.14090000  0.23690000  1.0 -0.1581148034
C  C127  1  0.60760000  0.14090000  0.76310000  1.0 -0.1581148034
C  C128  1  0.53330000  0.39240000  0.76310000  1.0 -0.1581148034
C  C129  1  0.85910000  0.46670000  0.76310000  1.0 -0.1581148034
C  C130  1  0.39240000  0.85910000  0.76310000  1.0 -0.1581148034
C  C131  1  0.46670000  0.60760000  0.76310000  1.0 -0.1581148034
C  C132  1  0.14090000  0.53330000  0.76310000  1.0 -0.1581148034
C  C133  1  0.85170000  0.42585000  0.95940000  1.0 -0.1405311961
C  C134  1  0.57415000  0.42585000  0.95940000  1.0 -0.1405311961
C  C135  1  0.57415000  0.14830000  0.95940000  1.0 -0.1405311961
C  C136  1  0.14830000  0.57415000  0.95940000  1.0 -0.1405311961
C  C137  1  0.42585000  0.57415000  0.95940000  1.0 -0.1405311961
C  C138  1  0.42585000  0.85170000  0.95940000  1.0 -0.1405311961
C  C139  1  0.42585000  0.85170000  0.04060000  1.0 -0.1405311961
C  C140  1  0.42585000  0.57415000  0.04060000  1.0 -0.1405311961
C  C141  1  0.14830000  0.57415000  0.04060000  1.0 -0.1405311961
C  C142  1  0.57415000  0.14830000  0.04060000  1.0 -0.1405311961
C  C143  1  0.57415000  0.42585000  0.04060000  1.0 -0.1405311961
C  C144  1  0.85170000  0.42585000  0.04060000  1.0 -0.1405311961
N  N1  1  0.93060000  0.46530000  0.00000000  1.0 -0.3417175488
N  N2  1  0.53470000  0.46530000  0.00000000  1.0 -0.3417175488
N  N3  1  0.53470000  0.06940000  0.00000000  1.0 -0.3417175488
N  N4  1  0.06940000  0.53470000  0.00000000  1.0 -0.3417175488
N  N5  1  0.46530000  0.53470000  0.00000000  1.0 -0.3417175488
N  N6  1  0.46530000  0.93060000  0.00000000  1.0 -0.3417175488
N  N7  1  0.00000000  0.50000000  0.88300000  1.0 -0.3213663773
N  N8  1  0.50000000  0.50000000  0.88300000  1.0 -0.3213663773
N  N9  1  0.50000000  0.00000000  0.88300000  1.0 -0.3213663773
N  N10  1  0.50000000  0.00000000  0.11700000  1.0 -0.3213663773
N  N11  1  0.50000000  0.50000000  0.11700000  1.0 -0.3213663773
N  N12  1  0.00000000  0.50000000  0.11700000  1.0 -0.3213663773
O  O1  1  0.75191000  0.34129000  0.59010000  1.0 -0.5361882723
O  O2  1  0.65871000  0.41062000  0.59010000  1.0 -0.5361882723
O  O3  1  0.58938000  0.24809000  0.59010000  1.0 -0.5361882723
O  O4  1  0.24809000  0.65871000  0.59010000  1.0 -0.5361882723
O  O5  1  0.34129000  0.58938000  0.59010000  1.0 -0.5361882723
O  O6  1  0.41062000  0.75191000  0.59010000  1.0 -0.5361882723
O  O7  1  0.34129000  0.75191000  0.40990000  1.0 -0.5361882723
O  O8  1  0.41062000  0.65871000  0.40990000  1.0 -0.5361882723
O  O9  1  0.24809000  0.58938000  0.40990000  1.0 -0.5361882723
O  O10  1  0.65871000  0.24809000  0.40990000  1.0 -0.5361882723
O  O11  1  0.58938000  0.34129000  0.40990000  1.0 -0.5361882723
O  O12  1  0.75191000  0.41062000  0.40990000  1.0 -0.5361882723
O  O13  1  0.24809000  0.65871000  0.40990000  1.0 -0.5361882723
O  O14  1  0.34129000  0.58938000  0.40990000  1.0 -0.5361882723
O  O15  1  0.41062000  0.75191000  0.40990000  1.0 -0.5361882723
O  O16  1  0.75191000  0.34129000  0.40990000  1.0 -0.5361882723
O  O17  1  0.65871000  0.41062000  0.40990000  1.0 -0.5361882723
O  O18  1  0.58938000  0.24809000  0.40990000  1.0 -0.5361882723
O  O19  1  0.65871000  0.24809000  0.59010000  1.0 -0.5361882723
O  O20  1  0.58938000  0.34129000  0.59010000  1.0 -0.5361882723
O  O21  1  0.75191000  0.41062000  0.59010000  1.0 -0.5361882723
O  O22  1  0.34129000  0.75191000  0.59010000  1.0 -0.5361882723
O  O23  1  0.41062000  0.65871000  0.59010000  1.0 -0.5361882723
O  O24  1  0.24809000  0.58938000  0.59010000  1.0 -0.5361882723
O  O25  1  0.00000000  0.44500000  0.00000000  1.0 0.0212964841
O  O26  1  0.55500000  0.55500000  0.00000000  1.0 0.0212964841
O  O27  1  0.44500000  0.00000000  0.00000000  1.0 0.0212964841
O  O28  1  0.00000000  0.55500000  0.00000000  1.0 0.0212964841
O  O29  1  0.44500000  0.44500000  0.00000000  1.0 0.0212964841
O  O30  1  0.55500000  0.00000000  0.00000000  1.0 0.0270219841
O  O31  1  0.00000000  0.42590000  0.00000000  1.0 0.0100904267
O  O32  1  0.57410000  0.57410000  0.00000000  1.0 0.0100904267
O  O33  1  0.42590000  0.00000000  0.00000000  1.0 0.0100904267
O  O34  1  0.00000000  0.57410000  0.00000000  1.0 0.0100904267
O  O35  1  0.42590000  0.42590000  0.00000000  1.0 0.0100904267
O  O36  1  0.57410000  0.00000000  0.00000000  1.0 0.0100904267
O  O37  1  0.66666667  0.33333333  0.50000000  1.0 -0.8423129594
O  O38  1  0.33333333  0.66666667  0.50000000  1.0 -0.8423129594
