# DDEC6 charges by PACMAN v1.1 (https://github.com/mtap-research/PACMAN-charge/)
data_DAJVOC_ASR_pacman
_symmetry_space_group_name_H-M   'P 1'
_cell_length_a   32.03200000
_cell_length_b   32.03200000
_cell_length_c   16.70240000
_cell_angle_alpha   90.00000000
_cell_angle_beta   90.00000000
_cell_angle_gamma   120.00000000
_symmetry_Int_Tables_number   1
_chemical_formula_structural   Mg3Co3H36C72(N3O8)2
_chemical_formula_sum   'Mg6 Co6 H72 C144 N12 O32'
_cell_volume   14841.49409206
_cell_formula_units_Z   2
loop_
 _symmetry_equiv_pos_site_id
 _symmetry_equiv_pos_as_xyz
  1  'x, y, z'
loop_
 _atom_site_type_symbol
 _atom_site_label
 _atom_site_symmetry_multiplicity
 _atom_site_fract_x
 _atom_site_fract_y
 _atom_site_fract_z
 _atom_site_occupancy
 _atom_site_charge
Mg  Mg1  1  0.70272000  0.29728000  0.00000000  1.0 1.4277319082
Mg  Mg2  1  0.70272000  0.40544000  0.00000000  1.0 1.4277319082
Mg  Mg3  1  0.59456000  0.29728000  0.00000000  1.0 1.4277319082
Mg  Mg4  1  0.29728000  0.70272000  0.00000000  1.0 1.4277319082
Mg  Mg5  1  0.29728000  0.59456000  0.00000000  1.0 1.4277319082
Mg  Mg6  1  0.40544000  0.70272000  0.00000000  1.0 1.4277319082
Co  Co1  1  0.50800000  0.00000000  0.50000000  1.0 0.3863468784
Co  Co2  1  0.00000000  0.50800000  0.50000000  1.0 0.3863468784
Co  Co3  1  0.49200000  0.49200000  0.50000000  1.0 0.3863468784
Co  Co4  1  0.49200000  0.00000000  0.50000000  1.0 0.3863468784
Co  Co5  1  0.00000000  0.49200000  0.50000000  1.0 0.3863468784
Co  Co6  1  0.50800000  0.50800000  0.50000000  1.0 0.3863468784
H  H1  1  0.52240000  0.04480000  0.79430000  1.0 0.1199015956
H  H2  1  0.95520000  0.47760000  0.79430000  1.0 0.1199015956
H  H3  1  0.52240000  0.47760000  0.79430000  1.0 0.1199015956
H  H4  1  0.47760000  0.95520000  0.79430000  1.0 0.1199015956
H  H5  1  0.04480000  0.52240000  0.79430000  1.0 0.1199015956
H  H6  1  0.47760000  0.52240000  0.79430000  1.0 0.1199015956
H  H7  1  0.04480000  0.52240000  0.20570000  1.0 0.1199015956
H  H8  1  0.47760000  0.95520000  0.20570000  1.0 0.1199015956
H  H9  1  0.47760000  0.52240000  0.20570000  1.0 0.1199015956
H  H10  1  0.95520000  0.47760000  0.20570000  1.0 0.1199015956
H  H11  1  0.52240000  0.04480000  0.20570000  1.0 0.1199015956
H  H12  1  0.52240000  0.47760000  0.20570000  1.0 0.1199015956
H  H13  1  0.58820000  0.17640000  0.57320000  1.0 0.1199015956
H  H14  1  0.82360000  0.41180000  0.57320000  1.0 0.1199015956
H  H15  1  0.58820000  0.41180000  0.57320000  1.0 0.1199015956
H  H16  1  0.41180000  0.82360000  0.57320000  1.0 0.1199015956
H  H17  1  0.17640000  0.58820000  0.57320000  1.0 0.1199015956
H  H18  1  0.41180000  0.58820000  0.57320000  1.0 0.1199015956
H  H19  1  0.17640000  0.58820000  0.42680000  1.0 0.1199015956
H  H20  1  0.41180000  0.82360000  0.42680000  1.0 0.1199015956
H  H21  1  0.41180000  0.58820000  0.42680000  1.0 0.1199015956
H  H22  1  0.82360000  0.41180000  0.42680000  1.0 0.1199015956
H  H23  1  0.58820000  0.17640000  0.42680000  1.0 0.1199015956
H  H24  1  0.58820000  0.41180000  0.42680000  1.0 0.1199015956
H  H25  1  0.50420000  0.13220000  0.71940000  1.0 0.1292855117
H  H26  1  0.86780000  0.37200000  0.71940000  1.0 0.1292855117
H  H27  1  0.62800000  0.49580000  0.71940000  1.0 0.1292855117
H  H28  1  0.49580000  0.86780000  0.71940000  1.0 0.1292855117
H  H29  1  0.13220000  0.62800000  0.71940000  1.0 0.1292855117
H  H30  1  0.37200000  0.50420000  0.71940000  1.0 0.1292855117
H  H31  1  0.13220000  0.50420000  0.28060000  1.0 0.1292855117
H  H32  1  0.37200000  0.86780000  0.28060000  1.0 0.1292855117
H  H33  1  0.49580000  0.62800000  0.28060000  1.0 0.1292855117
H  H34  1  0.86780000  0.49580000  0.28060000  1.0 0.1292855117
H  H35  1  0.62800000  0.13220000  0.28060000  1.0 0.1292855117
H  H36  1  0.50420000  0.37200000  0.28060000  1.0 0.1292855117
H  H37  1  0.49580000  0.86780000  0.28060000  1.0 0.1292855117
H  H38  1  0.13220000  0.62800000  0.28060000  1.0 0.1292855117
H  H39  1  0.37200000  0.50420000  0.28060000  1.0 0.1292855117
H  H40  1  0.50420000  0.13220000  0.28060000  1.0 0.1292855117
H  H41  1  0.86780000  0.37200000  0.28060000  1.0 0.1292855117
H  H42  1  0.62800000  0.49580000  0.28060000  1.0 0.1292855117
H  H43  1  0.86780000  0.49580000  0.71940000  1.0 0.1292855117
H  H44  1  0.62800000  0.13220000  0.71940000  1.0 0.1292855117
H  H45  1  0.50420000  0.37200000  0.71940000  1.0 0.1292855117
H  H46  1  0.13220000  0.50420000  0.71940000  1.0 0.1292855117
H  H47  1  0.37200000  0.86780000  0.71940000  1.0 0.1292855117
H  H48  1  0.49580000  0.62800000  0.71940000  1.0 0.1292855117
H  H49  1  0.53370000  0.19050000  0.81700000  1.0 0.1292855117
H  H50  1  0.80950000  0.34320000  0.81700000  1.0 0.1292855117
H  H51  1  0.65680000  0.46630000  0.81700000  1.0 0.1292855117
H  H52  1  0.46630000  0.80950000  0.81700000  1.0 0.1292855117
H  H53  1  0.19050000  0.65680000  0.81700000  1.0 0.1292855117
H  H54  1  0.34320000  0.53370000  0.81700000  1.0 0.1292855117
H  H55  1  0.19050000  0.53370000  0.18300000  1.0 0.1292855117
H  H56  1  0.34320000  0.80950000  0.18300000  1.0 0.1292855117
H  H57  1  0.46630000  0.65680000  0.18300000  1.0 0.1292855117
H  H58  1  0.80950000  0.46630000  0.18300000  1.0 0.1292855117
H  H59  1  0.65680000  0.19050000  0.18300000  1.0 0.1292855117
H  H60  1  0.53370000  0.34320000  0.18300000  1.0 0.1292855117
H  H61  1  0.46630000  0.80950000  0.18300000  1.0 0.1292855117
H  H62  1  0.19050000  0.65680000  0.18300000  1.0 0.1292855117
H  H63  1  0.34320000  0.53370000  0.18300000  1.0 0.1292855117
H  H64  1  0.53370000  0.19050000  0.18300000  1.0 0.1292855117
H  H65  1  0.80950000  0.34320000  0.18300000  1.0 0.1292855117
H  H66  1  0.65680000  0.46630000  0.18300000  1.0 0.1292855117
H  H67  1  0.80950000  0.46630000  0.81700000  1.0 0.1292855117
H  H68  1  0.65680000  0.19050000  0.81700000  1.0 0.1292855117
H  H69  1  0.53370000  0.34320000  0.81700000  1.0 0.1292855117
H  H70  1  0.19050000  0.53370000  0.81700000  1.0 0.1292855117
H  H71  1  0.34320000  0.80950000  0.81700000  1.0 0.1292855117
H  H72  1  0.46630000  0.65680000  0.81700000  1.0 0.1292855117
C  C1  1  0.51955000  0.03910000  0.66600000  1.0 0.1421986737
C  C2  1  0.96090000  0.48045000  0.66600000  1.0 0.1421986737
C  C3  1  0.51955000  0.48045000  0.66600000  1.0 0.1421986737
C  C4  1  0.48045000  0.96090000  0.66600000  1.0 0.1421986737
C  C5  1  0.03910000  0.51955000  0.66600000  1.0 0.1421986737
C  C6  1  0.48045000  0.51955000  0.66600000  1.0 0.1421986737
C  C7  1  0.03910000  0.51955000  0.33400000  1.0 0.1421986737
C  C8  1  0.48045000  0.96090000  0.33400000  1.0 0.1421986737
C  C9  1  0.48045000  0.51955000  0.33400000  1.0 0.1421986737
C  C10  1  0.96090000  0.48045000  0.33400000  1.0 0.1421986737
C  C11  1  0.51955000  0.03910000  0.33400000  1.0 0.1421986737
C  C12  1  0.51955000  0.48045000  0.33400000  1.0 0.1421986737
C  C13  1  0.54320000  0.08640000  0.64530000  1.0 -0.0821608533
C  C14  1  0.91360000  0.45680000  0.64530000  1.0 -0.0821608533
C  C15  1  0.54320000  0.45680000  0.64530000  1.0 -0.0821608533
C  C16  1  0.45680000  0.91360000  0.64530000  1.0 -0.0821608533
C  C17  1  0.08640000  0.54320000  0.64530000  1.0 -0.0821608533
C  C18  1  0.45680000  0.54320000  0.64530000  1.0 -0.0821608533
C  C19  1  0.08640000  0.54320000  0.35470000  1.0 -0.0821608533
C  C20  1  0.45680000  0.91360000  0.35470000  1.0 -0.0821608533
C  C21  1  0.45680000  0.54320000  0.35470000  1.0 -0.0821608533
C  C22  1  0.91360000  0.45680000  0.35470000  1.0 -0.0821608533
C  C23  1  0.54320000  0.08640000  0.35470000  1.0 -0.0821608533
C  C24  1  0.54320000  0.45680000  0.35470000  1.0 -0.0821608533
C  C25  1  0.55005000  0.10010000  0.56680000  1.0 0.1292855117
C  C26  1  0.89990000  0.44995000  0.56680000  1.0 0.1292855117
C  C27  1  0.55005000  0.44995000  0.56680000  1.0 0.1292855117
C  C28  1  0.44995000  0.89990000  0.56680000  1.0 0.1292855117
C  C29  1  0.10010000  0.55005000  0.56680000  1.0 0.1292855117
C  C30  1  0.44995000  0.55005000  0.56680000  1.0 0.1292855117
C  C31  1  0.10010000  0.55005000  0.43320000  1.0 0.1292855117
C  C32  1  0.44995000  0.89990000  0.43320000  1.0 0.1292855117
C  C33  1  0.44995000  0.55005000  0.43320000  1.0 0.1292855117
C  C34  1  0.89990000  0.44995000  0.43320000  1.0 0.1292855117
C  C35  1  0.55005000  0.10010000  0.43320000  1.0 0.1292855117
C  C36  1  0.55005000  0.44995000  0.43320000  1.0 0.1292855117
C  C37  1  0.51235000  0.02470000  0.74990000  1.0 -0.1393915535
C  C38  1  0.97530000  0.48765000  0.74990000  1.0 -0.1393915535
C  C39  1  0.51235000  0.48765000  0.74990000  1.0 -0.1393915535
C  C40  1  0.48765000  0.97530000  0.74990000  1.0 -0.1393915535
C  C41  1  0.02470000  0.51235000  0.74990000  1.0 -0.1393915535
C  C42  1  0.48765000  0.51235000  0.74990000  1.0 -0.1393915535
C  C43  1  0.02470000  0.51235000  0.25010000  1.0 -0.1393915535
C  C44  1  0.48765000  0.97530000  0.25010000  1.0 -0.1393915535
C  C45  1  0.48765000  0.51235000  0.25010000  1.0 -0.1393915535
C  C46  1  0.97530000  0.48765000  0.25010000  1.0 -0.1393915535
C  C47  1  0.51235000  0.02470000  0.25010000  1.0 -0.1393915535
C  C48  1  0.51235000  0.48765000  0.25010000  1.0 -0.1393915535
C  C49  1  0.57465000  0.14930000  0.54040000  1.0 -0.1393915535
C  C50  1  0.85070000  0.42535000  0.54040000  1.0 -0.1393915535
C  C51  1  0.57465000  0.42535000  0.54040000  1.0 -0.1393915535
C  C52  1  0.42535000  0.85070000  0.54040000  1.0 -0.1393915535
C  C53  1  0.14930000  0.57465000  0.54040000  1.0 -0.1454731307
C  C54  1  0.42535000  0.57465000  0.54040000  1.0 -0.1393915535
C  C55  1  0.14930000  0.57465000  0.45960000  1.0 -0.1454731307
C  C56  1  0.42535000  0.85070000  0.45960000  1.0 -0.1393915535
C  C57  1  0.42535000  0.57465000  0.45960000  1.0 -0.1393915535
C  C58  1  0.85070000  0.42535000  0.45960000  1.0 -0.1393915535
C  C59  1  0.57465000  0.14930000  0.45960000  1.0 -0.1393915535
C  C60  1  0.57465000  0.42535000  0.45960000  1.0 -0.1393915535
C  C61  1  0.53530000  0.14380000  0.73870000  1.0 -0.1393915535
C  C62  1  0.85620000  0.39150000  0.73870000  1.0 -0.1393915535
C  C63  1  0.60850000  0.46470000  0.73870000  1.0 -0.1393915535
C  C64  1  0.46470000  0.85620000  0.73870000  1.0 -0.1393915535
C  C65  1  0.14380000  0.60850000  0.73870000  1.0 -0.1393915535
C  C66  1  0.39150000  0.53530000  0.73870000  1.0 -0.1393915535
C  C67  1  0.14380000  0.53530000  0.26130000  1.0 -0.1393915535
C  C68  1  0.39150000  0.85620000  0.26130000  1.0 -0.1393915535
C  C69  1  0.46470000  0.60850000  0.26130000  1.0 -0.1393915535
C  C70  1  0.85620000  0.46470000  0.26130000  1.0 -0.1393915535
C  C71  1  0.60850000  0.14380000  0.26130000  1.0 -0.1393915535
C  C72  1  0.53530000  0.39150000  0.26130000  1.0 -0.1393915535
C  C73  1  0.46470000  0.85620000  0.26130000  1.0 -0.1393915535
C  C74  1  0.14380000  0.60850000  0.26130000  1.0 -0.1393915535
C  C75  1  0.39150000  0.53530000  0.26130000  1.0 -0.1393915535
C  C76  1  0.53530000  0.14380000  0.26130000  1.0 -0.1393915535
C  C77  1  0.85620000  0.39150000  0.26130000  1.0 -0.1393915535
C  C78  1  0.60850000  0.46470000  0.26130000  1.0 -0.1393915535
C  C79  1  0.85620000  0.46470000  0.73870000  1.0 -0.1393915535
C  C80  1  0.60850000  0.14380000  0.73870000  1.0 -0.1393915535
C  C81  1  0.53530000  0.39150000  0.73870000  1.0 -0.1393915535
C  C82  1  0.14380000  0.53530000  0.73870000  1.0 -0.1393915535
C  C83  1  0.39150000  0.85620000  0.73870000  1.0 -0.1393915535
C  C84  1  0.46470000  0.60850000  0.73870000  1.0 -0.1393915535
C  C85  1  0.56285000  0.12570000  0.70880000  1.0 0.0767517288
C  C86  1  0.87430000  0.43715000  0.70880000  1.0 0.0767517288
C  C87  1  0.56285000  0.43715000  0.70880000  1.0 0.0767517288
C  C88  1  0.43715000  0.87430000  0.70880000  1.0 0.0767517288
C  C89  1  0.12570000  0.56285000  0.70880000  1.0 0.0767517288
C  C90  1  0.43715000  0.56285000  0.70880000  1.0 0.0767517288
C  C91  1  0.12570000  0.56285000  0.29120000  1.0 0.0767517288
C  C92  1  0.43715000  0.87430000  0.29120000  1.0 0.0767517288
C  C93  1  0.43715000  0.56285000  0.29120000  1.0 0.0767517288
C  C94  1  0.87430000  0.43715000  0.29120000  1.0 0.0767517288
C  C95  1  0.56285000  0.12570000  0.29120000  1.0 0.0767517288
C  C96  1  0.56285000  0.43715000  0.29120000  1.0 0.0767517288
C  C97  1  0.55320000  0.17900000  0.79690000  1.0 -0.0821608533
C  C98  1  0.82100000  0.37420000  0.79690000  1.0 -0.0821608533
C  C99  1  0.62580000  0.44680000  0.79690000  1.0 -0.0821608533
C  C100  1  0.44680000  0.82100000  0.79690000  1.0 -0.0821608533
C  C101  1  0.17900000  0.62580000  0.79690000  1.0 -0.0821608533
C  C102  1  0.37420000  0.55320000  0.79690000  1.0 -0.0821608533
C  C103  1  0.17900000  0.55320000  0.20310000  1.0 -0.0821608533
C  C104  1  0.37420000  0.82100000  0.20310000  1.0 -0.0821608533
C  C105  1  0.44680000  0.62580000  0.20310000  1.0 -0.0821608533
C  C106  1  0.82100000  0.44680000  0.20310000  1.0 -0.0821608533
C  C107  1  0.62580000  0.17900000  0.20310000  1.0 -0.0821608533
C  C108  1  0.55320000  0.37420000  0.20310000  1.0 -0.0821608533
C  C109  1  0.44680000  0.82100000  0.20310000  1.0 -0.0821608533
C  C110  1  0.17900000  0.62580000  0.20310000  1.0 -0.0821608533
C  C111  1  0.37420000  0.55320000  0.20310000  1.0 -0.0821608533
C  C112  1  0.55320000  0.17900000  0.20310000  1.0 -0.0821608533
C  C113  1  0.82100000  0.37420000  0.20310000  1.0 -0.0821608533
C  C114  1  0.62580000  0.44680000  0.20310000  1.0 -0.0821608533
C  C115  1  0.82100000  0.44680000  0.79690000  1.0 -0.0821608533
C  C116  1  0.62580000  0.17900000  0.79690000  1.0 -0.0821608533
C  C117  1  0.55320000  0.37420000  0.79690000  1.0 -0.0821608533
C  C118  1  0.17900000  0.55320000  0.79690000  1.0 -0.0821608533
C  C119  1  0.37420000  0.82100000  0.79690000  1.0 -0.0821608533
C  C120  1  0.44680000  0.62580000  0.79690000  1.0 -0.0821608533
C  C121  1  0.59860000  0.19720000  0.82540000  1.0 -0.0404832618
C  C122  1  0.80280000  0.40140000  0.82540000  1.0 -0.0404832618
C  C123  1  0.59860000  0.40140000  0.82540000  1.0 -0.0404832618
C  C124  1  0.40140000  0.80280000  0.82540000  1.0 -0.0404832618
C  C125  1  0.19720000  0.59860000  0.82540000  1.0 -0.0404832618
C  C126  1  0.40140000  0.59860000  0.82540000  1.0 -0.0404832618
C  C127  1  0.19720000  0.59860000  0.17460000  1.0 -0.0404832618
C  C128  1  0.40140000  0.80280000  0.17460000  1.0 -0.0404832618
C  C129  1  0.40140000  0.59860000  0.17460000  1.0 -0.0404832618
C  C130  1  0.80280000  0.40140000  0.17460000  1.0 -0.0404832618
C  C131  1  0.59860000  0.19720000  0.17460000  1.0 -0.0404832618
C  C132  1  0.59860000  0.40140000  0.17460000  1.0 -0.0404832618
C  C133  1  0.61810000  0.23620000  0.88900000  1.0 0.6071835129
C  C134  1  0.76380000  0.38190000  0.88900000  1.0 0.6071835129
C  C135  1  0.61810000  0.38190000  0.88900000  1.0 0.6071835129
C  C136  1  0.38190000  0.76380000  0.88900000  1.0 0.6071835129
C  C137  1  0.23620000  0.61810000  0.88900000  1.0 0.6071835129
C  C138  1  0.38190000  0.61810000  0.88900000  1.0 0.6071835129
C  C139  1  0.23620000  0.61810000  0.11100000  1.0 0.6071835129
C  C140  1  0.38190000  0.76380000  0.11100000  1.0 0.6071835129
C  C141  1  0.38190000  0.61810000  0.11100000  1.0 0.6071835129
C  C142  1  0.76380000  0.38190000  0.11100000  1.0 0.6071835129
C  C143  1  0.61810000  0.23620000  0.11100000  1.0 0.6071835129
C  C144  1  0.61810000  0.38190000  0.11100000  1.0 0.6071835129
N  N1  1  0.50000000  0.00000000  0.61650000  1.0 -0.1640998951
N  N2  1  0.00000000  0.50000000  0.61650000  1.0 -0.1654182158
N  N3  1  0.50000000  0.50000000  0.61650000  1.0 -0.1640998951
N  N4  1  0.00000000  0.50000000  0.38350000  1.0 -0.1654182158
N  N5  1  0.50000000  0.00000000  0.38350000  1.0 -0.1640998951
N  N6  1  0.50000000  0.50000000  0.38350000  1.0 -0.1640998951
N  N7  1  0.53505000  0.07010000  0.50000000  1.0 -0.1864160023
N  N8  1  0.92990000  0.46495000  0.50000000  1.0 -0.1864160023
N  N9  1  0.53505000  0.46495000  0.50000000  1.0 -0.1846305362
N  N10  1  0.46495000  0.92990000  0.50000000  1.0 -0.1864160023
N  N11  1  0.07010000  0.53505000  0.50000000  1.0 -0.1864160023
N  N12  1  0.46495000  0.53505000  0.50000000  1.0 -0.1864160023
O  O1  1  0.65980000  0.25051000  0.91260000  1.0 -0.588945993
O  O2  1  0.74949000  0.40929000  0.91260000  1.0 -0.588945993
O  O3  1  0.59071000  0.34020000  0.91260000  1.0 -0.588945993
O  O4  1  0.34020000  0.74949000  0.91260000  1.0 -0.588945993
O  O5  1  0.25051000  0.59071000  0.91260000  1.0 -0.588945993
O  O6  1  0.40929000  0.65980000  0.91260000  1.0 -0.588945993
O  O7  1  0.25051000  0.65980000  0.08740000  1.0 -0.588945993
O  O8  1  0.40929000  0.74949000  0.08740000  1.0 -0.588945993
O  O9  1  0.34020000  0.59071000  0.08740000  1.0 -0.588945993
O  O10  1  0.74949000  0.34020000  0.08740000  1.0 -0.588945993
O  O11  1  0.59071000  0.25051000  0.08740000  1.0 -0.588945993
O  O12  1  0.65980000  0.40929000  0.08740000  1.0 -0.588945993
O  O13  1  0.34020000  0.74949000  0.08740000  1.0 -0.588945993
O  O14  1  0.25051000  0.59071000  0.08740000  1.0 -0.588945993
O  O15  1  0.40929000  0.65980000  0.08740000  1.0 -0.588945993
O  O16  1  0.65980000  0.25051000  0.08740000  1.0 -0.588945993
O  O17  1  0.74949000  0.40929000  0.08740000  1.0 -0.588945993
O  O18  1  0.59071000  0.34020000  0.08740000  1.0 -0.588945993
O  O19  1  0.74949000  0.34020000  0.91260000  1.0 -0.588945993
O  O20  1  0.59071000  0.25051000  0.91260000  1.0 -0.588945993
O  O21  1  0.65980000  0.40929000  0.91260000  1.0 -0.588945993
O  O22  1  0.25051000  0.65980000  0.91260000  1.0 -0.588945993
O  O23  1  0.40929000  0.74949000  0.91260000  1.0 -0.588945993
O  O24  1  0.34020000  0.59071000  0.91260000  1.0 -0.588945993
O  O25  1  0.66666667  0.33333333  0.00000000  1.0 -1.1529991857
O  O26  1  0.33333333  0.66666667  0.00000000  1.0 -1.1408170692
O  O27  1  0.56480000  0.00000000  0.50000000  1.0 -0.4666415385
O  O28  1  0.00000000  0.56480000  0.50000000  1.0 -0.4589353956
O  O29  1  0.43520000  0.43520000  0.50000000  1.0 -0.4589353956
O  O30  1  0.43520000  0.00000000  0.50000000  1.0 -0.4514513544
O  O31  1  0.00000000  0.43520000  0.50000000  1.0 -0.4589353956
O  O32  1  0.56480000  0.56480000  0.50000000  1.0 -0.4589353956
