# DDEC6 charges by PACMAN v1.1 (https://github.com/mtap-research/PACMAN-charge/)
data_DAJWAP_ASR_pacman
_symmetry_space_group_name_H-M   'P 1'
_cell_length_a   31.74020000
_cell_length_b   31.74020000
_cell_length_c   16.76890000
_cell_angle_alpha   90.00000000
_cell_angle_beta   90.00000000
_cell_angle_gamma   120.00000000
_symmetry_Int_Tables_number   1
_chemical_formula_structural   Co3Ni3H36C72(N3O8)2
_chemical_formula_sum   'Co6 Ni6 H72 C144 N12 O32'
_cell_volume   14630.34355555
_cell_formula_units_Z   2
loop_
 _symmetry_equiv_pos_site_id
 _symmetry_equiv_pos_as_xyz
  1  'x, y, z'
loop_
 _atom_site_type_symbol
 _atom_site_label
 _atom_site_symmetry_multiplicity
 _atom_site_fract_x
 _atom_site_fract_y
 _atom_site_fract_z
 _atom_site_occupancy
 _atom_site_charge
Co  Co1  1  0.00000000  0.50780000  0.50000000  1.0 0.3939364231
Co  Co2  1  0.49220000  0.49220000  0.50000000  1.0 0.3939364231
Co  Co3  1  0.50780000  0.00000000  0.50000000  1.0 0.3939364231
Co  Co4  1  0.00000000  0.49220000  0.50000000  1.0 0.3939364231
Co  Co5  1  0.50780000  0.50780000  0.50000000  1.0 0.3939364231
Co  Co6  1  0.49220000  0.00000000  0.50000000  1.0 0.3939364231
Ni  Ni1  1  0.29684000  0.70316000  0.00000000  1.0 1.0539877391
Ni  Ni2  1  0.29684000  0.59368000  0.00000000  1.0 1.0539877391
Ni  Ni3  1  0.40632000  0.70316000  0.00000000  1.0 1.0539877391
Ni  Ni4  1  0.70316000  0.29684000  0.00000000  1.0 1.0555064357
Ni  Ni5  1  0.70316000  0.40632000  0.00000000  1.0 1.0555064357
Ni  Ni6  1  0.59368000  0.29684000  0.00000000  1.0 1.0539877391
H  H1  1  0.17890000  0.58945000  0.57310000  1.0 0.1207420681
H  H2  1  0.41055000  0.58945000  0.57310000  1.0 0.1207420681
H  H3  1  0.41055000  0.82110000  0.57310000  1.0 0.1207420681
H  H4  1  0.82110000  0.41055000  0.57310000  1.0 0.1207420681
H  H5  1  0.58945000  0.41055000  0.57310000  1.0 0.1207420681
H  H6  1  0.58945000  0.17890000  0.57310000  1.0 0.1207420681
H  H7  1  0.58945000  0.17890000  0.42690000  1.0 0.1207420681
H  H8  1  0.58945000  0.41055000  0.42690000  1.0 0.1207420681
H  H9  1  0.82110000  0.41055000  0.42690000  1.0 0.1207420681
H  H10  1  0.41055000  0.82110000  0.42690000  1.0 0.1207420681
H  H11  1  0.41055000  0.58945000  0.42690000  1.0 0.1207420681
H  H12  1  0.17890000  0.58945000  0.42690000  1.0 0.1207420681
H  H13  1  0.04440000  0.52220000  0.79380000  1.0 0.1207420681
H  H14  1  0.47780000  0.52220000  0.79380000  1.0 0.1207420681
H  H15  1  0.47780000  0.95560000  0.79380000  1.0 0.1207420681
H  H16  1  0.95560000  0.47780000  0.79380000  1.0 0.1207420681
H  H17  1  0.52220000  0.47780000  0.79380000  1.0 0.1207420681
H  H18  1  0.52220000  0.04440000  0.79380000  1.0 0.1207420681
H  H19  1  0.52220000  0.04440000  0.20620000  1.0 0.1207420681
H  H20  1  0.52220000  0.47780000  0.20620000  1.0 0.1207420681
H  H21  1  0.95560000  0.47780000  0.20620000  1.0 0.1207420681
H  H22  1  0.47780000  0.95560000  0.20620000  1.0 0.1207420681
H  H23  1  0.47780000  0.52220000  0.20620000  1.0 0.1207420681
H  H24  1  0.04440000  0.52220000  0.20620000  1.0 0.1207420681
H  H25  1  0.19070000  0.53390000  0.81580000  1.0 0.1345928586
H  H26  1  0.46610000  0.65680000  0.81580000  1.0 0.1345928586
H  H27  1  0.34320000  0.80930000  0.81580000  1.0 0.1345928586
H  H28  1  0.80930000  0.46610000  0.81580000  1.0 0.1345928586
H  H29  1  0.53390000  0.34320000  0.81580000  1.0 0.1366976746
H  H30  1  0.65680000  0.19070000  0.81580000  1.0 0.1366976746
H  H31  1  0.53390000  0.19070000  0.18420000  1.0 0.1366976746
H  H32  1  0.65680000  0.46610000  0.18420000  1.0 0.1366976746
H  H33  1  0.80930000  0.34320000  0.18420000  1.0 0.1345928586
H  H34  1  0.46610000  0.80930000  0.18420000  1.0 0.1345928586
H  H35  1  0.34320000  0.53390000  0.18420000  1.0 0.1345928586
H  H36  1  0.19070000  0.65680000  0.18420000  1.0 0.1366976746
H  H37  1  0.80930000  0.46610000  0.18420000  1.0 0.1345928586
H  H38  1  0.53390000  0.34320000  0.18420000  1.0 0.1366976746
H  H39  1  0.65680000  0.19070000  0.18420000  1.0 0.1366976746
H  H40  1  0.19070000  0.53390000  0.18420000  1.0 0.1366976746
H  H41  1  0.46610000  0.65680000  0.18420000  1.0 0.1345928586
H  H42  1  0.34320000  0.80930000  0.18420000  1.0 0.1345928586
H  H43  1  0.46610000  0.80930000  0.81580000  1.0 0.1345928586
H  H44  1  0.34320000  0.53390000  0.81580000  1.0 0.1345928586
H  H45  1  0.19070000  0.65680000  0.81580000  1.0 0.1366976746
H  H46  1  0.53390000  0.19070000  0.81580000  1.0 0.1366976746
H  H47  1  0.65680000  0.46610000  0.81580000  1.0 0.1366976746
H  H48  1  0.80930000  0.34320000  0.81580000  1.0 0.1345928586
H  H49  1  0.13260000  0.50430000  0.71920000  1.0 0.1345928586
H  H50  1  0.49570000  0.62830000  0.71920000  1.0 0.1345928586
H  H51  1  0.37170000  0.86740000  0.71920000  1.0 0.1345928586
H  H52  1  0.86740000  0.49570000  0.71920000  1.0 0.1345928586
H  H53  1  0.50430000  0.37170000  0.71920000  1.0 0.1345928586
H  H54  1  0.62830000  0.13260000  0.71920000  1.0 0.1366976746
H  H55  1  0.50430000  0.13260000  0.28080000  1.0 0.1345928586
H  H56  1  0.62830000  0.49570000  0.28080000  1.0 0.1345928586
H  H57  1  0.86740000  0.37170000  0.28080000  1.0 0.1345928586
H  H58  1  0.49570000  0.86740000  0.28080000  1.0 0.1345928586
H  H59  1  0.37170000  0.50430000  0.28080000  1.0 0.1345928586
H  H60  1  0.13260000  0.62830000  0.28080000  1.0 0.1345928586
H  H61  1  0.86740000  0.49570000  0.28080000  1.0 0.1345928586
H  H62  1  0.50430000  0.37170000  0.28080000  1.0 0.1345928586
H  H63  1  0.62830000  0.13260000  0.28080000  1.0 0.1366976746
H  H64  1  0.13260000  0.50430000  0.28080000  1.0 0.1345928586
H  H65  1  0.49570000  0.62830000  0.28080000  1.0 0.1345928586
H  H66  1  0.37170000  0.86740000  0.28080000  1.0 0.1345928586
H  H67  1  0.49570000  0.86740000  0.71920000  1.0 0.1345928586
H  H68  1  0.37170000  0.50430000  0.71920000  1.0 0.1345928586
H  H69  1  0.13260000  0.62830000  0.71920000  1.0 0.1345928586
H  H70  1  0.50430000  0.13260000  0.71920000  1.0 0.1345928586
H  H71  1  0.62830000  0.49570000  0.71920000  1.0 0.1345928586
H  H72  1  0.86740000  0.37170000  0.71920000  1.0 0.1345928586
C  C1  1  0.10180000  0.55090000  0.56600000  1.0 0.1366976746
C  C2  1  0.44910000  0.55090000  0.56600000  1.0 0.1366976746
C  C3  1  0.44910000  0.89820000  0.56600000  1.0 0.1366976746
C  C4  1  0.89820000  0.44910000  0.56600000  1.0 0.1366976746
C  C5  1  0.55090000  0.44910000  0.56600000  1.0 0.1366976746
C  C6  1  0.55090000  0.10180000  0.56600000  1.0 0.1366976746
C  C7  1  0.55090000  0.10180000  0.43400000  1.0 0.1366976746
C  C8  1  0.55090000  0.44910000  0.43400000  1.0 0.1366976746
C  C9  1  0.89820000  0.44910000  0.43400000  1.0 0.1366976746
C  C10  1  0.44910000  0.89820000  0.43400000  1.0 0.1366976746
C  C11  1  0.44910000  0.55090000  0.43400000  1.0 0.1366976746
C  C12  1  0.10180000  0.55090000  0.43400000  1.0 0.1366976746
C  C13  1  0.03930000  0.51965000  0.66620000  1.0 0.1366976746
C  C14  1  0.48035000  0.51965000  0.66620000  1.0 0.1366976746
C  C15  1  0.48035000  0.96070000  0.66620000  1.0 0.1366976746
C  C16  1  0.96070000  0.48035000  0.66620000  1.0 0.1366976746
C  C17  1  0.51965000  0.48035000  0.66620000  1.0 0.1366976746
C  C18  1  0.51965000  0.03930000  0.66620000  1.0 0.1366976746
C  C19  1  0.51965000  0.03930000  0.33380000  1.0 0.1366976746
C  C20  1  0.51965000  0.48035000  0.33380000  1.0 0.1366976746
C  C21  1  0.96070000  0.48035000  0.33380000  1.0 0.1366976746
C  C22  1  0.48035000  0.96070000  0.33380000  1.0 0.1366976746
C  C23  1  0.48035000  0.51965000  0.33380000  1.0 0.1366976746
C  C24  1  0.03930000  0.51965000  0.33380000  1.0 0.1366976746
C  C25  1  0.08790000  0.54395000  0.64470000  1.0 -0.0730963938
C  C26  1  0.45605000  0.54395000  0.64470000  1.0 -0.0730963938
C  C27  1  0.45605000  0.91210000  0.64470000  1.0 -0.0730963938
C  C28  1  0.91210000  0.45605000  0.64470000  1.0 -0.0730963938
C  C29  1  0.54395000  0.45605000  0.64470000  1.0 -0.0730963938
C  C30  1  0.54395000  0.08790000  0.64470000  1.0 -0.0730963938
C  C31  1  0.54395000  0.08790000  0.35530000  1.0 -0.0730963938
C  C32  1  0.54395000  0.45605000  0.35530000  1.0 -0.0730963938
C  C33  1  0.91210000  0.45605000  0.35530000  1.0 -0.0730963938
C  C34  1  0.45605000  0.91210000  0.35530000  1.0 -0.0730963938
C  C35  1  0.45605000  0.54395000  0.35530000  1.0 -0.0730963938
C  C36  1  0.08790000  0.54395000  0.35530000  1.0 -0.0730963938
C  C37  1  0.15170000  0.57585000  0.54030000  1.0 -0.1458051973
C  C38  1  0.42415000  0.57585000  0.54030000  1.0 -0.1458051973
C  C39  1  0.42415000  0.84830000  0.54030000  1.0 -0.1458051973
C  C40  1  0.84830000  0.42415000  0.54030000  1.0 -0.1458051973
C  C41  1  0.57585000  0.42415000  0.54030000  1.0 -0.1458051973
C  C42  1  0.57585000  0.15170000  0.54030000  1.0 -0.1429820904
C  C43  1  0.57585000  0.15170000  0.45970000  1.0 -0.1429820904
C  C44  1  0.57585000  0.42415000  0.45970000  1.0 -0.1458051973
C  C45  1  0.84830000  0.42415000  0.45970000  1.0 -0.1458051973
C  C46  1  0.42415000  0.84830000  0.45970000  1.0 -0.1458051973
C  C47  1  0.42415000  0.57585000  0.45970000  1.0 -0.1458051973
C  C48  1  0.15170000  0.57585000  0.45970000  1.0 -0.1458051973
C  C49  1  0.02420000  0.51210000  0.74940000  1.0 -0.1429820904
C  C50  1  0.48790000  0.51210000  0.74940000  1.0 -0.1429820904
C  C51  1  0.48790000  0.97580000  0.74940000  1.0 -0.1429820904
C  C52  1  0.97580000  0.48790000  0.74940000  1.0 -0.1429820904
C  C53  1  0.51210000  0.48790000  0.74940000  1.0 -0.1429820904
C  C54  1  0.51210000  0.02420000  0.74940000  1.0 -0.1429820904
C  C55  1  0.51210000  0.02420000  0.25060000  1.0 -0.1429820904
C  C56  1  0.51210000  0.48790000  0.25060000  1.0 -0.1429820904
C  C57  1  0.97580000  0.48790000  0.25060000  1.0 -0.1429820904
C  C58  1  0.48790000  0.97580000  0.25060000  1.0 -0.1429820904
C  C59  1  0.48790000  0.51210000  0.25060000  1.0 -0.1429820904
C  C60  1  0.02420000  0.51210000  0.25060000  1.0 -0.1429820904
C  C61  1  0.17950000  0.55390000  0.79610000  1.0 -0.0962051214
C  C62  1  0.44610000  0.62560000  0.79610000  1.0 -0.0962051214
C  C63  1  0.37440000  0.82050000  0.79610000  1.0 -0.0962051214
C  C64  1  0.82050000  0.44610000  0.79610000  1.0 -0.0962051214
C  C65  1  0.55390000  0.37440000  0.79610000  1.0 -0.0962051214
C  C66  1  0.62560000  0.17950000  0.79610000  1.0 -0.0962051214
C  C67  1  0.55390000  0.17950000  0.20390000  1.0 -0.0962051214
C  C68  1  0.62560000  0.44610000  0.20390000  1.0 -0.0962051214
C  C69  1  0.82050000  0.37440000  0.20390000  1.0 -0.0962051214
C  C70  1  0.44610000  0.82050000  0.20390000  1.0 -0.0962051214
C  C71  1  0.37440000  0.55390000  0.20390000  1.0 -0.0962051214
C  C72  1  0.17950000  0.62560000  0.20390000  1.0 -0.0962051214
C  C73  1  0.82050000  0.44610000  0.20390000  1.0 -0.0962051214
C  C74  1  0.55390000  0.37440000  0.20390000  1.0 -0.0962051214
C  C75  1  0.62560000  0.17950000  0.20390000  1.0 -0.0962051214
C  C76  1  0.17950000  0.55390000  0.20390000  1.0 -0.0962051214
C  C77  1  0.44610000  0.62560000  0.20390000  1.0 -0.0962051214
C  C78  1  0.37440000  0.82050000  0.20390000  1.0 -0.0962051214
C  C79  1  0.44610000  0.82050000  0.79610000  1.0 -0.0962051214
C  C80  1  0.37440000  0.55390000  0.79610000  1.0 -0.0962051214
C  C81  1  0.17950000  0.62560000  0.79610000  1.0 -0.0962051214
C  C82  1  0.55390000  0.17950000  0.79610000  1.0 -0.0962051214
C  C83  1  0.62560000  0.44610000  0.79610000  1.0 -0.0962051214
C  C84  1  0.82050000  0.37440000  0.79610000  1.0 -0.0962051214
C  C85  1  0.14430000  0.53580000  0.73790000  1.0 -0.1326554162
C  C86  1  0.46420000  0.60850000  0.73790000  1.0 -0.1326554162
C  C87  1  0.39150000  0.85570000  0.73790000  1.0 -0.1326554162
C  C88  1  0.85570000  0.46420000  0.73790000  1.0 -0.1326554162
C  C89  1  0.53580000  0.39150000  0.73790000  1.0 -0.1326554162
C  C90  1  0.60850000  0.14430000  0.73790000  1.0 -0.1326554162
C  C91  1  0.53580000  0.14430000  0.26210000  1.0 -0.1326554162
C  C92  1  0.60850000  0.46420000  0.26210000  1.0 -0.1326554162
C  C93  1  0.85570000  0.39150000  0.26210000  1.0 -0.1326554162
C  C94  1  0.46420000  0.85570000  0.26210000  1.0 -0.1326554162
C  C95  1  0.39150000  0.53580000  0.26210000  1.0 -0.1326554162
C  C96  1  0.14430000  0.60850000  0.26210000  1.0 -0.1326554162
C  C97  1  0.85570000  0.46420000  0.26210000  1.0 -0.1326554162
C  C98  1  0.53580000  0.39150000  0.26210000  1.0 -0.1326554162
C  C99  1  0.60850000  0.14430000  0.26210000  1.0 -0.1326554162
C  C100  1  0.14430000  0.53580000  0.26210000  1.0 -0.1326554162
C  C101  1  0.46420000  0.60850000  0.26210000  1.0 -0.1326554162
C  C102  1  0.39150000  0.85570000  0.26210000  1.0 -0.1326554162
C  C103  1  0.46420000  0.85570000  0.73790000  1.0 -0.1326554162
C  C104  1  0.39150000  0.53580000  0.73790000  1.0 -0.1326554162
C  C105  1  0.14430000  0.60850000  0.73790000  1.0 -0.1326554162
C  C106  1  0.53580000  0.14430000  0.73790000  1.0 -0.1326554162
C  C107  1  0.60850000  0.46420000  0.73790000  1.0 -0.1326554162
C  C108  1  0.85570000  0.39150000  0.73790000  1.0 -0.1326554162
C  C109  1  0.12640000  0.56320000  0.70710000  1.0 0.0683496732
C  C110  1  0.43680000  0.56320000  0.70710000  1.0 0.0683496732
C  C111  1  0.43680000  0.87360000  0.70710000  1.0 0.0683496732
C  C112  1  0.87360000  0.43680000  0.70710000  1.0 0.0683496732
C  C113  1  0.56320000  0.43680000  0.70710000  1.0 0.0683496732
C  C114  1  0.56320000  0.12640000  0.70710000  1.0 0.0683496732
C  C115  1  0.56320000  0.12640000  0.29290000  1.0 0.0683496732
C  C116  1  0.56320000  0.43680000  0.29290000  1.0 0.0683496732
C  C117  1  0.87360000  0.43680000  0.29290000  1.0 0.0683496732
C  C118  1  0.43680000  0.87360000  0.29290000  1.0 0.0683496732
C  C119  1  0.43680000  0.56320000  0.29290000  1.0 0.0683496732
C  C120  1  0.12640000  0.56320000  0.29290000  1.0 0.0683496732
C  C121  1  0.19850000  0.59925000  0.82600000  1.0 -0.0338942907
C  C122  1  0.40075000  0.59925000  0.82600000  1.0 -0.0338942907
C  C123  1  0.40075000  0.80150000  0.82600000  1.0 -0.0338942907
C  C124  1  0.80150000  0.40075000  0.82600000  1.0 -0.0338942907
C  C125  1  0.59925000  0.40075000  0.82600000  1.0 -0.0338942907
C  C126  1  0.59925000  0.19850000  0.82600000  1.0 -0.0338942907
C  C127  1  0.59925000  0.19850000  0.17400000  1.0 -0.0338942907
C  C128  1  0.59925000  0.40075000  0.17400000  1.0 -0.0338942907
C  C129  1  0.80150000  0.40075000  0.17400000  1.0 -0.0338942907
C  C130  1  0.40075000  0.80150000  0.17400000  1.0 -0.0338942907
C  C131  1  0.40075000  0.59925000  0.17400000  1.0 -0.0338942907
C  C132  1  0.19850000  0.59925000  0.17400000  1.0 -0.0338942907
C  C133  1  0.23690000  0.61845000  0.89020000  1.0 0.5983407722
C  C134  1  0.38155000  0.61845000  0.89020000  1.0 0.5983407722
C  C135  1  0.38155000  0.76310000  0.89020000  1.0 0.5983407722
C  C136  1  0.76310000  0.38155000  0.89020000  1.0 0.5983407722
C  C137  1  0.61845000  0.38155000  0.89020000  1.0 0.5983407722
C  C138  1  0.61845000  0.23690000  0.89020000  1.0 0.5983407722
C  C139  1  0.61845000  0.23690000  0.10980000  1.0 0.5983407722
C  C140  1  0.61845000  0.38155000  0.10980000  1.0 0.5983407722
C  C141  1  0.76310000  0.38155000  0.10980000  1.0 0.5983407722
C  C142  1  0.38155000  0.76310000  0.10980000  1.0 0.5983407722
C  C143  1  0.38155000  0.61845000  0.10980000  1.0 0.5983407722
C  C144  1  0.23690000  0.61845000  0.10980000  1.0 0.5983407722
N  N1  1  0.07170000  0.53585000  0.50000000  1.0 -0.1941266977
N  N2  1  0.46415000  0.53585000  0.50000000  1.0 -0.1941266977
N  N3  1  0.46415000  0.92830000  0.50000000  1.0 -0.1941266977
N  N4  1  0.92830000  0.46415000  0.50000000  1.0 -0.1941266977
N  N5  1  0.53585000  0.46415000  0.50000000  1.0 -0.1941266977
N  N6  1  0.53585000  0.07170000  0.50000000  1.0 -0.1941266977
N  N7  1  0.00000000  0.50000000  0.61550000  1.0 -0.1761667305
N  N8  1  0.50000000  0.50000000  0.61550000  1.0 -0.1761667305
N  N9  1  0.50000000  0.00000000  0.61550000  1.0 -0.174786421
N  N10  1  0.50000000  0.00000000  0.38450000  1.0 -0.174786421
N  N11  1  0.50000000  0.50000000  0.38450000  1.0 -0.1761667305
N  N12  1  0.00000000  0.50000000  0.38450000  1.0 -0.1761667305
O  O1  1  0.33333333  0.66666667  0.00000000  1.0 -0.8612610423
O  O2  1  0.66666667  0.33333333  0.00000000  1.0 -0.8612610423
O  O3  1  0.25032000  0.66073000  0.91293000  1.0 -0.5194707834
O  O4  1  0.33927000  0.58959000  0.91293000  1.0 -0.5194707834
O  O5  1  0.41041000  0.74968000  0.91293000  1.0 -0.5194707834
O  O6  1  0.74968000  0.33927000  0.91293000  1.0 -0.5194707834
O  O7  1  0.66073000  0.41041000  0.91293000  1.0 -0.5194707834
O  O8  1  0.58959000  0.25032000  0.91293000  1.0 -0.5194707834
O  O9  1  0.66073000  0.25032000  0.08707000  1.0 -0.5194707834
O  O10  1  0.58959000  0.33927000  0.08707000  1.0 -0.5194707834
O  O11  1  0.74968000  0.41041000  0.08707000  1.0 -0.5194707834
O  O12  1  0.33927000  0.74968000  0.08707000  1.0 -0.5194707834
O  O13  1  0.41041000  0.66073000  0.08707000  1.0 -0.5194707834
O  O14  1  0.25032000  0.58959000  0.08707000  1.0 -0.5194707834
O  O15  1  0.74968000  0.33927000  0.08707000  1.0 -0.5194707834
O  O16  1  0.66073000  0.41041000  0.08707000  1.0 -0.5194707834
O  O17  1  0.58959000  0.25032000  0.08707000  1.0 -0.5194707834
O  O18  1  0.25032000  0.66073000  0.08707000  1.0 -0.5194707834
O  O19  1  0.33927000  0.58959000  0.08707000  1.0 -0.5194707834
O  O20  1  0.41041000  0.74968000  0.08707000  1.0 -0.5194707834
O  O21  1  0.33927000  0.74968000  0.91293000  1.0 -0.5194707834
O  O22  1  0.41041000  0.66073000  0.91293000  1.0 -0.5194707834
O  O23  1  0.25032000  0.58959000  0.91293000  1.0 -0.5194707834
O  O24  1  0.66073000  0.25032000  0.91293000  1.0 -0.5194707834
O  O25  1  0.58959000  0.33927000  0.91293000  1.0 -0.5194707834
O  O26  1  0.74968000  0.41041000  0.91293000  1.0 -0.5194707834
O  O27  1  0.00000000  0.56800000  0.50000000  1.0 -0.4498519027
O  O28  1  0.43200000  0.43200000  0.50000000  1.0 -0.4498519027
O  O29  1  0.56800000  0.00000000  0.50000000  1.0 -0.4628186547
O  O30  1  0.00000000  0.43200000  0.50000000  1.0 -0.4498519027
O  O31  1  0.56800000  0.56800000  0.50000000  1.0 -0.4498519027
O  O32  1  0.43200000  0.00000000  0.50000000  1.0 -0.4498519027
