# DDEC6 charges by PACMAN v1.1 (https://github.com/mtap-research/PACMAN-charge/)
data_DAJXIY_ASR_pacman
_symmetry_space_group_name_H-M   'P 1'
_cell_length_a   31.96300000
_cell_length_b   31.96300000
_cell_length_c   16.71350000
_cell_angle_alpha   90.00000000
_cell_angle_beta   90.00000000
_cell_angle_gamma   120.00000000
_symmetry_Int_Tables_number   1
_chemical_formula_structural   Co3Ni6H72C144(N6O13)2
_chemical_formula_sum   'Co3 Ni6 H72 C144 N12 O26'
_cell_volume   14787.44379625
_cell_formula_units_Z   1
loop_
 _symmetry_equiv_pos_site_id
 _symmetry_equiv_pos_as_xyz
  1  'x, y, z'
loop_
 _atom_site_type_symbol
 _atom_site_label
 _atom_site_symmetry_multiplicity
 _atom_site_fract_x
 _atom_site_fract_y
 _atom_site_fract_z
 _atom_site_occupancy
 _atom_site_charge
Co  Co1  1  0.00000000  0.50000000  0.00000000  1.0 0.6649523811
Co  Co2  1  0.50000000  0.50000000  0.00000000  1.0 0.6665549116
Co  Co3  1  0.50000000  0.00000000  0.00000000  1.0 0.6649523811
Ni  Ni1  1  0.29715000  0.70285000  0.50000000  1.0 1.070955598
Ni  Ni2  1  0.29715000  0.59430000  0.50000000  1.0 1.070955598
Ni  Ni3  1  0.40570000  0.70285000  0.50000000  1.0 1.070955598
Ni  Ni4  1  0.70285000  0.29715000  0.50000000  1.0 1.070955598
Ni  Ni5  1  0.70285000  0.40570000  0.50000000  1.0 1.070955598
Ni  Ni6  1  0.59430000  0.29715000  0.50000000  1.0 1.070955598
H  H1  1  0.04450000  0.52225000  0.29270000  1.0 0.130411767
H  H2  1  0.47775000  0.52225000  0.29270000  1.0 0.130411767
H  H3  1  0.47775000  0.95550000  0.29270000  1.0 0.130411767
H  H4  1  0.95550000  0.47775000  0.29270000  1.0 0.130411767
H  H5  1  0.52225000  0.47775000  0.29270000  1.0 0.130411767
H  H6  1  0.52225000  0.04450000  0.29270000  1.0 0.130411767
H  H7  1  0.52225000  0.04450000  0.70730000  1.0 0.130411767
H  H8  1  0.52225000  0.47775000  0.70730000  1.0 0.130411767
H  H9  1  0.95550000  0.47775000  0.70730000  1.0 0.130411767
H  H10  1  0.47775000  0.95550000  0.70730000  1.0 0.130411767
H  H11  1  0.47775000  0.52225000  0.70730000  1.0 0.130411767
H  H12  1  0.04450000  0.52225000  0.70730000  1.0 0.130411767
H  H13  1  0.17620000  0.58810000  0.07530000  1.0 0.130411767
H  H14  1  0.41190000  0.58810000  0.07530000  1.0 0.130411767
H  H15  1  0.41190000  0.82380000  0.07530000  1.0 0.130411767
H  H16  1  0.82380000  0.41190000  0.07530000  1.0 0.130411767
H  H17  1  0.58810000  0.41190000  0.07530000  1.0 0.130411767
H  H18  1  0.58810000  0.17620000  0.07530000  1.0 0.130411767
H  H19  1  0.58810000  0.17620000  0.92470000  1.0 0.130411767
H  H20  1  0.58810000  0.41190000  0.92470000  1.0 0.130411767
H  H21  1  0.82380000  0.41190000  0.92470000  1.0 0.130411767
H  H22  1  0.41190000  0.82380000  0.92470000  1.0 0.130411767
H  H23  1  0.41190000  0.58810000  0.92470000  1.0 0.130411767
H  H24  1  0.17620000  0.58810000  0.92470000  1.0 0.130411767
H  H25  1  0.13270000  0.50300000  0.21940000  1.0 0.1248328822
H  H26  1  0.49700000  0.62970000  0.21940000  1.0 0.1248328822
H  H27  1  0.37030000  0.86730000  0.21940000  1.0 0.1248328822
H  H28  1  0.86730000  0.49700000  0.21940000  1.0 0.1248328822
H  H29  1  0.50300000  0.37030000  0.21940000  1.0 0.1248328822
H  H30  1  0.62970000  0.13270000  0.21940000  1.0 0.1248328822
H  H31  1  0.50300000  0.13270000  0.78060000  1.0 0.1248328822
H  H32  1  0.62970000  0.49700000  0.78060000  1.0 0.1248328822
H  H33  1  0.86730000  0.37030000  0.78060000  1.0 0.1248328822
H  H34  1  0.49700000  0.86730000  0.78060000  1.0 0.1248328822
H  H35  1  0.37030000  0.50300000  0.78060000  1.0 0.1248328822
H  H36  1  0.13270000  0.62970000  0.78060000  1.0 0.1248328822
H  H37  1  0.86730000  0.49700000  0.78060000  1.0 0.1248328822
H  H38  1  0.50300000  0.37030000  0.78060000  1.0 0.1248328822
H  H39  1  0.62970000  0.13270000  0.78060000  1.0 0.1248328822
H  H40  1  0.13270000  0.50300000  0.78060000  1.0 0.1248328822
H  H41  1  0.49700000  0.62970000  0.78060000  1.0 0.1248328822
H  H42  1  0.37030000  0.86730000  0.78060000  1.0 0.1248328822
H  H43  1  0.49700000  0.86730000  0.21940000  1.0 0.1248328822
H  H44  1  0.37030000  0.50300000  0.21940000  1.0 0.1248328822
H  H45  1  0.13270000  0.62970000  0.21940000  1.0 0.1248328822
H  H46  1  0.50300000  0.13270000  0.21940000  1.0 0.1248328822
H  H47  1  0.62970000  0.49700000  0.21940000  1.0 0.1248328822
H  H48  1  0.86730000  0.37030000  0.21940000  1.0 0.1248328822
H  H49  1  0.19050000  0.53320000  0.31710000  1.0 0.130411767
H  H50  1  0.46680000  0.65730000  0.31710000  1.0 0.130411767
H  H51  1  0.34270000  0.80950000  0.31710000  1.0 0.130411767
H  H52  1  0.80950000  0.46680000  0.31710000  1.0 0.130411767
H  H53  1  0.53320000  0.34270000  0.31710000  1.0 0.130411767
H  H54  1  0.65730000  0.19050000  0.31710000  1.0 0.130411767
H  H55  1  0.53320000  0.19050000  0.68290000  1.0 0.130411767
H  H56  1  0.65730000  0.46680000  0.68290000  1.0 0.130411767
H  H57  1  0.80950000  0.34270000  0.68290000  1.0 0.130411767
H  H58  1  0.46680000  0.80950000  0.68290000  1.0 0.130411767
H  H59  1  0.34270000  0.53320000  0.68290000  1.0 0.130411767
H  H60  1  0.19050000  0.65730000  0.68290000  1.0 0.130411767
H  H61  1  0.80950000  0.46680000  0.68290000  1.0 0.130411767
H  H62  1  0.53320000  0.34270000  0.68290000  1.0 0.130411767
H  H63  1  0.65730000  0.19050000  0.68290000  1.0 0.130411767
H  H64  1  0.19050000  0.53320000  0.68290000  1.0 0.130411767
H  H65  1  0.46680000  0.65730000  0.68290000  1.0 0.130411767
H  H66  1  0.34270000  0.80950000  0.68290000  1.0 0.130411767
H  H67  1  0.46680000  0.80950000  0.31710000  1.0 0.130411767
H  H68  1  0.34270000  0.53320000  0.31710000  1.0 0.130411767
H  H69  1  0.19050000  0.65730000  0.31710000  1.0 0.130411767
H  H70  1  0.53320000  0.19050000  0.31710000  1.0 0.130411767
H  H71  1  0.65730000  0.46680000  0.31710000  1.0 0.130411767
H  H72  1  0.80950000  0.34270000  0.31710000  1.0 0.130411767
C  C1  1  0.10200000  0.55100000  0.06640000  1.0 0.1709787305
C  C2  1  0.44900000  0.55100000  0.06640000  1.0 0.1709787305
C  C3  1  0.44900000  0.89800000  0.06640000  1.0 0.1709787305
C  C4  1  0.89800000  0.44900000  0.06640000  1.0 0.1709787305
C  C5  1  0.55100000  0.44900000  0.06640000  1.0 0.1709787305
C  C6  1  0.55100000  0.10200000  0.06640000  1.0 0.1709787305
C  C7  1  0.55100000  0.10200000  0.93360000  1.0 0.1709787305
C  C8  1  0.55100000  0.44900000  0.93360000  1.0 0.1709787305
C  C9  1  0.89800000  0.44900000  0.93360000  1.0 0.1709787305
C  C10  1  0.44900000  0.89800000  0.93360000  1.0 0.1709787305
C  C11  1  0.44900000  0.55100000  0.93360000  1.0 0.1709787305
C  C12  1  0.10200000  0.55100000  0.93360000  1.0 0.1709787305
C  C13  1  0.03960000  0.51980000  0.16890000  1.0 0.1709787305
C  C14  1  0.48020000  0.51980000  0.16890000  1.0 0.1709787305
C  C15  1  0.48020000  0.96040000  0.16890000  1.0 0.1709787305
C  C16  1  0.96040000  0.48020000  0.16890000  1.0 0.1709787305
C  C17  1  0.51980000  0.48020000  0.16890000  1.0 0.1709787305
C  C18  1  0.51980000  0.03960000  0.16890000  1.0 0.1709787305
C  C19  1  0.51980000  0.03960000  0.83110000  1.0 0.1709787305
C  C20  1  0.51980000  0.48020000  0.83110000  1.0 0.1709787305
C  C21  1  0.96040000  0.48020000  0.83110000  1.0 0.1709787305
C  C22  1  0.48020000  0.96040000  0.83110000  1.0 0.1709787305
C  C23  1  0.48020000  0.51980000  0.83110000  1.0 0.1709787305
C  C24  1  0.03960000  0.51980000  0.83110000  1.0 0.1709787305
C  C25  1  0.08760000  0.54380000  0.14430000  1.0 -0.0753380483
C  C26  1  0.45620000  0.54380000  0.14430000  1.0 -0.0753380483
C  C27  1  0.45620000  0.91240000  0.14430000  1.0 -0.0734450812
C  C28  1  0.91240000  0.45620000  0.14430000  1.0 -0.0734450812
C  C29  1  0.54380000  0.45620000  0.14430000  1.0 -0.0734450812
C  C30  1  0.54380000  0.08760000  0.14430000  1.0 -0.0734450812
C  C31  1  0.54380000  0.08760000  0.85570000  1.0 -0.0734450812
C  C32  1  0.54380000  0.45620000  0.85570000  1.0 -0.0734450812
C  C33  1  0.91240000  0.45620000  0.85570000  1.0 -0.0734450812
C  C34  1  0.45620000  0.91240000  0.85570000  1.0 -0.0734450812
C  C35  1  0.45620000  0.54380000  0.85570000  1.0 -0.0753380483
C  C36  1  0.08760000  0.54380000  0.85570000  1.0 -0.0753380483
C  C37  1  0.02460000  0.51230000  0.24780000  1.0 -0.1931578418
C  C38  1  0.48770000  0.51230000  0.24780000  1.0 -0.1931578418
C  C39  1  0.48770000  0.97540000  0.24780000  1.0 -0.1931578418
C  C40  1  0.97540000  0.48770000  0.24780000  1.0 -0.1931578418
C  C41  1  0.51230000  0.48770000  0.24780000  1.0 -0.1931578418
C  C42  1  0.51230000  0.02460000  0.24780000  1.0 -0.1931578418
C  C43  1  0.51230000  0.02460000  0.75220000  1.0 -0.1931578418
C  C44  1  0.51230000  0.48770000  0.75220000  1.0 -0.1931578418
C  C45  1  0.97540000  0.48770000  0.75220000  1.0 -0.1931578418
C  C46  1  0.48770000  0.97540000  0.75220000  1.0 -0.1931578418
C  C47  1  0.48770000  0.51230000  0.75220000  1.0 -0.1931578418
C  C48  1  0.02460000  0.51230000  0.75220000  1.0 -0.1931578418
C  C49  1  0.14920000  0.57460000  0.04230000  1.0 -0.1966308667
C  C50  1  0.42540000  0.57460000  0.04230000  1.0 -0.1966308667
C  C51  1  0.42540000  0.85080000  0.04230000  1.0 -0.1966308667
C  C52  1  0.85080000  0.42540000  0.04230000  1.0 -0.1966308667
C  C53  1  0.57460000  0.42540000  0.04230000  1.0 -0.1966308667
C  C54  1  0.57460000  0.14920000  0.04230000  1.0 -0.1966308667
C  C55  1  0.57460000  0.14920000  0.95770000  1.0 -0.1966308667
C  C56  1  0.57460000  0.42540000  0.95770000  1.0 -0.1966308667
C  C57  1  0.85080000  0.42540000  0.95770000  1.0 -0.1966308667
C  C58  1  0.42540000  0.85080000  0.95770000  1.0 -0.1966308667
C  C59  1  0.42540000  0.57460000  0.95770000  1.0 -0.1966308667
C  C60  1  0.14920000  0.57460000  0.95770000  1.0 -0.1966308667
C  C61  1  0.14410000  0.53420000  0.23840000  1.0 -0.1496177105
C  C62  1  0.46580000  0.60990000  0.23840000  1.0 -0.1496177105
C  C63  1  0.39010000  0.85590000  0.23840000  1.0 -0.1496177105
C  C64  1  0.85590000  0.46580000  0.23840000  1.0 -0.1496177105
C  C65  1  0.53420000  0.39010000  0.23840000  1.0 -0.1496177105
C  C66  1  0.60990000  0.14410000  0.23840000  1.0 -0.1496177105
C  C67  1  0.53420000  0.14410000  0.76160000  1.0 -0.1496177105
C  C68  1  0.60990000  0.46580000  0.76160000  1.0 -0.1496177105
C  C69  1  0.85590000  0.39010000  0.76160000  1.0 -0.1496177105
C  C70  1  0.46580000  0.85590000  0.76160000  1.0 -0.1496177105
C  C71  1  0.39010000  0.53420000  0.76160000  1.0 -0.1496177105
C  C72  1  0.14410000  0.60990000  0.76160000  1.0 -0.1496177105
C  C73  1  0.85590000  0.46580000  0.76160000  1.0 -0.1496177105
C  C74  1  0.53420000  0.39010000  0.76160000  1.0 -0.1496177105
C  C75  1  0.60990000  0.14410000  0.76160000  1.0 -0.1496177105
C  C76  1  0.14410000  0.53420000  0.76160000  1.0 -0.1496177105
C  C77  1  0.46580000  0.60990000  0.76160000  1.0 -0.1496177105
C  C78  1  0.39010000  0.85590000  0.76160000  1.0 -0.1496177105
C  C79  1  0.46580000  0.85590000  0.23840000  1.0 -0.1496177105
C  C80  1  0.39010000  0.53420000  0.23840000  1.0 -0.1496177105
C  C81  1  0.14410000  0.60990000  0.23840000  1.0 -0.1496177105
C  C82  1  0.53420000  0.14410000  0.23840000  1.0 -0.1496177105
C  C83  1  0.60990000  0.46580000  0.23840000  1.0 -0.1496177105
C  C84  1  0.85590000  0.39010000  0.23840000  1.0 -0.1496177105
C  C85  1  0.12560000  0.56280000  0.20720000  1.0 0.0936071127
C  C86  1  0.43720000  0.56280000  0.20720000  1.0 0.0936071127
C  C87  1  0.43720000  0.87440000  0.20720000  1.0 0.0936071127
C  C88  1  0.87440000  0.43720000  0.20720000  1.0 0.0936071127
C  C89  1  0.56280000  0.43720000  0.20720000  1.0 0.0936071127
C  C90  1  0.56280000  0.12560000  0.20720000  1.0 0.0936071127
C  C91  1  0.56280000  0.12560000  0.79280000  1.0 0.0936071127
C  C92  1  0.56280000  0.43720000  0.79280000  1.0 0.0936071127
C  C93  1  0.87440000  0.43720000  0.79280000  1.0 0.0936071127
C  C94  1  0.43720000  0.87440000  0.79280000  1.0 0.0936071127
C  C95  1  0.43720000  0.56280000  0.79280000  1.0 0.0936071127
C  C96  1  0.12560000  0.56280000  0.79280000  1.0 0.0936071127
C  C97  1  0.19680000  0.59840000  0.32600000  1.0 -0.0162893735
C  C98  1  0.40160000  0.59840000  0.32600000  1.0 -0.0162893735
C  C99  1  0.40160000  0.80320000  0.32600000  1.0 -0.0162893735
C  C100  1  0.80320000  0.40160000  0.32600000  1.0 -0.0162893735
C  C101  1  0.59840000  0.40160000  0.32600000  1.0 -0.0162893735
C  C102  1  0.59840000  0.19680000  0.32600000  1.0 -0.0162893735
C  C103  1  0.59840000  0.19680000  0.67400000  1.0 -0.0162893735
C  C104  1  0.59840000  0.40160000  0.67400000  1.0 -0.0162893735
C  C105  1  0.80320000  0.40160000  0.67400000  1.0 -0.0162893735
C  C106  1  0.40160000  0.80320000  0.67400000  1.0 -0.0162893735
C  C107  1  0.40160000  0.59840000  0.67400000  1.0 -0.0162893735
C  C108  1  0.19680000  0.59840000  0.67400000  1.0 -0.0162893735
C  C109  1  0.23700000  0.61850000  0.39000000  1.0 0.5917997546
C  C110  1  0.38150000  0.61850000  0.39000000  1.0 0.5917997546
C  C111  1  0.38150000  0.76300000  0.39000000  1.0 0.5917997546
C  C112  1  0.76300000  0.38150000  0.39000000  1.0 0.5917997546
C  C113  1  0.61850000  0.38150000  0.39000000  1.0 0.5917997546
C  C114  1  0.61850000  0.23700000  0.39000000  1.0 0.5917997546
C  C115  1  0.61850000  0.23700000  0.61000000  1.0 0.5917997546
C  C116  1  0.61850000  0.38150000  0.61000000  1.0 0.5917997546
C  C117  1  0.76300000  0.38150000  0.61000000  1.0 0.5917997546
C  C118  1  0.38150000  0.76300000  0.61000000  1.0 0.5917997546
C  C119  1  0.38150000  0.61850000  0.61000000  1.0 0.5917997546
C  C120  1  0.23700000  0.61850000  0.61000000  1.0 0.5917997546
C  C121  1  0.17880000  0.55250000  0.29680000  1.0 -0.0896086073
C  C122  1  0.44750000  0.62630000  0.29680000  1.0 -0.0896086073
C  C123  1  0.37370000  0.82120000  0.29680000  1.0 -0.0896086073
C  C124  1  0.82120000  0.44750000  0.29680000  1.0 -0.0896086073
C  C125  1  0.55250000  0.37370000  0.29680000  1.0 -0.0896086073
C  C126  1  0.62630000  0.17880000  0.29680000  1.0 -0.0896086073
C  C127  1  0.55250000  0.17880000  0.70320000  1.0 -0.0896086073
C  C128  1  0.62630000  0.44750000  0.70320000  1.0 -0.0896086073
C  C129  1  0.82120000  0.37370000  0.70320000  1.0 -0.0896086073
C  C130  1  0.44750000  0.82120000  0.70320000  1.0 -0.0896086073
C  C131  1  0.37370000  0.55250000  0.70320000  1.0 -0.0896086073
C  C132  1  0.17880000  0.62630000  0.70320000  1.0 -0.0896086073
C  C133  1  0.82120000  0.44750000  0.70320000  1.0 -0.0896086073
C  C134  1  0.55250000  0.37370000  0.70320000  1.0 -0.0896086073
C  C135  1  0.62630000  0.17880000  0.70320000  1.0 -0.0896086073
C  C136  1  0.17880000  0.55250000  0.70320000  1.0 -0.0896086073
C  C137  1  0.44750000  0.62630000  0.70320000  1.0 -0.0896086073
C  C138  1  0.37370000  0.82120000  0.70320000  1.0 -0.0896086073
C  C139  1  0.44750000  0.82120000  0.29680000  1.0 -0.0896086073
C  C140  1  0.37370000  0.55250000  0.29680000  1.0 -0.0896086073
C  C141  1  0.17880000  0.62630000  0.29680000  1.0 -0.0896086073
C  C142  1  0.55250000  0.17880000  0.29680000  1.0 -0.0896086073
C  C143  1  0.62630000  0.44750000  0.29680000  1.0 -0.0896086073
C  C144  1  0.82120000  0.37370000  0.29680000  1.0 -0.0896086073
N  N1  1  0.07100000  0.53550000  0.00000000  1.0 -0.3581158607
N  N2  1  0.46450000  0.53550000  0.00000000  1.0 -0.3581158607
N  N3  1  0.46450000  0.92900000  0.00000000  1.0 -0.3581158607
N  N4  1  0.92900000  0.46450000  0.00000000  1.0 -0.3581158607
N  N5  1  0.53550000  0.46450000  0.00000000  1.0 -0.3581158607
N  N6  1  0.53550000  0.07100000  0.00000000  1.0 -0.3581158607
N  N7  1  0.00000000  0.50000000  0.11770000  1.0 -0.3581158607
N  N8  1  0.50000000  0.50000000  0.11770000  1.0 -0.3581158607
N  N9  1  0.50000000  0.00000000  0.11770000  1.0 -0.3581158607
N  N10  1  0.50000000  0.00000000  0.88230000  1.0 -0.3581158607
N  N11  1  0.50000000  0.50000000  0.88230000  1.0 -0.3581158607
N  N12  1  0.00000000  0.50000000  0.88230000  1.0 -0.3581158607
O  O1  1  0.33333333  0.66666667  0.50000000  1.0 -0.8606763943
O  O2  1  0.66666667  0.33333333  0.50000000  1.0 -0.8606763943
O  O3  1  0.25029000  0.66031000  0.41340000  1.0 -0.5201789427
O  O4  1  0.33969000  0.58998000  0.41340000  1.0 -0.5201789427
O  O5  1  0.41002000  0.74971000  0.41340000  1.0 -0.5201789427
O  O6  1  0.74971000  0.33969000  0.41340000  1.0 -0.5201789427
O  O7  1  0.66031000  0.41002000  0.41340000  1.0 -0.5201789427
O  O8  1  0.58998000  0.25029000  0.41340000  1.0 -0.5201789427
O  O9  1  0.66031000  0.25029000  0.58660000  1.0 -0.5201789427
O  O10  1  0.58998000  0.33969000  0.58660000  1.0 -0.5201789427
O  O11  1  0.74971000  0.41002000  0.58660000  1.0 -0.5201789427
O  O12  1  0.33969000  0.74971000  0.58660000  1.0 -0.5201789427
O  O13  1  0.41002000  0.66031000  0.58660000  1.0 -0.5201789427
O  O14  1  0.25029000  0.58998000  0.58660000  1.0 -0.5201789427
O  O15  1  0.74971000  0.33969000  0.58660000  1.0 -0.5201789427
O  O16  1  0.66031000  0.41002000  0.58660000  1.0 -0.5201789427
O  O17  1  0.58998000  0.25029000  0.58660000  1.0 -0.5201789427
O  O18  1  0.25029000  0.66031000  0.58660000  1.0 -0.5201789427
O  O19  1  0.33969000  0.58998000  0.58660000  1.0 -0.5201789427
O  O20  1  0.41002000  0.74971000  0.58660000  1.0 -0.5201789427
O  O21  1  0.33969000  0.74971000  0.41340000  1.0 -0.5201789427
O  O22  1  0.41002000  0.66031000  0.41340000  1.0 -0.5201789427
O  O23  1  0.25029000  0.58998000  0.41340000  1.0 -0.5201789427
O  O24  1  0.66031000  0.25029000  0.41340000  1.0 -0.5201789427
O  O25  1  0.58998000  0.33969000  0.41340000  1.0 -0.5201789427
O  O26  1  0.74971000  0.41002000  0.41340000  1.0 -0.5201789427
