# DDEC6 charges by PACMAN v1.1 (https://github.com/mtap-research/PACMAN-charge/)
data_DAKTOA_FSR_pacman
_symmetry_space_group_name_H-M   'P 1'
_cell_length_a   12.64760000
_cell_length_b   6.66910000
_cell_length_c   22.62010000
_cell_angle_alpha   90.00000000
_cell_angle_beta   116.79800000
_cell_angle_gamma   90.00000000
_symmetry_Int_Tables_number   1
_chemical_formula_structural   KCuH10C11S(NO3)3
_chemical_formula_sum   'K4 Cu4 H40 C44 S4 N12 O36'
_cell_volume   1703.05044365
_cell_formula_units_Z   4
loop_
 _symmetry_equiv_pos_site_id
 _symmetry_equiv_pos_as_xyz
  1  'x, y, z'
loop_
 _atom_site_type_symbol
 _atom_site_label
 _atom_site_symmetry_multiplicity
 _atom_site_fract_x
 _atom_site_fract_y
 _atom_site_fract_z
 _atom_site_occupancy
 _atom_site_charge
K  K1  1  0.53949000  0.75430000  0.46095000  1.0 0.8802059225
K  K2  1  0.46051000  0.25430000  0.03905000  1.0 0.8802059225
K  K3  1  0.46051000  0.24570000  0.53905000  1.0 0.8802059225
K  K4  1  0.53949000  0.74570000  0.96095000  1.0 0.8802059225
Cu  Cu1  1  0.80335000  0.22431000  0.52788000  1.0 0.7883030108
Cu  Cu2  1  0.19665000  0.72431000  0.97212000  1.0 0.7883030108
Cu  Cu3  1  0.19665000  0.77569000  0.47212000  1.0 0.7883030108
Cu  Cu4  1  0.80335000  0.27569000  0.02788000  1.0 0.7883030108
H  H1  1  0.78730000  0.30610000  0.61570000  1.0 0.3814149654
H  H2  1  0.21270000  0.80610000  0.88430000  1.0 0.3814149654
H  H3  1  0.21270000  0.69390000  0.38430000  1.0 0.3814149654
H  H4  1  0.78730000  0.19390000  0.11570000  1.0 0.3814149654
H  H5  1  0.72720000  0.12150000  0.60510000  1.0 0.3958581916
H  H6  1  0.27280000  0.62150000  0.89490000  1.0 0.3958581916
H  H7  1  0.27280000  0.87850000  0.39490000  1.0 0.3958581916
H  H8  1  0.72720000  0.37850000  0.10510000  1.0 0.3958581916
H  H9  1  0.40260000  0.27000000  0.25550000  1.0 0.1491052142
H  H10  1  0.59740000  0.77000000  0.24450000  1.0 0.1491052142
H  H11  1  0.59740000  0.73000000  0.74450000  1.0 0.1491052142
H  H12  1  0.40260000  0.23000000  0.75550000  1.0 0.1491052142
H  H13  1  0.75950000  0.26410000  0.31740000  1.0 0.1575986554
H  H14  1  0.24050000  0.76410000  0.18260000  1.0 0.1575986554
H  H15  1  0.24050000  0.73590000  0.68260000  1.0 0.1575986554
H  H16  1  0.75950000  0.23590000  0.81740000  1.0 0.1575986554
H  H17  1  0.04290000  0.15110000  0.37340000  1.0 0.1711846149
H  H18  1  0.95710000  0.65110000  0.12660000  1.0 0.1711846149
H  H19  1  0.95710000  0.84890000  0.62660000  1.0 0.1711846149
H  H20  1  0.04290000  0.34890000  0.87340000  1.0 0.1711846149
H  H21  1  0.03270000  0.38750000  0.38200000  1.0 0.1575986554
H  H22  1  0.96730000  0.88750000  0.11800000  1.0 0.1575986554
H  H23  1  0.96730000  0.61250000  0.61800000  1.0 0.1575986554
H  H24  1  0.03270000  0.11250000  0.88200000  1.0 0.1575986554
H  H25  1  0.15590000  0.29220000  0.39210000  1.0 0.1711846149
H  H26  1  0.84410000  0.79220000  0.10790000  1.0 0.1711846149
H  H27  1  0.84410000  0.70780000  0.60790000  1.0 0.1711846149
H  H28  1  0.15590000  0.20780000  0.89210000  1.0 0.1711846149
H  H29  1  0.21190000  0.11950000  0.62100000  1.0 0.1575986554
H  H30  1  0.78810000  0.61950000  0.87900000  1.0 0.1575986554
H  H31  1  0.78810000  0.88050000  0.37900000  1.0 0.1575986554
H  H32  1  0.21190000  0.38050000  0.12100000  1.0 0.1575986554
H  H33  1  0.21990000  0.35200000  0.60600000  1.0 0.1575986554
H  H34  1  0.78010000  0.85200000  0.89400000  1.0 0.1575986554
H  H35  1  0.78010000  0.64800000  0.39400000  1.0 0.1575986554
H  H36  1  0.21990000  0.14800000  0.10600000  1.0 0.1575986554
H  H37  1  0.17150000  0.28670000  0.65740000  1.0 0.1808865747
H  H38  1  0.82850000  0.78670000  0.84260000  1.0 0.1808865747
H  H39  1  0.82850000  0.71330000  0.34260000  1.0 0.1808865747
H  H40  1  0.17150000  0.21330000  0.15740000  1.0 0.1808865747
C  C1  1  0.49966000  0.26050000  0.35562000  1.0 -0.1893141971
C  C2  1  0.50034000  0.76050000  0.14438000  1.0 -0.1893141971
C  C3  1  0.50034000  0.73950000  0.64438000  1.0 -0.1893141971
C  C4  1  0.49966000  0.23950000  0.85562000  1.0 -0.1893141971
C  C5  1  0.48078000  0.26590000  0.29073000  1.0 -0.1463281282
C  C6  1  0.51922000  0.76590000  0.20927000  1.0 -0.1463281282
C  C7  1  0.51922000  0.73410000  0.70927000  1.0 -0.1463281282
C  C8  1  0.48078000  0.23410000  0.79073000  1.0 -0.1463281282
C  C9  1  0.57871000  0.26540000  0.27762000  1.0 0.0501932173
C  C10  1  0.42129000  0.76540000  0.22238000  1.0 0.0501932173
C  C11  1  0.42129000  0.73460000  0.72238000  1.0 0.0501932173
C  C12  1  0.57871000  0.23460000  0.77762000  1.0 0.0501932173
C  C13  1  0.69432000  0.26230000  0.32752000  1.0 -0.1646932096
C  C14  1  0.30568000  0.76230000  0.17248000  1.0 -0.1646932096
C  C15  1  0.30568000  0.73770000  0.67248000  1.0 -0.1646932096
C  C16  1  0.69432000  0.23770000  0.82752000  1.0 -0.1646932096
C  C17  1  0.71193000  0.25640000  0.39226000  1.0 0.0794662132
C  C18  1  0.28807000  0.75640000  0.10774000  1.0 0.0794662132
C  C19  1  0.28807000  0.74360000  0.60774000  1.0 0.0794662132
C  C20  1  0.71193000  0.24360000  0.89226000  1.0 0.0794662132
C  C21  1  0.61548000  0.25180000  0.40870000  1.0 0.2661178044
C  C22  1  0.38452000  0.75180000  0.09130000  1.0 0.2661178044
C  C23  1  0.38452000  0.74820000  0.59130000  1.0 0.2661178044
C  C24  1  0.61548000  0.24820000  0.90870000  1.0 0.2661178044
C  C25  1  0.02575000  0.24640000  0.49225000  1.0 -0.1324218133
C  C26  1  0.97425000  0.74640000  0.00775000  1.0 -0.1324218133
C  C27  1  0.97425000  0.75360000  0.50775000  1.0 -0.1324218133
C  C28  1  0.02575000  0.25360000  0.99225000  1.0 -0.1324218133
C  C29  1  0.11981000  0.24050000  0.47040000  1.0 0.4376157752
C  C30  1  0.88019000  0.74050000  0.02960000  1.0 0.4376157752
C  C31  1  0.88019000  0.75950000  0.52960000  1.0 0.4376157752
C  C32  1  0.11981000  0.25950000  0.97040000  1.0 0.4376157752
C  C33  1  0.08480000  0.27040000  0.39823000  1.0 -0.5767426559
C  C34  1  0.91520000  0.77040000  0.10177000  1.0 -0.5767426559
C  C35  1  0.91520000  0.72960000  0.60177000  1.0 -0.5767426559
C  C36  1  0.08480000  0.22960000  0.89823000  1.0 -0.5767426559
C  C37  1  0.05132000  0.24280000  0.56111000  1.0 0.4167365215
C  C38  1  0.94868000  0.74280000  0.93889000  1.0 0.4167365215
C  C39  1  0.94868000  0.75720000  0.43889000  1.0 0.4167365215
C  C40  1  0.05132000  0.25720000  0.06111000  1.0 0.4167365215
C  C41  1  0.17420000  0.25100000  0.61611000  1.0 -0.5480584571
C  C42  1  0.82580000  0.75100000  0.88389000  1.0 -0.5480584571
C  C43  1  0.82580000  0.74900000  0.38389000  1.0 -0.5480584571
C  C44  1  0.17420000  0.24900000  0.11611000  1.0 -0.5480584571
S  S1  1  0.37880000  0.26126000  0.37475000  1.0 1.2098638049
S  S2  1  0.62120000  0.76126000  0.12525000  1.0 1.2098638049
S  S3  1  0.62120000  0.73874000  0.62525000  1.0 1.2098638049
S  S4  1  0.37880000  0.23874000  0.87475000  1.0 1.2098638049
N  N1  1  0.82240000  0.25060000  0.44943000  1.0 -0.1893141971
N  N2  1  0.17760000  0.75060000  0.05057000  1.0 -0.1893141971
N  N3  1  0.17760000  0.74940000  0.55057000  1.0 -0.1893141971
N  N4  1  0.82240000  0.24940000  0.94943000  1.0 -0.1893141971
N  N5  1  0.91595000  0.25350000  0.44040000  1.0 -0.0608387434
N  N6  1  0.08405000  0.75350000  0.05960000  1.0 -0.0608387434
N  N7  1  0.08405000  0.74650000  0.55960000  1.0 -0.0608387434
N  N8  1  0.91595000  0.24650000  0.94040000  1.0 -0.0608387434
N  N9  1  0.55792000  0.26590000  0.20908000  1.0 0.5035004846
N  N10  1  0.44208000  0.76590000  0.29092000  1.0 0.5035004846
N  N11  1  0.44208000  0.73410000  0.79092000  1.0 0.5035004846
N  N12  1  0.55792000  0.23410000  0.70908000  1.0 0.5035004846
O  O1  1  0.38879000  0.07540000  0.41133000  1.0 -0.6932564744
O  O2  1  0.61121000  0.57540000  0.08867000  1.0 -0.6932564744
O  O3  1  0.61121000  0.92460000  0.58867000  1.0 -0.6932564744
O  O4  1  0.38879000  0.42460000  0.91133000  1.0 -0.6932564744
O  O5  1  0.39205000  0.43570000  0.41579000  1.0 -0.6932564744
O  O6  1  0.60795000  0.93570000  0.08421000  1.0 -0.6932564744
O  O7  1  0.60795000  0.56430000  0.58421000  1.0 -0.6932564744
O  O8  1  0.39205000  0.06430000  0.91579000  1.0 -0.6932564744
O  O9  1  0.27299000  0.26740000  0.31118000  1.0 -0.5730230281
O  O10  1  0.72701000  0.76740000  0.18882000  1.0 -0.5730230281
O  O11  1  0.72701000  0.73260000  0.68882000  1.0 -0.5730230281
O  O12  1  0.27299000  0.23260000  0.81118000  1.0 -0.5730230281
O  O13  1  0.22327000  0.20460000  0.50893000  1.0 -0.4735052654
O  O14  1  0.77673000  0.70460000  0.99107000  1.0 -0.4735052654
O  O15  1  0.77673000  0.79540000  0.49107000  1.0 -0.4735052654
O  O16  1  0.22327000  0.29540000  0.00893000  1.0 -0.4735052654
O  O17  1  0.97114000  0.23480000  0.57963000  1.0 -0.4604283192
O  O18  1  0.02886000  0.73480000  0.92037000  1.0 -0.4604283192
O  O19  1  0.02886000  0.76520000  0.42037000  1.0 -0.4604283192
O  O20  1  0.97114000  0.26520000  0.07963000  1.0 -0.4604283192
O  O21  1  0.63607000  0.23960000  0.47047000  1.0 -0.5413257995
O  O22  1  0.36393000  0.73960000  0.02953000  1.0 -0.5413257995
O  O23  1  0.36393000  0.76040000  0.52953000  1.0 -0.5413257995
O  O24  1  0.63607000  0.26040000  0.97047000  1.0 -0.5413257995
O  O25  1  0.78808000  0.17560000  0.60732000  1.0 -0.6100314328
O  O26  1  0.21192000  0.67560000  0.89268000  1.0 -0.6100314328
O  O27  1  0.21192000  0.82440000  0.39268000  1.0 -0.6100314328
O  O28  1  0.78808000  0.32440000  0.10732000  1.0 -0.6100314328
O  O29  1  0.45474000  0.26870000  0.16486000  1.0 -0.3490083286
O  O30  1  0.54526000  0.76870000  0.33514000  1.0 -0.3490083286
O  O31  1  0.54526000  0.73130000  0.83514000  1.0 -0.3490083286
O  O32  1  0.45474000  0.23130000  0.66486000  1.0 -0.3490083286
O  O33  1  0.64404000  0.26210000  0.19731000  1.0 -0.3104850271
O  O34  1  0.35596000  0.76210000  0.30269000  1.0 -0.3104850271
O  O35  1  0.35596000  0.73790000  0.80269000  1.0 -0.3104850271
O  O36  1  0.64404000  0.23790000  0.69731000  1.0 -0.3104850271
