# DDEC6 charges by PACMAN v1.1 (https://github.com/mtap-research/PACMAN-charge/)
data_DAKVOC_ASR_pacman
_symmetry_space_group_name_H-M   'P 1'
_cell_length_a   12.41050000
_cell_length_b   26.21720000
_cell_length_c   26.22150000
_cell_angle_alpha   90.00000000
_cell_angle_beta   90.00000000
_cell_angle_gamma   90.00000000
_symmetry_Int_Tables_number   1
_chemical_formula_structural   Zn4H20C37O20
_chemical_formula_sum   'Zn16 H80 C148 O80'
_cell_volume   8531.65171177
_cell_formula_units_Z   4
loop_
 _symmetry_equiv_pos_site_id
 _symmetry_equiv_pos_as_xyz
  1  'x, y, z'
loop_
 _atom_site_type_symbol
 _atom_site_label
 _atom_site_symmetry_multiplicity
 _atom_site_fract_x
 _atom_site_fract_y
 _atom_site_fract_z
 _atom_site_occupancy
 _atom_site_charge
Zn  Zn1  1  0.15408000  0.22118000  0.25000000  1.0 0.9484222799
Zn  Zn2  1  0.84592000  0.77882000  0.75000000  1.0 0.9484222799
Zn  Zn3  1  0.15408000  0.27882000  0.75000000  1.0 0.9484222799
Zn  Zn4  1  0.84592000  0.72118000  0.25000000  1.0 0.9484222799
Zn  Zn5  1  0.98713000  0.30297000  0.25000000  1.0 0.9701185196
Zn  Zn6  1  0.01287000  0.69703000  0.75000000  1.0 0.9701185196
Zn  Zn7  1  0.98713000  0.19703000  0.75000000  1.0 0.9701185196
Zn  Zn8  1  0.01287000  0.80297000  0.25000000  1.0 0.9701185196
Zn  Zn9  1  0.08194000  0.99312000  0.04080000  1.0 0.9588817327
Zn  Zn10  1  0.91806000  0.00688000  0.54080000  1.0 0.9588817327
Zn  Zn11  1  0.08194000  0.50688000  0.95920000  1.0 0.9588817327
Zn  Zn12  1  0.91806000  0.49312000  0.45920000  1.0 0.9588817327
Zn  Zn13  1  0.91806000  0.00688000  0.95920000  1.0 0.9588817327
Zn  Zn14  1  0.08194000  0.99312000  0.45920000  1.0 0.9588817327
Zn  Zn15  1  0.91806000  0.49312000  0.04080000  1.0 0.9588817327
Zn  Zn16  1  0.08194000  0.50688000  0.54080000  1.0 0.9588817327
H  H1  1  0.78930000  0.24480000  0.13370000  1.0 0.1471084027
H  H2  1  0.21070000  0.75520000  0.63370000  1.0 0.1471084027
H  H3  1  0.78930000  0.25520000  0.86630000  1.0 0.1471084027
H  H4  1  0.21070000  0.74480000  0.36630000  1.0 0.1471084027
H  H5  1  0.21070000  0.75520000  0.86630000  1.0 0.1471084027
H  H6  1  0.78930000  0.24480000  0.36630000  1.0 0.1471084027
H  H7  1  0.21070000  0.74480000  0.13370000  1.0 0.1471084027
H  H8  1  0.78930000  0.25520000  0.63370000  1.0 0.1471084027
H  H9  1  0.75290000  0.13170000  0.03010000  1.0 0.1311040415
H  H10  1  0.24710000  0.86830000  0.53010000  1.0 0.1311040415
H  H11  1  0.75290000  0.36830000  0.96990000  1.0 0.1311040415
H  H12  1  0.24710000  0.63170000  0.46990000  1.0 0.1311040415
H  H13  1  0.24710000  0.86830000  0.96990000  1.0 0.1311040415
H  H14  1  0.75290000  0.13170000  0.46990000  1.0 0.1311040415
H  H15  1  0.24710000  0.63170000  0.03010000  1.0 0.1311040415
H  H16  1  0.75290000  0.36830000  0.53010000  1.0 0.1311040415
H  H17  1  0.99650000  0.12680000  0.13040000  1.0 0.1411445855
H  H18  1  0.00350000  0.87320000  0.63040000  1.0 0.1411445855
H  H19  1  0.99650000  0.37320000  0.86960000  1.0 0.1411445855
H  H20  1  0.00350000  0.62680000  0.36960000  1.0 0.1411445855
H  H21  1  0.00350000  0.87320000  0.86960000  1.0 0.1411445855
H  H22  1  0.99650000  0.12680000  0.36960000  1.0 0.1411445855
H  H23  1  0.00350000  0.62680000  0.13040000  1.0 0.1411445855
H  H24  1  0.99650000  0.37320000  0.63040000  1.0 0.1411445855
H  H25  1  0.57140000  0.17590000  0.02470000  1.0 0.1020093355
H  H26  1  0.42860000  0.82410000  0.52470000  1.0 0.1020093355
H  H27  1  0.57140000  0.32410000  0.97530000  1.0 0.1020093355
H  H28  1  0.42860000  0.67590000  0.47530000  1.0 0.1020093355
H  H29  1  0.42860000  0.82410000  0.97530000  1.0 0.1020093355
H  H30  1  0.57140000  0.17590000  0.47530000  1.0 0.1020093355
H  H31  1  0.42860000  0.67590000  0.02470000  1.0 0.1020093355
H  H32  1  0.57140000  0.32410000  0.52470000  1.0 0.1020093355
H  H33  1  0.66490000  0.19590000  0.98930000  1.0 0.1020093355
H  H34  1  0.33510000  0.80410000  0.48930000  1.0 0.1020093355
H  H35  1  0.66490000  0.30410000  0.01070000  1.0 0.1020093355
H  H36  1  0.33510000  0.69590000  0.51070000  1.0 0.1020093355
H  H37  1  0.33510000  0.80410000  0.01070000  1.0 0.1020093355
H  H38  1  0.66490000  0.19590000  0.51070000  1.0 0.1020093355
H  H39  1  0.33510000  0.69590000  0.98930000  1.0 0.1020093355
H  H40  1  0.66490000  0.30410000  0.48930000  1.0 0.1020093355
H  H41  1  0.42470000  0.25960000  0.94540000  1.0 0.1020093355
H  H42  1  0.57530000  0.74040000  0.44540000  1.0 0.1020093355
H  H43  1  0.42470000  0.24040000  0.05460000  1.0 0.1020093355
H  H44  1  0.57530000  0.75960000  0.55460000  1.0 0.1020093355
H  H45  1  0.57530000  0.74040000  0.05460000  1.0 0.1020093355
H  H46  1  0.42470000  0.25960000  0.55460000  1.0 0.1020093355
H  H47  1  0.57530000  0.75960000  0.94540000  1.0 0.1020093355
H  H48  1  0.42470000  0.24040000  0.44540000  1.0 0.1020093355
H  H49  1  0.51800000  0.22370000  0.92610000  1.0 0.1020093355
H  H50  1  0.48200000  0.77630000  0.42610000  1.0 0.1020093355
H  H51  1  0.51800000  0.27630000  0.07390000  1.0 0.1020093355
H  H52  1  0.48200000  0.72370000  0.57390000  1.0 0.1020093355
H  H53  1  0.48200000  0.77630000  0.07390000  1.0 0.1020093355
H  H54  1  0.51800000  0.22370000  0.57390000  1.0 0.1020093355
H  H55  1  0.48200000  0.72370000  0.92610000  1.0 0.1020093355
H  H56  1  0.51800000  0.27630000  0.42610000  1.0 0.1020093355
H  H57  1  0.34070000  0.21880000  0.88190000  1.0 0.1311040415
H  H58  1  0.65930000  0.78120000  0.38190000  1.0 0.1311040415
H  H59  1  0.34070000  0.28120000  0.11810000  1.0 0.1311040415
H  H60  1  0.65930000  0.71880000  0.61810000  1.0 0.1311040415
H  H61  1  0.65930000  0.78120000  0.11810000  1.0 0.1311040415
H  H62  1  0.34070000  0.21880000  0.61810000  1.0 0.1311040415
H  H63  1  0.65930000  0.71880000  0.88190000  1.0 0.1311040415
H  H64  1  0.34070000  0.28120000  0.38190000  1.0 0.1311040415
H  H65  1  0.09940000  0.11570000  0.87410000  1.0 0.1411445855
H  H66  1  0.90060000  0.88430000  0.37410000  1.0 0.1411445855
H  H67  1  0.09940000  0.38430000  0.12590000  1.0 0.1411445855
H  H68  1  0.90060000  0.61570000  0.62590000  1.0 0.1411445855
H  H69  1  0.90060000  0.88430000  0.12590000  1.0 0.1411445855
H  H70  1  0.09940000  0.11570000  0.62590000  1.0 0.1411445855
H  H71  1  0.90060000  0.61570000  0.87410000  1.0 0.1411445855
H  H72  1  0.09940000  0.38430000  0.37410000  1.0 0.1411445855
H  H73  1  0.30210000  0.11490000  0.99390000  1.0 0.1471084027
H  H74  1  0.69790000  0.88510000  0.49390000  1.0 0.1471084027
H  H75  1  0.30210000  0.38510000  0.00610000  1.0 0.1471084027
H  H76  1  0.69790000  0.61490000  0.50610000  1.0 0.1471084027
H  H77  1  0.69790000  0.88510000  0.00610000  1.0 0.1471084027
H  H78  1  0.30210000  0.11490000  0.50610000  1.0 0.1471084027
H  H79  1  0.69790000  0.61490000  0.99390000  1.0 0.1471084027
H  H80  1  0.30210000  0.38510000  0.49390000  1.0 0.1471084027
C  C1  1  0.96520000  0.21400000  0.18010000  1.0 0.5988740257
C  C2  1  0.03480000  0.78600000  0.68010000  1.0 0.5988740257
C  C3  1  0.96520000  0.28600000  0.81990000  1.0 0.5988740257
C  C4  1  0.03480000  0.71400000  0.31990000  1.0 0.5988740257
C  C5  1  0.03480000  0.78600000  0.81990000  1.0 0.5988740257
C  C6  1  0.96520000  0.21400000  0.31990000  1.0 0.5988740257
C  C7  1  0.03480000  0.71400000  0.18010000  1.0 0.5988740257
C  C8  1  0.96520000  0.28600000  0.68010000  1.0 0.5988740257
C  C9  1  0.90340000  0.18930000  0.13790000  1.0 -0.0184197331
C  C10  1  0.09660000  0.81070000  0.63790000  1.0 -0.0184197331
C  C11  1  0.90340000  0.31070000  0.86210000  1.0 -0.0184197331
C  C12  1  0.09660000  0.68930000  0.36210000  1.0 -0.0184197331
C  C13  1  0.09660000  0.81070000  0.86210000  1.0 -0.0184197331
C  C14  1  0.90340000  0.18930000  0.36210000  1.0 -0.0184197331
C  C15  1  0.09660000  0.68930000  0.13790000  1.0 -0.0184197331
C  C16  1  0.90340000  0.31070000  0.63790000  1.0 -0.0184197331
C  C17  1  0.81270000  0.21450000  0.11900000  1.0 -0.2173986559
C  C18  1  0.18730000  0.78550000  0.61900000  1.0 -0.2173986559
C  C19  1  0.81270000  0.28550000  0.88100000  1.0 -0.2173986559
C  C20  1  0.18730000  0.71450000  0.38100000  1.0 -0.2173986559
C  C21  1  0.18730000  0.78550000  0.88100000  1.0 -0.2173986559
C  C22  1  0.81270000  0.21450000  0.38100000  1.0 -0.2173986559
C  C23  1  0.18730000  0.71450000  0.11900000  1.0 -0.2173986559
C  C24  1  0.81270000  0.28550000  0.61900000  1.0 -0.2173986559
C  C25  1  0.75680000  0.19280000  0.07700000  1.0 0.2708587467
C  C26  1  0.24320000  0.80720000  0.57700000  1.0 0.2708587467
C  C27  1  0.75680000  0.30720000  0.92300000  1.0 0.2708587467
C  C28  1  0.24320000  0.69280000  0.42300000  1.0 0.2708587467
C  C29  1  0.24320000  0.80720000  0.92300000  1.0 0.2708587467
C  C30  1  0.75680000  0.19280000  0.42300000  1.0 0.2708587467
C  C31  1  0.24320000  0.69280000  0.07700000  1.0 0.2708587467
C  C32  1  0.75680000  0.30720000  0.57700000  1.0 0.2708587467
C  C33  1  0.79040000  0.14660000  0.05700000  1.0 -0.2505677988
C  C34  1  0.20960000  0.85340000  0.55700000  1.0 -0.2505677988
C  C35  1  0.79040000  0.35340000  0.94300000  1.0 -0.2505677988
C  C36  1  0.20960000  0.64660000  0.44300000  1.0 -0.2505677988
C  C37  1  0.20960000  0.85340000  0.94300000  1.0 -0.2505677988
C  C38  1  0.79040000  0.14660000  0.44300000  1.0 -0.2505677988
C  C39  1  0.20960000  0.64660000  0.05700000  1.0 -0.2505677988
C  C40  1  0.79040000  0.35340000  0.55700000  1.0 -0.2505677988
C  C41  1  0.88090000  0.12240000  0.07740000  1.0 -0.0025784164
C  C42  1  0.11910000  0.87760000  0.57740000  1.0 -0.0025784164
C  C43  1  0.88090000  0.37760000  0.92260000  1.0 -0.0025784164
C  C44  1  0.11910000  0.62240000  0.42260000  1.0 -0.0025784164
C  C45  1  0.11910000  0.87760000  0.92260000  1.0 -0.0025784164
C  C46  1  0.88090000  0.12240000  0.42260000  1.0 -0.0025784164
C  C47  1  0.11910000  0.62240000  0.07740000  1.0 -0.0025784164
C  C48  1  0.88090000  0.37760000  0.57740000  1.0 -0.0025784164
C  C49  1  0.93640000  0.14340000  0.11720000  1.0 -0.1230162422
C  C50  1  0.06360000  0.85660000  0.61720000  1.0 -0.1230162422
C  C51  1  0.93640000  0.35660000  0.88280000  1.0 -0.1230162422
C  C52  1  0.06360000  0.64340000  0.38280000  1.0 -0.1230162422
C  C53  1  0.06360000  0.85660000  0.88280000  1.0 -0.1230162422
C  C54  1  0.93640000  0.14340000  0.38280000  1.0 -0.1230162422
C  C55  1  0.06360000  0.64340000  0.11720000  1.0 -0.1230162422
C  C56  1  0.93640000  0.35660000  0.61720000  1.0 -0.1230162422
C  C57  1  0.92110000  0.07370000  0.05180000  1.0 0.5988740257
C  C58  1  0.07890000  0.92630000  0.55180000  1.0 0.5988740257
C  C59  1  0.92110000  0.42630000  0.94820000  1.0 0.5988740257
C  C60  1  0.07890000  0.57370000  0.44820000  1.0 0.5988740257
C  C61  1  0.07890000  0.92630000  0.94820000  1.0 0.5988740257
C  C62  1  0.92110000  0.07370000  0.44820000  1.0 0.5988740257
C  C63  1  0.07890000  0.57370000  0.05180000  1.0 0.5988740257
C  C64  1  0.92110000  0.42630000  0.55180000  1.0 0.5988740257
C  C65  1  0.61560000  0.20530000  0.01640000  1.0 -0.087285505
C  C66  1  0.38440000  0.79470000  0.51640000  1.0 -0.087285505
C  C67  1  0.61560000  0.29470000  0.98360000  1.0 -0.087285505
C  C68  1  0.38440000  0.70530000  0.48360000  1.0 -0.087285505
C  C69  1  0.38440000  0.79470000  0.98360000  1.0 -0.087285505
C  C70  1  0.61560000  0.20530000  0.48360000  1.0 -0.087285505
C  C71  1  0.38440000  0.70530000  0.01640000  1.0 -0.087285505
C  C72  1  0.61560000  0.29470000  0.51640000  1.0 -0.087285505
C  C73  1  0.54510000  0.25000000  0.00000000  1.0 0.0338346667
C  C74  1  0.45490000  0.75000000  0.50000000  1.0 0.0350726887
C  C75  1  0.45490000  0.75000000  0.00000000  1.0 0.0350726887
C  C76  1  0.54510000  0.25000000  0.50000000  1.0 0.0350726887
C  C77  1  0.47380000  0.23250000  0.95530000  1.0 -0.0761387658
C  C78  1  0.52620000  0.76750000  0.45530000  1.0 -0.0761387658
C  C79  1  0.47380000  0.26750000  0.04470000  1.0 -0.0761387658
C  C80  1  0.52620000  0.73250000  0.54470000  1.0 -0.0761387658
C  C81  1  0.52620000  0.76750000  0.04470000  1.0 -0.0761387658
C  C82  1  0.47380000  0.23250000  0.54470000  1.0 -0.0761387658
C  C83  1  0.52620000  0.73250000  0.95530000  1.0 -0.0761387658
C  C84  1  0.47380000  0.26750000  0.45530000  1.0 -0.0761387658
C  C85  1  0.33360000  0.17090000  0.94250000  1.0 0.2601290315
C  C86  1  0.66640000  0.82910000  0.44250000  1.0 0.2601290315
C  C87  1  0.33360000  0.32910000  0.05750000  1.0 0.2601290315
C  C88  1  0.66640000  0.67090000  0.55750000  1.0 0.2601290315
C  C89  1  0.66640000  0.82910000  0.05750000  1.0 0.2601290315
C  C90  1  0.33360000  0.17090000  0.55750000  1.0 0.2601290315
C  C91  1  0.66640000  0.67090000  0.94250000  1.0 0.2601290315
C  C92  1  0.33360000  0.32910000  0.44250000  1.0 0.2601290315
C  C93  1  0.30300000  0.19160000  0.89600000  1.0 -0.2505677988
C  C94  1  0.69700000  0.80840000  0.39600000  1.0 -0.2505677988
C  C95  1  0.30300000  0.30840000  0.10400000  1.0 -0.2505677988
C  C96  1  0.69700000  0.69160000  0.60400000  1.0 -0.2505677988
C  C97  1  0.69700000  0.80840000  0.10400000  1.0 -0.2505677988
C  C98  1  0.30300000  0.19160000  0.60400000  1.0 -0.2505677988
C  C99  1  0.69700000  0.69160000  0.89600000  1.0 -0.2505677988
C  C100  1  0.30300000  0.30840000  0.39600000  1.0 -0.2505677988
C  C101  1  0.21370000  0.17050000  0.87060000  1.0 -0.0025784164
C  C102  1  0.78630000  0.82950000  0.37060000  1.0 -0.0025784164
C  C103  1  0.21370000  0.32950000  0.12940000  1.0 -0.0025784164
C  C104  1  0.78630000  0.67050000  0.62940000  1.0 -0.0025784164
C  C105  1  0.78630000  0.82950000  0.12940000  1.0 -0.0025784164
C  C106  1  0.21370000  0.17050000  0.62940000  1.0 -0.0025784164
C  C107  1  0.78630000  0.67050000  0.87060000  1.0 -0.0025784164
C  C108  1  0.21370000  0.32950000  0.37060000  1.0 -0.0025784164
C  C109  1  0.15840000  0.12940000  0.89120000  1.0 -0.1260608251
C  C110  1  0.84160000  0.87060000  0.39120000  1.0 -0.1260608251
C  C111  1  0.15840000  0.37060000  0.10880000  1.0 -0.1260608251
C  C112  1  0.84160000  0.62940000  0.60880000  1.0 -0.1260608251
C  C113  1  0.84160000  0.87060000  0.10880000  1.0 -0.1260608251
C  C114  1  0.15840000  0.12940000  0.60880000  1.0 -0.1260608251
C  C115  1  0.84160000  0.62940000  0.89120000  1.0 -0.1260608251
C  C116  1  0.15840000  0.37060000  0.39120000  1.0 -0.1260608251
C  C117  1  0.19130000  0.10850000  0.93780000  1.0 -0.0114952228
C  C118  1  0.80870000  0.89150000  0.43780000  1.0 -0.0114952228
C  C119  1  0.19130000  0.39150000  0.06220000  1.0 -0.0114952228
C  C120  1  0.80870000  0.60850000  0.56220000  1.0 -0.0114952228
C  C121  1  0.80870000  0.89150000  0.06220000  1.0 -0.0114952228
C  C122  1  0.19130000  0.10850000  0.56220000  1.0 -0.0114952228
C  C123  1  0.80870000  0.60850000  0.93780000  1.0 -0.0114952228
C  C124  1  0.19130000  0.39150000  0.43780000  1.0 -0.0114952228
C  C125  1  0.27930000  0.12890000  0.96320000  1.0 -0.2173986559
C  C126  1  0.72070000  0.87110000  0.46320000  1.0 -0.2173986559
C  C127  1  0.27930000  0.37110000  0.03680000  1.0 -0.2173986559
C  C128  1  0.72070000  0.62890000  0.53680000  1.0 -0.2173986559
C  C129  1  0.72070000  0.87110000  0.03680000  1.0 -0.2173986559
C  C130  1  0.27930000  0.12890000  0.53680000  1.0 -0.2173986559
C  C131  1  0.72070000  0.62890000  0.96320000  1.0 -0.2173986559
C  C132  1  0.27930000  0.37110000  0.46320000  1.0 -0.2173986559
C  C133  1  0.17190000  0.19450000  0.82230000  1.0 0.5988740257
C  C134  1  0.82810000  0.80550000  0.32230000  1.0 0.5988740257
C  C135  1  0.17190000  0.30550000  0.17770000  1.0 0.5988740257
C  C136  1  0.82810000  0.69450000  0.67770000  1.0 0.5988740257
C  C137  1  0.82810000  0.80550000  0.17770000  1.0 0.5988740257
C  C138  1  0.17190000  0.19450000  0.67770000  1.0 0.5988740257
C  C139  1  0.82810000  0.69450000  0.82230000  1.0 0.5988740257
C  C140  1  0.17190000  0.30550000  0.32230000  1.0 0.5988740257
C  C141  1  0.12890000  0.06560000  0.96160000  1.0 0.5988740257
C  C142  1  0.87110000  0.93440000  0.46160000  1.0 0.5988740257
C  C143  1  0.12890000  0.43440000  0.03840000  1.0 0.5988740257
C  C144  1  0.87110000  0.56560000  0.53840000  1.0 0.5988740257
C  C145  1  0.87110000  0.93440000  0.03840000  1.0 0.5988740257
C  C146  1  0.12890000  0.06560000  0.53840000  1.0 0.5988740257
C  C147  1  0.87110000  0.56560000  0.96160000  1.0 0.5988740257
C  C148  1  0.12890000  0.43440000  0.46160000  1.0 0.5988740257
O  O1  1  0.04850000  0.19440000  0.19612000  1.0 -0.5063677461
O  O2  1  0.95150000  0.80560000  0.69612000  1.0 -0.5063677461
O  O3  1  0.04850000  0.30560000  0.80388000  1.0 -0.5063677461
O  O4  1  0.95150000  0.69440000  0.30388000  1.0 -0.5063677461
O  O5  1  0.95150000  0.80560000  0.80388000  1.0 -0.5063677461
O  O6  1  0.04850000  0.19440000  0.30388000  1.0 -0.5063677461
O  O7  1  0.95150000  0.69440000  0.19612000  1.0 -0.5063677461
O  O8  1  0.04850000  0.30560000  0.69612000  1.0 -0.5063677461
O  O9  1  0.92560000  0.25630000  0.19660000  1.0 -0.5724457757
O  O10  1  0.07440000  0.74370000  0.69660000  1.0 -0.5724457757
O  O11  1  0.92560000  0.24370000  0.80340000  1.0 -0.5724457757
O  O12  1  0.07440000  0.75630000  0.30340000  1.0 -0.5724457757
O  O13  1  0.07440000  0.74370000  0.80340000  1.0 -0.5724457757
O  O14  1  0.92560000  0.25630000  0.30340000  1.0 -0.5724457757
O  O15  1  0.07440000  0.75630000  0.19660000  1.0 -0.5724457757
O  O16  1  0.92560000  0.24370000  0.69660000  1.0 -0.5724457757
O  O17  1  0.00010000  0.05190000  0.07290000  1.0 -0.5397687287
O  O18  1  0.99990000  0.94810000  0.57290000  1.0 -0.5397687287
O  O19  1  0.00010000  0.44810000  0.92710000  1.0 -0.5397687287
O  O20  1  0.99990000  0.55190000  0.42710000  1.0 -0.5397687287
O  O21  1  0.99990000  0.94810000  0.92710000  1.0 -0.5397687287
O  O22  1  0.00010000  0.05190000  0.42710000  1.0 -0.5397687287
O  O23  1  0.99990000  0.55190000  0.07290000  1.0 -0.5397687287
O  O24  1  0.00010000  0.44810000  0.57290000  1.0 -0.5397687287
O  O25  1  0.87500000  0.06057000  0.01190000  1.0 -0.5397687287
O  O26  1  0.12500000  0.93943000  0.51190000  1.0 -0.5397687287
O  O27  1  0.87500000  0.43943000  0.98810000  1.0 -0.5397687287
O  O28  1  0.12500000  0.56057000  0.48810000  1.0 -0.5397687287
O  O29  1  0.12500000  0.93943000  0.98810000  1.0 -0.5397687287
O  O30  1  0.87500000  0.06057000  0.48810000  1.0 -0.5397687287
O  O31  1  0.12500000  0.56057000  0.01190000  1.0 -0.5397687287
O  O32  1  0.87500000  0.43943000  0.51190000  1.0 -0.5397687287
O  O33  1  0.67440000  0.22205000  0.06060000  1.0 -0.2001538568
O  O34  1  0.32560000  0.77795000  0.56060000  1.0 -0.2001538568
O  O35  1  0.67440000  0.27795000  0.93940000  1.0 -0.2001538568
O  O36  1  0.32560000  0.72205000  0.43940000  1.0 -0.2001538568
O  O37  1  0.32560000  0.77795000  0.93940000  1.0 -0.2001538568
O  O38  1  0.67440000  0.22205000  0.43940000  1.0 -0.2001538568
O  O39  1  0.32560000  0.72205000  0.06060000  1.0 -0.2001538568
O  O40  1  0.67440000  0.27795000  0.56060000  1.0 -0.2001538568
O  O41  1  0.41540000  0.18950000  0.97223000  1.0 -0.2001538568
O  O42  1  0.58460000  0.81050000  0.47223000  1.0 -0.2001538568
O  O43  1  0.41540000  0.31050000  0.02777000  1.0 -0.2001538568
O  O44  1  0.58460000  0.68950000  0.52777000  1.0 -0.2001538568
O  O45  1  0.58460000  0.81050000  0.02777000  1.0 -0.2001538568
O  O46  1  0.41540000  0.18950000  0.52777000  1.0 -0.2001538568
O  O47  1  0.58460000  0.68950000  0.97223000  1.0 -0.2001538568
O  O48  1  0.41540000  0.31050000  0.47223000  1.0 -0.2001538568
O  O49  1  0.21640000  0.23303000  0.80574000  1.0 -0.5194437535
O  O50  1  0.78360000  0.76697000  0.30574000  1.0 -0.5194437535
O  O51  1  0.21640000  0.26697000  0.19426000  1.0 -0.5194437535
O  O52  1  0.78360000  0.73303000  0.69426000  1.0 -0.5194437535
O  O53  1  0.78360000  0.76697000  0.19426000  1.0 -0.5194437535
O  O54  1  0.21640000  0.23303000  0.69426000  1.0 -0.5194437535
O  O55  1  0.78360000  0.73303000  0.80574000  1.0 -0.5194437535
O  O56  1  0.21640000  0.26697000  0.30574000  1.0 -0.5194437535
O  O57  1  0.09060000  0.17250000  0.80270000  1.0 -0.5490535081
O  O58  1  0.90940000  0.82750000  0.30270000  1.0 -0.5490535081
O  O59  1  0.09060000  0.32750000  0.19730000  1.0 -0.5490535081
O  O60  1  0.90940000  0.67250000  0.69730000  1.0 -0.5490535081
O  O61  1  0.90940000  0.82750000  0.19730000  1.0 -0.5490535081
O  O62  1  0.09060000  0.17250000  0.69730000  1.0 -0.5490535081
O  O63  1  0.90940000  0.67250000  0.80270000  1.0 -0.5490535081
O  O64  1  0.09060000  0.32750000  0.30270000  1.0 -0.5490535081
O  O65  1  0.04260000  0.05330000  0.93980000  1.0 -0.5490535081
O  O66  1  0.95740000  0.94670000  0.43980000  1.0 -0.5490535081
O  O67  1  0.04260000  0.44670000  0.06020000  1.0 -0.5490535081
O  O68  1  0.95740000  0.55330000  0.56020000  1.0 -0.5490535081
O  O69  1  0.95740000  0.94670000  0.06020000  1.0 -0.5490535081
O  O70  1  0.04260000  0.05330000  0.56020000  1.0 -0.5490535081
O  O71  1  0.95740000  0.55330000  0.93980000  1.0 -0.5490535081
O  O72  1  0.04260000  0.44670000  0.43980000  1.0 -0.5490535081
O  O73  1  0.16690000  0.04500000  0.00160000  1.0 -0.5490535081
O  O74  1  0.83310000  0.95500000  0.50160000  1.0 -0.5490535081
O  O75  1  0.16690000  0.45500000  0.99840000  1.0 -0.5490535081
O  O76  1  0.83310000  0.54500000  0.49840000  1.0 -0.5490535081
O  O77  1  0.83310000  0.95500000  0.99840000  1.0 -0.5490535081
O  O78  1  0.16690000  0.04500000  0.49840000  1.0 -0.5490535081
O  O79  1  0.83310000  0.54500000  0.00160000  1.0 -0.5490535081
O  O80  1  0.16690000  0.45500000  0.50160000  1.0 -0.5490535081
