# DDEC6 charges by PACMAN v1.1 (https://github.com/mtap-research/PACMAN-charge/)
data_DANROC_ASR_pacman
_symmetry_space_group_name_H-M   'P 1'
_cell_length_a   16.33580000
_cell_length_b   16.33580000
_cell_length_c   16.33580000
_cell_angle_alpha   87.21980000
_cell_angle_beta   87.21980000
_cell_angle_gamma   87.21980000
_symmetry_Int_Tables_number   1
_chemical_formula_structural   Cu3H38C44(NO2)6
_chemical_formula_sum   'Cu9 H114 C132 N18 O36'
_cell_volume   4344.43246799
_cell_formula_units_Z   3
loop_
 _symmetry_equiv_pos_site_id
 _symmetry_equiv_pos_as_xyz
  1  'x, y, z'
loop_
 _atom_site_type_symbol
 _atom_site_label
 _atom_site_symmetry_multiplicity
 _atom_site_fract_x
 _atom_site_fract_y
 _atom_site_fract_z
 _atom_site_occupancy
 _atom_site_charge
Cu  Cu1  1  0.91591000  0.98162000  0.27024000  1.0 0.8052065497
Cu  Cu2  1  0.98162000  0.27024000  0.91591000  1.0 0.8052065497
Cu  Cu3  1  0.27024000  0.91591000  0.98162000  1.0 0.8052065497
Cu  Cu4  1  0.10370000  0.08423000  0.43266000  1.0 0.7330366497
Cu  Cu5  1  0.08423000  0.43266000  0.10370000  1.0 0.7330366497
Cu  Cu6  1  0.43266000  0.10370000  0.08423000  1.0 0.7330366497
Cu  Cu7  1  0.49105000  0.86954000  0.58797000  1.0 0.7193389461
Cu  Cu8  1  0.86954000  0.58797000  0.49105000  1.0 0.7193389461
Cu  Cu9  1  0.58797000  0.49105000  0.86954000  1.0 0.7193389461
H  H1  1  0.65720000  0.09860000  0.21670000  1.0 0.1294625237
H  H2  1  0.09860000  0.21670000  0.65720000  1.0 0.1294625237
H  H3  1  0.21670000  0.65720000  0.09860000  1.0 0.1294625237
H  H4  1  0.68120000  0.12600000  0.30270000  1.0 0.1294625237
H  H5  1  0.12600000  0.30270000  0.68120000  1.0 0.1294625237
H  H6  1  0.30270000  0.68120000  0.12600000  1.0 0.1294625237
H  H7  1  0.59250000  0.98500000  0.28100000  1.0 0.0819964992
H  H8  1  0.98500000  0.28100000  0.59250000  1.0 0.0819964992
H  H9  1  0.28100000  0.59250000  0.98500000  1.0 0.0819964992
H  H10  1  0.61660000  0.05440000  0.43290000  1.0 0.1294625237
H  H11  1  0.05440000  0.43290000  0.61660000  1.0 0.1294625237
H  H12  1  0.43290000  0.61660000  0.05440000  1.0 0.1294625237
H  H13  1  0.67060000  0.97940000  0.40200000  1.0 0.1218960444
H  H14  1  0.97940000  0.40200000  0.67060000  1.0 0.1218960444
H  H15  1  0.40200000  0.67060000  0.97940000  1.0 0.1218960444
H  H16  1  0.52680000  0.13820000  0.33780000  1.0 0.1294625237
H  H17  1  0.13820000  0.33780000  0.52680000  1.0 0.1294625237
H  H18  1  0.33780000  0.52680000  0.13820000  1.0 0.1294625237
H  H19  1  0.47650000  0.05850000  0.34300000  1.0 0.1294625237
H  H20  1  0.05850000  0.34300000  0.47650000  1.0 0.1294625237
H  H21  1  0.34300000  0.47650000  0.05850000  1.0 0.1294625237
H  H22  1  0.86120000  0.92360000  0.99450000  1.0 0.1218960444
H  H23  1  0.92360000  0.99450000  0.86120000  1.0 0.1218960444
H  H24  1  0.99450000  0.86120000  0.92360000  1.0 0.1218960444
H  H25  1  0.85780000  0.01690000  0.01350000  1.0 0.1294625237
H  H26  1  0.01690000  0.01350000  0.85780000  1.0 0.1294625237
H  H27  1  0.01350000  0.85780000  0.01690000  1.0 0.1294625237
H  H28  1  0.00813000  0.00813000  0.00813000  1.0 0.0819964992
H  H29  1  0.03460000  0.09760000  0.16280000  1.0 0.1294625237
H  H30  1  0.09760000  0.16280000  0.03460000  1.0 0.1294625237
H  H31  1  0.16280000  0.03460000  0.09760000  1.0 0.1294625237
H  H32  1  0.03240000  0.18900000  0.18760000  1.0 0.1294625237
H  H33  1  0.18900000  0.18760000  0.03240000  1.0 0.1294625237
H  H34  1  0.18760000  0.03240000  0.18900000  1.0 0.1294625237
H  H35  1  0.18073000  0.18073000  0.18073000  1.0 0.0819964992
H  H36  1  0.75000000  0.77370000  0.60450000  1.0 0.1218960444
H  H37  1  0.77370000  0.60450000  0.75000000  1.0 0.1218960444
H  H38  1  0.60450000  0.75000000  0.77370000  1.0 0.1218960444
H  H39  1  0.75810000  0.81630000  0.68760000  1.0 0.1294625237
H  H40  1  0.81630000  0.68760000  0.75810000  1.0 0.1294625237
H  H41  1  0.68760000  0.75810000  0.81630000  1.0 0.1294625237
H  H42  1  0.67110000  0.67110000  0.67110000  1.0 0.0819964992
H  H43  1  0.81290000  0.99800000  0.43280000  1.0 0.1218960444
H  H44  1  0.99800000  0.43280000  0.81290000  1.0 0.1218960444
H  H45  1  0.43280000  0.81290000  0.99800000  1.0 0.1218960444
H  H46  1  0.80730000  0.93200000  0.56050000  1.0 0.1419929262
H  H47  1  0.93200000  0.56050000  0.80730000  1.0 0.1419929262
H  H48  1  0.56050000  0.80730000  0.93200000  1.0 0.1419929262
H  H49  1  0.90100000  0.82700000  0.59040000  1.0 0.1294625237
H  H50  1  0.82700000  0.59040000  0.90100000  1.0 0.1294625237
H  H51  1  0.59040000  0.90100000  0.82700000  1.0 0.1294625237
H  H52  1  0.00100000  0.78840000  0.49090000  1.0 0.1419929262
H  H53  1  0.78840000  0.49090000  0.00100000  1.0 0.1419929262
H  H54  1  0.49090000  0.00100000  0.78840000  1.0 0.1419929262
H  H55  1  0.10460000  0.78160000  0.39950000  1.0 0.1218960444
H  H56  1  0.78160000  0.39950000  0.10460000  1.0 0.1218960444
H  H57  1  0.39950000  0.10460000  0.78160000  1.0 0.1218960444
H  H58  1  0.19940000  0.76630000  0.28700000  1.0 0.1218960444
H  H59  1  0.76630000  0.28700000  0.19940000  1.0 0.1218960444
H  H60  1  0.28700000  0.19940000  0.76630000  1.0 0.1218960444
H  H61  1  0.17850000  0.84170000  0.16620000  1.0 0.1579484903
H  H62  1  0.84170000  0.16620000  0.17850000  1.0 0.1579484903
H  H63  1  0.16620000  0.17850000  0.84170000  1.0 0.1579484903
H  H64  1  0.06050000  0.92390000  0.15580000  1.0 0.1218960444
H  H65  1  0.92390000  0.15580000  0.06050000  1.0 0.1218960444
H  H66  1  0.15580000  0.06050000  0.92390000  1.0 0.1218960444
H  H67  1  0.97550000  0.09860000  0.57370000  1.0 0.1294625237
H  H68  1  0.09860000  0.57370000  0.97550000  1.0 0.1294625237
H  H69  1  0.57370000  0.97550000  0.09860000  1.0 0.1294625237
H  H70  1  0.93820000  0.02320000  0.69480000  1.0 0.1488053436
H  H71  1  0.02320000  0.69480000  0.93820000  1.0 0.1488053436
H  H72  1  0.69480000  0.93820000  0.02320000  1.0 0.1488053436
H  H73  1  0.01840000  0.90650000  0.72800000  1.0 0.1419929262
H  H74  1  0.90650000  0.72800000  0.01840000  1.0 0.1419929262
H  H75  1  0.72800000  0.01840000  0.90650000  1.0 0.1419929262
H  H76  1  0.11520000  0.85800000  0.63830000  1.0 0.1419929262
H  H77  1  0.85800000  0.63830000  0.11520000  1.0 0.1419929262
H  H78  1  0.63830000  0.11520000  0.85800000  1.0 0.1419929262
H  H79  1  0.22030000  0.82250000  0.54560000  1.0 0.1294625237
H  H80  1  0.82250000  0.54560000  0.22030000  1.0 0.1294625237
H  H81  1  0.54560000  0.22030000  0.82250000  1.0 0.1294625237
H  H82  1  0.31900000  0.80280000  0.45520000  1.0 0.1294625237
H  H83  1  0.80280000  0.45520000  0.31900000  1.0 0.1294625237
H  H84  1  0.45520000  0.31900000  0.80280000  1.0 0.1294625237
H  H85  1  0.34300000  0.90450000  0.33730000  1.0 0.1579484903
H  H86  1  0.90450000  0.33730000  0.34300000  1.0 0.1579484903
H  H87  1  0.33730000  0.34300000  0.90450000  1.0 0.1579484903
H  H88  1  0.24330000  0.01330000  0.32880000  1.0 0.1294625237
H  H89  1  0.01330000  0.32880000  0.24330000  1.0 0.1294625237
H  H90  1  0.32880000  0.24330000  0.01330000  1.0 0.1294625237
H  H91  1  0.40180000  0.03260000  0.53000000  1.0 0.1218960444
H  H92  1  0.03260000  0.53000000  0.40180000  1.0 0.1218960444
H  H93  1  0.53000000  0.40180000  0.03260000  1.0 0.1218960444
H  H94  1  0.28210000  0.10730000  0.56810000  1.0 0.1488053436
H  H95  1  0.10730000  0.56810000  0.28210000  1.0 0.1488053436
H  H96  1  0.56810000  0.28210000  0.10730000  1.0 0.1488053436
H  H97  1  0.19510000  0.05310000  0.66880000  1.0 0.1294625237
H  H98  1  0.05310000  0.66880000  0.19510000  1.0 0.1294625237
H  H99  1  0.66880000  0.19510000  0.05310000  1.0 0.1294625237
H  H100  1  0.23210000  0.93220000  0.74040000  1.0 0.1419929262
H  H101  1  0.93220000  0.74040000  0.23210000  1.0 0.1419929262
H  H102  1  0.74040000  0.23210000  0.93220000  1.0 0.1419929262
H  H103  1  0.27710000  0.81510000  0.79870000  1.0 0.1488053436
H  H104  1  0.81510000  0.79870000  0.27710000  1.0 0.1488053436
H  H105  1  0.79870000  0.27710000  0.81510000  1.0 0.1488053436
H  H106  1  0.32430000  0.68290000  0.84170000  1.0 0.1294625237
H  H107  1  0.68290000  0.84170000  0.32430000  1.0 0.1294625237
H  H108  1  0.84170000  0.32430000  0.68290000  1.0 0.1294625237
H  H109  1  0.44150000  0.62550000  0.77590000  1.0 0.1419929262
H  H110  1  0.62550000  0.77590000  0.44150000  1.0 0.1419929262
H  H111  1  0.77590000  0.44150000  0.62550000  1.0 0.1419929262
H  H112  1  0.50830000  0.70190000  0.67170000  1.0 0.1218960444
H  H113  1  0.70190000  0.67170000  0.50830000  1.0 0.1218960444
H  H114  1  0.67170000  0.50830000  0.70190000  1.0 0.1218960444
C  C1  1  0.74990000  0.02510000  0.26500000  1.0 0.6114472871
C  C2  1  0.02510000  0.26500000  0.74990000  1.0 0.6114472871
C  C3  1  0.26500000  0.74990000  0.02510000  1.0 0.6114472871
C  C4  1  0.67140000  0.07870000  0.27130000  1.0 -0.3802735706
C  C5  1  0.07870000  0.27130000  0.67140000  1.0 -0.3802735706
C  C6  1  0.27130000  0.67140000  0.07870000  1.0 -0.3802735706
C  C7  1  0.60010000  0.03380000  0.31160000  1.0 0.0979455536
C  C8  1  0.03380000  0.31160000  0.60010000  1.0 0.0979455536
C  C9  1  0.31160000  0.60010000  0.03380000  1.0 0.0979455536
C  C10  1  0.61640000  0.00620000  0.40060000  1.0 -0.3699597841
C  C11  1  0.00620000  0.40060000  0.61640000  1.0 -0.3699597841
C  C12  1  0.40060000  0.61640000  0.00620000  1.0 -0.3699597841
C  C13  1  0.55480000  0.94820000  0.44040000  1.0 0.6214268663
C  C14  1  0.94820000  0.44040000  0.55480000  1.0 0.6214268663
C  C15  1  0.44040000  0.55480000  0.94820000  1.0 0.6214268663
C  C16  1  0.51900000  0.08730000  0.31160000  1.0 -0.3699597841
C  C17  1  0.08730000  0.31160000  0.51900000  1.0 -0.3699597841
C  C18  1  0.31160000  0.51900000  0.08730000  1.0 -0.3699597841
C  C19  1  0.49170000  0.10630000  0.22540000  1.0 0.6291096335
C  C20  1  0.10630000  0.22540000  0.49170000  1.0 0.6291096335
C  C21  1  0.22540000  0.49170000  0.10630000  1.0 0.6291096335
C  C22  1  0.89908000  0.94298000  0.11028000  1.0 0.6214268663
C  C23  1  0.94298000  0.11028000  0.89908000  1.0 0.6214268663
C  C24  1  0.11028000  0.89908000  0.94298000  1.0 0.6214268663
C  C25  1  0.88999000  0.96579000  0.01949000  1.0 -0.3802735706
C  C26  1  0.96579000  0.01949000  0.88999000  1.0 -0.3802735706
C  C27  1  0.01949000  0.88999000  0.96579000  1.0 -0.3802735706
C  C28  1  0.97503000  0.97503000  0.97503000  1.0 0.1218960444
C  C29  1  0.06516000  0.10896000  0.28066000  1.0 0.6397267108
C  C30  1  0.10896000  0.28066000  0.06516000  1.0 0.6397267108
C  C31  1  0.28066000  0.06516000  0.10896000  1.0 0.6397267108
C  C32  1  0.06361000  0.13701000  0.19161000  1.0 -0.3802735706
C  C33  1  0.13701000  0.19161000  0.06361000  1.0 -0.3802735706
C  C34  1  0.19161000  0.06361000  0.13701000  1.0 -0.3802735706
C  C35  1  0.14763000  0.14763000  0.14763000  1.0 0.1419929262
C  C36  1  0.64380000  0.83650000  0.64160000  1.0 0.6214268663
C  C37  1  0.83650000  0.64160000  0.64380000  1.0 0.6214268663
C  C38  1  0.64160000  0.64380000  0.83650000  1.0 0.6214268663
C  C39  1  0.72200000  0.78530000  0.65660000  1.0 -0.3802735706
C  C40  1  0.78530000  0.65660000  0.72200000  1.0 -0.3802735706
C  C41  1  0.65660000  0.72200000  0.78530000  1.0 -0.3802735706
C  C42  1  0.70420000  0.70420000  0.70420000  1.0 0.1066619868
C  C43  1  0.85120000  0.95570000  0.44460000  1.0 0.0979455536
C  C44  1  0.95570000  0.44460000  0.85120000  1.0 0.0979455536
C  C45  1  0.44460000  0.85120000  0.95570000  1.0 0.0979455536
C  C46  1  0.84750000  0.91620000  0.52140000  1.0 -0.1378914838
C  C47  1  0.91620000  0.52140000  0.84750000  1.0 -0.1378914838
C  C48  1  0.52140000  0.84750000  0.91620000  1.0 -0.1378914838
C  C49  1  0.90300000  0.85420000  0.53900000  1.0 -0.0234751987
C  C50  1  0.85420000  0.53900000  0.90300000  1.0 -0.0234751987
C  C51  1  0.53900000  0.90300000  0.85420000  1.0 -0.0234751987
C  C52  1  0.96310000  0.83160000  0.48020000  1.0 -0.1777578418
C  C53  1  0.83160000  0.48020000  0.96310000  1.0 -0.1777578418
C  C54  1  0.48020000  0.96310000  0.83160000  1.0 -0.1777578418
C  C55  1  0.96520000  0.87510000  0.40460000  1.0 0.1579484903
C  C56  1  0.87510000  0.40460000  0.96520000  1.0 0.1579484903
C  C57  1  0.40460000  0.96520000  0.87510000  1.0 0.1579484903
C  C58  1  0.02940000  0.86060000  0.33900000  1.0 0.1488053436
C  C59  1  0.86060000  0.33900000  0.02940000  1.0 0.1488053436
C  C60  1  0.33900000  0.02940000  0.86060000  1.0 0.1488053436
C  C61  1  0.09630000  0.80990000  0.34950000  1.0 -0.1777578418
C  C62  1  0.80990000  0.34950000  0.09630000  1.0 -0.1777578418
C  C63  1  0.34950000  0.09630000  0.80990000  1.0 -0.1777578418
C  C64  1  0.15330000  0.80160000  0.28220000  1.0 -0.0376253898
C  C65  1  0.80160000  0.28220000  0.15330000  1.0 -0.0376253898
C  C66  1  0.28220000  0.15330000  0.80160000  1.0 -0.0376253898
C  C67  1  0.14060000  0.84530000  0.21040000  1.0 -0.1207710939
C  C68  1  0.84530000  0.21040000  0.14060000  1.0 -0.1207710939
C  C69  1  0.21040000  0.14060000  0.84530000  1.0 -0.1207710939
C  C70  1  0.07030000  0.89490000  0.20500000  1.0 0.0979455536
C  C71  1  0.89490000  0.20500000  0.07030000  1.0 0.0979455536
C  C72  1  0.20500000  0.07030000  0.89490000  1.0 0.0979455536
C  C73  1  0.00420000  0.04970000  0.58700000  1.0 0.0979455536
C  C74  1  0.04970000  0.58700000  0.00420000  1.0 0.0979455536
C  C75  1  0.58700000  0.00420000  0.04970000  1.0 0.0979455536
C  C76  1  0.98190000  0.00550000  0.66040000  1.0 -0.1378914838
C  C77  1  0.00550000  0.66040000  0.98190000  1.0 -0.1378914838
C  C78  1  0.66040000  0.98190000  0.00550000  1.0 -0.1378914838
C  C79  1  0.02820000  0.93530000  0.67830000  1.0 -0.0304989169
C  C80  1  0.93530000  0.67830000  0.02820000  1.0 -0.0304989169
C  C81  1  0.67830000  0.02820000  0.93530000  1.0 -0.0304989169
C  C82  1  0.08640000  0.90740000  0.62640000  1.0 -0.1681145156
C  C83  1  0.90740000  0.62640000  0.08640000  1.0 -0.1681145156
C  C84  1  0.62640000  0.08640000  0.90740000  1.0 -0.1681145156
C  C85  1  0.10430000  0.95280000  0.55410000  1.0 0.1488053436
C  C86  1  0.95280000  0.55410000  0.10430000  1.0 0.1488053436
C  C87  1  0.55410000  0.10430000  0.95280000  1.0 0.1488053436
C  C88  1  0.17040000  0.93320000  0.49470000  1.0 0.1066619868
C  C89  1  0.93320000  0.49470000  0.17040000  1.0 0.1066619868
C  C90  1  0.49470000  0.17040000  0.93320000  1.0 0.1066619868
C  C91  1  0.22710000  0.86040000  0.50180000  1.0 -0.1587526227
C  C92  1  0.86040000  0.50180000  0.22710000  1.0 -0.1587526227
C  C93  1  0.50180000  0.22710000  0.86040000  1.0 -0.1587526227
C  C94  1  0.28430000  0.84940000  0.44960000  1.0 -0.0497332017
C  C95  1  0.84940000  0.44960000  0.28430000  1.0 -0.0497332017
C  C96  1  0.44960000  0.28430000  0.84940000  1.0 -0.0497332017
C  C97  1  0.29950000  0.91040000  0.37580000  1.0 -0.1378914838
C  C98  1  0.91040000  0.37580000  0.29950000  1.0 -0.1378914838
C  C99  1  0.37580000  0.29950000  0.91040000  1.0 -0.1378914838
C  C100  1  0.24020000  0.97560000  0.37320000  1.0 0.1066619868
C  C101  1  0.97560000  0.37320000  0.24020000  1.0 0.1066619868
C  C102  1  0.37320000  0.24020000  0.97560000  1.0 0.1066619868
C  C103  1  0.36790000  0.01230000  0.57280000  1.0 0.0979455536
C  C104  1  0.01230000  0.57280000  0.36790000  1.0 0.0979455536
C  C105  1  0.57280000  0.36790000  0.01230000  1.0 0.0979455536
C  C106  1  0.29530000  0.05710000  0.59460000  1.0 -0.134082146
C  C107  1  0.05710000  0.59460000  0.29530000  1.0 -0.134082146
C  C108  1  0.59460000  0.29530000  0.05710000  1.0 -0.134082146
C  C109  1  0.24470000  0.02530000  0.65540000  1.0 -0.0376253898
C  C110  1  0.02530000  0.65540000  0.24470000  1.0 -0.0376253898
C  C111  1  0.65540000  0.24470000  0.02530000  1.0 -0.0376253898
C  C112  1  0.26570000  0.95310000  0.69760000  1.0 -0.1777578418
C  C113  1  0.95310000  0.69760000  0.26570000  1.0 -0.1777578418
C  C114  1  0.69760000  0.26570000  0.95310000  1.0 -0.1777578418
C  C115  1  0.33910000  0.91260000  0.67340000  1.0 0.1579484903
C  C116  1  0.91260000  0.67340000  0.33910000  1.0 0.1579484903
C  C117  1  0.67340000  0.33910000  0.91260000  1.0 0.1579484903
C  C118  1  0.36540000  0.83240000  0.70990000  1.0 0.1419929262
C  C119  1  0.83240000  0.70990000  0.36540000  1.0 0.1419929262
C  C120  1  0.70990000  0.36540000  0.83240000  1.0 0.1419929262
C  C121  1  0.32380000  0.79080000  0.77330000  1.0 -0.1547888542
C  C122  1  0.79080000  0.77330000  0.32380000  1.0 -0.1547888542
C  C123  1  0.77330000  0.32380000  0.79080000  1.0 -0.1547888542
C  C124  1  0.35200000  0.71180000  0.79920000  1.0 -0.0127792756
C  C125  1  0.71180000  0.79920000  0.35200000  1.0 -0.0127792756
C  C126  1  0.79920000  0.35200000  0.71180000  1.0 -0.0127792756
C  C127  1  0.42140000  0.67800000  0.76060000  1.0 -0.1207710939
C  C128  1  0.67800000  0.76060000  0.42140000  1.0 -0.1207710939
C  C129  1  0.76060000  0.42140000  0.67800000  1.0 -0.1207710939
C  C130  1  0.46110000  0.72450000  0.69750000  1.0 0.0979455536
C  C131  1  0.72450000  0.69750000  0.46110000  1.0 0.0979455536
C  C132  1  0.69750000  0.46110000  0.72450000  1.0 0.0979455536
N  N1  1  0.90803000  0.93493000  0.38643000  1.0 -0.2621104295
N  N2  1  0.93493000  0.38643000  0.90803000  1.0 -0.2621104295
N  N3  1  0.38643000  0.90803000  0.93493000  1.0 -0.2621104295
N  N4  1  0.01569000  0.90299000  0.26769000  1.0 -0.2528534109
N  N5  1  0.90299000  0.26769000  0.01569000  1.0 -0.2528534109
N  N6  1  0.26769000  0.01569000  0.90299000  1.0 -0.2528534109
N  N7  1  0.06520000  0.02390000  0.53620000  1.0 -0.2621104295
N  N8  1  0.02390000  0.53620000  0.06520000  1.0 -0.2621104295
N  N9  1  0.53620000  0.06520000  0.02390000  1.0 -0.2621104295
N  N10  1  0.18110000  0.98700000  0.42900000  1.0 -0.2621104295
N  N11  1  0.98700000  0.42900000  0.18110000  1.0 -0.2621104295
N  N12  1  0.42900000  0.18110000  0.98700000  1.0 -0.2621104295
N  N13  1  0.38970000  0.94120000  0.61190000  1.0 -0.2890978728
N  N14  1  0.94120000  0.61190000  0.38970000  1.0 -0.2890978728
N  N15  1  0.61190000  0.38970000  0.94120000  1.0 -0.2890978728
N  N16  1  0.43400000  0.79900000  0.67290000  1.0 -0.2830383653
N  N17  1  0.79900000  0.67290000  0.43400000  1.0 -0.2830383653
N  N18  1  0.67290000  0.43400000  0.79900000  1.0 -0.2830383653
O  O1  1  0.81725000  0.05465000  0.28525000  1.0 -0.5597931917
O  O2  1  0.05465000  0.28525000  0.81725000  1.0 -0.5597931917
O  O3  1  0.28525000  0.81725000  0.05465000  1.0 -0.5597931917
O  O4  1  0.74690000  0.95620000  0.24030000  1.0 -0.5482950683
O  O5  1  0.95620000  0.24030000  0.74690000  1.0 -0.5482950683
O  O6  1  0.24030000  0.74690000  0.95620000  1.0 -0.5482950683
O  O7  1  0.54060000  0.95150000  0.51460000  1.0 -0.5118039722
O  O8  1  0.95150000  0.51460000  0.54060000  1.0 -0.5118039722
O  O9  1  0.51460000  0.54060000  0.95150000  1.0 -0.5118039722
O  O10  1  0.52260000  0.89810000  0.39820000  1.0 -0.5802068984
O  O11  1  0.89810000  0.39820000  0.52260000  1.0 -0.5802068984
O  O12  1  0.39820000  0.52260000  0.89810000  1.0 -0.5802068984
O  O13  1  0.50050000  0.17570000  0.19160000  1.0 -0.5994035477
O  O14  1  0.17570000  0.19160000  0.50050000  1.0 -0.5994035477
O  O15  1  0.19160000  0.50050000  0.17570000  1.0 -0.5994035477
O  O16  1  0.46000000  0.04860000  0.18850000  1.0 -0.5338165636
O  O17  1  0.04860000  0.18850000  0.46000000  1.0 -0.5338165636
O  O18  1  0.18850000  0.46000000  0.04860000  1.0 -0.5338165636
O  O19  1  0.91820000  0.00354000  0.15258000  1.0 -0.5597931917
O  O20  1  0.00354000  0.15258000  0.91820000  1.0 -0.5597931917
O  O21  1  0.15258000  0.91820000  0.00354000  1.0 -0.5597931917
O  O22  1  0.89120000  0.87200000  0.13880000  1.0 -0.5906416053
O  O23  1  0.87200000  0.13880000  0.89120000  1.0 -0.5906416053
O  O24  1  0.13880000  0.89120000  0.87200000  1.0 -0.5906416053
O  O25  1  0.00464000  0.07474000  0.31534000  1.0 -0.6181303138
O  O26  1  0.07474000  0.31534000  0.00464000  1.0 -0.6181303138
O  O27  1  0.31534000  0.00464000  0.07474000  1.0 -0.6181303138
O  O28  1  0.12877000  0.12207000  0.31947000  1.0 -0.5197681064
O  O29  1  0.12207000  0.31947000  0.12877000  1.0 -0.5197681064
O  O30  1  0.31947000  0.12877000  0.12207000  1.0 -0.5197681064
O  O31  1  0.59358000  0.80478000  0.59628000  1.0 -0.5482950683
O  O32  1  0.80478000  0.59628000  0.59358000  1.0 -0.5482950683
O  O33  1  0.59628000  0.59358000  0.80478000  1.0 -0.5482950683
O  O34  1  0.63025000  0.90345000  0.67385000  1.0 -0.5906416053
O  O35  1  0.90345000  0.67385000  0.63025000  1.0 -0.5906416053
O  O36  1  0.67385000  0.63025000  0.90345000  1.0 -0.5906416053
