# DDEC6 charges by PACMAN v1.1 (https://github.com/mtap-research/PACMAN-charge/)
data_DANZID_ASR_pacman
_symmetry_space_group_name_H-M   'P 1'
_cell_length_a   29.28460000
_cell_length_b   29.28460000
_cell_length_c   9.99410000
_cell_angle_alpha   90.00000000
_cell_angle_beta   90.00000000
_cell_angle_gamma   90.00000000
_symmetry_Int_Tables_number   1
_chemical_formula_structural   CdCu2H14C30(ClO3)4
_chemical_formula_sum   'Cd4 Cu8 H56 C120 Cl16 O48'
_cell_volume   8570.81820360
_cell_formula_units_Z   4
loop_
 _symmetry_equiv_pos_site_id
 _symmetry_equiv_pos_as_xyz
  1  'x, y, z'
loop_
 _atom_site_type_symbol
 _atom_site_label
 _atom_site_symmetry_multiplicity
 _atom_site_fract_x
 _atom_site_fract_y
 _atom_site_fract_z
 _atom_site_occupancy
 _atom_site_charge
Cd  Cd1  1  0.25000000  0.25000000  0.00000000  1.0 0.8423587615
Cd  Cd2  1  0.75000000  0.75000000  0.00000000  1.0 0.8423587615
Cd  Cd3  1  0.75000000  0.25000000  0.00000000  1.0 0.8423587615
Cd  Cd4  1  0.25000000  0.75000000  0.00000000  1.0 0.8423587615
Cu  Cu1  1  0.34791000  0.25710000  0.21312000  1.0 0.7657475704
Cu  Cu2  1  0.65209000  0.74290000  0.21312000  1.0 0.7657475704
Cu  Cu3  1  0.75710000  0.15209000  0.21312000  1.0 0.7657475704
Cu  Cu4  1  0.24290000  0.84791000  0.21312000  1.0 0.7657475704
Cu  Cu5  1  0.15209000  0.24290000  0.78688000  1.0 0.7657475704
Cu  Cu6  1  0.84791000  0.75710000  0.78688000  1.0 0.7657475704
Cu  Cu7  1  0.74290000  0.34791000  0.78688000  1.0 0.7657475704
Cu  Cu8  1  0.25710000  0.65209000  0.78688000  1.0 0.7657475704
H  H1  1  0.27060000  0.52750000  0.46930000  1.0 0.1110175137
H  H2  1  0.72940000  0.47250000  0.46930000  1.0 0.1110175137
H  H3  1  0.02750000  0.22940000  0.46930000  1.0 0.1110175137
H  H4  1  0.97250000  0.77060000  0.46930000  1.0 0.1110175137
H  H5  1  0.22940000  0.97250000  0.53070000  1.0 0.1110175137
H  H6  1  0.77060000  0.02750000  0.53070000  1.0 0.1110175137
H  H7  1  0.47250000  0.27060000  0.53070000  1.0 0.1110175137
H  H8  1  0.52750000  0.72940000  0.53070000  1.0 0.1110175137
H  H9  1  0.25600000  0.65590000  0.34140000  1.0 0.1217420588
H  H10  1  0.74400000  0.34410000  0.34140000  1.0 0.1217420588
H  H11  1  0.15590000  0.24400000  0.34140000  1.0 0.1217420588
H  H12  1  0.84410000  0.75600000  0.34140000  1.0 0.1217420588
H  H13  1  0.24400000  0.84410000  0.65860000  1.0 0.1217420588
H  H14  1  0.75600000  0.15590000  0.65860000  1.0 0.1217420588
H  H15  1  0.34410000  0.25600000  0.65860000  1.0 0.1217420588
H  H16  1  0.65590000  0.74400000  0.65860000  1.0 0.1217420588
H  H17  1  0.25890000  0.55370000  0.07870000  1.0 0.1217420588
H  H18  1  0.74110000  0.44630000  0.07870000  1.0 0.1217420588
H  H19  1  0.05370000  0.24110000  0.07870000  1.0 0.1217420588
H  H20  1  0.94630000  0.75890000  0.07870000  1.0 0.1217420588
H  H21  1  0.24110000  0.94630000  0.92130000  1.0 0.1217420588
H  H22  1  0.75890000  0.05370000  0.92130000  1.0 0.1217420588
H  H23  1  0.44630000  0.25890000  0.92130000  1.0 0.1217420588
H  H24  1  0.55370000  0.74110000  0.92130000  1.0 0.1217420588
H  H25  1  0.22620000  0.47510000  0.09670000  1.0 0.1110175137
H  H26  1  0.77380000  0.52490000  0.09670000  1.0 0.1110175137
H  H27  1  0.97510000  0.27380000  0.09670000  1.0 0.1110175137
H  H28  1  0.02490000  0.72620000  0.09670000  1.0 0.1110175137
H  H29  1  0.27380000  0.02490000  0.90330000  1.0 0.1110175137
H  H30  1  0.72620000  0.97510000  0.90330000  1.0 0.1110175137
H  H31  1  0.52490000  0.22620000  0.90330000  1.0 0.1110175137
H  H32  1  0.47510000  0.77380000  0.90330000  1.0 0.1110175137
H  H33  1  0.24020000  0.39970000  0.04640000  1.0 0.1284201118
H  H34  1  0.75980000  0.60030000  0.04640000  1.0 0.1284201118
H  H35  1  0.89970000  0.25980000  0.04640000  1.0 0.1284201118
H  H36  1  0.10030000  0.74020000  0.04640000  1.0 0.1284201118
H  H37  1  0.25980000  0.10030000  0.95360000  1.0 0.1284201118
H  H38  1  0.74020000  0.89970000  0.95360000  1.0 0.1284201118
H  H39  1  0.60030000  0.24020000  0.95360000  1.0 0.1284201118
H  H40  1  0.39970000  0.75980000  0.95360000  1.0 0.1284201118
H  H41  1  0.33560000  0.39660000  0.33480000  1.0 0.1284201118
H  H42  1  0.66440000  0.60340000  0.33480000  1.0 0.1284201118
H  H43  1  0.89660000  0.16440000  0.33480000  1.0 0.1284201118
H  H44  1  0.10340000  0.83560000  0.33480000  1.0 0.1284201118
H  H45  1  0.16440000  0.10340000  0.66520000  1.0 0.1284201118
H  H46  1  0.83560000  0.89660000  0.66520000  1.0 0.1284201118
H  H47  1  0.60340000  0.33560000  0.66520000  1.0 0.1284201118
H  H48  1  0.39660000  0.66440000  0.66520000  1.0 0.1284201118
H  H49  1  0.31840000  0.47130000  0.38700000  1.0 0.1110175137
H  H50  1  0.68160000  0.52870000  0.38700000  1.0 0.1110175137
H  H51  1  0.97130000  0.18160000  0.38700000  1.0 0.1110175137
H  H52  1  0.02870000  0.81840000  0.38700000  1.0 0.1110175137
H  H53  1  0.18160000  0.02870000  0.61300000  1.0 0.1110175137
H  H54  1  0.81840000  0.97130000  0.61300000  1.0 0.1110175137
H  H55  1  0.52870000  0.31840000  0.61300000  1.0 0.1110175137
H  H56  1  0.47130000  0.68160000  0.61300000  1.0 0.1110175137
C  C1  1  0.26630000  0.54800000  0.39950000  1.0 -0.1396408972
C  C2  1  0.73370000  0.45200000  0.39950000  1.0 -0.1396408972
C  C3  1  0.04800000  0.23370000  0.39950000  1.0 -0.1396408972
C  C4  1  0.95200000  0.76630000  0.39950000  1.0 -0.1396408972
C  C5  1  0.23370000  0.95200000  0.60050000  1.0 -0.1396408972
C  C6  1  0.76630000  0.04800000  0.60050000  1.0 -0.1396408972
C  C7  1  0.45200000  0.26630000  0.60050000  1.0 -0.1396408972
C  C8  1  0.54800000  0.73370000  0.60050000  1.0 -0.1396408972
C  C9  1  0.25710000  0.62480000  0.32320000  1.0 -0.1075373162
C  C10  1  0.74290000  0.37520000  0.32320000  1.0 -0.1075373162
C  C11  1  0.12480000  0.24290000  0.32320000  1.0 -0.1075373162
C  C12  1  0.87520000  0.75710000  0.32320000  1.0 -0.1075373162
C  C13  1  0.24290000  0.87520000  0.67680000  1.0 -0.1075373162
C  C14  1  0.75710000  0.12480000  0.67680000  1.0 -0.1075373162
C  C15  1  0.37520000  0.25710000  0.67680000  1.0 -0.1075373162
C  C16  1  0.62480000  0.74290000  0.67680000  1.0 -0.1075373162
C  C17  1  0.25540000  0.60980000  0.19260000  1.0 -0.0351733612
C  C18  1  0.74460000  0.39020000  0.19260000  1.0 -0.0351733612
C  C19  1  0.10980000  0.24460000  0.19260000  1.0 -0.0351733612
C  C20  1  0.89020000  0.75540000  0.19260000  1.0 -0.0351733612
C  C21  1  0.24460000  0.89020000  0.80740000  1.0 -0.0351733612
C  C22  1  0.75540000  0.10980000  0.80740000  1.0 -0.0348587194
C  C23  1  0.39020000  0.25540000  0.80740000  1.0 -0.0348587194
C  C24  1  0.60980000  0.74460000  0.80740000  1.0 -0.0348587194
C  C25  1  0.25980000  0.56400000  0.16660000  1.0 -0.1396408972
C  C26  1  0.74020000  0.43600000  0.16660000  1.0 -0.1396408972
C  C27  1  0.06400000  0.24020000  0.16660000  1.0 -0.1396408972
C  C28  1  0.93600000  0.75980000  0.16660000  1.0 -0.1396408972
C  C29  1  0.24020000  0.93600000  0.83340000  1.0 -0.1396408972
C  C30  1  0.75980000  0.06400000  0.83340000  1.0 -0.1396408972
C  C31  1  0.43600000  0.25980000  0.83340000  1.0 -0.1396408972
C  C32  1  0.56400000  0.74020000  0.83340000  1.0 -0.1396408972
C  C33  1  0.26050000  0.59360000  0.42850000  1.0 -0.0012131277
C  C34  1  0.73950000  0.40640000  0.42850000  1.0 -0.0012131277
C  C35  1  0.09360000  0.23950000  0.42850000  1.0 -0.0012131277
C  C36  1  0.90640000  0.76050000  0.42850000  1.0 -0.0012131277
C  C37  1  0.23950000  0.90640000  0.57150000  1.0 -0.0012131277
C  C38  1  0.76050000  0.09360000  0.57150000  1.0 -0.0012131277
C  C39  1  0.40640000  0.26050000  0.57150000  1.0 -0.0012131277
C  C40  1  0.59360000  0.73950000  0.57150000  1.0 -0.0012131277
C  C41  1  0.24870000  0.45920000  0.14280000  1.0 -0.1469147457
C  C42  1  0.75130000  0.54080000  0.14280000  1.0 -0.1469147457
C  C43  1  0.95920000  0.25130000  0.14280000  1.0 -0.1469147457
C  C44  1  0.04080000  0.74870000  0.14280000  1.0 -0.1469147457
C  C45  1  0.25130000  0.04080000  0.85720000  1.0 -0.1469147457
C  C46  1  0.74870000  0.95920000  0.85720000  1.0 -0.1469147457
C  C47  1  0.54080000  0.24870000  0.85720000  1.0 -0.1469147457
C  C48  1  0.45920000  0.75130000  0.85720000  1.0 -0.1469147457
C  C49  1  0.28890000  0.39010000  0.18540000  1.0 -0.0155049125
C  C50  1  0.71110000  0.60990000  0.18540000  1.0 -0.0146837276
C  C51  1  0.89010000  0.21110000  0.18540000  1.0 -0.0146837276
C  C52  1  0.10990000  0.78890000  0.18540000  1.0 -0.0155049125
C  C53  1  0.21110000  0.10990000  0.81460000  1.0 -0.0146837276
C  C54  1  0.78890000  0.89010000  0.81460000  1.0 -0.0146837276
C  C55  1  0.60990000  0.28890000  0.81460000  1.0 -0.0146837276
C  C56  1  0.39010000  0.71110000  0.81460000  1.0 -0.0155049125
C  C57  1  0.27470000  0.48180000  0.24220000  1.0 0.0708503136
C  C58  1  0.72530000  0.51820000  0.24220000  1.0 0.0708503136
C  C59  1  0.98180000  0.22530000  0.24220000  1.0 0.0708503136
C  C60  1  0.01820000  0.77470000  0.24220000  1.0 0.0708503136
C  C61  1  0.22530000  0.01820000  0.75780000  1.0 0.0708503136
C  C62  1  0.77470000  0.98180000  0.75780000  1.0 0.0708503136
C  C63  1  0.51820000  0.27470000  0.75780000  1.0 0.0708503136
C  C64  1  0.48180000  0.72530000  0.75780000  1.0 0.0708503136
C  C65  1  0.25200000  0.64350000  0.08060000  1.0 0.5839825058
C  C66  1  0.74800000  0.35650000  0.08060000  1.0 0.5839825058
C  C67  1  0.14350000  0.24800000  0.08060000  1.0 0.5839825058
C  C68  1  0.85650000  0.75200000  0.08060000  1.0 0.5839825058
C  C69  1  0.24800000  0.85650000  0.91940000  1.0 0.5839825058
C  C70  1  0.75200000  0.14350000  0.91940000  1.0 0.5839825058
C  C71  1  0.35650000  0.25200000  0.91940000  1.0 0.5839825058
C  C72  1  0.64350000  0.74800000  0.91940000  1.0 0.5839825058
C  C73  1  0.26060000  0.61360000  0.57030000  1.0 0.5423549274
C  C74  1  0.73940000  0.38640000  0.57030000  1.0 0.5423549274
C  C75  1  0.11360000  0.23940000  0.57030000  1.0 0.5423549274
C  C76  1  0.88640000  0.76060000  0.57030000  1.0 0.5423549274
C  C77  1  0.23940000  0.88640000  0.42970000  1.0 0.5423549274
C  C78  1  0.76060000  0.11360000  0.42970000  1.0 0.5423549274
C  C79  1  0.38640000  0.26060000  0.42970000  1.0 0.5423549274
C  C80  1  0.61360000  0.73940000  0.42970000  1.0 0.5423549274
C  C81  1  0.29510000  0.33870000  0.15550000  1.0 0.5561560104
C  C82  1  0.70490000  0.66130000  0.15550000  1.0 0.5561560104
C  C83  1  0.83870000  0.20490000  0.15550000  1.0 0.5561560104
C  C84  1  0.16130000  0.79510000  0.15550000  1.0 0.5561560104
C  C85  1  0.20490000  0.16130000  0.84450000  1.0 0.5561560104
C  C86  1  0.79510000  0.83870000  0.84450000  1.0 0.5561560104
C  C87  1  0.66130000  0.29510000  0.84450000  1.0 0.5561560104
C  C88  1  0.33870000  0.70490000  0.84450000  1.0 0.5561560104
C  C89  1  0.26570000  0.53220000  0.27180000  1.0 0.0591939995
C  C90  1  0.73430000  0.46780000  0.27180000  1.0 0.0591939995
C  C91  1  0.03220000  0.23430000  0.27180000  1.0 0.0591939995
C  C92  1  0.96780000  0.76570000  0.27180000  1.0 0.0591939995
C  C93  1  0.23430000  0.96780000  0.72820000  1.0 0.0591939995
C  C94  1  0.76570000  0.03220000  0.72820000  1.0 0.0591939995
C  C95  1  0.46780000  0.26570000  0.72820000  1.0 0.0591939995
C  C96  1  0.53220000  0.73430000  0.72820000  1.0 0.0591939995
C  C97  1  0.25660000  0.41400000  0.11400000  1.0 -0.0987118399
C  C98  1  0.74340000  0.58600000  0.11400000  1.0 -0.0987118399
C  C99  1  0.91400000  0.24340000  0.11400000  1.0 -0.0987118399
C  C100  1  0.08600000  0.75660000  0.11400000  1.0 -0.0987118399
C  C101  1  0.24340000  0.08600000  0.88600000  1.0 -0.0987118399
C  C102  1  0.75660000  0.91400000  0.88600000  1.0 -0.0987118399
C  C103  1  0.58600000  0.25660000  0.88600000  1.0 -0.0987118399
C  C104  1  0.41400000  0.74340000  0.88600000  1.0 -0.0987118399
C  C105  1  0.31330000  0.41210000  0.28680000  1.0 -0.0887858001
C  C106  1  0.68670000  0.58790000  0.28680000  1.0 -0.0887858001
C  C107  1  0.91210000  0.18670000  0.28680000  1.0 -0.0887858001
C  C108  1  0.08790000  0.81330000  0.28680000  1.0 -0.0887858001
C  C109  1  0.18670000  0.08790000  0.71320000  1.0 -0.0887858001
C  C110  1  0.81330000  0.91210000  0.71320000  1.0 -0.0887858001
C  C111  1  0.58790000  0.31330000  0.71320000  1.0 -0.0887858001
C  C112  1  0.41210000  0.68670000  0.71320000  1.0 -0.0887858001
C  C113  1  0.30380000  0.45750000  0.31490000  1.0 -0.1396408972
C  C114  1  0.69620000  0.54250000  0.31490000  1.0 -0.1396408972
C  C115  1  0.95750000  0.19620000  0.31490000  1.0 -0.1396408972
C  C116  1  0.04250000  0.80380000  0.31490000  1.0 -0.1396408972
C  C117  1  0.19620000  0.04250000  0.68510000  1.0 -0.1396408972
C  C118  1  0.80380000  0.95750000  0.68510000  1.0 -0.1396408972
C  C119  1  0.54250000  0.30380000  0.68510000  1.0 -0.1396408972
C  C120  1  0.45750000  0.69620000  0.68510000  1.0 -0.1396408972
Cl  Cl1  1  0.28880000  0.20370000  0.18990000  1.0 0.0939554125
Cl  Cl2  1  0.71120000  0.79630000  0.18990000  1.0 0.0939554125
Cl  Cl3  1  0.70370000  0.21120000  0.18990000  1.0 0.0939554125
Cl  Cl4  1  0.29630000  0.78880000  0.18990000  1.0 0.0939554125
Cl  Cl5  1  0.21120000  0.29630000  0.81010000  1.0 0.0939554125
Cl  Cl6  1  0.78880000  0.70370000  0.81010000  1.0 0.0939554125
Cl  Cl7  1  0.79630000  0.28880000  0.81010000  1.0 0.0939554125
Cl  Cl8  1  0.20370000  0.71120000  0.81010000  1.0 0.0939554125
Cl  Cl9  1  0.27370000  0.21260000  0.22400000  1.0 0.1217420588
Cl  Cl10  1  0.72630000  0.78740000  0.22400000  1.0 0.1217420588
Cl  Cl11  1  0.71260000  0.22630000  0.22400000  1.0 0.1217420588
Cl  Cl12  1  0.28740000  0.77370000  0.22400000  1.0 0.1217420588
Cl  Cl13  1  0.22630000  0.28740000  0.77600000  1.0 0.1217420588
Cl  Cl14  1  0.77370000  0.71260000  0.77600000  1.0 0.1217420588
Cl  Cl15  1  0.78740000  0.27370000  0.77600000  1.0 0.1217420588
Cl  Cl16  1  0.21260000  0.72630000  0.77600000  1.0 0.1217420588
O  O1  1  0.26770000  0.31977000  0.08790000  1.0 -0.5067825345
O  O2  1  0.73230000  0.68023000  0.08790000  1.0 -0.5067825345
O  O3  1  0.81977000  0.23230000  0.08790000  1.0 -0.5067825345
O  O4  1  0.18023000  0.76770000  0.08790000  1.0 -0.5067825345
O  O5  1  0.23230000  0.18023000  0.91210000  1.0 -0.5067825345
O  O6  1  0.76770000  0.81977000  0.91210000  1.0 -0.5067825345
O  O7  1  0.68023000  0.26770000  0.91210000  1.0 -0.5067825345
O  O8  1  0.31977000  0.73230000  0.91210000  1.0 -0.5067825345
O  O9  1  0.25770000  0.62690000  0.96390000  1.0 -0.5405151425
O  O10  1  0.74230000  0.37310000  0.96390000  1.0 -0.5405151425
O  O11  1  0.12690000  0.24230000  0.96390000  1.0 -0.5405151425
O  O12  1  0.87310000  0.75770000  0.96390000  1.0 -0.5405151425
O  O13  1  0.24230000  0.87310000  0.03610000  1.0 -0.5405151425
O  O14  1  0.75770000  0.12690000  0.03610000  1.0 -0.5405151425
O  O15  1  0.37310000  0.25770000  0.03610000  1.0 -0.5405151425
O  O16  1  0.62690000  0.74230000  0.03610000  1.0 -0.5405151425
O  O17  1  0.25510000  0.65380000  0.59210000  1.0 -0.5067825345
O  O18  1  0.74490000  0.34620000  0.59210000  1.0 -0.5067825345
O  O19  1  0.15380000  0.24490000  0.59210000  1.0 -0.5067825345
O  O20  1  0.84620000  0.75510000  0.59210000  1.0 -0.5067825345
O  O21  1  0.24490000  0.84620000  0.40790000  1.0 -0.5067825345
O  O22  1  0.75510000  0.15380000  0.40790000  1.0 -0.5067825345
O  O23  1  0.34620000  0.25510000  0.40790000  1.0 -0.5067825345
O  O24  1  0.65380000  0.74490000  0.40790000  1.0 -0.5067825345
O  O25  1  0.24600000  0.68360000  0.11000000  1.0 -0.520905572
O  O26  1  0.75400000  0.31640000  0.11000000  1.0 -0.520905572
O  O27  1  0.18360000  0.25400000  0.11000000  1.0 -0.520905572
O  O28  1  0.81640000  0.74600000  0.11000000  1.0 -0.520905572
O  O29  1  0.25400000  0.81640000  0.89000000  1.0 -0.520905572
O  O30  1  0.74600000  0.18360000  0.89000000  1.0 -0.520905572
O  O31  1  0.31640000  0.24600000  0.89000000  1.0 -0.520905572
O  O32  1  0.68360000  0.75400000  0.89000000  1.0 -0.520905572
O  O33  1  0.33150000  0.32321000  0.20900000  1.0 -0.520905572
O  O34  1  0.66850000  0.67679000  0.20900000  1.0 -0.520905572
O  O35  1  0.82321000  0.16850000  0.20900000  1.0 -0.520905572
O  O36  1  0.17679000  0.83150000  0.20900000  1.0 -0.520905572
O  O37  1  0.16850000  0.17679000  0.79100000  1.0 -0.520905572
O  O38  1  0.83150000  0.82321000  0.79100000  1.0 -0.520905572
O  O39  1  0.67679000  0.33150000  0.79100000  1.0 -0.520905572
O  O40  1  0.32321000  0.66850000  0.79100000  1.0 -0.520905572
O  O41  1  0.26330000  0.58470000  0.66410000  1.0 -0.5405151425
O  O42  1  0.73670000  0.41530000  0.66410000  1.0 -0.5405151425
O  O43  1  0.08470000  0.23670000  0.66410000  1.0 -0.5405151425
O  O44  1  0.91530000  0.76330000  0.66410000  1.0 -0.5405151425
O  O45  1  0.23670000  0.91530000  0.33590000  1.0 -0.5405151425
O  O46  1  0.76330000  0.08470000  0.33590000  1.0 -0.5405151425
O  O47  1  0.41530000  0.26330000  0.33590000  1.0 -0.5405151425
O  O48  1  0.58470000  0.73670000  0.33590000  1.0 -0.5405151425
