# DDEC6 charges by PACMAN v1.1 (https://github.com/mtap-research/PACMAN-charge/)
data_DAPVUM_ion_pacman
_symmetry_space_group_name_H-M   'P 1'
_cell_length_a   15.49310000
_cell_length_b   15.49310000
_cell_length_c   24.00400000
_cell_angle_alpha   69.24540000
_cell_angle_beta   110.75500000
_cell_angle_gamma   125.23300000
_symmetry_Int_Tables_number   1
_chemical_formula_structural   AgP3H38C40(N2F3)2
_chemical_formula_sum   'Ag4 P12 H152 C160 N16 F24'
_cell_volume   4315.29734764
_cell_formula_units_Z   4
loop_
 _symmetry_equiv_pos_site_id
 _symmetry_equiv_pos_as_xyz
  1  'x, y, z'
loop_
 _atom_site_type_symbol
 _atom_site_label
 _atom_site_symmetry_multiplicity
 _atom_site_fract_x
 _atom_site_fract_y
 _atom_site_fract_z
 _atom_site_occupancy
 _atom_site_charge
Ag  Ag1  1  0.96795000  0.46935000  0.78079000  1.0 0.0704708502
Ag  Ag2  1  0.46935000  0.96795000  0.71921000  1.0 0.0704708502
Ag  Ag3  1  0.03205000  0.53065000  0.21921000  1.0 0.0704708502
Ag  Ag4  1  0.53065000  0.03205000  0.28079000  1.0 0.0704708502
P  P1  1  0.11951000  0.62333000  0.82676000  1.0 0.2720056933
P  P2  1  0.62333000  0.11951000  0.67324000  1.0 0.2720056933
P  P3  1  0.88049000  0.37667000  0.17324000  1.0 0.2720056933
P  P4  1  0.37667000  0.88049000  0.32676000  1.0 0.278956936
P  P5  1  0.81385000  0.30717000  0.82199000  1.0 0.244963215
P  P6  1  0.30717000  0.81385000  0.67801000  1.0 0.244963215
P  P7  1  0.18615000  0.69283000  0.17801000  1.0 0.244963215
P  P8  1  0.69283000  0.18615000  0.32199000  1.0 0.244963215
P  P9  1  0.70376000  0.73794000  0.09296000  1.0 1.423483954
P  P10  1  0.73794000  0.70376000  0.40704000  1.0 1.423483954
P  P11  1  0.29624000  0.26206000  0.90704000  1.0 1.423483954
P  P12  1  0.26206000  0.29624000  0.59296000  1.0 1.423483954
H  H1  1  0.25190000  0.79690000  0.78810000  1.0 0.1183526744
H  H2  1  0.79690000  0.25190000  0.71190000  1.0 0.1183526744
H  H3  1  0.74810000  0.20310000  0.21190000  1.0 0.1183526744
H  H4  1  0.20310000  0.74810000  0.28810000  1.0 0.1183526744
H  H5  1  0.14220000  0.76280000  0.74090000  1.0 0.1306218754
H  H6  1  0.76280000  0.14220000  0.75910000  1.0 0.1306218754
H  H7  1  0.85780000  0.23720000  0.25910000  1.0 0.1306218754
H  H8  1  0.23720000  0.85780000  0.24090000  1.0 0.1306218754
H  H9  1  0.67280000  0.26980000  0.73700000  1.0 0.1183526744
H  H10  1  0.26980000  0.67280000  0.76300000  1.0 0.1183526744
H  H11  1  0.32720000  0.73020000  0.26300000  1.0 0.1183526744
H  H12  1  0.73020000  0.32720000  0.23700000  1.0 0.1183526744
H  H13  1  0.64680000  0.16420000  0.78660000  1.0 0.1183526744
H  H14  1  0.16420000  0.64680000  0.71340000  1.0 0.1183526744
H  H15  1  0.35320000  0.83580000  0.21340000  1.0 0.1183526744
H  H16  1  0.83580000  0.35320000  0.28660000  1.0 0.1183526744
H  H17  1  0.13210000  0.44350000  0.90080000  1.0 0.1116960458
H  H18  1  0.44350000  0.13210000  0.59920000  1.0 0.1116960458
H  H19  1  0.86790000  0.55650000  0.09920000  1.0 0.1116960458
H  H20  1  0.55650000  0.86790000  0.40080000  1.0 0.1116960458
H  H21  1  0.26170000  0.41070000  0.97220000  1.0 0.1116960458
H  H22  1  0.41070000  0.26170000  0.52780000  1.0 0.1116960458
H  H23  1  0.73830000  0.58930000  0.02780000  1.0 0.1116960458
H  H24  1  0.58930000  0.73830000  0.47220000  1.0 0.1116960458
H  H25  1  0.43640000  0.55780000  0.99490000  1.0 0.1183526744
H  H26  1  0.55780000  0.43640000  0.50510000  1.0 0.1183526744
H  H27  1  0.56360000  0.44220000  0.00510000  1.0 0.1183526744
H  H28  1  0.44220000  0.56360000  0.49490000  1.0 0.1183526744
H  H29  1  0.47250000  0.72550000  0.95080000  1.0 0.1116960458
H  H30  1  0.72550000  0.47250000  0.54920000  1.0 0.1116960458
H  H31  1  0.52750000  0.27450000  0.04920000  1.0 0.1116960458
H  H32  1  0.27450000  0.52750000  0.45080000  1.0 0.1116960458
H  H33  1  0.34590000  0.75530000  0.87930000  1.0 0.1018393908
H  H34  1  0.75530000  0.34590000  0.62070000  1.0 0.1018393908
H  H35  1  0.65410000  0.24470000  0.12070000  1.0 0.1018393908
H  H36  1  0.24470000  0.65410000  0.37930000  1.0 0.1018393908
H  H37  1  0.15200000  0.64240000  0.94980000  1.0 0.1183526744
H  H38  1  0.64240000  0.15200000  0.55020000  1.0 0.1116960458
H  H39  1  0.84800000  0.35760000  0.05020000  1.0 0.1116960458
H  H40  1  0.35760000  0.84800000  0.44980000  1.0 0.1183526744
H  H41  1  0.09340000  0.70460000  0.99400000  1.0 0.1116960458
H  H42  1  0.70460000  0.09340000  0.50600000  1.0 0.1116960458
H  H43  1  0.90660000  0.29540000  0.00600000  1.0 0.1116960458
H  H44  1  0.29540000  0.90660000  0.49400000  1.0 0.1116960458
H  H45  1  0.99200000  0.78080000  0.93550000  1.0 0.1306218754
H  H46  1  0.78080000  0.99200000  0.56450000  1.0 0.1306218754
H  H47  1  0.00800000  0.21920000  0.06450000  1.0 0.1306218754
H  H48  1  0.21920000  0.00800000  0.43550000  1.0 0.1306218754
H  H49  1  0.94660000  0.79320000  0.83220000  1.0 0.1183526744
H  H50  1  0.79320000  0.94660000  0.66780000  1.0 0.1183526744
H  H51  1  0.05340000  0.20680000  0.16780000  1.0 0.1183526744
H  H52  1  0.20680000  0.05340000  0.33220000  1.0 0.1183526744
H  H53  1  0.00160000  0.72540000  0.78950000  1.0 0.1183526744
H  H54  1  0.72540000  0.00160000  0.71050000  1.0 0.1116960458
H  H55  1  0.99840000  0.27460000  0.21050000  1.0 0.1116960458
H  H56  1  0.27460000  0.99840000  0.28950000  1.0 0.1183526744
H  H57  1  0.97920000  0.26000000  0.86560000  1.0 0.1116960458
H  H58  1  0.26000000  0.97920000  0.63440000  1.0 0.1116960458
H  H59  1  0.02080000  0.74000000  0.13440000  1.0 0.1116960458
H  H60  1  0.74000000  0.02080000  0.36560000  1.0 0.1116960458
H  H61  1  0.01760000  0.13840000  0.94380000  1.0 0.1306218754
H  H62  1  0.13840000  0.01760000  0.55620000  1.0 0.1306218754
H  H63  1  0.98240000  0.86160000  0.05620000  1.0 0.1306218754
H  H64  1  0.86160000  0.98240000  0.44380000  1.0 0.1306218754
H  H65  1  0.89360000  0.00880000  0.00340000  1.0 0.1183526744
H  H66  1  0.00880000  0.89360000  0.49660000  1.0 0.1183526744
H  H67  1  0.10640000  0.99120000  0.99660000  1.0 0.1183526744
H  H68  1  0.99120000  0.10640000  0.50340000  1.0 0.1183526744
H  H69  1  0.73790000  0.00370000  0.99090000  1.0 0.1116960458
H  H70  1  0.00370000  0.73790000  0.50910000  1.0 0.1116960458
H  H71  1  0.26210000  0.99630000  0.00910000  1.0 0.1116960458
H  H72  1  0.99630000  0.26210000  0.49090000  1.0 0.1116960458
H  H73  1  0.70390000  0.13210000  0.91740000  1.0 0.1116960458
H  H74  1  0.13210000  0.70390000  0.58260000  1.0 0.1116960458
H  H75  1  0.29610000  0.86790000  0.08260000  1.0 0.1116960458
H  H76  1  0.86790000  0.29610000  0.41740000  1.0 0.1116960458
H  H77  1  0.59330000  0.25490000  0.81290000  1.0 0.1018393908
H  H78  1  0.25490000  0.59330000  0.68710000  1.0 0.1018393908
H  H79  1  0.40670000  0.74510000  0.18710000  1.0 0.1018393908
H  H80  1  0.74510000  0.40670000  0.31290000  1.0 0.1018393908
H  H81  1  0.52380000  0.31800000  0.84770000  1.0 0.1116960458
H  H82  1  0.31800000  0.52380000  0.65230000  1.0 0.1116960458
H  H83  1  0.47620000  0.68200000  0.15230000  1.0 0.1116960458
H  H84  1  0.68200000  0.47620000  0.34770000  1.0 0.1116960458
H  H85  1  0.63180000  0.43720000  0.91240000  1.0 0.1116960458
H  H86  1  0.43720000  0.63180000  0.58760000  1.0 0.1116960458
H  H87  1  0.36820000  0.56280000  0.08760000  1.0 0.1116960458
H  H88  1  0.56280000  0.36820000  0.41240000  1.0 0.1116960458
H  H89  1  0.81700000  0.49920000  0.94060000  1.0 0.1018393908
H  H90  1  0.49920000  0.81700000  0.55940000  1.0 0.1018393908
H  H91  1  0.18300000  0.50080000  0.05940000  1.0 0.1018393908
H  H92  1  0.50080000  0.18300000  0.44060000  1.0 0.1018393908
H  H93  1  0.88860000  0.44120000  0.90290000  1.0 0.1018393908
H  H94  1  0.44120000  0.88860000  0.59710000  1.0 0.1018393908
H  H95  1  0.11140000  0.55880000  0.09710000  1.0 0.1018393908
H  H96  1  0.55880000  0.11140000  0.40290000  1.0 0.1018393908
H  H97  1  0.74160000  0.48320000  0.73770000  1.0 0.1018393908
H  H98  1  0.48320000  0.74160000  0.76230000  1.0 0.1018393908
H  H99  1  0.25840000  0.51680000  0.26230000  1.0 0.1018393908
H  H100  1  0.51680000  0.25840000  0.23770000  1.0 0.1018393908
H  H101  1  0.95010000  0.64350000  0.63360000  1.0 0.1183526744
H  H102  1  0.64350000  0.95010000  0.86640000  1.0 0.1183526744
H  H103  1  0.04990000  0.35650000  0.36640000  1.0 0.1183526744
H  H104  1  0.35650000  0.04990000  0.13360000  1.0 0.1183526744
H  H105  1  0.80890000  0.68530000  0.58490000  1.0 0.1306218754
H  H106  1  0.68530000  0.80890000  0.91510000  1.0 0.1306218754
H  H107  1  0.19110000  0.31470000  0.41510000  1.0 0.1306218754
H  H108  1  0.31470000  0.19110000  0.08490000  1.0 0.1306218754
H  H109  1  0.64070000  0.63690000  0.61140000  1.0 0.1306218754
H  H110  1  0.63690000  0.64070000  0.88860000  1.0 0.1306218754
H  H111  1  0.35930000  0.36310000  0.38860000  1.0 0.1306218754
H  H112  1  0.36310000  0.35930000  0.11140000  1.0 0.1306218754
H  H113  1  0.58220000  0.51200000  0.63580000  1.0 0.1380338401
H  H114  1  0.51200000  0.58220000  0.86420000  1.0 0.1380338401
H  H115  1  0.41780000  0.48800000  0.36420000  1.0 0.1380338401
H  H116  1  0.48800000  0.41780000  0.13580000  1.0 0.1380338401
H  H117  1  0.76290000  0.73670000  0.71190000  1.0 0.1183526744
H  H118  1  0.73670000  0.76290000  0.78810000  1.0 0.1183526744
H  H119  1  0.23710000  0.26330000  0.28810000  1.0 0.1183526744
H  H120  1  0.26330000  0.23710000  0.21190000  1.0 0.1183526744
H  H121  1  0.48780000  0.45800000  0.71110000  1.0 0.1380338401
H  H122  1  0.45800000  0.48780000  0.78890000  1.0 0.1380338401
H  H123  1  0.51220000  0.54200000  0.28890000  1.0 0.1380338401
H  H124  1  0.54200000  0.51220000  0.21110000  1.0 0.1380338401
H  H125  1  0.16230000  0.51150000  0.55000000  1.0 0.1306218754
H  H126  1  0.51150000  0.16230000  0.95000000  1.0 0.1306218754
H  H127  1  0.83770000  0.48850000  0.45000000  1.0 0.1306218754
H  H128  1  0.48850000  0.83770000  0.05000000  1.0 0.1306218754
H  H129  1  0.84240000  0.35280000  0.52880000  1.0 0.1116960458
H  H130  1  0.35280000  0.84240000  0.97120000  1.0 0.1116960458
H  H131  1  0.15760000  0.64720000  0.47120000  1.0 0.1116960458
H  H132  1  0.64720000  0.15760000  0.02880000  1.0 0.1116960458
H  H133  1  0.05560000  0.31360000  0.59940000  1.0 0.1306218754
H  H134  1  0.31360000  0.05560000  0.90060000  1.0 0.1306218754
H  H135  1  0.94440000  0.68640000  0.40060000  1.0 0.1306218754
H  H136  1  0.68640000  0.94440000  0.09940000  1.0 0.1306218754
H  H137  1  0.93360000  0.26420000  0.59820000  1.0 0.1183526744
H  H138  1  0.26420000  0.93360000  0.90180000  1.0 0.1183526744
H  H139  1  0.06640000  0.73580000  0.40180000  1.0 0.1183526744
H  H140  1  0.73580000  0.06640000  0.09820000  1.0 0.1183526744
H  H141  1  0.95380000  0.43780000  0.64290000  1.0 0.1018393908
H  H142  1  0.43780000  0.95380000  0.85710000  1.0 0.1018393908
H  H143  1  0.04620000  0.56220000  0.35710000  1.0 0.1018393908
H  H144  1  0.56220000  0.04620000  0.14290000  1.0 0.1018393908
H  H145  1  0.13700000  0.31000000  0.71690000  1.0 0.1562200051
H  H146  1  0.31000000  0.13700000  0.78310000  1.0 0.1549859207
H  H147  1  0.86300000  0.69000000  0.28310000  1.0 0.1562200051
H  H148  1  0.69000000  0.86300000  0.21690000  1.0 0.1562200051
H  H149  1  0.13520000  0.37660000  0.79330000  1.0 0.1306218754
H  H150  1  0.37660000  0.13520000  0.70670000  1.0 0.1306218754
H  H151  1  0.86480000  0.62340000  0.20670000  1.0 0.1306218754
H  H152  1  0.62340000  0.86480000  0.29330000  1.0 0.1306218754
C  C1  1  0.19010000  0.73790000  0.76880000  1.0 -0.309688403
C  C2  1  0.73790000  0.19010000  0.73120000  1.0 -0.309688403
C  C3  1  0.80990000  0.26210000  0.23120000  1.0 -0.309688403
C  C4  1  0.26210000  0.80990000  0.26880000  1.0 -0.309688403
C  C5  1  0.70300000  0.22700000  0.76580000  1.0 -0.309688403
C  C6  1  0.22700000  0.70300000  0.73420000  1.0 -0.309688403
C  C7  1  0.29700000  0.77300000  0.23420000  1.0 -0.309688403
C  C8  1  0.77300000  0.29700000  0.26580000  1.0 -0.309688403
C  C9  1  0.22390000  0.60370000  0.88220000  1.0 -0.0517753649
C  C10  1  0.60370000  0.22390000  0.61780000  1.0 -0.0517753649
C  C11  1  0.77610000  0.39630000  0.11780000  1.0 -0.0517753649
C  C12  1  0.39630000  0.77610000  0.38220000  1.0 -0.0517753649
C  C13  1  0.20130000  0.50110000  0.91050000  1.0 -0.1373191278
C  C14  1  0.50110000  0.20130000  0.58950000  1.0 -0.1373191278
C  C15  1  0.79870000  0.49890000  0.08950000  1.0 -0.1373191278
C  C16  1  0.49890000  0.79870000  0.41050000  1.0 -0.1373191278
C  C17  1  0.27820000  0.48080000  0.95310000  1.0 -0.0823817353
C  C18  1  0.48080000  0.27820000  0.54690000  1.0 -0.0823817353
C  C19  1  0.72180000  0.51920000  0.04690000  1.0 -0.0823817353
C  C20  1  0.51920000  0.72180000  0.45310000  1.0 -0.0823817353
C  C21  1  0.38270000  0.56930000  0.96700000  1.0 -0.0902059868
C  C22  1  0.56930000  0.38270000  0.53300000  1.0 -0.0902059868
C  C23  1  0.61730000  0.43070000  0.03300000  1.0 -0.0902059868
C  C24  1  0.43070000  0.61730000  0.46700000  1.0 -0.0902059868
C  C25  1  0.40410000  0.66730000  0.94060000  1.0 -0.0823817353
C  C26  1  0.66730000  0.40410000  0.55940000  1.0 -0.0823817353
C  C27  1  0.59590000  0.33270000  0.05940000  1.0 -0.0823817353
C  C28  1  0.33270000  0.59590000  0.44060000  1.0 -0.0823817353
C  C29  1  0.32730000  0.68470000  0.89830000  1.0 -0.1317067423
C  C30  1  0.68470000  0.32730000  0.60170000  1.0 -0.1317067423
C  C31  1  0.67270000  0.31530000  0.10170000  1.0 -0.1317067423
C  C32  1  0.31530000  0.67270000  0.39830000  1.0 -0.1317067423
C  C33  1  0.08450000  0.67950000  0.86410000  1.0 -0.0620275138
C  C34  1  0.67950000  0.08450000  0.63590000  1.0 -0.0620275138
C  C35  1  0.91550000  0.32050000  0.13590000  1.0 -0.0620275138
C  C36  1  0.32050000  0.91550000  0.36410000  1.0 -0.0620275138
C  C37  1  0.11030000  0.67270000  0.92550000  1.0 -0.1241775343
C  C38  1  0.67270000  0.11030000  0.57450000  1.0 -0.1241775343
C  C39  1  0.88970000  0.32730000  0.07450000  1.0 -0.1241775343
C  C40  1  0.32730000  0.88970000  0.42550000  1.0 -0.1241775343
C  C41  1  0.07530000  0.71010000  0.95210000  1.0 -0.0987940125
C  C42  1  0.71010000  0.07530000  0.54790000  1.0 -0.0987940125
C  C43  1  0.92470000  0.28990000  0.04790000  1.0 -0.0987940125
C  C44  1  0.28990000  0.92470000  0.45210000  1.0 -0.0987940125
C  C45  1  0.01470000  0.75510000  0.91740000  1.0 -0.0902059868
C  C46  1  0.75510000  0.01470000  0.58260000  1.0 -0.0902059868
C  C47  1  0.98530000  0.24490000  0.08260000  1.0 -0.0902059868
C  C48  1  0.24490000  0.98530000  0.41740000  1.0 -0.0902059868
C  C49  1  0.98750000  0.76230000  0.85650000  1.0 -0.0987940125
C  C50  1  0.76230000  0.98750000  0.64350000  1.0 -0.0987940125
C  C51  1  0.01250000  0.23770000  0.14350000  1.0 -0.0987940125
C  C52  1  0.23770000  0.01250000  0.35650000  1.0 -0.0987940125
C  C53  1  0.02220000  0.72240000  0.83130000  1.0 -0.1317067423
C  C54  1  0.72240000  0.02220000  0.66870000  1.0 -0.1317067423
C  C55  1  0.97780000  0.27760000  0.16870000  1.0 -0.1317067423
C  C56  1  0.27760000  0.97780000  0.33130000  1.0 -0.1317067423
C  C57  1  0.83730000  0.20870000  0.88230000  1.0 -0.0517753649
C  C58  1  0.20870000  0.83730000  0.61770000  1.0 -0.0517753649
C  C59  1  0.16270000  0.79130000  0.11770000  1.0 -0.0517753649
C  C60  1  0.79130000  0.16270000  0.38230000  1.0 -0.0517753649
C  C61  1  0.93040000  0.20940000  0.89110000  1.0 -0.1317067423
C  C62  1  0.20940000  0.93040000  0.60890000  1.0 -0.1317067423
C  C63  1  0.06960000  0.79060000  0.10890000  1.0 -0.1317067423
C  C64  1  0.79060000  0.06960000  0.39110000  1.0 -0.1317067423
C  C65  1  0.95330000  0.13550000  0.93760000  1.0 -0.0902059868
C  C66  1  0.13550000  0.95330000  0.56240000  1.0 -0.0902059868
C  C67  1  0.04670000  0.86450000  0.06240000  1.0 -0.0902059868
C  C68  1  0.86450000  0.04670000  0.43760000  1.0 -0.0902059868
C  C69  1  0.88000000  0.05960000  0.97340000  1.0 -0.0823817353
C  C70  1  0.05960000  0.88000000  0.52660000  1.0 -0.0823817353
C  C71  1  0.12000000  0.94040000  0.02660000  1.0 -0.0823817353
C  C72  1  0.94040000  0.12000000  0.47340000  1.0 -0.0823817353
C  C73  1  0.78730000  0.05650000  0.96600000  1.0 -0.0987940125
C  C74  1  0.05650000  0.78730000  0.53400000  1.0 -0.0987940125
C  C75  1  0.21270000  0.94350000  0.03400000  1.0 -0.0987940125
C  C76  1  0.94350000  0.21270000  0.46600000  1.0 -0.0987940125
C  C77  1  0.76600000  0.13260000  0.92120000  1.0 -0.1241775343
C  C78  1  0.13260000  0.76600000  0.57880000  1.0 -0.1241775343
C  C79  1  0.23400000  0.86740000  0.07880000  1.0 -0.1241775343
C  C80  1  0.86740000  0.23400000  0.42120000  1.0 -0.1241775343
C  C81  1  0.74960000  0.34220000  0.85300000  1.0 -0.0620275138
C  C82  1  0.34220000  0.74960000  0.64700000  1.0 -0.0620275138
C  C83  1  0.25040000  0.65780000  0.14700000  1.0 -0.0620275138
C  C84  1  0.65780000  0.25040000  0.35300000  1.0 -0.0620275138
C  C85  1  0.63900000  0.30520000  0.83790000  1.0 -0.1241775343
C  C86  1  0.30520000  0.63900000  0.66210000  1.0 -0.1241775343
C  C87  1  0.36100000  0.69480000  0.16210000  1.0 -0.1241775343
C  C88  1  0.69480000  0.36100000  0.33790000  1.0 -0.1241775343
C  C89  1  0.59710000  0.34210000  0.85940000  1.0 -0.0902059868
C  C90  1  0.34210000  0.59710000  0.64060000  1.0 -0.0902059868
C  C91  1  0.40290000  0.65790000  0.14060000  1.0 -0.0902059868
C  C92  1  0.65790000  0.40290000  0.35940000  1.0 -0.0902059868
C  C93  1  0.66100000  0.41340000  0.89760000  1.0 -0.0902059868
C  C94  1  0.41340000  0.66100000  0.60240000  1.0 -0.0902059868
C  C95  1  0.33900000  0.58660000  0.10240000  1.0 -0.0902059868
C  C96  1  0.58660000  0.33900000  0.39760000  1.0 -0.0902059868
C  C97  1  0.77240000  0.45080000  0.91440000  1.0 -0.0987940125
C  C98  1  0.45080000  0.77240000  0.58560000  1.0 -0.0987940125
C  C99  1  0.22760000  0.54920000  0.08560000  1.0 -0.0987940125
C  C100  1  0.54920000  0.22760000  0.41440000  1.0 -0.0987940125
C  C101  1  0.81500000  0.41560000  0.89190000  1.0 -0.1373191278
C  C102  1  0.41560000  0.81500000  0.60810000  1.0 -0.1373191278
C  C103  1  0.18500000  0.58440000  0.10810000  1.0 -0.1373191278
C  C104  1  0.58440000  0.18500000  0.39190000  1.0 -0.1373191278
C  C105  1  0.77770000  0.52930000  0.70580000  1.0 0.0845525369
C  C106  1  0.52930000  0.77770000  0.79420000  1.0 0.0845525369
C  C107  1  0.22230000  0.47070000  0.29420000  1.0 0.0845525369
C  C108  1  0.47070000  0.22230000  0.20580000  1.0 0.0845525369
C  C109  1  0.89020000  0.61600000  0.64940000  1.0 -0.0440318852
C  C110  1  0.61600000  0.89020000  0.85060000  1.0 -0.0440318852
C  C111  1  0.10980000  0.38400000  0.35060000  1.0 -0.0440318852
C  C112  1  0.38400000  0.10980000  0.14940000  1.0 -0.0440318852
C  C113  1  0.81240000  0.63940000  0.62200000  1.0 -0.0902059868
C  C114  1  0.63940000  0.81240000  0.87800000  1.0 -0.0902059868
C  C115  1  0.18760000  0.36060000  0.37800000  1.0 -0.0902059868
C  C116  1  0.36060000  0.18760000  0.12200000  1.0 -0.0902059868
C  C117  1  0.64170000  0.58090000  0.64610000  1.0 -0.1841766972
C  C118  1  0.58090000  0.64170000  0.85390000  1.0 -0.1841766972
C  C119  1  0.35830000  0.41910000  0.35390000  1.0 -0.1841766972
C  C120  1  0.41910000  0.35830000  0.14610000  1.0 -0.1841766972
C  C121  1  0.62590000  0.59650000  0.70050000  1.0 0.089069457
C  C122  1  0.59650000  0.62590000  0.79950000  1.0 0.089069457
C  C123  1  0.37410000  0.40350000  0.29950000  1.0 0.089069457
C  C124  1  0.40350000  0.37410000  0.20050000  1.0 0.089069457
C  C125  1  0.70000000  0.68520000  0.72700000  1.0 -0.1525825996
C  C126  1  0.68520000  0.70000000  0.77300000  1.0 -0.1525825996
C  C127  1  0.30000000  0.31480000  0.27300000  1.0 -0.1525825996
C  C128  1  0.31480000  0.30000000  0.22700000  1.0 -0.1525825996
C  C129  1  0.53790000  0.52130000  0.72590000  1.0 -0.1317067423
C  C130  1  0.52130000  0.53790000  0.77410000  1.0 -0.1317067423
C  C131  1  0.46210000  0.47870000  0.27410000  1.0 -0.1317067423
C  C132  1  0.47870000  0.46210000  0.22590000  1.0 -0.1317067423
C  C133  1  0.09670000  0.50670000  0.52990000  1.0 -0.1373191278
C  C134  1  0.50670000  0.09670000  0.97010000  1.0 -0.1373191278
C  C135  1  0.90330000  0.49330000  0.47010000  1.0 -0.1373191278
C  C136  1  0.49330000  0.90330000  0.02990000  1.0 -0.1373191278
C  C137  1  0.90620000  0.41220000  0.51730000  1.0 -0.1559733588
C  C138  1  0.41220000  0.90620000  0.98270000  1.0 -0.1559733588
C  C139  1  0.09380000  0.58780000  0.48270000  1.0 -0.1559733588
C  C140  1  0.58780000  0.09380000  0.01730000  1.0 -0.1559733588
C  C141  1  0.00250000  0.41790000  0.54770000  1.0 0.0845525369
C  C142  1  0.41790000  0.00250000  0.95230000  1.0 0.0845525369
C  C143  1  0.99750000  0.58210000  0.45230000  1.0 0.0845525369
C  C144  1  0.58210000  0.99750000  0.04770000  1.0 0.0845525369
C  C145  1  0.00430000  0.32930000  0.60070000  1.0 -0.1730032999
C  C146  1  0.32930000  0.00430000  0.89930000  1.0 -0.1730032999
C  C147  1  0.99570000  0.67070000  0.39930000  1.0 -0.1730032999
C  C148  1  0.67070000  0.99570000  0.10070000  1.0 -0.1730032999
C  C149  1  0.99880000  0.41400000  0.67100000  1.0 0.0704708502
C  C150  1  0.41400000  0.99880000  0.82900000  1.0 0.0704708502
C  C151  1  0.00120000  0.58600000  0.32900000  1.0 0.0704708502
C  C152  1  0.58600000  0.00120000  0.17100000  1.0 0.0704708502
C  C153  1  0.09960000  0.34340000  0.71140000  1.0 -0.0987940125
C  C154  1  0.34340000  0.09960000  0.78860000  1.0 -0.0987940125
C  C155  1  0.90040000  0.65660000  0.28860000  1.0 -0.0987940125
C  C156  1  0.65660000  0.90040000  0.21140000  1.0 -0.0987940125
C  C157  1  0.09850000  0.38050000  0.75320000  1.0 -0.0440318852
C  C158  1  0.38050000  0.09850000  0.74680000  1.0 -0.0440318852
C  C159  1  0.90150000  0.61950000  0.24680000  1.0 -0.0440318852
C  C160  1  0.61950000  0.90150000  0.25320000  1.0 -0.0440318852
N  N1  1  0.86976000  0.54704000  0.70310000  1.0 -0.2679912585
N  N2  1  0.54704000  0.86976000  0.79690000  1.0 -0.2679912585
N  N3  1  0.13024000  0.45296000  0.29690000  1.0 -0.2679912585
N  N4  1  0.45296000  0.13024000  0.20310000  1.0 -0.2679912585
N  N5  1  0.74171000  0.58449000  0.65810000  1.0 0.0348439154
N  N6  1  0.58449000  0.74171000  0.84190000  1.0 0.0348439154
N  N7  1  0.25829000  0.41551000  0.34190000  1.0 0.0348439154
N  N8  1  0.41551000  0.25829000  0.15810000  1.0 0.0348439154
N  N9  1  0.03494000  0.36346000  0.65870000  1.0 0.0392696273
N  N10  1  0.36346000  0.03494000  0.84130000  1.0 0.0392696273
N  N11  1  0.96506000  0.63654000  0.34130000  1.0 0.0392696273
N  N12  1  0.63654000  0.96506000  0.15870000  1.0 0.0392696273
N  N13  1  0.03509000  0.42531000  0.72819000  1.0 -0.2550485868
N  N14  1  0.42531000  0.03509000  0.77181000  1.0 -0.2550485868
N  N15  1  0.96491000  0.57469000  0.27181000  1.0 -0.2550485868
N  N16  1  0.57469000  0.96491000  0.22819000  1.0 -0.2550485868
F  F1  1  0.62300000  0.77560000  0.06040000  1.0 -0.3722273398
F  F2  1  0.71190000  0.74210000  0.03040000  1.0 -0.3605470795
F  F3  1  0.79390000  0.71470000  0.11840000  1.0 -0.3605470795
F  F4  1  0.61980000  0.62300000  0.09600000  1.0 -0.3836267728
F  F5  1  0.69990000  0.74070000  0.15560000  1.0 -0.3722273398
F  F6  1  0.78930000  0.86170000  0.09020000  1.0 -0.3489283163
F  F7  1  0.77560000  0.62300000  0.43960000  1.0 -0.3722273398
F  F8  1  0.74210000  0.71190000  0.46960000  1.0 -0.3605470795
F  F9  1  0.71470000  0.79390000  0.38160000  1.0 -0.3605470795
F  F10  1  0.62300000  0.61980000  0.40400000  1.0 -0.3836267728
F  F11  1  0.74070000  0.69990000  0.34440000  1.0 -0.3722273398
F  F12  1  0.86170000  0.78930000  0.40980000  1.0 -0.3489283163
F  F13  1  0.37700000  0.22440000  0.93960000  1.0 -0.3722273398
F  F14  1  0.28810000  0.25790000  0.96960000  1.0 -0.3605470795
F  F15  1  0.20610000  0.28530000  0.88160000  1.0 -0.3605470795
F  F16  1  0.38020000  0.37700000  0.90400000  1.0 -0.3836267728
F  F17  1  0.30010000  0.25930000  0.84440000  1.0 -0.3722273398
F  F18  1  0.21070000  0.13830000  0.90980000  1.0 -0.3489283163
F  F19  1  0.22440000  0.37700000  0.56040000  1.0 -0.3722273398
F  F20  1  0.25790000  0.28810000  0.53040000  1.0 -0.3605470795
F  F21  1  0.28530000  0.20610000  0.61840000  1.0 -0.3605470795
F  F22  1  0.37700000  0.38020000  0.59600000  1.0 -0.3836267728
F  F23  1  0.25930000  0.30010000  0.65560000  1.0 -0.3722273398
F  F24  1  0.13830000  0.21070000  0.59020000  1.0 -0.3489283163
