# DDEC6 charges by PACMAN v1.1 (https://github.com/mtap-research/PACMAN-charge/)
data_DAPWAT_ion_pacman
_symmetry_space_group_name_H-M   'P 1'
_cell_length_a   15.65620000
_cell_length_b   15.65620000
_cell_length_c   24.05900000
_cell_angle_alpha   70.69140000
_cell_angle_beta   109.30900000
_cell_angle_gamma   125.85000000
_symmetry_Int_Tables_number   1
_chemical_formula_structural   AgSbP2H38C40(N2F3)2
_chemical_formula_sum   'Ag4 Sb4 P8 H152 C160 N16 F24'
_cell_volume   4438.22471844
_cell_formula_units_Z   4
loop_
 _symmetry_equiv_pos_site_id
 _symmetry_equiv_pos_as_xyz
  1  'x, y, z'
loop_
 _atom_site_type_symbol
 _atom_site_label
 _atom_site_symmetry_multiplicity
 _atom_site_fract_x
 _atom_site_fract_y
 _atom_site_fract_z
 _atom_site_occupancy
 _atom_site_charge
Ag  Ag1  1  0.02915000  0.53683000  0.77937000  1.0 0.0886045814
Ag  Ag2  1  0.53683000  0.02915000  0.72063000  1.0 0.0886045814
Ag  Ag3  1  0.97085000  0.46317000  0.22063000  1.0 0.0886045814
Ag  Ag4  1  0.46317000  0.97085000  0.27937000  1.0 0.0886045814
Sb  Sb1  1  0.23776000  0.20532000  0.91242000  1.0 1.8616005103
Sb  Sb2  1  0.20532000  0.23776000  0.58758000  1.0 1.8616005103
Sb  Sb3  1  0.76224000  0.79468000  0.08758000  1.0 1.8616005103
Sb  Sb4  1  0.79468000  0.76224000  0.41242000  1.0 1.8616005103
P  P1  1  0.19200000  0.69034000  0.82015000  1.0 0.234151918
P  P2  1  0.69034000  0.19200000  0.67985000  1.0 0.234151918
P  P3  1  0.80800000  0.30966000  0.17985000  1.0 0.234151918
P  P4  1  0.30966000  0.80800000  0.32015000  1.0 0.234151918
P  P5  1  0.38497000  0.87611000  0.67436000  1.0 0.2756839911
P  P6  1  0.87611000  0.38497000  0.82564000  1.0 0.2756839911
P  P7  1  0.61503000  0.12389000  0.32564000  1.0 0.2756839911
P  P8  1  0.12389000  0.61503000  0.17436000  1.0 0.2756839911
H  H1  1  0.33480000  0.85600000  0.78460000  1.0 0.1206758792
H  H2  1  0.85600000  0.33480000  0.71540000  1.0 0.1206758792
H  H3  1  0.66520000  0.14400000  0.21540000  1.0 0.1206758792
H  H4  1  0.14400000  0.66520000  0.28460000  1.0 0.1206758792
H  H5  1  0.23070000  0.82670000  0.73600000  1.0 0.1324013293
H  H6  1  0.82670000  0.23070000  0.76400000  1.0 0.1324013293
H  H7  1  0.76930000  0.17330000  0.26400000  1.0 0.1324013293
H  H8  1  0.17330000  0.76930000  0.23600000  1.0 0.1324013293
H  H9  1  0.35600000  0.73920000  0.75840000  1.0 0.1324013293
H  H10  1  0.73920000  0.35600000  0.74160000  1.0 0.1324013293
H  H11  1  0.64400000  0.26080000  0.24160000  1.0 0.1324013293
H  H12  1  0.26080000  0.64400000  0.25840000  1.0 0.1324013293
H  H13  1  0.24920000  0.70500000  0.71120000  1.0 0.1206758792
H  H14  1  0.70500000  0.24920000  0.78880000  1.0 0.1206758792
H  H15  1  0.75080000  0.29500000  0.28880000  1.0 0.1206758792
H  H16  1  0.29500000  0.75080000  0.21120000  1.0 0.1206758792
H  H17  1  0.24280000  0.90840000  0.80900000  1.0 0.1113081404
H  H18  1  0.90840000  0.24280000  0.69100000  1.0 0.1113081404
H  H19  1  0.75720000  0.09160000  0.19100000  1.0 0.1113081404
H  H20  1  0.09160000  0.75720000  0.30900000  1.0 0.1113081404
H  H21  1  0.17930000  0.97670000  0.84520000  1.0 0.1206758792
H  H22  1  0.97670000  0.17930000  0.65480000  1.0 0.1206758792
H  H23  1  0.82070000  0.02330000  0.15480000  1.0 0.1206758792
H  H24  1  0.02330000  0.82070000  0.34520000  1.0 0.1206758792
H  H25  1  0.06780000  0.87100000  0.91420000  1.0 0.1206758792
H  H26  1  0.87100000  0.06780000  0.58580000  1.0 0.1206758792
H  H27  1  0.93220000  0.12900000  0.08580000  1.0 0.1206758792
H  H28  1  0.12900000  0.93220000  0.41420000  1.0 0.1206758792
H  H29  1  0.00590000  0.69270000  0.94050000  1.0 0.1113081404
H  H30  1  0.69270000  0.00590000  0.55950000  1.0 0.1113081404
H  H31  1  0.99410000  0.30730000  0.05950000  1.0 0.1113081404
H  H32  1  0.30730000  0.99410000  0.44050000  1.0 0.1113081404
H  H33  1  0.06080000  0.61940000  0.90180000  1.0 0.1113081404
H  H34  1  0.61940000  0.06080000  0.59820000  1.0 0.1113081404
H  H35  1  0.93920000  0.38060000  0.09820000  1.0 0.1113081404
H  H36  1  0.38060000  0.93920000  0.40180000  1.0 0.1113081404
H  H37  1  0.23420000  0.52700000  0.86120000  1.0 0.1113081404
H  H38  1  0.52700000  0.23420000  0.63880000  1.0 0.1113081404
H  H39  1  0.76580000  0.47300000  0.13880000  1.0 0.1113081404
H  H40  1  0.47300000  0.76580000  0.36120000  1.0 0.1113081404
H  H41  1  0.35320000  0.49100000  0.93550000  1.0 0.1324013293
H  H42  1  0.49100000  0.35320000  0.56450000  1.0 0.1324013293
H  H43  1  0.64680000  0.50900000  0.06450000  1.0 0.1324013293
H  H44  1  0.50900000  0.64680000  0.43550000  1.0 0.1324013293
H  H45  1  0.48280000  0.61500000  0.99620000  1.0 0.1410100778
H  H46  1  0.61500000  0.48280000  0.50380000  1.0 0.1410100778
H  H47  1  0.51720000  0.38500000  0.00380000  1.0 0.1410100778
H  H48  1  0.38500000  0.51720000  0.49620000  1.0 0.1410100778
H  H49  1  0.48890000  0.76830000  0.98610000  1.0 0.1206758792
H  H50  1  0.76830000  0.48890000  0.51390000  1.0 0.1206758792
H  H51  1  0.51110000  0.23170000  0.01390000  1.0 0.1206758792
H  H52  1  0.23170000  0.51110000  0.48610000  1.0 0.1206758792
H  H53  1  0.36680000  0.80100000  0.91380000  1.0 0.1113081404
H  H54  1  0.80100000  0.36680000  0.58620000  1.0 0.1113081404
H  H55  1  0.63320000  0.19900000  0.08620000  1.0 0.1113081404
H  H56  1  0.19900000  0.63320000  0.41380000  1.0 0.1113081404
H  H57  1  0.49640000  0.77160000  0.71070000  1.0 0.1206758792
H  H58  1  0.77160000  0.49640000  0.78930000  1.0 0.1206758792
H  H59  1  0.50360000  0.22840000  0.28930000  1.0 0.1206758792
H  H60  1  0.22840000  0.50360000  0.21070000  1.0 0.1206758792
H  H61  1  0.55390000  0.70870000  0.66650000  1.0 0.1206758792
H  H62  1  0.70870000  0.55390000  0.83350000  1.0 0.1206758792
H  H63  1  0.44610000  0.29130000  0.33350000  1.0 0.1206758792
H  H64  1  0.29130000  0.44610000  0.16650000  1.0 0.1206758792
H  H65  1  0.50770000  0.71630000  0.56490000  1.0 0.1324013293
H  H66  1  0.71630000  0.50770000  0.93510000  1.0 0.1324013293
H  H67  1  0.49230000  0.28370000  0.43510000  1.0 0.1324013293
H  H68  1  0.28370000  0.49230000  0.06490000  1.0 0.1324013293
H  H69  1  0.41100000  0.79380000  0.50700000  1.0 0.1206758792
H  H70  1  0.79380000  0.41100000  0.99300000  1.0 0.1206758792
H  H71  1  0.58900000  0.20620000  0.49300000  1.0 0.1206758792
H  H72  1  0.20620000  0.58900000  0.00700000  1.0 0.1206758792
H  H73  1  0.35360000  0.85620000  0.55150000  1.0 0.1206758792
H  H74  1  0.85620000  0.35360000  0.94850000  1.0 0.1206758792
H  H75  1  0.64640000  0.14380000  0.44850000  1.0 0.1206758792
H  H76  1  0.14380000  0.64640000  0.05150000  1.0 0.1206758792
H  H77  1  0.38600000  0.05520000  0.59870000  1.0 0.1113081404
H  H78  1  0.05520000  0.38600000  0.90130000  1.0 0.1113081404
H  H79  1  0.61400000  0.94480000  0.40130000  1.0 0.1113081404
H  H80  1  0.94480000  0.61400000  0.09870000  1.0 0.1113081404
H  H81  1  0.26340000  0.09180000  0.52860000  1.0 0.1206758792
H  H82  1  0.09180000  0.26340000  0.97140000  1.0 0.1206758792
H  H83  1  0.73660000  0.90820000  0.47140000  1.0 0.1206758792
H  H84  1  0.90820000  0.73660000  0.02860000  1.0 0.1206758792
H  H85  1  0.08740000  0.95220000  0.50740000  1.0 0.1324013293
H  H86  1  0.95220000  0.08740000  0.99260000  1.0 0.1324013293
H  H87  1  0.91260000  0.04780000  0.49260000  1.0 0.1324013293
H  H88  1  0.04780000  0.91260000  0.00740000  1.0 0.1324013293
H  H89  1  0.03460000  0.78300000  0.55510000  1.0 0.1206758792
H  H90  1  0.78300000  0.03460000  0.94490000  1.0 0.1206758792
H  H91  1  0.96540000  0.21700000  0.44490000  1.0 0.1206758792
H  H92  1  0.21700000  0.96540000  0.05510000  1.0 0.1206758792
H  H93  1  0.15640000  0.74700000  0.62570000  1.0 0.1113081404
H  H94  1  0.74700000  0.15640000  0.87430000  1.0 0.1113081404
H  H95  1  0.84360000  0.25300000  0.37430000  1.0 0.1113081404
H  H96  1  0.25300000  0.84360000  0.12570000  1.0 0.1113081404
H  H97  1  0.01520000  0.75900000  0.73740000  1.0 0.1008142638
H  H98  1  0.75900000  0.01520000  0.76260000  1.0 0.1008142638
H  H99  1  0.98480000  0.24100000  0.26260000  1.0 0.1008142638
H  H100  1  0.24100000  0.98480000  0.23740000  1.0 0.1008142638
H  H101  1  0.85620000  0.54200000  0.63840000  1.0 0.1113081404
H  H102  1  0.54200000  0.85620000  0.86160000  1.0 0.1113081404
H  H103  1  0.14380000  0.45800000  0.36160000  1.0 0.1113081404
H  H104  1  0.45800000  0.14380000  0.13840000  1.0 0.1113081404
H  H105  1  0.81160000  0.67700000  0.58870000  1.0 0.1410100778
H  H106  1  0.67700000  0.81160000  0.91130000  1.0 0.1410100778
H  H107  1  0.18840000  0.32300000  0.41130000  1.0 0.1410100778
H  H108  1  0.32300000  0.18840000  0.08870000  1.0 0.1410100778
H  H109  1  0.98460000  0.91180000  0.63640000  1.0 0.1410100778
H  H110  1  0.91180000  0.98460000  0.86360000  1.0 0.1410100778
H  H111  1  0.01540000  0.08820000  0.36360000  1.0 0.1410100778
H  H112  1  0.08820000  0.01540000  0.13640000  1.0 0.1410100778
H  H113  1  0.86030000  0.84910000  0.61410000  1.0 0.1410100778
H  H114  1  0.84910000  0.86030000  0.88590000  1.0 0.1410100778
H  H115  1  0.13970000  0.15090000  0.38590000  1.0 0.1410100778
H  H116  1  0.15090000  0.13970000  0.11410000  1.0 0.1410100778
H  H117  1  0.75580000  0.73400000  0.70940000  1.0 0.1206758792
H  H118  1  0.73400000  0.75580000  0.79060000  1.0 0.1206758792
H  H119  1  0.24420000  0.26600000  0.29060000  1.0 0.1206758792
H  H120  1  0.26600000  0.24420000  0.20940000  1.0 0.1206758792
H  H121  1  0.03410000  0.01050000  0.71000000  1.0 0.1410100778
H  H122  1  0.01050000  0.03410000  0.79000000  1.0 0.1410100778
H  H123  1  0.96590000  0.98950000  0.29000000  1.0 0.1410100778
H  H124  1  0.98950000  0.96590000  0.21000000  1.0 0.1410100778
H  H125  1  0.98390000  0.34010000  0.55060000  1.0 0.1324013293
H  H126  1  0.34010000  0.98390000  0.94940000  1.0 0.1324013293
H  H127  1  0.01610000  0.65990000  0.44940000  1.0 0.1324013293
H  H128  1  0.65990000  0.01610000  0.05060000  1.0 0.1324013293
H  H129  1  0.14900000  0.65660000  0.52810000  1.0 0.1206758792
H  H130  1  0.65660000  0.14900000  0.97190000  1.0 0.1206758792
H  H131  1  0.85100000  0.34340000  0.47190000  1.0 0.1206758792
H  H132  1  0.34340000  0.85100000  0.02810000  1.0 0.1206758792
H  H133  1  0.23180000  0.56620000  0.59530000  1.0 0.1206758792
H  H134  1  0.56620000  0.23180000  0.90470000  1.0 0.1206758792
H  H135  1  0.76820000  0.43380000  0.40470000  1.0 0.1206758792
H  H136  1  0.43380000  0.76820000  0.09530000  1.0 0.1206758792
H  H137  1  0.17930000  0.44430000  0.59620000  1.0 0.1410100778
H  H138  1  0.44430000  0.17930000  0.90380000  1.0 0.1410100778
H  H139  1  0.82070000  0.55570000  0.40380000  1.0 0.1410100778
H  H140  1  0.55570000  0.82070000  0.09620000  1.0 0.1410100778
H  H141  1  0.05740000  0.54480000  0.64040000  1.0 0.1008142638
H  H142  1  0.54480000  0.05740000  0.85960000  1.0 0.1008142638
H  H143  1  0.94260000  0.45520000  0.35960000  1.0 0.1008142638
H  H144  1  0.45520000  0.94260000  0.14040000  1.0 0.1008142638
H  H145  1  0.19010000  0.37390000  0.71340000  1.0 0.1488423492
H  H146  1  0.37390000  0.19010000  0.78660000  1.0 0.1488423492
H  H147  1  0.80990000  0.62610000  0.28660000  1.0 0.1488423492
H  H148  1  0.62610000  0.80990000  0.21340000  1.0 0.1488423492
H  H149  1  0.12150000  0.37650000  0.78870000  1.0 0.1488423492
H  H150  1  0.37650000  0.12150000  0.71130000  1.0 0.1488423492
H  H151  1  0.87850000  0.62350000  0.21130000  1.0 0.1488423492
H  H152  1  0.62350000  0.87850000  0.28870000  1.0 0.1488423492
C  C1  1  0.27273000  0.79847000  0.76446000  1.0 -0.3033445557
C  C2  1  0.79847000  0.27273000  0.73554000  1.0 -0.3033445557
C  C3  1  0.72727000  0.20153000  0.23554000  1.0 -0.3033445557
C  C4  1  0.20153000  0.72727000  0.26446000  1.0 -0.3033445557
C  C5  1  0.31038000  0.76382000  0.73064000  1.0 -0.3126412113
C  C6  1  0.76382000  0.31038000  0.76936000  1.0 -0.3126412113
C  C7  1  0.68962000  0.23618000  0.26936000  1.0 -0.3126412113
C  C8  1  0.23618000  0.68962000  0.23064000  1.0 -0.3126412113
C  C9  1  0.15910000  0.75650000  0.85185000  1.0 -0.0501821543
C  C10  1  0.75650000  0.15910000  0.64815000  1.0 -0.0501821543
C  C11  1  0.84090000  0.24350000  0.14815000  1.0 -0.0501821543
C  C12  1  0.24350000  0.84090000  0.35185000  1.0 -0.0501821543
C  C13  1  0.19430000  0.86390000  0.83520000  1.0 -0.1202199824
C  C14  1  0.86390000  0.19430000  0.66480000  1.0 -0.1202199824
C  C15  1  0.80570000  0.13610000  0.16480000  1.0 -0.1202199824
C  C16  1  0.13610000  0.80570000  0.33520000  1.0 -0.1202199824
C  C17  1  0.15750000  0.90490000  0.85770000  1.0 -0.0890145232
C  C18  1  0.90490000  0.15750000  0.64230000  1.0 -0.0890145232
C  C19  1  0.84250000  0.09510000  0.14230000  1.0 -0.0890145232
C  C20  1  0.09510000  0.84250000  0.35770000  1.0 -0.0890145232
C  C21  1  0.08930000  0.84170000  0.89790000  1.0 -0.0890145232
C  C22  1  0.84170000  0.08930000  0.60210000  1.0 -0.0890145232
C  C23  1  0.91070000  0.15830000  0.10210000  1.0 -0.0890145232
C  C24  1  0.15830000  0.91070000  0.39790000  1.0 -0.0890145232
C  C25  1  0.05360000  0.73620000  0.91380000  1.0 -0.0890145232
C  C26  1  0.73620000  0.05360000  0.58620000  1.0 -0.0890145232
C  C27  1  0.94640000  0.26380000  0.08620000  1.0 -0.0890145232
C  C28  1  0.26380000  0.94640000  0.41380000  1.0 -0.0890145232
C  C29  1  0.08700000  0.69220000  0.89090000  1.0 -0.1365609348
C  C30  1  0.69220000  0.08700000  0.60910000  1.0 -0.1365609348
C  C31  1  0.91300000  0.30780000  0.10910000  1.0 -0.1365609348
C  C32  1  0.30780000  0.91300000  0.39090000  1.0 -0.1365609348
C  C33  1  0.28774000  0.66706000  0.87953000  1.0 -0.0501821543
C  C34  1  0.66706000  0.28774000  0.62047000  1.0 -0.0501821543
C  C35  1  0.71226000  0.33294000  0.12047000  1.0 -0.0501821543
C  C36  1  0.33294000  0.71226000  0.37953000  1.0 -0.0501821543
C  C37  1  0.28510000  0.57590000  0.88650000  1.0 -0.1318602367
C  C38  1  0.57590000  0.28510000  0.61350000  1.0 -0.1318602367
C  C39  1  0.71490000  0.42410000  0.11350000  1.0 -0.1318602367
C  C40  1  0.42410000  0.71490000  0.38650000  1.0 -0.1318602367
C  C41  1  0.35680000  0.55440000  0.93060000  1.0 -0.0793351126
C  C42  1  0.55440000  0.35680000  0.56940000  1.0 -0.0793351126
C  C43  1  0.64320000  0.44560000  0.06940000  1.0 -0.0793351126
C  C44  1  0.44560000  0.64320000  0.43060000  1.0 -0.0793351126
C  C45  1  0.43330000  0.62810000  0.96710000  1.0 -0.0793351126
C  C46  1  0.62810000  0.43330000  0.53290000  1.0 -0.0793351126
C  C47  1  0.56670000  0.37190000  0.03290000  1.0 -0.0793351126
C  C48  1  0.37190000  0.56670000  0.46710000  1.0 -0.0793351126
C  C49  1  0.43730000  0.71910000  0.96110000  1.0 -0.0890145232
C  C50  1  0.71910000  0.43730000  0.53890000  1.0 -0.0890145232
C  C51  1  0.56270000  0.28090000  0.03890000  1.0 -0.0890145232
C  C52  1  0.28090000  0.56270000  0.46110000  1.0 -0.0890145232
C  C53  1  0.36440000  0.73860000  0.91760000  1.0 -0.1318602367
C  C54  1  0.73860000  0.36440000  0.58240000  1.0 -0.1318602367
C  C55  1  0.63560000  0.26140000  0.08240000  1.0 -0.1318602367
C  C56  1  0.26140000  0.63560000  0.41760000  1.0 -0.1318602367
C  C57  1  0.41940000  0.82000000  0.63640000  1.0 -0.0603092988
C  C58  1  0.82000000  0.41940000  0.86360000  1.0 -0.0603092988
C  C59  1  0.58060000  0.18000000  0.36360000  1.0 -0.0603092988
C  C60  1  0.18000000  0.58060000  0.13640000  1.0 -0.0603092988
C  C61  1  0.47870000  0.77590000  0.66930000  1.0 -0.1202199824
C  C62  1  0.77590000  0.47870000  0.83070000  1.0 -0.1202199824
C  C63  1  0.52130000  0.22410000  0.33070000  1.0 -0.1202199824
C  C64  1  0.22410000  0.52130000  0.16930000  1.0 -0.1202199824
C  C65  1  0.51300000  0.73780000  0.64330000  1.0 -0.0890145232
C  C66  1  0.73780000  0.51300000  0.85670000  1.0 -0.0890145232
C  C67  1  0.48700000  0.26220000  0.35670000  1.0 -0.0890145232
C  C68  1  0.26220000  0.48700000  0.14330000  1.0 -0.0890145232
C  C69  1  0.48630000  0.74330000  0.58300000  1.0 -0.0890145232
C  C70  1  0.74330000  0.48630000  0.91700000  1.0 -0.0890145232
C  C71  1  0.51370000  0.25670000  0.41700000  1.0 -0.0890145232
C  C72  1  0.25670000  0.51370000  0.08300000  1.0 -0.0890145232
C  C73  1  0.42750000  0.78890000  0.54840000  1.0 -0.0977419917
C  C74  1  0.78890000  0.42750000  0.95160000  1.0 -0.0977419917
C  C75  1  0.57250000  0.21110000  0.45160000  1.0 -0.0977419917
C  C76  1  0.21110000  0.57250000  0.04840000  1.0 -0.0977419917
C  C77  1  0.39360000  0.82640000  0.57480000  1.0 -0.1202199824
C  C78  1  0.82640000  0.39360000  0.92520000  1.0 -0.1202199824
C  C79  1  0.60640000  0.17360000  0.42520000  1.0 -0.1202199824
C  C80  1  0.17360000  0.60640000  0.07480000  1.0 -0.1202199824
C  C81  1  0.28560000  0.89700000  0.62000000  1.0 -0.0603092988
C  C82  1  0.89700000  0.28560000  0.88000000  1.0 -0.0603092988
C  C83  1  0.71440000  0.10300000  0.38000000  1.0 -0.0603092988
C  C84  1  0.10300000  0.71440000  0.12000000  1.0 -0.0603092988
C  C85  1  0.31530000  0.99950000  0.59030000  1.0 -0.1365609348
C  C86  1  0.99950000  0.31530000  0.90970000  1.0 -0.1365609348
C  C87  1  0.68470000  0.00050000  0.40970000  1.0 -0.1318602367
C  C88  1  0.00050000  0.68470000  0.09030000  1.0 -0.1318602367
C  C89  1  0.24220000  0.02200000  0.54820000  1.0 -0.0890145232
C  C90  1  0.02200000  0.24220000  0.95180000  1.0 -0.0890145232
C  C91  1  0.75780000  0.97800000  0.45180000  1.0 -0.0890145232
C  C92  1  0.97800000  0.75780000  0.04820000  1.0 -0.0890145232
C  C93  1  0.13670000  0.93810000  0.53580000  1.0 -0.0890145232
C  C94  1  0.93810000  0.13670000  0.96420000  1.0 -0.0890145232
C  C95  1  0.86330000  0.06190000  0.46420000  1.0 -0.0890145232
C  C96  1  0.06190000  0.86330000  0.03580000  1.0 -0.0890145232
C  C97  1  0.10550000  0.83830000  0.56370000  1.0 -0.0890145232
C  C98  1  0.83830000  0.10550000  0.93630000  1.0 -0.0890145232
C  C99  1  0.89450000  0.16170000  0.43630000  1.0 -0.0890145232
C  C100  1  0.16170000  0.89450000  0.06370000  1.0 -0.0890145232
C  C101  1  0.17930000  0.81710000  0.60610000  1.0 -0.1318602367
C  C102  1  0.81710000  0.17930000  0.89390000  1.0 -0.1318602367
C  C103  1  0.82070000  0.18290000  0.39390000  1.0 -0.1318602367
C  C104  1  0.18290000  0.82070000  0.10610000  1.0 -0.1318602367
C  C105  1  0.96980000  0.72120000  0.70620000  1.0 0.0886045814
C  C106  1  0.72120000  0.96980000  0.79380000  1.0 0.0886045814
C  C107  1  0.03020000  0.27880000  0.29380000  1.0 0.0886045814
C  C108  1  0.27880000  0.03020000  0.20620000  1.0 0.0886045814
C  C109  1  0.88360000  0.60340000  0.65260000  1.0 -0.0337108043
C  C110  1  0.60340000  0.88360000  0.84740000  1.0 -0.0337108043
C  C111  1  0.11640000  0.39660000  0.34740000  1.0 -0.0337108043
C  C112  1  0.39660000  0.11640000  0.15260000  1.0 -0.0337108043
C  C113  1  0.85830000  0.67750000  0.62480000  1.0 -0.1054937211
C  C114  1  0.67750000  0.85830000  0.87520000  1.0 -0.1054937211
C  C115  1  0.14170000  0.32250000  0.37520000  1.0 -0.1054937211
C  C116  1  0.32250000  0.14170000  0.12480000  1.0 -0.1054937211
C  C117  1  0.91660000  0.85160000  0.64760000  1.0 -0.1686138565
C  C118  1  0.85160000  0.91660000  0.85240000  1.0 -0.1686138565
C  C119  1  0.08340000  0.14840000  0.35240000  1.0 -0.1686138565
C  C120  1  0.14840000  0.08340000  0.14760000  1.0 -0.1686138565
C  C121  1  0.90130000  0.86890000  0.70180000  1.0 0.0886045814
C  C122  1  0.86890000  0.90130000  0.79820000  1.0 0.0886045814
C  C123  1  0.09870000  0.13110000  0.29820000  1.0 0.0886045814
C  C124  1  0.13110000  0.09870000  0.20180000  1.0 0.0886045814
C  C125  1  0.80880000  0.79460000  0.72630000  1.0 -0.1553454478
C  C126  1  0.79460000  0.80880000  0.77370000  1.0 -0.1553454478
C  C127  1  0.19120000  0.20540000  0.27370000  1.0 -0.1553454478
C  C128  1  0.20540000  0.19120000  0.22630000  1.0 -0.1553454478
C  C129  1  0.97270000  0.95770000  0.72620000  1.0 -0.1318602367
C  C130  1  0.95770000  0.97270000  0.77380000  1.0 -0.1318602367
C  C131  1  0.02730000  0.04230000  0.27380000  1.0 -0.1318602367
C  C132  1  0.04230000  0.02730000  0.22620000  1.0 -0.1318602367
C  C133  1  0.99140000  0.40540000  0.53030000  1.0 -0.1318602367
C  C134  1  0.40540000  0.99140000  0.96970000  1.0 -0.1318602367
C  C135  1  0.00860000  0.59460000  0.46970000  1.0 -0.1318602367
C  C136  1  0.59460000  0.00860000  0.03030000  1.0 -0.1318602367
C  C137  1  0.08910000  0.59270000  0.51690000  1.0 -0.1686138565
C  C138  1  0.59270000  0.08910000  0.98310000  1.0 -0.1686138565
C  C139  1  0.91090000  0.40730000  0.48310000  1.0 -0.1686138565
C  C140  1  0.40730000  0.91090000  0.01690000  1.0 -0.1686138565
C  C141  1  0.08060000  0.49760000  0.54680000  1.0 0.0833655218
C  C142  1  0.49760000  0.08060000  0.95320000  1.0 0.0833655218
C  C143  1  0.91940000  0.50240000  0.45320000  1.0 0.0833655218
C  C144  1  0.50240000  0.91940000  0.04680000  1.0 0.0833655218
C  C145  1  0.16590000  0.49630000  0.59810000  1.0 -0.1686138565
C  C146  1  0.49630000  0.16590000  0.90190000  1.0 -0.1686138565
C  C147  1  0.83410000  0.50370000  0.40190000  1.0 -0.1686138565
C  C148  1  0.50370000  0.83410000  0.09810000  1.0 -0.1686138565
C  C149  1  0.08245000  0.50335000  0.66840000  1.0 0.0691059599
C  C150  1  0.50335000  0.08245000  0.83160000  1.0 0.0691059599
C  C151  1  0.91755000  0.49665000  0.33160000  1.0 0.0691059599
C  C152  1  0.49665000  0.91755000  0.16840000  1.0 0.0691059599
C  C153  1  0.15555000  0.40905000  0.70800000  1.0 -0.0977419917
C  C154  1  0.40905000  0.15555000  0.79200000  1.0 -0.0977419917
C  C155  1  0.84445000  0.59095000  0.29200000  1.0 -0.0977419917
C  C156  1  0.59095000  0.84445000  0.20800000  1.0 -0.0977419917
C  C157  1  0.11770000  0.41110000  0.74910000  1.0 -0.0501821543
C  C158  1  0.41110000  0.11770000  0.75090000  1.0 -0.0501821543
C  C159  1  0.88230000  0.58890000  0.25090000  1.0 -0.0501821543
C  C160  1  0.58890000  0.88230000  0.24910000  1.0 -0.0501821543
N  N1  1  0.95334000  0.62986000  0.70364000  1.0 -0.2682632585
N  N2  1  0.62986000  0.95334000  0.79636000  1.0 -0.2682632585
N  N3  1  0.04666000  0.37014000  0.29636000  1.0 -0.2682632585
N  N4  1  0.37014000  0.04666000  0.20364000  1.0 -0.2682632585
N  N5  1  0.91487000  0.75333000  0.66000000  1.0 0.0392332109
N  N6  1  0.75333000  0.91487000  0.84000000  1.0 0.0392332109
N  N7  1  0.08513000  0.24667000  0.34000000  1.0 0.0392332109
N  N8  1  0.24667000  0.08513000  0.16000000  1.0 0.0392332109
N  N9  1  0.13360000  0.46860000  0.65624000  1.0 0.0392332109
N  N10  1  0.46860000  0.13360000  0.84376000  1.0 0.0392332109
N  N11  1  0.86640000  0.53140000  0.34376000  1.0 0.0392332109
N  N12  1  0.53140000  0.86640000  0.15624000  1.0 0.0392332109
N  N13  1  0.07227000  0.47133000  0.72512000  1.0 -0.262019672
N  N14  1  0.47133000  0.07227000  0.77488000  1.0 -0.262019672
N  N15  1  0.92773000  0.52867000  0.27488000  1.0 -0.262019672
N  N16  1  0.52867000  0.92773000  0.22512000  1.0 -0.262019672
F  F1  1  0.23640000  0.22380000  0.98350000  1.0 -0.4916139533
F  F2  1  0.24240000  0.18660000  0.84200000  1.0 -0.4916139533
F  F3  1  0.19382000  0.29678000  0.87330000  1.0 -0.4659845312
F  F4  1  0.29106000  0.11954000  0.95750000  1.0 -0.4916139533
F  F5  1  0.10300000  0.08980000  0.91360000  1.0 -0.4916139533
F  F6  1  0.38110000  0.31470000  0.91360000  1.0 -0.4916139533
F  F7  1  0.22380000  0.23640000  0.51650000  1.0 -0.4916139533
F  F8  1  0.18660000  0.24240000  0.65800000  1.0 -0.4916139533
F  F9  1  0.29678000  0.19382000  0.62670000  1.0 -0.4659845312
F  F10  1  0.11954000  0.29106000  0.54250000  1.0 -0.4916139533
F  F11  1  0.08980000  0.10300000  0.58640000  1.0 -0.4916139533
F  F12  1  0.31470000  0.38110000  0.58640000  1.0 -0.4916139533
F  F13  1  0.76360000  0.77620000  0.01650000  1.0 -0.4916139533
F  F14  1  0.75760000  0.81340000  0.15800000  1.0 -0.4916139533
F  F15  1  0.80618000  0.70322000  0.12670000  1.0 -0.4659845312
F  F16  1  0.70894000  0.88046000  0.04250000  1.0 -0.4916139533
F  F17  1  0.89700000  0.91020000  0.08640000  1.0 -0.4916139533
F  F18  1  0.61890000  0.68530000  0.08640000  1.0 -0.4916139533
F  F19  1  0.77620000  0.76360000  0.48350000  1.0 -0.4916139533
F  F20  1  0.81340000  0.75760000  0.34200000  1.0 -0.4916139533
F  F21  1  0.70322000  0.80618000  0.37330000  1.0 -0.4659845312
F  F22  1  0.88046000  0.70894000  0.45750000  1.0 -0.4916139533
F  F23  1  0.91020000  0.89700000  0.41360000  1.0 -0.4916139533
F  F24  1  0.68530000  0.61890000  0.41360000  1.0 -0.4916139533
