# DDEC6 charges by PACMAN v1.1 (https://github.com/mtap-research/PACMAN-charge/)
data_DARSEV_ASR_pacman
_symmetry_space_group_name_H-M   'P 1'
_cell_length_a   10.23430000
_cell_length_b   19.11800000
_cell_length_c   20.92870000
_cell_angle_alpha   67.55300000
_cell_angle_beta   86.75300000
_cell_angle_gamma   83.63000000
_symmetry_Int_Tables_number   1
_chemical_formula_structural   CdH18C30N2(Cl2O)2
_chemical_formula_sum   'Cd3 H54 C90 N6 Cl12 O6'
_cell_volume   3760.81815263
_cell_formula_units_Z   3
loop_
 _symmetry_equiv_pos_site_id
 _symmetry_equiv_pos_as_xyz
  1  'x, y, z'
loop_
 _atom_site_type_symbol
 _atom_site_label
 _atom_site_symmetry_multiplicity
 _atom_site_fract_x
 _atom_site_fract_y
 _atom_site_fract_z
 _atom_site_occupancy
 _atom_site_charge
Cd  Cd1  1  0.99075000  0.16458000  0.09415000  1.0 0.7416463436
Cd  Cd2  1  0.72089000  0.09936000  0.00832000  1.0 0.7416463436
Cd  Cd3  1  0.35536000  0.12775000  0.05273000  1.0 0.7416463436
H  H1  1  0.45480000  0.23460000  0.12340000  1.0 0.1100789238
H  H2  1  0.51560000  0.22880000  0.23030000  1.0 0.1296266845
H  H3  1  0.52920000  0.99980000  0.30770000  1.0 0.1394553838
H  H4  1  0.45550000  0.01090000  0.20050000  1.0 0.1189783364
H  H5  1  0.75870000  0.03130000  0.31960000  1.0 0.1296266845
H  H6  1  0.96400000  0.97380000  0.49410000  1.0 0.1296266845
H  H7  1  0.81230000  0.03960000  0.53870000  1.0 0.1189783364
H  H8  1  0.40810000  0.20030000  0.34300000  1.0 0.1394553838
H  H9  1  0.65140000  0.26180000  0.45050000  1.0 0.1189783364
H  H10  1  0.68250000  0.37430000  0.45600000  1.0 0.1394553838
H  H11  1  0.67720000  0.27900000  0.66630000  1.0 0.1296266845
H  H12  1  0.58810000  0.03040000  0.71750000  1.0 0.1296266845
H  H13  1  0.52770000  0.06900000  0.90880000  1.0 0.092816473
H  H14  1  0.48700000  0.08180000  0.79570000  1.0 0.1296266845
H  H15  1  0.82810000  0.17680000  0.73680000  1.0 0.1296266845
H  H16  1  0.85820000  0.16300000  0.84970000  1.0 0.1100789238
H  H17  1  0.24060000  0.23840000  0.90330000  1.0 0.1189783364
H  H18  1  0.18940000  0.23840000  0.79820000  1.0 0.1296266845
H  H19  1  0.22510000  0.00790000  0.87950000  1.0 0.1296266845
H  H20  1  0.28270000  0.01660000  0.98210000  1.0 0.1000105609
H  H21  1  0.02950000  0.02530000  0.83880000  1.0 0.1296266845
H  H22  1  0.86680000  0.96820000  0.69940000  1.0 0.1394553838
H  H23  1  0.97960000  0.04740000  0.61400000  1.0 0.1189783364
H  H24  1  0.31900000  0.19990000  0.71300000  1.0 0.1394553838
H  H25  1  0.04570000  0.27530000  0.55990000  1.0 0.1189783364
H  H26  1  0.97290000  0.38660000  0.48050000  1.0 0.1296266845
H  H27  1  0.98690000  0.29640000  0.33333333  1.0 0.1189783364
H  H28  1  0.17750000  0.05100000  0.44090000  1.0 0.1394553838
H  H29  1  0.20100000  0.10820000  0.21510000  1.0 0.1000105609
H  H30  1  0.24660000  0.11010000  0.32300000  1.0 0.1296266845
H  H31  1  0.87010000  0.20110000  0.33110000  1.0 0.1296266845
H  H32  1  0.83640000  0.19680000  0.22450000  1.0 0.1000105609
H  H33  1  0.71080000  0.25370000  0.04320000  1.0 0.1000105609
H  H34  1  0.56410000  0.35810000  0.03390000  1.0 0.1394553838
H  H35  1  0.85610000  0.43540000  0.11200000  1.0 0.1394553838
H  H36  1  0.98340000  0.32610000  0.11800000  1.0 0.1100789238
H  H37  1  0.63010000  0.47220000  0.16050000  1.0 0.1296266845
H  H38  1  0.63900000  0.47310000  0.94080000  1.0 0.1189783364
H  H39  1  0.37340000  0.64710000  0.83480000  1.0 0.1296266845
H  H40  1  0.32690000  0.67400000  0.93430000  1.0 0.1189783364
H  H41  1  0.01450000  0.03330000  0.00330000  1.0 0.1000105609
H  H42  1  0.15630000  0.92900000  0.02440000  1.0 0.1296266845
H  H43  1  0.86600000  0.81080000  0.03200000  1.0 0.1189783364
H  H44  1  0.72140000  0.92450000  0.01370000  1.0 0.092816473
H  H45  1  0.27440000  0.85360000  0.99520000  1.0 0.1296266845
H  H46  1  0.22270000  0.53790000  0.11140000  1.0 0.1100789238
H  H47  1  0.01080000  0.51270000  0.15640000  1.0 0.1189783364
H  H48  1  0.90510000  0.73880000  0.09780000  1.0 0.1100789238
H  H49  1  0.45152000  0.25098000  0.47384000  1.0 0.3204765659
H  H50  1  0.46132000  0.99527000  0.61004000  1.0 0.3397549134
H  H51  1  0.32155000  0.28220000  0.58778000  1.0 0.3522380185
H  H52  1  0.31253000  0.04010000  0.59776000  1.0 0.3204765659
H  H53  1  0.55311000  0.58588000  0.19797000  1.0 0.3324014586
H  H54  1  0.50389000  0.80460000  0.00357000  1.0 0.3522380185
C  C1  1  0.46650000  0.18730000  0.16130000  1.0 0.0601743799
C  C2  1  0.50350000  0.18290000  0.22480000  1.0 -0.2002572202
C  C3  1  0.52450000  0.11390000  0.28220000  1.0 0.1100789238
C  C4  1  0.51090000  0.04840000  0.27210000  1.0 -0.1913199413
C  C5  1  0.46890000  0.05610000  0.20700000  1.0 0.1189783364
C  C6  1  0.55460000  0.11430000  0.35000000  1.0 0.0322238125
C  C7  1  0.67110000  0.07500000  0.38920000  1.0 0.0322238125
C  C8  1  0.76720000  0.03270000  0.36400000  1.0 -0.2101069523
C  C9  1  0.87020000  0.99480000  0.40300000  1.0 0.1497868639
C  C10  1  0.88800000  0.99960000  0.46840000  1.0 -0.1619576473
C  C11  1  0.80070000  0.03890000  0.49420000  1.0 -0.1188506021
C  C12  1  0.68860000  0.08040000  0.45360000  1.0 0.0393928373
C  C13  1  0.59130000  0.11970000  0.48290000  1.0 -0.0819838825
C  C14  1  0.48530000  0.16820000  0.43830000  1.0 0.3061209958
C  C15  1  0.47300000  0.16610000  0.37320000  1.0 -0.3176748413
C  C16  1  0.60920000  0.12680000  0.55100000  1.0 -0.1188506021
C  C17  1  0.64090000  0.19940000  0.55370000  1.0 0.0476027793
C  C18  1  0.65570000  0.26500000  0.49450000  1.0 -0.141420251
C  C19  1  0.67520000  0.33040000  0.49700000  1.0 -0.1498605032
C  C20  1  0.68520000  0.33300000  0.56330000  1.0 0.1394553838
C  C21  1  0.67200000  0.27320000  0.62340000  1.0 -0.2258589524
C  C22  1  0.65050000  0.20180000  0.62210000  1.0 0.0322238125
C  C23  1  0.63150000  0.13790000  0.68090000  1.0 0.0393928373
C  C24  1  0.60290000  0.07280000  0.67630000  1.0 -0.2757021446
C  C25  1  0.59390000  0.06570000  0.60810000  1.0 0.2691646707
C  C26  1  0.58860000  0.09200000  0.87290000  1.0 0.092816473
C  C27  1  0.56390000  0.09960000  0.80520000  1.0 -0.2101069523
C  C28  1  0.65230000  0.13330000  0.75180000  1.0 0.1189783364
C  C29  1  0.76320000  0.15530000  0.77090000  1.0 -0.1913199413
C  C30  1  0.78140000  0.14660000  0.83850000  1.0 0.092816473
C  C31  1  0.24130000  0.19130000  0.89770000  1.0 0.1000105609
C  C32  1  0.20840000  0.19150000  0.83590000  1.0 -0.1913199413
C  C33  1  0.20250000  0.12430000  0.82740000  1.0 0.1189783364
C  C34  1  0.22980000  0.05580000  0.88280000  1.0 -0.2002572202
C  C35  1  0.26450000  0.06230000  0.94300000  1.0 0.0601743799
C  C36  1  0.18400000  0.12420000  0.75540000  1.0 0.0393928373
C  C37  1  0.09950000  0.08140000  0.74060000  1.0 0.0393928373
C  C38  1  0.02070000  0.03120000  0.79210000  1.0 -0.2223642179
C  C39  1  0.93350000  0.99120000  0.77730000  1.0 0.1497868639
C  C40  1  0.92500000  0.99790000  0.70980000  1.0 -0.1498605032
C  C41  1  0.99250000  0.04370000  0.65980000  1.0 -0.1119969651
C  C42  1  0.08300000  0.08730000  0.67020000  1.0 0.0393928373
C  C43  1  0.15260000  0.13240000  0.61950000  1.0 -0.0596742105
C  C44  1  0.24560000  0.18150000  0.63170000  1.0 0.2955839675
C  C45  1  0.25800000  0.17230000  0.70210000  1.0 -0.3176748413
C  C46  1  0.13460000  0.14600000  0.54530000  1.0 -0.1119969651
C  C47  1  0.07500000  0.21890000  0.49330000  1.0 0.0476027793
C  C48  1  0.03850000  0.28070000  0.51310000  1.0 -0.1119969651
C  C49  1  0.99500000  0.34430000  0.46740000  1.0 -0.141420251
C  C50  1  0.98000000  0.35380000  0.39500000  1.0 0.1556179118
C  C51  1  0.00580000  0.29220000  0.37860000  1.0 -0.2223642179
C  C52  1  0.06060000  0.22110000  0.42640000  1.0 0.0322238125
C  C53  1  0.09190000  0.15900000  0.40680000  1.0 0.0393928373
C  C54  1  0.15310000  0.09340000  0.45370000  1.0 -0.2711453099
C  C55  1  0.18060000  0.08850000  0.52190000  1.0 0.2813973468
C  C56  1  0.13480000  0.12880000  0.23840000  1.0 0.092816473
C  C57  1  0.16270000  0.13010000  0.30320000  1.0 -0.1913199413
C  C58  1  0.06750000  0.16060000  0.33810000  1.0 0.1189783364
C  C59  1  0.94070000  0.18370000  0.30770000  1.0 -0.2002572202
C  C60  1  0.92120000  0.18070000  0.24420000  1.0 0.0771105331
C  C61  1  0.73870000  0.29240000  0.05570000  1.0 0.1000105609
C  C62  1  0.65080000  0.35370000  0.04990000  1.0 -0.2002572202
C  C63  1  0.69800000  0.41390000  0.07010000  1.0 0.1296266845
C  C64  1  0.82280000  0.40040000  0.09630000  1.0 -0.2002572202
C  C65  1  0.89800000  0.33510000  0.09920000  1.0 0.092816473
C  C66  1  0.61320000  0.48610000  0.05970000  1.0 0.0322238125
C  C67  1  0.58560000  0.50200000  0.11870000  1.0 -0.2648608643
C  C68  1  0.49290000  0.56170000  0.11680000  1.0 0.2623668354
C  C69  1  0.42780000  0.60540000  0.05580000  1.0 -0.0483825166
C  C70  1  0.45540000  0.58950000  0.99670000  1.0 0.0393928373
C  C71  1  0.54810000  0.52980000  0.99860000  1.0 0.0322238125
C  C72  1  0.57570000  0.51390000  0.93950000  1.0 -0.2002572202
C  C73  1  0.51100000  0.55760000  0.87850000  1.0 0.1296266845
C  C74  1  0.41790000  0.61730000  0.87650000  1.0 -0.1498605032
C  C75  1  0.39030000  0.63320000  0.93560000  1.0 -0.1188506021
C  C76  1  0.97900000  0.98620000  0.01480000  1.0 0.070327368
C  C77  1  0.06500000  0.92260000  0.02620000  1.0 -0.1498605032
C  C78  1  0.03600000  0.86010000  0.03830000  1.0 0.1189783364
C  C79  1  0.89900000  0.85610000  0.03040000  1.0 -0.24827918
C  C80  1  0.81200000  0.92520000  0.01990000  1.0 0.092816473
C  C81  1  0.31560000  0.66830000  0.05110000  1.0 -0.0596742105
C  C82  1  0.34720000  0.74290000  0.02030000  1.0 0.2691646707
C  C83  1  0.25290000  0.80260000  0.01630000  1.0 -0.3176748413
C  C84  1  0.12700000  0.78760000  0.04300000  1.0 0.0771105331
C  C85  1  0.09550000  0.71300000  0.07380000  1.0 0.0322238125
C  C86  1  0.18980000  0.65330000  0.07790000  1.0 0.0476027793
C  C87  1  0.15830000  0.57870000  0.10860000  1.0 -0.1119969651
C  C88  1  0.03240000  0.56370000  0.13540000  1.0 -0.1766350228
C  C89  1  0.93810000  0.62340000  0.13130000  1.0 0.1497868639
C  C90  1  0.96960000  0.69800000  0.10060000  1.0 -0.1913199413
N  N1  1  0.44690000  0.12000000  0.15490000  1.0 -0.2223642179
N  N2  1  0.69500000  0.11600000  0.88790000  1.0 -0.2101069523
N  N3  1  0.27420000  0.12760000  0.95020000  1.0 -0.2101069523
N  N4  1  0.01670000  0.15610000  0.20880000  1.0 -0.2258589524
N  N5  1  0.86030000  0.28380000  0.07780000  1.0 -0.2101069523
N  N6  1  0.85230000  0.98690000  0.01850000  1.0 -0.2101069523
Cl  Cl1  1  0.53660000  0.21450000  0.98040000  1.0 -0.5098584849
Cl  Cl2  1  0.92330000  0.18040000  0.97020000  1.0 -0.4996114481
Cl  Cl3  1  0.83320000  0.93240000  0.84180000  1.0 -0.0913910899
Cl  Cl4  1  0.78440000  0.08910000  0.13320000  1.0 -0.4996114481
Cl  Cl5  1  0.99130000  0.94420000  0.37230000  1.0 -0.0819838825
Cl  Cl6  1  0.16680000  0.04490000  0.12110000  1.0 -0.5098584849
Cl  Cl7  1  0.70160000  0.42400000  0.56690000  1.0 -0.1006120775
Cl  Cl8  1  0.52730000  0.01170000  0.05690000  1.0 -0.5435958762
Cl  Cl9  1  0.91930000  0.44330000  0.33530000  1.0 -0.1498605032
Cl  Cl10  1  0.19240000  0.24600000  0.04940000  1.0 -0.5246519703
Cl  Cl11  1  0.57360000  0.55810000  0.79820000  1.0 -0.1006120775
Cl  Cl12  1  0.78710000  0.59680000  0.16690000  1.0 -0.141420251
O  O1  1  0.39920000  0.21430000  0.45570000  1.0 -0.4129907299
O  O2  1  0.56900000  0.99950000  0.60570000  1.0 -0.4129907299
O  O3  1  0.32030000  0.22740000  0.58110000  1.0 -0.429359715
O  O4  1  0.24250000  0.02470000  0.56780000  1.0 -0.4186692495
O  O5  1  0.46210000  0.57630000  0.17730000  1.0 -0.4700705368
O  O6  1  0.46900000  0.75860000  0.99080000  1.0 -0.429359715
