# DDEC6 charges by PACMAN v1.1 (https://github.com/mtap-research/PACMAN-charge/)
data_DAWBIO_ASR_pacman
_symmetry_space_group_name_H-M   'P 1'
_cell_length_a   6.62000000
_cell_length_b   7.66700000
_cell_length_c   26.28200000
_cell_angle_alpha   90.00000000
_cell_angle_beta   90.00000000
_cell_angle_gamma   90.00000000
_symmetry_Int_Tables_number   1
_chemical_formula_structural   CoH7C9N2O5
_chemical_formula_sum   'Co4 H28 C36 N8 O20'
_cell_volume   1333.95710228
_cell_formula_units_Z   4
loop_
 _symmetry_equiv_pos_site_id
 _symmetry_equiv_pos_as_xyz
  1  'x, y, z'
loop_
 _atom_site_type_symbol
 _atom_site_label
 _atom_site_symmetry_multiplicity
 _atom_site_fract_x
 _atom_site_fract_y
 _atom_site_fract_z
 _atom_site_occupancy
 _atom_site_charge
Co  Co1  1  0.01416000  0.25071000  0.71664000  1.0 0.9871852299
Co  Co2  1  0.98584000  0.25071000  0.28336000  1.0 0.9871852299
Co  Co3  1  0.48584000  0.74929000  0.21664000  1.0 0.9871852299
Co  Co4  1  0.51416000  0.74929000  0.78336000  1.0 0.9871852299
H  H1  1  0.02760000  0.41170000  0.85170000  1.0 0.1020665218
H  H2  1  0.97240000  0.41170000  0.14830000  1.0 0.1020665218
H  H3  1  0.47240000  0.58830000  0.35170000  1.0 0.1020665218
H  H4  1  0.52760000  0.58830000  0.64830000  1.0 0.1020665218
H  H5  1  0.91710000  0.13520000  0.86490000  1.0 0.1403960337
H  H6  1  0.08290000  0.13520000  0.13510000  1.0 0.1403960337
H  H7  1  0.58290000  0.86480000  0.36490000  1.0 0.1403960337
H  H8  1  0.41710000  0.86480000  0.63510000  1.0 0.1403960337
H  H9  1  0.72480000  0.25100000  0.85790000  1.0 0.1403960337
H  H10  1  0.27520000  0.25100000  0.14210000  1.0 0.1403960337
H  H11  1  0.77520000  0.74900000  0.35790000  1.0 0.1403960337
H  H12  1  0.22480000  0.74900000  0.64210000  1.0 0.1403960337
H  H13  1  0.03340000  0.38290000  0.60510000  1.0 0.1243019303
H  H14  1  0.96660000  0.38290000  0.39490000  1.0 0.1243019303
H  H15  1  0.46660000  0.61710000  0.10510000  1.0 0.1243019303
H  H16  1  0.53340000  0.61710000  0.89490000  1.0 0.1243019303
H  H17  1  0.83740000  0.40000000  0.53280000  1.0 0.1330228423
H  H18  1  0.16260000  0.40000000  0.46720000  1.0 0.1330228423
H  H19  1  0.66260000  0.60000000  0.03280000  1.0 0.1330228423
H  H20  1  0.33740000  0.60000000  0.96720000  1.0 0.1330228423
H  H21  1  0.38140000  0.18340000  0.61100000  1.0 0.1508584743
H  H22  1  0.61860000  0.18340000  0.38900000  1.0 0.1508584743
H  H23  1  0.11860000  0.81660000  0.11100000  1.0 0.1508584743
H  H24  1  0.88140000  0.81660000  0.88900000  1.0 0.1508584743
H  H25  1  0.59610000  0.16620000  0.67980000  1.0 0.1330228423
H  H26  1  0.40390000  0.16620000  0.32020000  1.0 0.1330228423
H  H27  1  0.90390000  0.83380000  0.17980000  1.0 0.1330228423
H  H28  1  0.09610000  0.83380000  0.82020000  1.0 0.1330228423
C  C1  1  0.85010000  0.48360000  0.79160000  1.0 0.5725511213
C  C2  1  0.14990000  0.48360000  0.20840000  1.0 0.5725511213
C  C3  1  0.64990000  0.51640000  0.29160000  1.0 0.5725511213
C  C4  1  0.35010000  0.51640000  0.70840000  1.0 0.5725511213
C  C5  1  0.97220000  0.35230000  0.82180000  1.0 0.0604251151
C  C6  1  0.02780000  0.35230000  0.17820000  1.0 0.0604251151
C  C7  1  0.52780000  0.64770000  0.32180000  1.0 0.0604251151
C  C8  1  0.47220000  0.64770000  0.67820000  1.0 0.0604251151
C  C9  1  0.84040000  0.20220000  0.84030000  1.0 -0.3765244881
C  C10  1  0.15960000  0.20220000  0.15970000  1.0 -0.3765244881
C  C11  1  0.65960000  0.79780000  0.34030000  1.0 -0.3765244881
C  C12  1  0.34040000  0.79780000  0.65970000  1.0 -0.3765244881
C  C13  1  0.76300000  0.07740000  0.79940000  1.0 0.6600848933
C  C14  1  0.23700000  0.07740000  0.20060000  1.0 0.6600848933
C  C15  1  0.73700000  0.92260000  0.29940000  1.0 0.6600848933
C  C16  1  0.26300000  0.92260000  0.70060000  1.0 0.6600848933
C  C17  1  0.90230000  0.33940000  0.60600000  1.0 0.0826746052
C  C18  1  0.09770000  0.33940000  0.39400000  1.0 0.0826746052
C  C19  1  0.59770000  0.66060000  0.10600000  1.0 0.0826746052
C  C20  1  0.40230000  0.66060000  0.89400000  1.0 0.0826746052
C  C21  1  0.78570000  0.35010000  0.56230000  1.0 -0.197425368
C  C22  1  0.21430000  0.35010000  0.43770000  1.0 -0.197425368
C  C23  1  0.71430000  0.64990000  0.06230000  1.0 -0.197425368
C  C24  1  0.28570000  0.64990000  0.93770000  1.0 -0.197425368
C  C25  1  0.59170000  0.28510000  0.56350000  1.0 0.1807969858
C  C26  1  0.40830000  0.28510000  0.43650000  1.0 0.1807969858
C  C27  1  0.90830000  0.71490000  0.06350000  1.0 0.1807969858
C  C28  1  0.09170000  0.71490000  0.93650000  1.0 0.1807969858
C  C29  1  0.51470000  0.22060000  0.60840000  1.0 -0.197425368
C  C30  1  0.48530000  0.22060000  0.39160000  1.0 -0.197425368
C  C31  1  0.98530000  0.77940000  0.10840000  1.0 -0.197425368
C  C32  1  0.01470000  0.77940000  0.89160000  1.0 -0.197425368
C  C33  1  0.64580000  0.21380000  0.64970000  1.0 0.1115399053
C  C34  1  0.35420000  0.21380000  0.35030000  1.0 0.1115399053
C  C35  1  0.85420000  0.78620000  0.14970000  1.0 0.1115399053
C  C36  1  0.14580000  0.78620000  0.85030000  1.0 0.1115399053
N  N1  1  0.83450000  0.26900000  0.65000000  1.0 -0.2161178241
N  N2  1  0.16550000  0.26900000  0.35000000  1.0 -0.2161178241
N  N3  1  0.66550000  0.73100000  0.15000000  1.0 -0.2161178241
N  N4  1  0.33450000  0.73100000  0.85000000  1.0 -0.2161178241
N  N5  1  0.45790000  0.28710000  0.52080000  1.0 -0.0995054642
N  N6  1  0.54210000  0.28710000  0.47920000  1.0 -0.0995054642
N  N7  1  0.04210000  0.71290000  0.02080000  1.0 -0.0995054642
N  N8  1  0.95790000  0.71290000  0.97920000  1.0 -0.0995054642
O  O1  1  0.87400000  0.47980000  0.74359000  1.0 -0.471026438
O  O2  1  0.12600000  0.47980000  0.25641000  1.0 -0.471026438
O  O3  1  0.62600000  0.52020000  0.24359000  1.0 -0.471026438
O  O4  1  0.37400000  0.52020000  0.75641000  1.0 -0.471026438
O  O5  1  0.13820000  0.27930000  0.79343000  1.0 -0.3854693572
O  O6  1  0.86180000  0.27930000  0.20657000  1.0 -0.3854693572
O  O7  1  0.36180000  0.72070000  0.29343000  1.0 -0.3854693572
O  O8  1  0.63820000  0.72070000  0.70657000  1.0 -0.3854693572
O  O9  1  0.79620000  0.10100000  0.75304000  1.0 -0.5344846348
O  O10  1  0.20380000  0.10100000  0.24696000  1.0 -0.5406715629
O  O11  1  0.70380000  0.89900000  0.25304000  1.0 -0.5406715629
O  O12  1  0.29620000  0.89900000  0.74696000  1.0 -0.5406715629
O  O13  1  0.65900000  0.95370000  0.81664000  1.0 -0.5560318331
O  O14  1  0.34100000  0.95370000  0.18336000  1.0 -0.5560318331
O  O15  1  0.84100000  0.04630000  0.31664000  1.0 -0.5560318331
O  O16  1  0.15900000  0.04630000  0.68336000  1.0 -0.5560318331
O  O17  1  0.73270000  0.57950000  0.81540000  1.0 -0.5406715629
O  O18  1  0.26730000  0.57950000  0.18460000  1.0 -0.5406715629
O  O19  1  0.76730000  0.42050000  0.31540000  1.0 -0.5406715629
O  O20  1  0.23270000  0.42050000  0.68460000  1.0 -0.5406715629
