# DDEC6 charges by PACMAN v1.1 (https://github.com/mtap-research/PACMAN-charge/)
data_DAXJET_FSR_pacman
_symmetry_space_group_name_H-M   'P 1'
_cell_length_a   13.22360000
_cell_length_b   13.22360000
_cell_length_c   13.22360000
_cell_angle_alpha   116.62900000
_cell_angle_beta   116.62900000
_cell_angle_gamma   116.62900000
_symmetry_Int_Tables_number   1
_chemical_formula_structural   FeH18(C3N2)6
_chemical_formula_sum   'Fe2 H36 C36 N24'
_cell_volume   1077.73594500
_cell_formula_units_Z   2
loop_
 _symmetry_equiv_pos_site_id
 _symmetry_equiv_pos_as_xyz
  1  'x, y, z'
loop_
 _atom_site_type_symbol
 _atom_site_label
 _atom_site_symmetry_multiplicity
 _atom_site_fract_x
 _atom_site_fract_y
 _atom_site_fract_z
 _atom_site_occupancy
 _atom_site_charge
Fe  Fe1  1  0.00000000  0.00000000  0.00000000  1.0 0.3453012007
Fe  Fe2  1  0.50000000  0.50000000  0.50000000  1.0 0.3927831548
H  H1  1  0.80257000  0.17960000  0.28500000  1.0 0.08471628
H  H2  1  0.17960000  0.28500000  0.80257000  1.0 0.08471628
H  H3  1  0.28500000  0.80257000  0.17960000  1.0 0.08471628
H  H4  1  0.19743000  0.71500000  0.82040000  1.0 0.08471628
H  H5  1  0.82040000  0.19743000  0.71500000  1.0 0.08471628
H  H6  1  0.71500000  0.82040000  0.19743000  1.0 0.08471628
H  H7  1  0.19743000  0.82040000  0.71500000  1.0 0.08471628
H  H8  1  0.82040000  0.71500000  0.19743000  1.0 0.08471628
H  H9  1  0.71500000  0.19743000  0.82040000  1.0 0.08471628
H  H10  1  0.80257000  0.28500000  0.17960000  1.0 0.08471628
H  H11  1  0.17960000  0.80257000  0.28500000  1.0 0.08471628
H  H12  1  0.28500000  0.17960000  0.80257000  1.0 0.08471628
H  H13  1  0.26847000  0.60940000  0.71200000  1.0 0.0855884674
H  H14  1  0.60940000  0.71200000  0.26847000  1.0 0.0855884674
H  H15  1  0.71200000  0.26847000  0.60940000  1.0 0.0855884674
H  H16  1  0.73153000  0.28800000  0.39060000  1.0 0.0855884674
H  H17  1  0.39060000  0.73153000  0.28800000  1.0 0.0855884674
H  H18  1  0.28800000  0.39060000  0.73153000  1.0 0.0855884674
H  H19  1  0.73153000  0.39060000  0.28800000  1.0 0.0855884674
H  H20  1  0.39060000  0.28800000  0.73153000  1.0 0.0855884674
H  H21  1  0.28800000  0.73153000  0.39060000  1.0 0.0855884674
H  H22  1  0.26847000  0.71200000  0.60940000  1.0 0.0855884674
H  H23  1  0.60940000  0.26847000  0.71200000  1.0 0.0855884674
H  H24  1  0.71200000  0.60940000  0.26847000  1.0 0.0855884674
H  H25  1  0.09743000  0.09743000  0.84200000  1.0 0.2495883254
H  H26  1  0.09743000  0.84200000  0.09743000  1.0 0.2495883254
H  H27  1  0.84200000  0.09743000  0.09743000  1.0 0.2495883254
H  H28  1  0.90256000  0.15800000  0.90256000  1.0 0.2495883254
H  H29  1  0.90256000  0.90256000  0.15800000  1.0 0.2495883254
H  H30  1  0.15800000  0.90256000  0.90256000  1.0 0.2495883254
H  H31  1  0.61933000  0.61933000  0.38520000  1.0 0.2495883254
H  H32  1  0.61933000  0.38520000  0.61933000  1.0 0.2495883254
H  H33  1  0.38520000  0.61933000  0.61933000  1.0 0.2495883254
H  H34  1  0.38066000  0.61480000  0.38067000  1.0 0.2495883254
H  H35  1  0.38066000  0.38066000  0.61480000  1.0 0.2495883254
H  H36  1  0.61480000  0.38067000  0.38067000  1.0 0.2495883254
C  C1  1  0.88237000  0.30950000  0.37170000  1.0 -0.0835792736
C  C2  1  0.30950000  0.37170000  0.88237000  1.0 -0.0835792736
C  C3  1  0.37170000  0.88237000  0.30950000  1.0 -0.0835792736
C  C4  1  0.11763000  0.62830000  0.69050000  1.0 -0.0835792736
C  C5  1  0.69050000  0.11763000  0.62830000  1.0 -0.0835792736
C  C6  1  0.62830000  0.69050000  0.11763000  1.0 -0.0835792736
C  C7  1  0.11763000  0.69050000  0.62830000  1.0 -0.0835792736
C  C8  1  0.69050000  0.62830000  0.11763000  1.0 -0.0835792736
C  C9  1  0.62830000  0.11763000  0.69050000  1.0 -0.0835792736
C  C10  1  0.88237000  0.37170000  0.30950000  1.0 -0.0835792736
C  C11  1  0.30950000  0.88237000  0.37170000  1.0 -0.0835792736
C  C12  1  0.37170000  0.30950000  0.88237000  1.0 -0.0835792736
C  C13  1  0.15797000  0.56350000  0.62390000  1.0 -0.0974548114
C  C14  1  0.56350000  0.62390000  0.15797000  1.0 -0.0974548114
C  C15  1  0.62390000  0.15797000  0.56350000  1.0 -0.0974548114
C  C16  1  0.84203000  0.37610000  0.43650000  1.0 -0.0974548114
C  C17  1  0.43650000  0.84203000  0.37610000  1.0 -0.0974548114
C  C18  1  0.37610000  0.43650000  0.84203000  1.0 -0.0974548114
C  C19  1  0.84203000  0.43650000  0.37610000  1.0 -0.0974548114
C  C20  1  0.43650000  0.37610000  0.84203000  1.0 -0.0974548114
C  C21  1  0.37610000  0.84203000  0.43650000  1.0 -0.0974548114
C  C22  1  0.15797000  0.62390000  0.56350000  1.0 -0.0974548114
C  C23  1  0.56350000  0.15797000  0.62390000  1.0 -0.0974548114
C  C24  1  0.62390000  0.56350000  0.15797000  1.0 -0.0974548114
C  C25  1  0.04233000  0.43642000  0.43642000  1.0 0.0244075802
C  C26  1  0.43642000  0.43642000  0.04233000  1.0 0.0244075802
C  C27  1  0.43642000  0.04233000  0.43642000  1.0 0.0244075802
C  C28  1  0.95767000  0.56358000  0.56358000  1.0 0.0244075802
C  C29  1  0.56358000  0.95767000  0.56358000  1.0 0.0244075802
C  C30  1  0.56358000  0.56358000  0.95767000  1.0 0.0244075802
C  C31  1  0.09253000  0.37472000  0.37472000  1.0 0.06956355
C  C32  1  0.37472000  0.37472000  0.09253000  1.0 0.06956355
C  C33  1  0.37472000  0.09253000  0.37472000  1.0 0.06956355
C  C34  1  0.90747000  0.62528000  0.62528000  1.0 0.06956355
C  C35  1  0.62528000  0.90747000  0.62528000  1.0 0.06956355
C  C36  1  0.62528000  0.62528000  0.90747000  1.0 0.06956355
N  N1  1  0.97123000  0.20047000  0.20047000  1.0 -0.2651042444
N  N2  1  0.20047000  0.20047000  0.97123000  1.0 -0.2651042444
N  N3  1  0.20047000  0.97123000  0.20047000  1.0 -0.2622943734
N  N4  1  0.02877000  0.79953000  0.79953000  1.0 -0.2622943734
N  N5  1  0.79953000  0.02877000  0.79953000  1.0 -0.2622943734
N  N6  1  0.79953000  0.79953000  0.02877000  1.0 -0.2622943734
N  N7  1  0.08478000  0.21494000  0.21494000  1.0 -0.0941890021
N  N8  1  0.21494000  0.21494000  0.08478000  1.0 -0.0941890021
N  N9  1  0.21494000  0.08478000  0.21494000  1.0 -0.0941890021
N  N10  1  0.91522000  0.78505000  0.78505000  1.0 -0.0941890021
N  N11  1  0.78505000  0.91522000  0.78505000  1.0 -0.0941890021
N  N12  1  0.78505000  0.78505000  0.91522000  1.0 -0.0941890021
N  N13  1  0.26853000  0.39262000  0.39262000  1.0 -0.0476781791
N  N14  1  0.39262000  0.39262000  0.26853000  1.0 -0.0476781791
N  N15  1  0.39262000  0.26853000  0.39262000  1.0 -0.0476781791
N  N16  1  0.73147000  0.60738000  0.60738000  1.0 -0.0476781791
N  N17  1  0.60738000  0.73147000  0.60738000  1.0 -0.0476781791
N  N18  1  0.60738000  0.60738000  0.73147000  1.0 -0.0476781791
N  N19  1  0.27880000  0.49653000  0.49654000  1.0 -0.289604987
N  N20  1  0.49654000  0.49653000  0.27880000  1.0 -0.289604987
N  N21  1  0.49654000  0.27880000  0.49654000  1.0 -0.289604987
N  N22  1  0.72120000  0.50347000  0.50347000  1.0 -0.289604987
N  N23  1  0.50347000  0.72120000  0.50347000  1.0 -0.289604987
N  N24  1  0.50347000  0.50347000  0.72120000  1.0 -0.289604987
