# DDEC6 charges by PACMAN v1.1 (https://github.com/mtap-research/PACMAN-charge/)
data_DAXJET01_FSR_pacman
_symmetry_space_group_name_H-M   'P 1'
_cell_length_a   13.30910000
_cell_length_b   13.30910000
_cell_length_c   13.30910000
_cell_angle_alpha   116.60400000
_cell_angle_beta   116.60400000
_cell_angle_gamma   116.60400000
_symmetry_Int_Tables_number   1
_chemical_formula_structural   FeH18(C3N2)6
_chemical_formula_sum   'Fe2 H36 C36 N24'
_cell_volume   1102.60977563
_cell_formula_units_Z   2
loop_
 _symmetry_equiv_pos_site_id
 _symmetry_equiv_pos_as_xyz
  1  'x, y, z'
loop_
 _atom_site_type_symbol
 _atom_site_label
 _atom_site_symmetry_multiplicity
 _atom_site_fract_x
 _atom_site_fract_y
 _atom_site_fract_z
 _atom_site_occupancy
 _atom_site_charge
Fe  Fe1  1  0.00000000  0.00000000  0.00000000  1.0 0.1471123962
Fe  Fe2  1  0.50000000  0.50000000  0.50000000  1.0 0.389766079
H  H1  1  0.80657000  0.18310000  0.28950000  1.0 0.0871956956
H  H2  1  0.18310000  0.28950000  0.80657000  1.0 0.0871956956
H  H3  1  0.28950000  0.80657000  0.18310000  1.0 0.0871956956
H  H4  1  0.19343000  0.71050000  0.81690000  1.0 0.0871956956
H  H5  1  0.81690000  0.19343000  0.71050000  1.0 0.0871956956
H  H6  1  0.71050000  0.81690000  0.19343000  1.0 0.0871956956
H  H7  1  0.19343000  0.81690000  0.71050000  1.0 0.0871956956
H  H8  1  0.81690000  0.71050000  0.19343000  1.0 0.0871956956
H  H9  1  0.71050000  0.19343000  0.81690000  1.0 0.0871956956
H  H10  1  0.80657000  0.28950000  0.18310000  1.0 0.0871956956
H  H11  1  0.18310000  0.80657000  0.28950000  1.0 0.0871956956
H  H12  1  0.28950000  0.18310000  0.80657000  1.0 0.0871956956
H  H13  1  0.26857000  0.61210000  0.71370000  1.0 0.0871956956
H  H14  1  0.61210000  0.71370000  0.26857000  1.0 0.0871956956
H  H15  1  0.71370000  0.26857000  0.61210000  1.0 0.0871956956
H  H16  1  0.73143000  0.28630000  0.38790000  1.0 0.0871956956
H  H17  1  0.38790000  0.73143000  0.28630000  1.0 0.0871956956
H  H18  1  0.28630000  0.38790000  0.73143000  1.0 0.0871956956
H  H19  1  0.73143000  0.38790000  0.28630000  1.0 0.0871956956
H  H20  1  0.38790000  0.28630000  0.73143000  1.0 0.0871956956
H  H21  1  0.28630000  0.73143000  0.38790000  1.0 0.0871956956
H  H22  1  0.26857000  0.71370000  0.61210000  1.0 0.0871956956
H  H23  1  0.61210000  0.26857000  0.71370000  1.0 0.0871956956
H  H24  1  0.71370000  0.61210000  0.26857000  1.0 0.0871956956
H  H25  1  0.10313000  0.10314000  0.84680000  1.0 0.2426447688
H  H26  1  0.10314000  0.84680000  0.10314000  1.0 0.2426447688
H  H27  1  0.84680000  0.10314000  0.10314000  1.0 0.2426447688
H  H28  1  0.89687000  0.15320000  0.89687000  1.0 0.2426447688
H  H29  1  0.89686000  0.89686000  0.15320000  1.0 0.2426447688
H  H30  1  0.15320000  0.89687000  0.89687000  1.0 0.2426447688
H  H31  1  0.62169000  0.62169000  0.38770000  1.0 0.2535696147
H  H32  1  0.62169000  0.38770000  0.62169000  1.0 0.2535696147
H  H33  1  0.38770000  0.62169000  0.62169000  1.0 0.2535696147
H  H34  1  0.37831000  0.61230000  0.37832000  1.0 0.2535696147
H  H35  1  0.37831000  0.37831000  0.61230000  1.0 0.2535696147
H  H36  1  0.61230000  0.37831000  0.37832000  1.0 0.2535696147
C  C1  1  0.88637000  0.31310000  0.37610000  1.0 -0.0840532166
C  C2  1  0.31310000  0.37610000  0.88637000  1.0 -0.0840532166
C  C3  1  0.37610000  0.88637000  0.31310000  1.0 -0.0840532166
C  C4  1  0.11363000  0.62390000  0.68690000  1.0 -0.0840532166
C  C5  1  0.68690000  0.11363000  0.62390000  1.0 -0.0840532166
C  C6  1  0.62390000  0.68690000  0.11363000  1.0 -0.0840532166
C  C7  1  0.11363000  0.68690000  0.62390000  1.0 -0.0840532166
C  C8  1  0.68690000  0.62390000  0.11363000  1.0 -0.0840532166
C  C9  1  0.62390000  0.11363000  0.68690000  1.0 -0.0840532166
C  C10  1  0.88637000  0.37610000  0.31310000  1.0 -0.0840532166
C  C11  1  0.31310000  0.88637000  0.37610000  1.0 -0.0840532166
C  C12  1  0.37610000  0.31310000  0.88637000  1.0 -0.0840532166
C  C13  1  0.15797000  0.56620000  0.62570000  1.0 -0.0961462527
C  C14  1  0.56620000  0.62570000  0.15797000  1.0 -0.0961462527
C  C15  1  0.62570000  0.15797000  0.56620000  1.0 -0.0961462527
C  C16  1  0.84203000  0.37430000  0.43380000  1.0 -0.0961462527
C  C17  1  0.43380000  0.84203000  0.37430000  1.0 -0.0961462527
C  C18  1  0.37430000  0.43380000  0.84203000  1.0 -0.0961462527
C  C19  1  0.84203000  0.43380000  0.37430000  1.0 -0.0961462527
C  C20  1  0.43380000  0.37430000  0.84203000  1.0 -0.0961462527
C  C21  1  0.37430000  0.84203000  0.43380000  1.0 -0.0961462527
C  C22  1  0.15797000  0.62570000  0.56620000  1.0 -0.0961462527
C  C23  1  0.56620000  0.15797000  0.62570000  1.0 -0.0961462527
C  C24  1  0.62570000  0.56620000  0.15797000  1.0 -0.0961462527
C  C25  1  0.04523000  0.43947000  0.43947000  1.0 0.0259476148
C  C26  1  0.43947000  0.43947000  0.04523000  1.0 0.0259476148
C  C27  1  0.43947000  0.04523000  0.43947000  1.0 0.0259476148
C  C28  1  0.95477000  0.56053000  0.56053000  1.0 0.0259476148
C  C29  1  0.56053000  0.95477000  0.56053000  1.0 0.0259476148
C  C30  1  0.56053000  0.56053000  0.95477000  1.0 0.0259476148
C  C31  1  0.09723000  0.37897000  0.37897000  1.0 0.0658219165
C  C32  1  0.37897000  0.37897000  0.09723000  1.0 0.0646704255
C  C33  1  0.37897000  0.09723000  0.37897000  1.0 0.0658219165
C  C34  1  0.90277000  0.62103000  0.62103000  1.0 0.0646704255
C  C35  1  0.62103000  0.90277000  0.62103000  1.0 0.0646704255
C  C36  1  0.62103000  0.62103000  0.90277000  1.0 0.0646704255
N  N1  1  0.97603000  0.20617000  0.20617000  1.0 -0.2410845018
N  N2  1  0.20617000  0.20617000  0.97603000  1.0 -0.2410845018
N  N3  1  0.20617000  0.97603000  0.20617000  1.0 -0.2410845018
N  N4  1  0.02397000  0.79383000  0.79383000  1.0 -0.2410845018
N  N5  1  0.79383000  0.02397000  0.79383000  1.0 -0.2410845018
N  N6  1  0.79383000  0.79383000  0.02397000  1.0 -0.2410845018
N  N7  1  0.08813000  0.22017000  0.22017000  1.0 -0.0961462527
N  N8  1  0.22017000  0.22017000  0.08813000  1.0 -0.0961462527
N  N9  1  0.22017000  0.08813000  0.22017000  1.0 -0.0961462527
N  N10  1  0.91187000  0.77983000  0.77983000  1.0 -0.0961462527
N  N11  1  0.77983000  0.91187000  0.77983000  1.0 -0.0961462527
N  N12  1  0.77983000  0.77983000  0.91187000  1.0 -0.0961462527
N  N13  1  0.27013000  0.39467000  0.39467000  1.0 -0.0378975534
N  N14  1  0.39467000  0.39467000  0.27013000  1.0 -0.0378975534
N  N15  1  0.39467000  0.27013000  0.39467000  1.0 -0.0378975534
N  N16  1  0.72987000  0.60533000  0.60533000  1.0 -0.0378975534
N  N17  1  0.60533000  0.72987000  0.60533000  1.0 -0.0378975534
N  N18  1  0.60533000  0.60533000  0.72987000  1.0 -0.0378975534
N  N19  1  0.28123000  0.49892000  0.49892000  1.0 -0.2899515362
N  N20  1  0.49892000  0.49892000  0.28123000  1.0 -0.2899515362
N  N21  1  0.49892000  0.28123000  0.49892000  1.0 -0.2899515362
N  N22  1  0.71877000  0.50108000  0.50108000  1.0 -0.2899515362
N  N23  1  0.50108000  0.71877000  0.50108000  1.0 -0.2899515362
N  N24  1  0.50108000  0.50108000  0.71877000  1.0 -0.2899515362
