# DDEC6 charges by PACMAN v1.1 (https://github.com/mtap-research/PACMAN-charge/)
data_DAXJET03_FSR_pacman
_symmetry_space_group_name_H-M   'P 1'
_cell_length_a   13.33060000
_cell_length_b   13.33060000
_cell_length_c   13.33060000
_cell_angle_alpha   116.57000000
_cell_angle_beta   116.57000000
_cell_angle_gamma   116.57000000
_symmetry_Int_Tables_number   1
_chemical_formula_structural   FeH18(C3N2)6
_chemical_formula_sum   'Fe2 H36 C36 N24'
_cell_volume   1113.17365114
_cell_formula_units_Z   2
loop_
 _symmetry_equiv_pos_site_id
 _symmetry_equiv_pos_as_xyz
  1  'x, y, z'
loop_
 _atom_site_type_symbol
 _atom_site_label
 _atom_site_symmetry_multiplicity
 _atom_site_fract_x
 _atom_site_fract_y
 _atom_site_fract_z
 _atom_site_occupancy
 _atom_site_charge
Fe  Fe1  1  0.00000000  0.00000000  0.00000000  1.0 0.1417074743
Fe  Fe2  1  0.50000000  0.50000000  0.50000000  1.0 0.3931933585
H  H1  1  0.80457000  0.18250000  0.28340000  1.0 0.0915687528
H  H2  1  0.18250000  0.28340000  0.80457000  1.0 0.0915687528
H  H3  1  0.28340000  0.80457000  0.18250000  1.0 0.0915687528
H  H4  1  0.19543000  0.71660000  0.81750000  1.0 0.0915687528
H  H5  1  0.81750000  0.19543000  0.71660000  1.0 0.0915687528
H  H6  1  0.71660000  0.81750000  0.19543000  1.0 0.0915687528
H  H7  1  0.19543000  0.81750000  0.71660000  1.0 0.0915687528
H  H8  1  0.81750000  0.71660000  0.19543000  1.0 0.0915687528
H  H9  1  0.71660000  0.19543000  0.81750000  1.0 0.0915687528
H  H10  1  0.80457000  0.28340000  0.18250000  1.0 0.0915687528
H  H11  1  0.18250000  0.80457000  0.28340000  1.0 0.0915687528
H  H12  1  0.28340000  0.18250000  0.80457000  1.0 0.0915687528
H  H13  1  0.27057000  0.61540000  0.71320000  1.0 0.0915687528
H  H14  1  0.61540000  0.71320000  0.27057000  1.0 0.0915687528
H  H15  1  0.71320000  0.27057000  0.61540000  1.0 0.0915687528
H  H16  1  0.72943000  0.28680000  0.38460000  1.0 0.0915687528
H  H17  1  0.38460000  0.72943000  0.28680000  1.0 0.0915687528
H  H18  1  0.28680000  0.38460000  0.72943000  1.0 0.0915687528
H  H19  1  0.72943000  0.38460000  0.28680000  1.0 0.0915687528
H  H20  1  0.38460000  0.28680000  0.72943000  1.0 0.0915687528
H  H21  1  0.28680000  0.72943000  0.38460000  1.0 0.0915687528
H  H22  1  0.27057000  0.71320000  0.61540000  1.0 0.0915687528
H  H23  1  0.61540000  0.27057000  0.71320000  1.0 0.0915687528
H  H24  1  0.71320000  0.61540000  0.27057000  1.0 0.0915687528
H  H25  1  0.10403000  0.10404000  0.84710000  1.0 0.2358658854
H  H26  1  0.10403000  0.84710000  0.10403000  1.0 0.2358658854
H  H27  1  0.84710000  0.10403000  0.10403000  1.0 0.2358658854
H  H28  1  0.89596000  0.15290000  0.89596000  1.0 0.2358658854
H  H29  1  0.89596000  0.89596000  0.15290000  1.0 0.2358658854
H  H30  1  0.15290000  0.89596000  0.89596000  1.0 0.2358658854
H  H31  1  0.62213000  0.62213000  0.38770000  1.0 0.2488822285
H  H32  1  0.62213000  0.38770000  0.62213000  1.0 0.2488822285
H  H33  1  0.38770000  0.62213000  0.62213000  1.0 0.2488822285
H  H34  1  0.37786000  0.61230000  0.37787000  1.0 0.2488822285
H  H35  1  0.37786000  0.37787000  0.61230000  1.0 0.2488822285
H  H36  1  0.61230000  0.37787000  0.37787000  1.0 0.2488822285
C  C1  1  0.88437000  0.31240000  0.37010000  1.0 -0.0842269169
C  C2  1  0.31240000  0.37010000  0.88437000  1.0 -0.0842269169
C  C3  1  0.37010000  0.88437000  0.31240000  1.0 -0.0842269169
C  C4  1  0.11563000  0.62990000  0.68760000  1.0 -0.0842269169
C  C5  1  0.68760000  0.11563000  0.62990000  1.0 -0.0842269169
C  C6  1  0.62990000  0.68760000  0.11563000  1.0 -0.0842269169
C  C7  1  0.11563000  0.68760000  0.62990000  1.0 -0.0842269169
C  C8  1  0.68760000  0.62990000  0.11563000  1.0 -0.0842269169
C  C9  1  0.62990000  0.11563000  0.68760000  1.0 -0.0842269169
C  C10  1  0.88437000  0.37010000  0.31240000  1.0 -0.0842269169
C  C11  1  0.31240000  0.88437000  0.37010000  1.0 -0.0842269169
C  C12  1  0.37010000  0.31240000  0.88437000  1.0 -0.0842269169
C  C13  1  0.15997000  0.56950000  0.62520000  1.0 -0.0842269169
C  C14  1  0.56950000  0.62520000  0.15997000  1.0 -0.0842269169
C  C15  1  0.62520000  0.15997000  0.56950000  1.0 -0.0842269169
C  C16  1  0.84003000  0.37480000  0.43050000  1.0 -0.0842269169
C  C17  1  0.43050000  0.84003000  0.37480000  1.0 -0.0842269169
C  C18  1  0.37480000  0.43050000  0.84003000  1.0 -0.0842269169
C  C19  1  0.84003000  0.43050000  0.37480000  1.0 -0.0842269169
C  C20  1  0.43050000  0.37480000  0.84003000  1.0 -0.0842269169
C  C21  1  0.37480000  0.84003000  0.43050000  1.0 -0.0842269169
C  C22  1  0.15997000  0.62520000  0.56950000  1.0 -0.0842269169
C  C23  1  0.56950000  0.15997000  0.62520000  1.0 -0.0842269169
C  C24  1  0.62520000  0.56950000  0.15997000  1.0 -0.0842269169
C  C25  1  0.04543000  0.43982000  0.43982000  1.0 0.0273279622
C  C26  1  0.43982000  0.43982000  0.04543000  1.0 0.0273279622
C  C27  1  0.43982000  0.04543000  0.43982000  1.0 0.0273279622
C  C28  1  0.95457000  0.56018000  0.56018000  1.0 0.0273279622
C  C29  1  0.56018000  0.95457000  0.56018000  1.0 0.0273279622
C  C30  1  0.56018000  0.56018000  0.95457000  1.0 0.0273279622
C  C31  1  0.09883000  0.38147000  0.38147000  1.0 0.04640536
C  C32  1  0.38147000  0.38147000  0.09883000  1.0 0.04640536
C  C33  1  0.38147000  0.09883000  0.38147000  1.0 0.04640536
C  C34  1  0.90117000  0.61853000  0.61853000  1.0 0.04640536
C  C35  1  0.61853000  0.90117000  0.61853000  1.0 0.04640536
C  C36  1  0.61853000  0.61853000  0.90117000  1.0 0.04640536
N  N1  1  0.97629000  0.20709000  0.20709000  1.0 -0.2530788513
N  N2  1  0.20709000  0.20709000  0.97629000  1.0 -0.2530788513
N  N3  1  0.20709000  0.97629000  0.20709000  1.0 -0.2530788513
N  N4  1  0.02371000  0.79291000  0.79291000  1.0 -0.2530788513
N  N5  1  0.79291000  0.02371000  0.79291000  1.0 -0.2530788513
N  N6  1  0.79291000  0.79291000  0.02371000  1.0 -0.2530788513
N  N7  1  0.08859000  0.22144000  0.22144000  1.0 -0.098978756
N  N8  1  0.22144000  0.22144000  0.08859000  1.0 -0.098978756
N  N9  1  0.22144000  0.08859000  0.22144000  1.0 -0.098978756
N  N10  1  0.91141000  0.77856000  0.77856000  1.0 -0.098978756
N  N11  1  0.77856000  0.91141000  0.77856000  1.0 -0.098978756
N  N12  1  0.77856000  0.77856000  0.91141000  1.0 -0.098978756
N  N13  1  0.27062000  0.39547000  0.39547000  1.0 -0.0388288778
N  N14  1  0.39548000  0.39548000  0.27062000  1.0 -0.0388288778
N  N15  1  0.39547000  0.27062000  0.39547000  1.0 -0.0388288778
N  N16  1  0.72938000  0.60452000  0.60452000  1.0 -0.0388288778
N  N17  1  0.60452000  0.72938000  0.60452000  1.0 -0.0388288778
N  N18  1  0.60452000  0.60452000  0.72938000  1.0 -0.0388288778
N  N19  1  0.28136000  0.49930000  0.49930000  1.0 -0.2861124333
N  N20  1  0.49930000  0.49931000  0.28136000  1.0 -0.2861124333
N  N21  1  0.49930000  0.28136000  0.49930000  1.0 -0.2861124333
N  N22  1  0.71864000  0.50070000  0.50070000  1.0 -0.2861124333
N  N23  1  0.50070000  0.71864000  0.50070000  1.0 -0.2861124333
N  N24  1  0.50070000  0.50070000  0.71864000  1.0 -0.2861124333
