# DDEC6 charges by PACMAN v1.1 (https://github.com/mtap-research/PACMAN-charge/)
data_DAXJET02_ASR_pacman
_symmetry_space_group_name_H-M   'P 1'
_cell_length_a   13.31060000
_cell_length_b   13.31060000
_cell_length_c   13.31060000
_cell_angle_alpha   116.60100000
_cell_angle_beta   116.60100000
_cell_angle_gamma   116.60100000
_symmetry_Int_Tables_number   1
_chemical_formula_structural   FeH18(C3N2)6
_chemical_formula_sum   'Fe2 H36 C36 N24'
_cell_volume   1103.44165473
_cell_formula_units_Z   2
loop_
 _symmetry_equiv_pos_site_id
 _symmetry_equiv_pos_as_xyz
  1  'x, y, z'
loop_
 _atom_site_type_symbol
 _atom_site_label
 _atom_site_symmetry_multiplicity
 _atom_site_fract_x
 _atom_site_fract_y
 _atom_site_fract_z
 _atom_site_occupancy
 _atom_site_charge
Fe  Fe1  1  0.00000000  0.00000000  0.00000000  1.0 0.1701235464
Fe  Fe2  1  0.50000000  0.50000000  0.50000000  1.0 0.399959757
H  H1  1  0.80307000  0.18060000  0.28380000  1.0 0.0870260159
H  H2  1  0.18060000  0.28380000  0.80307000  1.0 0.0870260159
H  H3  1  0.28380000  0.80307000  0.18060000  1.0 0.0870260159
H  H4  1  0.19693000  0.71620000  0.81940000  1.0 0.0870260159
H  H5  1  0.81940000  0.19693000  0.71620000  1.0 0.0870260159
H  H6  1  0.71620000  0.81940000  0.19693000  1.0 0.0870260159
H  H7  1  0.19693000  0.81940000  0.71620000  1.0 0.0870260159
H  H8  1  0.81940000  0.71620000  0.19693000  1.0 0.0870260159
H  H9  1  0.71620000  0.19693000  0.81940000  1.0 0.0870260159
H  H10  1  0.80307000  0.28380000  0.18060000  1.0 0.0847584447
H  H11  1  0.18060000  0.80307000  0.28380000  1.0 0.0870260159
H  H12  1  0.28380000  0.18060000  0.80307000  1.0 0.0870260159
H  H13  1  0.26587000  0.60960000  0.71020000  1.0 0.0870260159
H  H14  1  0.60960000  0.71020000  0.26587000  1.0 0.0870260159
H  H15  1  0.71020000  0.26587000  0.60960000  1.0 0.0870260159
H  H16  1  0.73413000  0.28980000  0.39040000  1.0 0.0870260159
H  H17  1  0.39040000  0.73413000  0.28980000  1.0 0.0870260159
H  H18  1  0.28980000  0.39040000  0.73413000  1.0 0.0870260159
H  H19  1  0.73413000  0.39040000  0.28980000  1.0 0.0870260159
H  H20  1  0.39040000  0.28980000  0.73413000  1.0 0.0870260159
H  H21  1  0.28980000  0.73413000  0.39040000  1.0 0.0870260159
H  H22  1  0.26587000  0.71020000  0.60960000  1.0 0.0870260159
H  H23  1  0.60960000  0.26587000  0.71020000  1.0 0.0870260159
H  H24  1  0.71020000  0.60960000  0.26587000  1.0 0.0870260159
H  H25  1  0.10413000  0.10413000  0.84690000  1.0 0.2405040056
H  H26  1  0.10414000  0.84690000  0.10413000  1.0 0.2405040056
H  H27  1  0.84690000  0.10414000  0.10413000  1.0 0.2405040056
H  H28  1  0.89586000  0.15310000  0.89586000  1.0 0.2405040056
H  H29  1  0.89587000  0.89587000  0.15310000  1.0 0.2405040056
H  H30  1  0.15310000  0.89587000  0.89586000  1.0 0.2405040056
H  H31  1  0.62518000  0.62519000  0.39090000  1.0 0.2549707135
H  H32  1  0.62518000  0.39090000  0.62518000  1.0 0.2549707135
H  H33  1  0.39090000  0.62519000  0.62518000  1.0 0.2549707135
H  H34  1  0.37481000  0.60910000  0.37481000  1.0 0.2549707135
H  H35  1  0.37481000  0.37481000  0.60910000  1.0 0.2549707135
H  H36  1  0.60910000  0.37482000  0.37481000  1.0 0.2549707135
C  C1  1  0.88287000  0.31060000  0.37040000  1.0 -0.0814072959
C  C2  1  0.31060000  0.37040000  0.88287000  1.0 -0.0814072959
C  C3  1  0.37040000  0.88287000  0.31060000  1.0 -0.0814072959
C  C4  1  0.11713000  0.62960000  0.68940000  1.0 -0.0814072959
C  C5  1  0.68940000  0.11713000  0.62960000  1.0 -0.0814072959
C  C6  1  0.62960000  0.68940000  0.11713000  1.0 -0.0814072959
C  C7  1  0.11713000  0.68940000  0.62960000  1.0 -0.0814072959
C  C8  1  0.68940000  0.62960000  0.11713000  1.0 -0.0814072959
C  C9  1  0.62960000  0.11713000  0.68940000  1.0 -0.0814072959
C  C10  1  0.88287000  0.37040000  0.31060000  1.0 -0.0814072959
C  C11  1  0.31060000  0.88287000  0.37040000  1.0 -0.0814072959
C  C12  1  0.37040000  0.31060000  0.88287000  1.0 -0.0814072959
C  C13  1  0.15527000  0.56370000  0.62220000  1.0 -0.0914081301
C  C14  1  0.56370000  0.62220000  0.15527000  1.0 -0.0914081301
C  C15  1  0.62220000  0.15527000  0.56370000  1.0 -0.0914081301
C  C16  1  0.84473000  0.37780000  0.43630000  1.0 -0.0914081301
C  C17  1  0.43630000  0.84473000  0.37780000  1.0 -0.0914081301
C  C18  1  0.37780000  0.43630000  0.84473000  1.0 -0.0914081301
C  C19  1  0.84473000  0.43630000  0.37780000  1.0 -0.0914081301
C  C20  1  0.43630000  0.37780000  0.84473000  1.0 -0.0914081301
C  C21  1  0.37780000  0.84473000  0.43630000  1.0 -0.0914081301
C  C22  1  0.15527000  0.62220000  0.56370000  1.0 -0.0914081301
C  C23  1  0.56370000  0.15527000  0.62220000  1.0 -0.0914081301
C  C24  1  0.62220000  0.56370000  0.15527000  1.0 -0.0914081301
C  C25  1  0.04637000  0.44040000  0.44040000  1.0 0.0303296363
C  C26  1  0.44040000  0.44040000  0.04637000  1.0 0.0303296363
C  C27  1  0.44040000  0.04637000  0.44040000  1.0 0.0303296363
C  C28  1  0.95363000  0.55960000  0.55960000  1.0 0.0303296363
C  C29  1  0.55960000  0.95363000  0.55960000  1.0 0.0303296363
C  C30  1  0.55960000  0.55960000  0.95363000  1.0 0.0303296363
C  C31  1  0.09657000  0.37945000  0.37945000  1.0 0.0678157835
C  C32  1  0.37945000  0.37945000  0.09657000  1.0 0.0678157835
C  C33  1  0.37945000  0.09657000  0.37945000  1.0 0.0678157835
C  C34  1  0.90343000  0.62055000  0.62055000  1.0 0.0678157835
C  C35  1  0.62055000  0.90343000  0.62055000  1.0 0.0678157835
C  C36  1  0.62055000  0.62055000  0.90343000  1.0 0.0678157835
N  N1  1  0.97603000  0.20722000  0.20722000  1.0 -0.2294866402
N  N2  1  0.20722000  0.20722000  0.97603000  1.0 -0.2294866402
N  N3  1  0.20722000  0.97603000  0.20722000  1.0 -0.2294866402
N  N4  1  0.02397000  0.79278000  0.79278000  1.0 -0.2294866402
N  N5  1  0.79278000  0.02397000  0.79278000  1.0 -0.2294866402
N  N6  1  0.79278000  0.79278000  0.02397000  1.0 -0.2294866402
N  N7  1  0.08703000  0.21997000  0.21997000  1.0 -0.1018468933
N  N8  1  0.21997000  0.21997000  0.08703000  1.0 -0.1018468933
N  N9  1  0.21997000  0.08703000  0.21997000  1.0 -0.1018468933
N  N10  1  0.91297000  0.78003000  0.78003000  1.0 -0.1018468933
N  N11  1  0.78003000  0.91297000  0.78003000  1.0 -0.1018468933
N  N12  1  0.78003000  0.78003000  0.91297000  1.0 -0.1018468933
N  N13  1  0.27073000  0.39482000  0.39482000  1.0 -0.0395987025
N  N14  1  0.39482000  0.39482000  0.27073000  1.0 -0.0395987025
N  N15  1  0.39482000  0.27073000  0.39482000  1.0 -0.0395987025
N  N16  1  0.72927000  0.60518000  0.60518000  1.0 -0.0395987025
N  N17  1  0.60518000  0.72927000  0.60518000  1.0 -0.0395987025
N  N18  1  0.60518000  0.60518000  0.72927000  1.0 -0.0395987025
N  N19  1  0.28443000  0.50227000  0.50227000  1.0 -0.3197970698
N  N20  1  0.50227000  0.50227000  0.28443000  1.0 -0.3197970698
N  N21  1  0.50227000  0.28443000  0.50227000  1.0 -0.3197970698
N  N22  1  0.71557000  0.49773000  0.49773000  1.0 -0.3197970698
N  N23  1  0.49773000  0.71557000  0.49773000  1.0 -0.3197970698
N  N24  1  0.49773000  0.49773000  0.71557000  1.0 -0.3197970698
