# DDEC6 charges by PACMAN v1.1 (https://github.com/mtap-research/PACMAN-charge/)
data_DAXNUO_FSR_pacman
_symmetry_space_group_name_H-M   'P 1'
_cell_length_a   6.99960000
_cell_length_b   6.99960000
_cell_length_c   7.69300000
_cell_angle_alpha   90.00000000
_cell_angle_beta   90.00000000
_cell_angle_gamma   90.00000000
_symmetry_Int_Tables_number   1
_chemical_formula_structural   AlNiH16C16N4(O4F)2
_chemical_formula_sum   'Al1 Ni1 H16 C16 N4 O8 F2'
_cell_volume   376.91392043
_cell_formula_units_Z   1
loop_
 _symmetry_equiv_pos_site_id
 _symmetry_equiv_pos_as_xyz
  1  'x, y, z'
loop_
 _atom_site_type_symbol
 _atom_site_label
 _atom_site_symmetry_multiplicity
 _atom_site_fract_x
 _atom_site_fract_y
 _atom_site_fract_z
 _atom_site_occupancy
 _atom_site_charge
Al  Al1  1  0.00000000  0.00000000  0.00000000  1.0 1.0157065429
Ni  Ni1  1  0.00000000  0.00000000  0.50000000  1.0 0.2696585097
H  H1  1  0.33800000  0.12790000  0.72220000  1.0 0.0876652561
H  H2  1  0.66200000  0.87210000  0.72220000  1.0 0.0876652561
H  H3  1  0.87210000  0.33800000  0.72220000  1.0 0.0876652561
H  H4  1  0.12790000  0.66200000  0.72220000  1.0 0.0876652561
H  H5  1  0.66200000  0.12790000  0.27780000  1.0 0.0876652561
H  H6  1  0.33800000  0.87210000  0.27780000  1.0 0.0876652561
H  H7  1  0.12790000  0.33800000  0.27780000  1.0 0.0876652561
H  H8  1  0.87210000  0.66200000  0.27780000  1.0 0.0876652561
H  H9  1  0.66200000  0.87210000  0.27780000  1.0 0.0876652561
H  H10  1  0.33800000  0.12790000  0.27780000  1.0 0.0876652561
H  H11  1  0.12790000  0.66200000  0.27780000  1.0 0.0876652561
H  H12  1  0.87210000  0.33800000  0.27780000  1.0 0.0876652561
H  H13  1  0.33800000  0.87210000  0.72220000  1.0 0.0876652561
H  H14  1  0.66200000  0.12790000  0.72220000  1.0 0.0876652561
H  H15  1  0.87210000  0.66200000  0.72220000  1.0 0.0876652561
H  H16  1  0.12790000  0.33800000  0.72220000  1.0 0.0876652561
C  C1  1  0.40200000  0.07390000  0.62840000  1.0 0.0021579889
C  C2  1  0.59800000  0.92610000  0.62840000  1.0 0.0021579889
C  C3  1  0.92610000  0.40200000  0.62840000  1.0 0.0021579889
C  C4  1  0.07390000  0.59800000  0.62840000  1.0 0.0021579889
C  C5  1  0.59800000  0.07390000  0.37160000  1.0 0.0021579889
C  C6  1  0.40200000  0.92610000  0.37160000  1.0 0.0021579889
C  C7  1  0.07390000  0.40200000  0.37160000  1.0 0.0021579889
C  C8  1  0.92610000  0.59800000  0.37160000  1.0 0.0021579889
C  C9  1  0.59800000  0.92610000  0.37160000  1.0 0.0021579889
C  C10  1  0.40200000  0.07390000  0.37160000  1.0 0.0021579889
C  C11  1  0.07390000  0.59800000  0.37160000  1.0 0.0021579889
C  C12  1  0.92610000  0.40200000  0.37160000  1.0 0.0021579889
C  C13  1  0.40200000  0.92610000  0.62840000  1.0 0.0021579889
C  C14  1  0.59800000  0.07390000  0.62840000  1.0 0.0021579889
C  C15  1  0.92610000  0.59800000  0.62840000  1.0 0.0021579889
C  C16  1  0.07390000  0.40200000  0.62840000  1.0 0.0021579889
N  N1  1  0.30100000  0.00000000  0.50000000  1.0 -0.1324322186
N  N2  1  0.69900000  0.00000000  0.50000000  1.0 -0.1324322186
N  N3  1  0.00000000  0.30100000  0.50000000  1.0 -0.1324322186
N  N4  1  0.00000000  0.69900000  0.50000000  1.0 -0.1324322186
O  O1  1  0.10940000  0.22470000  0.00000000  1.0 -0.1632796321
O  O2  1  0.89060000  0.77530000  0.00000000  1.0 -0.1632796321
O  O3  1  0.77530000  0.10940000  0.00000000  1.0 -0.1632796321
O  O4  1  0.22470000  0.89060000  0.00000000  1.0 -0.1632796321
O  O5  1  0.89060000  0.22470000  0.00000000  1.0 -0.1632796321
O  O6  1  0.10940000  0.77530000  0.00000000  1.0 -0.1632796321
O  O7  1  0.22470000  0.10940000  0.00000000  1.0 -0.1632796321
O  O8  1  0.77530000  0.89060000  0.00000000  1.0 -0.1632796321
F  F1  1  0.00000000  0.00000000  0.76300000  1.0 -0.4432855211
F  F2  1  0.00000000  0.00000000  0.23700000  1.0 -0.4432855211
