# DDEC6 charges by PACMAN v1.1 (https://github.com/mtap-research/PACMAN-charge/)
data_DAXNOI_ASR_pacman
_chemical_formula_sum              "C32 H32 Ni4 Al4 F16 N16"
_cell_length_a       9.861
_cell_length_b       9.861
_cell_length_c       15.2529
_cell_angle_alpha    90
_cell_angle_beta     90
_cell_angle_gamma    90

_symmetry_space_group_name_H-M    "P 1"
_symmetry_Int_Tables_number       1

loop_
  _symmetry_equiv_pos_as_xyz
  'x, y, z'

loop_
  _atom_site_type_symbol
  _atom_site_label
  _atom_site_symmetry_multiplicity
  _atom_site_fract_x
  _atom_site_fract_y
  _atom_site_fract_z
  _atom_site_occupancy
 _atom_site_charge
C   C1        1.0  0.17163  0.22920  0.17980  1.0000 0.0402659136
H   H1        1.0  0.11870  0.21710  0.13000  1.0000 0.1323043273
C   C2        1.0  0.67163  0.72920  0.67980  1.0000 0.0402659136
H   H2        1.0  0.61870  0.71710  0.63000  1.0000 0.1323043273
C   C3        1.0  0.82837  0.77080  0.17980  1.0000 0.0402659136
H   H3        1.0  0.88130  0.78290  0.13000  1.0000 0.1323043273
C   C4        1.0  0.32837  0.27080  0.67980  1.0000 0.0402659136
H   H4        1.0  0.38130  0.28290  0.63000  1.0000 0.1323043273
C   C5        1.0  0.77080  0.17163  0.17980  1.0000 0.0402659136
H   H5        1.0  0.78290  0.11870  0.13000  1.0000 0.150523911
C   C6        1.0  0.27080  0.67163  0.67980  1.0000 0.0402659136
H   H6        1.0  0.28290  0.61870  0.63000  1.0000 0.150523911
C   C7        1.0  0.22920  0.82837  0.17980  1.0000 0.0402659136
H   H7        1.0  0.21710  0.88130  0.13000  1.0000 0.150523911
C   C8        1.0  0.72920  0.32837  0.67980  1.0000 0.0402659136
H   H8        1.0  0.71710  0.38130  0.63000  1.0000 0.150523911
C   C9        1.0  0.82837  0.22920  0.32020  1.0000 0.0402659136
H   H9        1.0  0.88130  0.21710  0.37000  1.0000 0.1323043273
C   C10       1.0  0.32837  0.72920  0.82020  1.0000 0.0402659136
H   H10       1.0  0.38130  0.71710  0.87000  1.0000 0.1323043273
C   C11       1.0  0.17163  0.77080  0.32020  1.0000 0.0402659136
H   H11       1.0  0.11870  0.78290  0.37000  1.0000 0.1323043273
C   C12       1.0  0.67163  0.27080  0.82020  1.0000 0.0402659136
H   H12       1.0  0.61870  0.28290  0.87000  1.0000 0.1323043273
C   C13       1.0  0.22920  0.17163  0.32020  1.0000 0.0402659136
H   H13       1.0  0.21710  0.11870  0.37000  1.0000 0.150523911
C   C14       1.0  0.72920  0.67163  0.82020  1.0000 0.0402659136
H   H14       1.0  0.71710  0.61870  0.87000  1.0000 0.150523911
C   C15       1.0  0.77080  0.82837  0.32020  1.0000 0.0402659136
H   H15       1.0  0.78290  0.88130  0.37000  1.0000 0.150523911
C   C16       1.0  0.27080  0.32837  0.82020  1.0000 0.0402659136
H   H16       1.0  0.28290  0.38130  0.87000  1.0000 0.150523911
C   C17       1.0  0.82837  0.77080  0.82020  1.0000 0.0402659136
H   H17       1.0  0.88130  0.78290  0.87000  1.0000 0.1323043273
C   C18       1.0  0.32837  0.27080  0.32020  1.0000 0.0402659136
H   H18       1.0  0.38130  0.28290  0.37000  1.0000 0.1323043273
C   C19       1.0  0.17163  0.22920  0.82020  1.0000 0.0402659136
H   H19       1.0  0.11870  0.21710  0.87000  1.0000 0.1323043273
C   C20       1.0  0.67163  0.72920  0.32020  1.0000 0.0402659136
H   H20       1.0  0.61870  0.71710  0.37000  1.0000 0.1323043273
C   C21       1.0  0.22920  0.82837  0.82020  1.0000 0.0402659136
H   H21       1.0  0.21710  0.88130  0.87000  1.0000 0.150523911
C   C22       1.0  0.72920  0.32837  0.32020  1.0000 0.0402659136
H   H22       1.0  0.71710  0.38130  0.37000  1.0000 0.150523911
C   C23       1.0  0.77080  0.17163  0.82020  1.0000 0.0402659136
H   H23       1.0  0.78290  0.11870  0.87000  1.0000 0.150523911
C   C24       1.0  0.27080  0.67163  0.32020  1.0000 0.0402659136
H   H24       1.0  0.28290  0.61870  0.37000  1.0000 0.150523911
C   C25       1.0  0.17163  0.77080  0.67980  1.0000 0.0402659136
H   H25       1.0  0.11870  0.78290  0.63000  1.0000 0.1323043273
C   C26       1.0  0.67163  0.27080  0.17980  1.0000 0.0402659136
H   H26       1.0  0.61870  0.28290  0.13000  1.0000 0.1323043273
C   C27       1.0  0.82837  0.22920  0.67980  1.0000 0.0402659136
H   H27       1.0  0.88130  0.21710  0.63000  1.0000 0.1323043273
C   C28       1.0  0.32837  0.72920  0.17980  1.0000 0.0402659136
H   H28       1.0  0.38130  0.71710  0.13000  1.0000 0.1323043273
C   C29       1.0  0.77080  0.82837  0.67980  1.0000 0.0402659136
H   H29       1.0  0.78290  0.88130  0.63000  1.0000 0.150523911
C   C30       1.0  0.27080  0.32837  0.17980  1.0000 0.0402659136
H   H30       1.0  0.28290  0.38130  0.13000  1.0000 0.150523911
C   C31       1.0  0.22920  0.17163  0.67980  1.0000 0.0402659136
H   H31       1.0  0.21710  0.11870  0.63000  1.0000 0.150523911
C   C32       1.0  0.72920  0.67163  0.17980  1.0000 0.0402659136
H   H32       1.0  0.71710  0.61870  0.13000  1.0000 0.150523911
Ni  Ni1       1.0  0.00000  0.00000  0.25000  1.0000 0.7211430686
Ni  Ni2       1.0  0.50000  0.50000  0.75000  1.0000 0.7211430686
Ni  Ni3       1.0  0.00000  0.00000  0.75000  1.0000 0.7211430686
Ni  Ni4       1.0  0.50000  0.50000  0.25000  1.0000 0.7211430686
Al  Al1       1.0  0.00000  0.00000  0.50000  1.0000 1.6891720609
Al  Al2       1.0  0.50000  0.50000  0.00000  1.0000 1.6891720609
Al  Al3       1.0  0.00000  0.00000  0.00000  1.0000 1.6891720609
Al  Al4       1.0  0.50000  0.50000  0.50000  1.0000 1.6891720609
F   F1        1.0  0.00000  0.00000  0.38091  1.0000 -0.5758294223
F   F2        1.0  0.50000  0.50000  0.88091  1.0000 -0.5758294223
F   F3        1.0  0.00000  0.00000  0.11909  1.0000 -0.5758294223
F   F4        1.0  0.50000  0.50000  0.61909  1.0000 -0.5758294223
F   F5        1.0  0.00000  0.00000  0.61909  1.0000 -0.5758294223
F   F6        1.0  0.50000  0.50000  0.11909  1.0000 -0.5758294223
F   F7        1.0  0.00000  0.00000  0.88091  1.0000 -0.5758294223
F   F8        1.0  0.50000  0.50000  0.38091  1.0000 -0.5758294223
N   N1        1.0  0.14995  0.14995  0.25000  1.0000 -0.172628781
N   N2        1.0  0.64995  0.64995  0.75000  1.0000 -0.172628781
N   N3        1.0  0.85005  0.85005  0.25000  1.0000 -0.172628781
N   N4        1.0  0.35005  0.35005  0.75000  1.0000 -0.172628781
N   N5        1.0  0.85005  0.14995  0.25000  1.0000 -0.172628781
N   N6        1.0  0.35005  0.64995  0.75000  1.0000 -0.172628781
N   N7        1.0  0.14995  0.85005  0.25000  1.0000 -0.172628781
N   N8        1.0  0.64995  0.35005  0.75000  1.0000 -0.172628781
N   N9        1.0  0.85005  0.85005  0.75000  1.0000 -0.172628781
N   N10       1.0  0.35005  0.35005  0.25000  1.0000 -0.172628781
N   N11       1.0  0.14995  0.14995  0.75000  1.0000 -0.172628781
N   N12       1.0  0.64995  0.64995  0.25000  1.0000 -0.172628781
N   N13       1.0  0.14995  0.85005  0.75000  1.0000 -0.172628781
N   N14       1.0  0.64995  0.35005  0.25000  1.0000 -0.172628781
N   N15       1.0  0.85005  0.14995  0.75000  1.0000 -0.172628781
N   N16       1.0  0.35005  0.64995  0.25000  1.0000 -0.172628781
F   F9        1.0  0.18280  0.99473  0.50000  1.0000 -1.0107907115
F   F10       1.0  0.68280  0.49473  0.00000  1.0000 -1.0107907115
F   F11       1.0  0.81720  0.00527  0.50000  1.0000 -1.0107907115
F   F12       1.0  0.31720  0.50527  0.00000  1.0000 -1.0107907115
F   F13       1.0  0.81720  0.99473  0.00000  1.0000 -1.0107907115
F   F14       1.0  0.31720  0.49473  0.50000  1.0000 -1.0107907115
F   F15       1.0  0.18280  0.00527  0.00000  1.0000 -1.0107907115
F   F16       1.0  0.68280  0.50527  0.50000  1.0000 -1.0107907115
  O   O1        1.0  0.18280  0.99473  0.50000  1.0000
  O   O2        1.0  0.68280  0.49473  0.00000  1.0000
  O   O3        1.0  0.81720  0.00527  0.50000  1.0000
  O   O4        1.0  0.31720  0.50527  0.00000  1.0000
  O   O5        1.0  0.81720  0.99473  0.00000  1.0000
  O   O6        1.0  0.31720  0.49473  0.50000  1.0000
  O   O7        1.0  0.18280  0.00527  0.00000  1.0000
  O   O8        1.0  0.68280  0.50527  0.50000  1.0000
