# DDEC6 charges by PACMAN v1.1 (https://github.com/mtap-research/PACMAN-charge/)
data_DAXPAW_ASR_pacman
_symmetry_space_group_name_H-M   'P 1'
_cell_length_a   9.89200000
_cell_length_b   9.89200000
_cell_length_c   7.97100000
_cell_angle_alpha   90.00000000
_cell_angle_beta   90.00000000
_cell_angle_gamma   90.00000000
_symmetry_Int_Tables_number   1
_chemical_formula_structural   FeNiH8C8(N2F)2
_chemical_formula_sum   'Fe2 Ni2 H16 C16 N8 F4'
_cell_volume   779.97561374
_cell_formula_units_Z   2
loop_
 _symmetry_equiv_pos_site_id
 _symmetry_equiv_pos_as_xyz
  1  'x, y, z'
loop_
 _atom_site_type_symbol
 _atom_site_label
 _atom_site_symmetry_multiplicity
 _atom_site_fract_x
 _atom_site_fract_y
 _atom_site_fract_z
 _atom_site_occupancy
 _atom_site_charge
Fe  Fe1  1  0.25000000  0.25000000  0.00000000  1.0 0.7003454567
Fe  Fe2  1  0.75000000  0.75000000  0.00000000  1.0 0.7003454567
Ni  Ni1  1  0.25000000  0.25000000  0.50000000  1.0 0.6818416716
Ni  Ni2  1  0.75000000  0.75000000  0.50000000  1.0 0.6818416716
H  H1  1  0.48940000  0.34720000  0.29080000  1.0 0.1081638785
H  H2  1  0.01060000  0.15280000  0.29080000  1.0 0.1081638785
H  H3  1  0.15280000  0.48940000  0.29080000  1.0 0.1081638785
H  H4  1  0.34720000  0.01060000  0.29080000  1.0 0.1081638785
H  H5  1  0.01060000  0.34720000  0.70920000  1.0 0.1081638785
H  H6  1  0.48940000  0.15280000  0.70920000  1.0 0.1081638785
H  H7  1  0.34720000  0.48940000  0.70920000  1.0 0.1081638785
H  H8  1  0.15280000  0.01060000  0.70920000  1.0 0.1081638785
H  H9  1  0.51060000  0.65280000  0.70920000  1.0 0.1081638785
H  H10  1  0.98940000  0.84720000  0.70920000  1.0 0.1081638785
H  H11  1  0.84720000  0.51060000  0.70920000  1.0 0.1081638785
H  H12  1  0.65280000  0.98940000  0.70920000  1.0 0.1081638785
H  H13  1  0.98940000  0.65280000  0.29080000  1.0 0.1081638785
H  H14  1  0.51060000  0.84720000  0.29080000  1.0 0.1081638785
H  H15  1  0.65280000  0.51060000  0.29080000  1.0 0.1081638785
H  H16  1  0.84720000  0.98940000  0.29080000  1.0 0.1081638785
C  C1  1  0.49200000  0.40930000  0.37840000  1.0 -0.0295414434
C  C2  1  0.00800000  0.09070000  0.37840000  1.0 -0.0295414434
C  C3  1  0.09070000  0.49200000  0.37840000  1.0 -0.0295414434
C  C4  1  0.40930000  0.00800000  0.37840000  1.0 -0.0295414434
C  C5  1  0.00800000  0.40930000  0.62160000  1.0 -0.0295414434
C  C6  1  0.49200000  0.09070000  0.62160000  1.0 -0.0295414434
C  C7  1  0.40930000  0.49200000  0.62160000  1.0 -0.0295414434
C  C8  1  0.09070000  0.00800000  0.62160000  1.0 -0.0295414434
C  C9  1  0.50800000  0.59070000  0.62160000  1.0 -0.0295414434
C  C10  1  0.99200000  0.90930000  0.62160000  1.0 -0.0295414434
C  C11  1  0.90930000  0.50800000  0.62160000  1.0 -0.0295414434
C  C12  1  0.59070000  0.99200000  0.62160000  1.0 -0.0295414434
C  C13  1  0.99200000  0.59070000  0.37840000  1.0 -0.0295414434
C  C14  1  0.50800000  0.90930000  0.37840000  1.0 -0.0295414434
C  C15  1  0.59070000  0.50800000  0.37840000  1.0 -0.0295414434
C  C16  1  0.90930000  0.99200000  0.37840000  1.0 -0.0295414434
N  N1  1  0.40062000  0.40062000  0.50000000  1.0 -0.1805528792
N  N2  1  0.09938000  0.09938000  0.50000000  1.0 -0.1805528792
N  N3  1  0.09938000  0.40062000  0.50000000  1.0 -0.1805528792
N  N4  1  0.40062000  0.09938000  0.50000000  1.0 -0.1805528792
N  N5  1  0.59938000  0.59938000  0.50000000  1.0 -0.1805528792
N  N6  1  0.90062000  0.90062000  0.50000000  1.0 -0.1805528792
N  N7  1  0.90062000  0.59938000  0.50000000  1.0 -0.1805528792
N  N8  1  0.59938000  0.90062000  0.50000000  1.0 -0.1805528792
F  F1  1  0.25000000  0.25000000  0.75520000  1.0 -0.6444775461
F  F2  1  0.25000000  0.25000000  0.24480000  1.0 -0.6444775461
F  F3  1  0.75000000  0.75000000  0.24480000  1.0 -0.6444775461
F  F4  1  0.75000000  0.75000000  0.75520000  1.0 -0.6444775461
