# DDEC6 charges by PACMAN v1.1 (https://github.com/mtap-research/PACMAN-charge/)
data_DAYCAI_ASR_pacman
_symmetry_space_group_name_H-M   'P 1'
_cell_length_a   10.23450000
_cell_length_b   10.23450000
_cell_length_c   7.07990000
_cell_angle_alpha   90.00000000
_cell_angle_beta   90.00000000
_cell_angle_gamma   120.00000000
_symmetry_Int_Tables_number   1
_chemical_formula_structural   NaZnH12C9N5O3
_chemical_formula_sum   'Na2 Zn2 H24 C18 N10 O6'
_cell_volume   642.23063195
_cell_formula_units_Z   2
loop_
 _symmetry_equiv_pos_site_id
 _symmetry_equiv_pos_as_xyz
  1  'x, y, z'
loop_
 _atom_site_type_symbol
 _atom_site_label
 _atom_site_symmetry_multiplicity
 _atom_site_fract_x
 _atom_site_fract_y
 _atom_site_fract_z
 _atom_site_occupancy
 _atom_site_charge
Na  Na1  1  0.99997000  0.99998000  0.00000000  1.0 0.861327827
Na  Na2  1  0.99997000  0.99998000  0.50000000  1.0 0.861327827
Zn  Zn1  1  0.66666667  0.33326000  0.25000000  1.0 0.8013117909
Zn  Zn2  1  0.33333333  0.66666667  0.75000000  1.0 0.8013117909
H  H1  1  0.47195000  0.35247000  0.58773000  1.0 0.0860348791
H  H2  1  0.52803000  0.64752000  0.41226000  1.0 0.0860348791
H  H3  1  0.64753000  0.11949000  0.58774000  1.0 0.0860348791
H  H4  1  0.35247000  0.88051000  0.41227000  1.0 0.0860348791
H  H5  1  0.88050000  0.52803000  0.58773000  1.0 0.0860348791
H  H6  1  0.11949000  0.47197000  0.41225000  1.0 0.0860348791
H  H7  1  0.52803000  0.64752000  0.08774000  1.0 0.0860348791
H  H8  1  0.47195000  0.35247000  0.91227000  1.0 0.0860348791
H  H9  1  0.35247000  0.88051000  0.08773000  1.0 0.0860348791
H  H10  1  0.64753000  0.11949000  0.91226000  1.0 0.0860348791
H  H11  1  0.11949000  0.47197000  0.08775000  1.0 0.0860348791
H  H12  1  0.88050000  0.52803000  0.91227000  1.0 0.0860348791
H  H13  1  0.35247000  0.47195000  0.41226000  1.0 0.0860348791
H  H14  1  0.64752000  0.52803000  0.58774000  1.0 0.0860348791
H  H15  1  0.11949000  0.64753000  0.41226000  1.0 0.0860348791
H  H16  1  0.88051000  0.35247000  0.58773000  1.0 0.0860348791
H  H17  1  0.52803000  0.88051000  0.41227000  1.0 0.0860348791
H  H18  1  0.47198000  0.11950000  0.58775000  1.0 0.0860348791
H  H19  1  0.64752000  0.52803000  0.91226000  1.0 0.0860348791
H  H20  1  0.35247000  0.47195000  0.08774000  1.0 0.0860348791
H  H21  1  0.88051000  0.35247000  0.91227000  1.0 0.0860348791
H  H22  1  0.11949000  0.64753000  0.08774000  1.0 0.0860348791
H  H23  1  0.47198000  0.11950000  0.91225000  1.0 0.0860348791
H  H24  1  0.52803000  0.88051000  0.08773000  1.0 0.0860348791
C  C1  1  0.58849000  0.41149000  0.64109000  1.0 -0.0889358073
C  C2  1  0.41149000  0.58850000  0.35890000  1.0 -0.0889358073
C  C3  1  0.58851000  0.17701000  0.64110000  1.0 -0.0889358073
C  C4  1  0.41149000  0.82299000  0.35891000  1.0 -0.0889358073
C  C5  1  0.82299000  0.41149000  0.64109000  1.0 -0.0889358073
C  C6  1  0.17701000  0.58851000  0.35890000  1.0 -0.0889358073
C  C7  1  0.41149000  0.58850000  0.14110000  1.0 -0.0889358073
C  C8  1  0.58849000  0.41149000  0.85891000  1.0 -0.0889358073
C  C9  1  0.41149000  0.82299000  0.14109000  1.0 -0.0889358073
C  C10  1  0.58851000  0.17701000  0.85890000  1.0 -0.0889358073
C  C11  1  0.17701000  0.58851000  0.14110000  1.0 -0.0889358073
C  C12  1  0.82299000  0.41149000  0.85891000  1.0 -0.0889358073
C  C13  1  0.31505000  0.15643000  0.25000000  1.0 0.5875470837
C  C14  1  0.68503000  0.84180000  0.75000000  1.0 0.5875470837
C  C15  1  0.84184000  0.15676000  0.25000000  1.0 0.5875470837
C  C16  1  0.15671000  0.31489000  0.75000000  1.0 0.5875470837
C  C17  1  0.84178000  0.68500000  0.25000000  1.0 0.5875470837
C  C18  1  0.15677000  0.84182000  0.75000000  1.0 0.5875470837
N  N1  1  0.66666667  0.33333333  0.56760000  1.0 -0.1303015053
N  N2  1  0.33333333  0.66666667  0.43240000  1.0 -0.1303015053
N  N3  1  0.33333333  0.66666667  0.06760000  1.0 -0.1303015053
N  N4  1  0.66666667  0.33333333  0.93240000  1.0 -0.1303015053
N  N5  1  0.44793000  0.22286000  0.25000000  1.0 -0.6638826132
N  N6  1  0.55186000  0.77558000  0.75000000  1.0 -0.6638826132
N  N7  1  0.77558000  0.22370000  0.25000000  1.0 -0.66622444
N  N8  1  0.22369000  0.77556000  0.75000000  1.0 -0.66622444
N  N9  1  0.77555000  0.55185000  0.25000000  1.0 -0.6638826132
N  N10  1  0.22360000  0.44803000  0.75000000  1.0 -0.66622444
O  O1  1  0.17755000  0.08788000  0.25000000  1.0 -0.5565885901
O  O2  1  0.82227000  0.91023000  0.75000000  1.0 -0.5565885901
O  O3  1  0.91024000  0.08793000  0.25000000  1.0 -0.5536990166
O  O4  1  0.08780000  0.17759000  0.75000000  1.0 -0.5565885901
O  O5  1  0.91025000  0.82227000  0.25000000  1.0 -0.5565885901
O  O6  1  0.08796000  0.91026000  0.75000000  1.0 -0.5565885901
