# DDEC6 charges by PACMAN v1.1 (https://github.com/mtap-research/PACMAN-charge/)
data_DAZKEX_FSR_pacman
_symmetry_space_group_name_H-M   'P 1'
_cell_length_a   27.48750000
_cell_length_b   27.48750000
_cell_length_c   27.48750000
_cell_angle_alpha   152.42100000
_cell_angle_beta   152.42100000
_cell_angle_gamma   39.39850000
_symmetry_Int_Tables_number   1
_chemical_formula_structural   Al(C7O3)2
_chemical_formula_sum   'Al8 C112 O48'
_cell_volume   4443.49593864
_cell_formula_units_Z   8
loop_
 _symmetry_equiv_pos_site_id
 _symmetry_equiv_pos_as_xyz
  1  'x, y, z'
loop_
 _atom_site_type_symbol
 _atom_site_label
 _atom_site_symmetry_multiplicity
 _atom_site_fract_x
 _atom_site_fract_y
 _atom_site_fract_z
 _atom_site_occupancy
 _atom_site_charge
Al  Al1  1  0.87500000  0.62500000  0.25000000  1.0 1.6088431586
Al  Al2  1  0.37500000  0.62500000  0.75000000  1.0 1.6088431586
Al  Al3  1  0.37500000  0.62500000  0.25000000  1.0 1.6088431586
Al  Al4  1  0.37500000  0.12500000  0.75000000  1.0 1.6088431586
Al  Al5  1  0.12807000  0.62807000  0.50000000  1.0 1.5882790794
Al  Al6  1  0.37807000  0.37807000  0.00000000  1.0 1.5882790794
Al  Al7  1  0.62193000  0.62193000  0.00000000  1.0 1.5882790794
Al  Al8  1  0.37193000  0.87193000  0.50000000  1.0 1.5882790794
C  C1  1  0.77664000  0.75224000  0.20772000  1.0 0.6477593591
C  C2  1  0.78620000  0.80850000  0.21900000  1.0 -0.1235677379
C  C3  1  0.69607000  0.82606000  0.12681000  1.0 0.0891876274
C  C4  1  0.70610000  0.86712000  0.12500000  1.0 -0.1374496134
C  C5  1  0.80580000  0.89166000  0.21498000  1.0 0.2640625596
C  C6  1  0.89598000  0.87992000  0.31350000  1.0 -0.1580389648
C  C7  1  0.88618000  0.83714000  0.31360000  1.0 0.1291491284
C  C8  1  0.91243000  0.93963000  0.27500000  1.0 0.23758205
C  C9  1  0.95296000  0.03612000  0.37802000  1.0 -0.1029425071
C  C10  1  0.05132000  0.04404000  0.44948000  1.0 0.1291491284
C  C11  1  0.11083000  0.95472000  0.41759000  1.0 -0.1500058065
C  C12  1  0.06808000  0.85669000  0.30973000  1.0 0.1102218337
C  C13  1  0.96920000  0.84899000  0.23795000  1.0 -0.1580389648
C  C14  1  0.21819000  0.96593000  0.50128000  1.0 0.6714248766
C  C15  1  0.54452000  0.56892000  0.79228000  1.0 0.6477593591
C  C16  1  0.58950000  0.56720000  0.78100000  1.0 -0.1235677379
C  C17  1  0.69925000  0.56926000  0.87319000  1.0 0.0891876274
C  C18  1  0.74212000  0.58110000  0.87500000  1.0 -0.1374496134
C  C19  1  0.67668000  0.59082000  0.78502000  1.0 0.2640625596
C  C20  1  0.56642000  0.58248000  0.68650000  1.0 -0.1580389648
C  C21  1  0.52354000  0.57258000  0.68640000  1.0 0.1291491284
C  C22  1  0.66463000  0.63743000  0.72500000  1.0 0.23758205
C  C23  1  0.65810000  0.57494000  0.62198000  1.0 -0.1029425071
C  C24  1  0.59456000  0.60184000  0.55052000  1.0 0.1291491284
C  C25  1  0.53713000  0.69324000  0.58241000  1.0 -0.1500058065
C  C26  1  0.54696000  0.75835000  0.69027000  1.0 0.1102218337
C  C27  1  0.61104000  0.73125000  0.76205000  1.0 -0.1500058065
C  C28  1  0.46465000  0.71691000  0.49872000  1.0 0.6714248766
C  C29  1  0.50224000  0.79452000  0.47560000  1.0 0.6477593591
C  C30  1  0.55850000  0.83950000  0.52230000  1.0 -0.1235677379
C  C31  1  0.57606000  0.94925000  0.62999000  1.0 0.0891876274
C  C32  1  0.61712000  0.99212000  0.66102000  1.0 -0.1374496134
C  C33  1  0.64166000  0.92668000  0.58586000  1.0 0.2640625596
C  C34  1  0.62992000  0.81642000  0.48394000  1.0 -0.1580389648
C  C35  1  0.58714000  0.77354000  0.45096000  1.0 0.1291491284
C  C36  1  0.68963000  0.91463000  0.52720000  1.0 0.23758205
C  C37  1  0.78612000  0.90810000  0.58316000  1.0 -0.1029425071
C  C38  1  0.79404000  0.84456000  0.49272000  1.0 0.1291491284
C  C39  1  0.70472000  0.78713000  0.34389000  1.0 -0.1500058065
C  C40  1  0.60669000  0.79696000  0.28861000  1.0 0.1102218337
C  C41  1  0.59899000  0.86104000  0.37979000  1.0 -0.1580389648
C  C42  1  0.71593000  0.71465000  0.24774000  1.0 0.6714248766
C  C43  1  0.31892000  0.02664000  0.52440000  1.0 0.6477593591
C  C44  1  0.31720000  0.03620000  0.47770000  1.0 -0.1235677379
C  C45  1  0.31926000  0.94607000  0.37001000  1.0 0.0891876274
C  C46  1  0.33110000  0.95610000  0.33898000  1.0 -0.1374496134
C  C47  1  0.34082000  0.05580000  0.41414000  1.0 0.2640625596
C  C48  1  0.33248000  0.14598000  0.51606000  1.0 -0.1580389648
C  C49  1  0.32258000  0.13618000  0.54904000  1.0 0.1291491284
C  C50  1  0.38743000  0.16243000  0.47280000  1.0 0.23758205
C  C51  1  0.32494000  0.20296000  0.41684000  1.0 -0.1029425071
C  C52  1  0.35184000  0.30132000  0.50728000  1.0 0.1291491284
C  C53  1  0.44324000  0.36083000  0.65611000  1.0 -0.1500058065
C  C54  1  0.50835000  0.31808000  0.71139000  1.0 0.1102218337
C  C55  1  0.48125000  0.21920000  0.62021000  1.0 -0.1580389648
C  C56  1  0.46691000  0.46819000  0.75226000  1.0 0.6714248766
C  C57  1  0.97336000  0.49776000  0.29228000  1.0 0.6477593591
C  C58  1  0.96380000  0.44150000  0.28100000  1.0 -0.1235677379
C  C59  1  0.05393000  0.42394000  0.37319000  1.0 0.0891876274
C  C60  1  0.04390000  0.38288000  0.37500000  1.0 -0.1347017924
C  C61  1  0.94420000  0.35834000  0.28502000  1.0 0.2663717528
C  C62  1  0.85402000  0.37008000  0.18650000  1.0 -0.1500058065
C  C63  1  0.86382000  0.41286000  0.18640000  1.0 0.1291491284
C  C64  1  0.83757000  0.31037000  0.22500000  1.0 0.23758205
C  C65  1  0.79704000  0.21388000  0.12198000  1.0 -0.1029425071
C  C66  1  0.69868000  0.20596000  0.05052000  1.0 0.1291491284
C  C67  1  0.63917000  0.29528000  0.08241000  1.0 -0.1500058065
C  C68  1  0.68192000  0.39331000  0.19027000  1.0 0.1102218337
C  C69  1  0.78080000  0.40101000  0.26205000  1.0 -0.1580389648
C  C70  1  0.53181000  0.28407000  0.99872000  1.0 0.6714248766
C  C71  1  0.20548000  0.68108000  0.70772000  1.0 0.6477593591
C  C72  1  0.16050000  0.68280000  0.71900000  1.0 -0.1235677379
C  C73  1  0.05075000  0.68074000  0.62681000  1.0 0.0891876274
C  C74  1  0.00788000  0.66890000  0.62500000  1.0 -0.1374496134
C  C75  1  0.07332000  0.65918000  0.71498000  1.0 0.2640625596
C  C76  1  0.18358000  0.66752000  0.81350000  1.0 -0.1580389648
C  C77  1  0.22646000  0.67742000  0.81360000  1.0 0.1291491284
C  C78  1  0.08537000  0.61257000  0.77500000  1.0 0.23758205
C  C79  1  0.09190000  0.67506000  0.87802000  1.0 -0.1029425071
C  C80  1  0.15544000  0.64816000  0.94948000  1.0 0.1291491284
C  C81  1  0.21287000  0.55676000  0.91759000  1.0 -0.1500058065
C  C82  1  0.20304000  0.49165000  0.80973000  1.0 0.1102218337
C  C83  1  0.13896000  0.51875000  0.73795000  1.0 -0.1580389648
C  C84  1  0.28535000  0.53309000  0.00128000  1.0 0.6714248766
C  C85  1  0.24776000  0.45548000  0.02440000  1.0 0.6477593591
C  C86  1  0.19150000  0.41050000  0.97770000  1.0 -0.1235677379
C  C87  1  0.17394000  0.30075000  0.87001000  1.0 0.0891876274
C  C88  1  0.13288000  0.25788000  0.83898000  1.0 -0.1374496134
C  C89  1  0.10834000  0.32332000  0.91414000  1.0 0.2640625596
C  C90  1  0.12008000  0.43358000  0.01606000  1.0 -0.1580389648
C  C91  1  0.16286000  0.47646000  0.04904000  1.0 0.1291491284
C  C92  1  0.06037000  0.33537000  0.97280000  1.0 0.23758205
C  C93  1  0.96388000  0.34190000  0.91684000  1.0 -0.1029425071
C  C94  1  0.95596000  0.40544000  0.00728000  1.0 0.1291491284
C  C95  1  0.04528000  0.46287000  0.15611000  1.0 -0.1500058065
C  C96  1  0.14331000  0.45304000  0.21139000  1.0 0.1102218337
C  C97  1  0.15101000  0.38896000  0.12021000  1.0 -0.1500058065
C  C98  1  0.03407000  0.53535000  0.25226000  1.0 0.6714248766
C  C99  1  0.43108000  0.22336000  0.97560000  1.0 0.6477593591
C  C100  1  0.43280000  0.21380000  0.02230000  1.0 -0.1235677379
C  C101  1  0.43074000  0.30393000  0.12999000  1.0 0.0891876274
C  C102  1  0.41890000  0.29390000  0.16102000  1.0 -0.1374496134
C  C103  1  0.40918000  0.19420000  0.08586000  1.0 0.2663717528
C  C104  1  0.41752000  0.10402000  0.98394000  1.0 -0.1580389648
C  C105  1  0.42742000  0.11382000  0.95096000  1.0 0.1291491284
C  C106  1  0.36257000  0.08757000  0.02720000  1.0 0.23758205
C  C107  1  0.42506000  0.04704000  0.08316000  1.0 -0.1029425071
C  C108  1  0.39816000  0.94868000  0.99272000  1.0 0.1291491284
C  C109  1  0.30676000  0.88917000  0.84389000  1.0 -0.1500058065
C  C110  1  0.24165000  0.93192000  0.78861000  1.0 0.1102218337
C  C111  1  0.26875000  0.03080000  0.87979000  1.0 -0.1580389648
C  C112  1  0.28309000  0.78181000  0.74774000  1.0 0.6714248766
O  O1  1  0.00112000  0.70032000  0.44520000  1.0 -0.8275436394
O  O2  1  0.86442000  0.72022000  0.27160000  1.0 -0.5057480524
O  O3  1  0.68730000  0.74386000  0.14256000  1.0 -0.5279362241
O  O4  1  0.24572000  0.88432000  0.43060000  1.0 -0.5031693841
O  O5  1  0.24798000  0.06538000  0.61380000  1.0 -0.5279362241
O  O6  1  0.80957000  0.94237000  0.21280000  1.0 -0.1500058065
O  O7  1  0.25512000  0.55592000  0.55480000  1.0 -0.8275436394
O  O8  1  0.44862000  0.59282000  0.72840000  1.0 -0.5057480524
O  O9  1  0.60130000  0.54474000  0.85744000  1.0 -0.5279362241
O  O10  1  0.45372000  0.81512000  0.56940000  1.0 -0.5031693841
O  O11  1  0.45158000  0.63418000  0.38620000  1.0 -0.5279362241
O  O12  1  0.72957000  0.59677000  0.78720000  1.0 -0.1500058065
O  O13  1  0.45032000  0.50512000  0.19920000  1.0 -0.8275436394
O  O14  1  0.47022000  0.69862000  0.35580000  1.0 -0.5057480524
O  O15  1  0.49386000  0.85130000  0.55656000  1.0 -0.5279362241
O  O16  1  0.63432000  0.70372000  0.13860000  1.0 -0.5031693841
O  O17  1  0.81538000  0.70158000  0.31740000  1.0 -0.5279362241
O  O18  1  0.69237000  0.97957000  0.63280000  1.0 -0.166340678
O  O19  1  0.30592000  0.25112000  0.80080000  1.0 -0.8275436394
O  O20  1  0.34282000  0.11442000  0.64420000  1.0 -0.5057480524
O  O21  1  0.29474000  0.93730000  0.44344000  1.0 -0.5279362241
O  O22  1  0.56512000  0.49572000  0.86140000  1.0 -0.5031693841
O  O23  1  0.38418000  0.49798000  0.68260000  1.0 -0.5279362241
O  O24  1  0.34677000  0.05957000  0.36720000  1.0 -0.1580389648
O  O25  1  0.74888000  0.54968000  0.05480000  1.0 -0.8236232887
O  O26  1  0.88558000  0.52978000  0.22840000  1.0 -0.5057480524
O  O27  1  0.06270000  0.50614000  0.35744000  1.0 -0.5279362241
O  O28  1  0.50428000  0.36568000  0.06940000  1.0 -0.5031693841
O  O29  1  0.50202000  0.18462000  0.88620000  1.0 -0.5279362241
O  O30  1  0.94043000  0.30763000  0.28720000  1.0 -0.166340678
O  O31  1  0.49488000  0.69408000  0.94520000  1.0 -0.8275436394
O  O32  1  0.30138000  0.65718000  0.77160000  1.0 -0.5057480524
O  O33  1  0.14870000  0.70526000  0.64256000  1.0 -0.5279362241
O  O34  1  0.29628000  0.43488000  0.93060000  1.0 -0.5031693841
O  O35  1  0.29842000  0.61582000  0.11380000  1.0 -0.5279362241
O  O36  1  0.02043000  0.65323000  0.71280000  1.0 -0.1580389648
O  O37  1  0.29968000  0.74488000  0.30080000  1.0 -0.8275436394
O  O38  1  0.27978000  0.55138000  0.14420000  1.0 -0.5057480524
O  O39  1  0.25614000  0.39870000  0.94344000  1.0 -0.5279362241
O  O40  1  0.11568000  0.54628000  0.36140000  1.0 -0.5031693841
O  O41  1  0.93462000  0.54842000  0.18260000  1.0 -0.5279362241
O  O42  1  0.05763000  0.27043000  0.86720000  1.0 -0.166340678
O  O43  1  0.44408000  0.99888000  0.69920000  1.0 -0.8275436394
O  O44  1  0.40718000  0.13558000  0.85580000  1.0 -0.5057480524
O  O45  1  0.45526000  0.31270000  0.05656000  1.0 -0.5279362241
O  O46  1  0.18488000  0.75428000  0.63860000  1.0 -0.5031693841
O  O47  1  0.36582000  0.75202000  0.81740000  1.0 -0.5279362241
O  O48  1  0.40323000  0.19043000  0.13280000  1.0 -0.1580389648
