# DDEC6 charges by PACMAN v1.1 (https://github.com/mtap-research/PACMAN-charge/)
data_DEBNUU_ASR_pacman
_symmetry_space_group_name_H-M   'P 1'
_cell_length_a   10.32710000
_cell_length_b   7.89512000
_cell_length_c   10.54070000
_cell_angle_alpha   90.00000000
_cell_angle_beta   109.81900000
_cell_angle_gamma   90.00000000
_symmetry_Int_Tables_number   1
_chemical_formula_structural   Al3P2C6O13
_chemical_formula_sum   'Al6 P4 C12 O26'
_cell_volume   808.51724265
_cell_formula_units_Z   2
loop_
 _symmetry_equiv_pos_site_id
 _symmetry_equiv_pos_as_xyz
  1  'x, y, z'
loop_
 _atom_site_type_symbol
 _atom_site_label
 _atom_site_symmetry_multiplicity
 _atom_site_fract_x
 _atom_site_fract_y
 _atom_site_fract_z
 _atom_site_occupancy
 _atom_site_charge
Al  Al1  1  0.29070000  0.57020000  0.68060000  1.0 1.7580553443
Al  Al2  1  0.20930000  0.57020000  0.31940000  1.0 1.7580553443
Al  Al3  1  0.70930000  0.42980000  0.31940000  1.0 1.7580553443
Al  Al4  1  0.79070000  0.42980000  0.68060000  1.0 1.7580553443
Al  Al5  1  0.00000000  0.50000000  0.00000000  1.0 1.6865269692
Al  Al6  1  0.50000000  0.50000000  0.00000000  1.0 1.6865269692
P  P1  1  0.03481000  0.69150000  0.75370000  1.0 1.355722651
P  P2  1  0.46519000  0.69150000  0.24630000  1.0 1.355722651
P  P3  1  0.96519000  0.30850000  0.24630000  1.0 1.355722651
P  P4  1  0.53481000  0.30850000  0.75370000  1.0 1.355722651
C  C1  1  0.96220000  0.89740000  0.76430000  1.0 -0.2167630293
C  C2  1  0.53780000  0.89740000  0.23570000  1.0 -0.2148727773
C  C3  1  0.03780000  0.10260000  0.23570000  1.0 -0.2167630293
C  C4  1  0.46220000  0.10260000  0.76430000  1.0 -0.2167630293
C  C5  1  0.07230000  0.01730000  0.84100000  1.0 0.0716191513
C  C6  1  0.42770000  0.01730000  0.15900000  1.0 0.0716191513
C  C7  1  0.92770000  0.98270000  0.15900000  1.0 0.0716191513
C  C8  1  0.57230000  0.98270000  0.84100000  1.0 0.0716191513
C  C9  1  0.01320000  0.19130000  0.84190000  1.0 0.6449631007
C  C10  1  0.48680000  0.19130000  0.15810000  1.0 0.6451780351
C  C11  1  0.98680000  0.80870000  0.15810000  1.0 0.6449631007
C  C12  1  0.51320000  0.80870000  0.84190000  1.0 0.6449631007
O  O1  1  0.08720000  0.60960000  0.89380000  1.0 -0.6892209201
O  O2  1  0.41280000  0.60960000  0.10620000  1.0 -0.6892209201
O  O3  1  0.91280000  0.39040000  0.10620000  1.0 -0.6892209201
O  O4  1  0.58720000  0.39040000  0.89380000  1.0 -0.6892209201
O  O5  1  0.15400000  0.71530000  0.69740000  1.0 -0.7427311389
O  O6  1  0.34600000  0.71530000  0.30260000  1.0 -0.7427311389
O  O7  1  0.84600000  0.28470000  0.30260000  1.0 -0.7427311389
O  O8  1  0.65400000  0.28470000  0.69740000  1.0 -0.7427311389
O  O9  1  0.91910000  0.58310000  0.65330000  1.0 -0.7610941677
O  O10  1  0.58090000  0.58310000  0.34670000  1.0 -0.7610941677
O  O11  1  0.08090000  0.41690000  0.34670000  1.0 -0.7610941677
O  O12  1  0.41910000  0.41690000  0.65330000  1.0 -0.7610941677
O  O13  1  0.93120000  0.25100000  0.73640000  1.0 -0.4871256126
O  O14  1  0.56880000  0.25100000  0.26360000  1.0 -0.4871256126
O  O15  1  0.06880000  0.74900000  0.26360000  1.0 -0.4871256126
O  O16  1  0.43120000  0.74900000  0.73640000  1.0 -0.4871256126
O  O17  1  0.04920000  0.27420000  0.94760000  1.0 -0.4823653547
O  O18  1  0.45080000  0.27420000  0.05240000  1.0 -0.4823653547
O  O19  1  0.95080000  0.72580000  0.05240000  1.0 -0.4823653547
O  O20  1  0.54920000  0.72580000  0.94760000  1.0 -0.4823653547
O  O21  1  0.83330000  0.50320000  0.86240000  1.0 -0.8673173635
O  O22  1  0.66666667  0.50320000  0.13760000  1.0 -0.8673173635
O  O23  1  0.16670000  0.49680000  0.13760000  1.0 -0.8673173635
O  O24  1  0.33333333  0.49680000  0.86240000  1.0 -0.8673173635
O  O25  1  0.25000000  0.64740000  0.50000000  1.0 -0.85477446
O  O26  1  0.75000000  0.35260000  0.50000000  1.0 -0.8553553073
