# DDEC6 charges by PACMAN v1.1 (https://github.com/mtap-research/PACMAN-charge/)
data_DEFPOX_ASR_pacman
_symmetry_space_group_name_H-M   'P 1'
_cell_length_a   22.98850000
_cell_length_b   22.98850000
_cell_length_c   22.98850000
_cell_angle_alpha   90.00000000
_cell_angle_beta   90.00000000
_cell_angle_gamma   90.00000000
_symmetry_Int_Tables_number   1
_chemical_formula_structural   Cu6H54C90N7O24
_chemical_formula_sum   'Cu12 H108 C180 N14 O48'
_cell_volume   12148.75862373
_cell_formula_units_Z   2
loop_
 _symmetry_equiv_pos_site_id
 _symmetry_equiv_pos_as_xyz
  1  'x, y, z'
loop_
 _atom_site_type_symbol
 _atom_site_label
 _atom_site_symmetry_multiplicity
 _atom_site_fract_x
 _atom_site_fract_y
 _atom_site_fract_z
 _atom_site_occupancy
 _atom_site_charge
Cu  Cu1  1  0.00000000  0.50000000  0.34421000  1.0 0.7830186945
Cu  Cu2  1  0.00000000  0.50000000  0.22915000  1.0 0.8827379804
Cu  Cu3  1  0.00000000  0.50000000  0.65579000  1.0 0.7830186945
Cu  Cu4  1  0.00000000  0.50000000  0.77085000  1.0 0.8827379804
Cu  Cu5  1  0.34421000  0.00000000  0.50000000  1.0 0.7830186945
Cu  Cu6  1  0.22915000  0.00000000  0.50000000  1.0 0.8827379804
Cu  Cu7  1  0.65579000  0.00000000  0.50000000  1.0 0.7830186945
Cu  Cu8  1  0.77085000  0.00000000  0.50000000  1.0 0.8827379804
Cu  Cu9  1  0.50000000  0.34421000  0.00000000  1.0 0.7830186945
Cu  Cu10  1  0.50000000  0.22915000  0.00000000  1.0 0.8827379804
Cu  Cu11  1  0.50000000  0.65579000  0.00000000  1.0 0.7830186945
Cu  Cu12  1  0.50000000  0.77085000  0.00000000  1.0 0.8827379804
H  H1  1  0.21260000  0.31570000  0.19120000  1.0 0.1285971727
H  H2  1  0.23070000  0.32910000  0.36570000  1.0 0.1285971727
H  H3  1  0.13930000  0.37510000  0.37150000  1.0 0.1285971727
H  H4  1  0.12730000  0.36980000  0.19550000  1.0 0.1285971727
H  H5  1  0.78740000  0.68430000  0.19120000  1.0 0.1285971727
H  H6  1  0.76930000  0.67090000  0.36570000  1.0 0.1285971727
H  H7  1  0.86070000  0.62490000  0.37150000  1.0 0.1285971727
H  H8  1  0.87270000  0.63020000  0.19550000  1.0 0.1285971727
H  H9  1  0.78740000  0.31570000  0.80880000  1.0 0.1285971727
H  H10  1  0.76930000  0.32910000  0.63430000  1.0 0.1285971727
H  H11  1  0.86070000  0.37510000  0.62850000  1.0 0.1285971727
H  H12  1  0.87270000  0.36980000  0.80450000  1.0 0.1285971727
H  H13  1  0.21260000  0.68430000  0.80880000  1.0 0.1285971727
H  H14  1  0.23070000  0.67090000  0.63430000  1.0 0.1285971727
H  H15  1  0.13930000  0.62490000  0.62850000  1.0 0.1285971727
H  H16  1  0.12730000  0.63020000  0.80450000  1.0 0.1285971727
H  H17  1  0.19120000  0.21260000  0.31570000  1.0 0.1285971727
H  H18  1  0.36570000  0.23070000  0.32910000  1.0 0.1285971727
H  H19  1  0.37150000  0.13930000  0.37510000  1.0 0.1285971727
H  H20  1  0.19550000  0.12730000  0.36980000  1.0 0.1285971727
H  H21  1  0.19120000  0.78740000  0.68430000  1.0 0.1285971727
H  H22  1  0.36570000  0.76930000  0.67090000  1.0 0.1285971727
H  H23  1  0.37150000  0.86070000  0.62490000  1.0 0.1285971727
H  H24  1  0.19550000  0.87270000  0.63020000  1.0 0.1285971727
H  H25  1  0.80880000  0.78740000  0.31570000  1.0 0.1285971727
H  H26  1  0.63430000  0.76930000  0.32910000  1.0 0.1285971727
H  H27  1  0.62850000  0.86070000  0.37510000  1.0 0.1285971727
H  H28  1  0.80450000  0.87270000  0.36980000  1.0 0.1285971727
H  H29  1  0.80880000  0.21260000  0.68430000  1.0 0.1285971727
H  H30  1  0.63430000  0.23070000  0.67090000  1.0 0.1285971727
H  H31  1  0.62850000  0.13930000  0.62490000  1.0 0.1285971727
H  H32  1  0.80450000  0.12730000  0.63020000  1.0 0.1285971727
H  H33  1  0.31570000  0.19120000  0.21260000  1.0 0.1285971727
H  H34  1  0.32910000  0.36570000  0.23070000  1.0 0.1285971727
H  H35  1  0.37510000  0.37150000  0.13930000  1.0 0.1285971727
H  H36  1  0.36980000  0.19550000  0.12730000  1.0 0.1285971727
H  H37  1  0.68430000  0.19120000  0.78740000  1.0 0.1285971727
H  H38  1  0.67090000  0.36570000  0.76930000  1.0 0.1285971727
H  H39  1  0.62490000  0.37150000  0.86070000  1.0 0.1285971727
H  H40  1  0.63020000  0.19550000  0.87270000  1.0 0.1285971727
H  H41  1  0.31570000  0.80880000  0.78740000  1.0 0.1285971727
H  H42  1  0.32910000  0.63430000  0.76930000  1.0 0.1285971727
H  H43  1  0.37510000  0.62850000  0.86070000  1.0 0.1285971727
H  H44  1  0.36980000  0.80450000  0.87270000  1.0 0.1285971727
H  H45  1  0.68430000  0.80880000  0.21260000  1.0 0.1285971727
H  H46  1  0.67090000  0.63430000  0.23070000  1.0 0.1285971727
H  H47  1  0.62490000  0.62850000  0.13930000  1.0 0.1285971727
H  H48  1  0.63020000  0.80450000  0.12730000  1.0 0.1285971727
H  H49  1  0.78740000  0.68430000  0.80880000  1.0 0.1285971727
H  H50  1  0.76930000  0.67090000  0.63430000  1.0 0.1285971727
H  H51  1  0.86070000  0.62490000  0.62850000  1.0 0.1285971727
H  H52  1  0.87270000  0.63020000  0.80450000  1.0 0.1285971727
H  H53  1  0.21260000  0.31570000  0.80880000  1.0 0.1285971727
H  H54  1  0.23070000  0.32910000  0.63430000  1.0 0.1285971727
H  H55  1  0.13930000  0.37510000  0.62850000  1.0 0.1285971727
H  H56  1  0.12730000  0.36980000  0.80450000  1.0 0.1285971727
H  H57  1  0.21260000  0.68430000  0.19120000  1.0 0.1285971727
H  H58  1  0.23070000  0.67090000  0.36570000  1.0 0.1285971727
H  H59  1  0.13930000  0.62490000  0.37150000  1.0 0.1285971727
H  H60  1  0.12730000  0.63020000  0.19550000  1.0 0.1285971727
H  H61  1  0.78740000  0.31570000  0.19120000  1.0 0.1285971727
H  H62  1  0.76930000  0.32910000  0.36570000  1.0 0.1285971727
H  H63  1  0.86070000  0.37510000  0.37150000  1.0 0.1285971727
H  H64  1  0.87270000  0.36980000  0.19550000  1.0 0.1285971727
H  H65  1  0.80880000  0.78740000  0.68430000  1.0 0.1285971727
H  H66  1  0.63430000  0.76930000  0.67090000  1.0 0.1285971727
H  H67  1  0.62850000  0.86070000  0.62490000  1.0 0.1285971727
H  H68  1  0.80450000  0.87270000  0.63020000  1.0 0.1285971727
H  H69  1  0.80880000  0.21260000  0.31570000  1.0 0.1285971727
H  H70  1  0.63430000  0.23070000  0.32910000  1.0 0.1285971727
H  H71  1  0.62850000  0.13930000  0.37510000  1.0 0.1285971727
H  H72  1  0.80450000  0.12730000  0.36980000  1.0 0.1285971727
H  H73  1  0.19120000  0.21260000  0.68430000  1.0 0.1285971727
H  H74  1  0.36570000  0.23070000  0.67090000  1.0 0.1285971727
H  H75  1  0.37150000  0.13930000  0.62490000  1.0 0.1285971727
H  H76  1  0.19550000  0.12730000  0.63020000  1.0 0.1285971727
H  H77  1  0.19120000  0.78740000  0.31570000  1.0 0.1285971727
H  H78  1  0.36570000  0.76930000  0.32910000  1.0 0.1285971727
H  H79  1  0.37150000  0.86070000  0.37510000  1.0 0.1285971727
H  H80  1  0.19550000  0.87270000  0.36980000  1.0 0.1285971727
H  H81  1  0.68430000  0.80880000  0.78740000  1.0 0.1285971727
H  H82  1  0.67090000  0.63430000  0.76930000  1.0 0.1285971727
H  H83  1  0.62490000  0.62850000  0.86070000  1.0 0.1285971727
H  H84  1  0.63020000  0.80450000  0.87270000  1.0 0.1285971727
H  H85  1  0.31570000  0.80880000  0.21260000  1.0 0.1285971727
H  H86  1  0.32910000  0.63430000  0.23070000  1.0 0.1285971727
H  H87  1  0.37510000  0.62850000  0.13930000  1.0 0.1285971727
H  H88  1  0.36980000  0.80450000  0.12730000  1.0 0.1285971727
H  H89  1  0.68430000  0.19120000  0.21260000  1.0 0.1285971727
H  H90  1  0.67090000  0.36570000  0.23070000  1.0 0.1285971727
H  H91  1  0.62490000  0.37150000  0.13930000  1.0 0.1285971727
H  H92  1  0.63020000  0.19550000  0.12730000  1.0 0.1285971727
H  H93  1  0.31570000  0.19120000  0.78740000  1.0 0.1285971727
H  H94  1  0.32910000  0.36570000  0.76930000  1.0 0.1285971727
H  H95  1  0.37510000  0.37150000  0.86070000  1.0 0.1285971727
H  H96  1  0.36980000  0.19550000  0.87270000  1.0 0.1285971727
H  H97  1  0.91760000  0.50000000  0.44950000  1.0 0.1366732877
H  H98  1  0.08240000  0.50000000  0.44950000  1.0 0.1366732877
H  H99  1  0.08240000  0.50000000  0.55050000  1.0 0.1366732877
H  H100  1  0.91760000  0.50000000  0.55050000  1.0 0.1366732877
H  H101  1  0.44950000  0.91760000  0.50000000  1.0 0.1366732877
H  H102  1  0.44950000  0.08240000  0.50000000  1.0 0.1366732877
H  H103  1  0.55050000  0.08240000  0.50000000  1.0 0.1366732877
H  H104  1  0.55050000  0.91760000  0.50000000  1.0 0.1366732877
H  H105  1  0.50000000  0.44950000  0.91760000  1.0 0.1366732877
H  H106  1  0.50000000  0.44950000  0.08240000  1.0 0.1366732877
H  H107  1  0.50000000  0.55050000  0.08240000  1.0 0.1366732877
H  H108  1  0.50000000  0.55050000  0.91760000  1.0 0.1366732877
C  C1  1  0.19760000  0.32680000  0.22810000  1.0 -0.1913607823
C  C2  1  0.20730000  0.33420000  0.33200000  1.0 -0.1913607823
C  C3  1  0.07858000  0.42315000  0.28648000  1.0 0.5686412838
C  C4  1  0.15550000  0.36510000  0.33483000  1.0 -0.0930794339
C  C5  1  0.12724000  0.38150000  0.28383000  1.0 -0.0579599801
C  C6  1  0.14760000  0.36070000  0.23025000  1.0 -0.0775109121
C  C7  1  0.22500000  0.30950000  0.27580000  1.0 0.1716223731
C  C8  1  0.80240000  0.67320000  0.22810000  1.0 -0.1913607823
C  C9  1  0.79270000  0.66580000  0.33200000  1.0 -0.1913607823
C  C10  1  0.92142000  0.57685000  0.28648000  1.0 0.5686412838
C  C11  1  0.84450000  0.63490000  0.33483000  1.0 -0.0930794339
C  C12  1  0.87276000  0.61850000  0.28383000  1.0 -0.0579599801
C  C13  1  0.85240000  0.63930000  0.23025000  1.0 -0.0775109121
C  C14  1  0.77500000  0.69050000  0.27580000  1.0 0.1716223731
C  C15  1  0.80240000  0.32680000  0.77190000  1.0 -0.1913607823
C  C16  1  0.79270000  0.33420000  0.66800000  1.0 -0.1913607823
C  C17  1  0.92142000  0.42315000  0.71352000  1.0 0.5686412838
C  C18  1  0.84450000  0.36510000  0.66517000  1.0 -0.0930794339
C  C19  1  0.87276000  0.38150000  0.71617000  1.0 -0.0579599801
C  C20  1  0.85240000  0.36070000  0.76975000  1.0 -0.0775109121
C  C21  1  0.77500000  0.30950000  0.72420000  1.0 0.1716223731
C  C22  1  0.19760000  0.67320000  0.77190000  1.0 -0.1913607823
C  C23  1  0.20730000  0.66580000  0.66800000  1.0 -0.1913607823
C  C24  1  0.07858000  0.57685000  0.71352000  1.0 0.5686412838
C  C25  1  0.15550000  0.63490000  0.66517000  1.0 -0.0930794339
C  C26  1  0.12724000  0.61850000  0.71617000  1.0 -0.0579599801
C  C27  1  0.14760000  0.63930000  0.76975000  1.0 -0.0775109121
C  C28  1  0.22500000  0.69050000  0.72420000  1.0 0.1716223731
C  C29  1  0.22810000  0.19760000  0.32680000  1.0 -0.1913607823
C  C30  1  0.33200000  0.20730000  0.33420000  1.0 -0.1913607823
C  C31  1  0.28648000  0.07858000  0.42315000  1.0 0.5686412838
C  C32  1  0.33483000  0.15550000  0.36510000  1.0 -0.0930794339
C  C33  1  0.28383000  0.12724000  0.38150000  1.0 -0.0579599801
C  C34  1  0.23025000  0.14760000  0.36070000  1.0 -0.0775109121
C  C35  1  0.27580000  0.22500000  0.30950000  1.0 0.1716223731
C  C36  1  0.22810000  0.80240000  0.67320000  1.0 -0.1913607823
C  C37  1  0.33200000  0.79270000  0.66580000  1.0 -0.1913607823
C  C38  1  0.28648000  0.92142000  0.57685000  1.0 0.5686412838
C  C39  1  0.33483000  0.84450000  0.63490000  1.0 -0.0930794339
C  C40  1  0.28383000  0.87276000  0.61850000  1.0 -0.0579599801
C  C41  1  0.23025000  0.85240000  0.63930000  1.0 -0.0775109121
C  C42  1  0.27580000  0.77500000  0.69050000  1.0 0.1716223731
C  C43  1  0.77190000  0.80240000  0.32680000  1.0 -0.1913607823
C  C44  1  0.66800000  0.79270000  0.33420000  1.0 -0.1913607823
C  C45  1  0.71352000  0.92142000  0.42315000  1.0 0.5686412838
C  C46  1  0.66517000  0.84450000  0.36510000  1.0 -0.0930794339
C  C47  1  0.71617000  0.87276000  0.38150000  1.0 -0.0579599801
C  C48  1  0.76975000  0.85240000  0.36070000  1.0 -0.0775109121
C  C49  1  0.72420000  0.77500000  0.30950000  1.0 0.1716223731
C  C50  1  0.77190000  0.19760000  0.67320000  1.0 -0.1913607823
C  C51  1  0.66800000  0.20730000  0.66580000  1.0 -0.1913607823
C  C52  1  0.71352000  0.07858000  0.57685000  1.0 0.5686412838
C  C53  1  0.66517000  0.15550000  0.63490000  1.0 -0.0930794339
C  C54  1  0.71617000  0.12724000  0.61850000  1.0 -0.0579599801
C  C55  1  0.76975000  0.14760000  0.63930000  1.0 -0.0775109121
C  C56  1  0.72420000  0.22500000  0.69050000  1.0 0.1716223731
C  C57  1  0.32680000  0.22810000  0.19760000  1.0 -0.1913607823
C  C58  1  0.33420000  0.33200000  0.20730000  1.0 -0.1913607823
C  C59  1  0.42315000  0.28648000  0.07858000  1.0 0.5686412838
C  C60  1  0.36510000  0.33483000  0.15550000  1.0 -0.0930794339
C  C61  1  0.38150000  0.28383000  0.12724000  1.0 -0.0579599801
C  C62  1  0.36070000  0.23025000  0.14760000  1.0 -0.0775109121
C  C63  1  0.30950000  0.27580000  0.22500000  1.0 0.1716223731
C  C64  1  0.67320000  0.22810000  0.80240000  1.0 -0.1913607823
C  C65  1  0.66580000  0.33200000  0.79270000  1.0 -0.1913607823
C  C66  1  0.57685000  0.28648000  0.92142000  1.0 0.5686412838
C  C67  1  0.63490000  0.33483000  0.84450000  1.0 -0.0930794339
C  C68  1  0.61850000  0.28383000  0.87276000  1.0 -0.0579599801
C  C69  1  0.63930000  0.23025000  0.85240000  1.0 -0.0775109121
C  C70  1  0.69050000  0.27580000  0.77500000  1.0 0.1716223731
C  C71  1  0.32680000  0.77190000  0.80240000  1.0 -0.1913607823
C  C72  1  0.33420000  0.66800000  0.79270000  1.0 -0.1913607823
C  C73  1  0.42315000  0.71352000  0.92142000  1.0 0.5686412838
C  C74  1  0.36510000  0.66517000  0.84450000  1.0 -0.0930794339
C  C75  1  0.38150000  0.71617000  0.87276000  1.0 -0.0579599801
C  C76  1  0.36070000  0.76975000  0.85240000  1.0 -0.0775109121
C  C77  1  0.30950000  0.72420000  0.77500000  1.0 0.1716223731
C  C78  1  0.67320000  0.77190000  0.19760000  1.0 -0.1913607823
C  C79  1  0.66580000  0.66800000  0.20730000  1.0 -0.1913607823
C  C80  1  0.57685000  0.71352000  0.07858000  1.0 0.5686412838
C  C81  1  0.63490000  0.66517000  0.15550000  1.0 -0.0930794339
C  C82  1  0.61850000  0.71617000  0.12724000  1.0 -0.0579599801
C  C83  1  0.63930000  0.76975000  0.14760000  1.0 -0.0775109121
C  C84  1  0.69050000  0.72420000  0.22500000  1.0 0.1716223731
C  C85  1  0.80240000  0.67320000  0.77190000  1.0 -0.1913607823
C  C86  1  0.79270000  0.66580000  0.66800000  1.0 -0.1913607823
C  C87  1  0.92142000  0.57685000  0.71352000  1.0 0.5686412838
C  C88  1  0.84450000  0.63490000  0.66517000  1.0 -0.0930794339
C  C89  1  0.87276000  0.61850000  0.71617000  1.0 -0.0579599801
C  C90  1  0.85240000  0.63930000  0.76975000  1.0 -0.0775109121
C  C91  1  0.77500000  0.69050000  0.72420000  1.0 0.1716223731
C  C92  1  0.19760000  0.32680000  0.77190000  1.0 -0.1913607823
C  C93  1  0.20730000  0.33420000  0.66800000  1.0 -0.1913607823
C  C94  1  0.07858000  0.42315000  0.71352000  1.0 0.5686412838
C  C95  1  0.15550000  0.36510000  0.66517000  1.0 -0.0930794339
C  C96  1  0.12724000  0.38150000  0.71617000  1.0 -0.0579599801
C  C97  1  0.14760000  0.36070000  0.76975000  1.0 -0.0775109121
C  C98  1  0.22500000  0.30950000  0.72420000  1.0 0.1716223731
C  C99  1  0.19760000  0.67320000  0.22810000  1.0 -0.1913607823
C  C100  1  0.20730000  0.66580000  0.33200000  1.0 -0.1913607823
C  C101  1  0.07858000  0.57685000  0.28648000  1.0 0.5686412838
C  C102  1  0.15550000  0.63490000  0.33483000  1.0 -0.0930794339
C  C103  1  0.12724000  0.61850000  0.28383000  1.0 -0.0579599801
C  C104  1  0.14760000  0.63930000  0.23025000  1.0 -0.0775109121
C  C105  1  0.22500000  0.69050000  0.27580000  1.0 0.1716223731
C  C106  1  0.80240000  0.32680000  0.22810000  1.0 -0.1913607823
C  C107  1  0.79270000  0.33420000  0.33200000  1.0 -0.1913607823
C  C108  1  0.92142000  0.42315000  0.28648000  1.0 0.5686412838
C  C109  1  0.84450000  0.36510000  0.33483000  1.0 -0.0930794339
C  C110  1  0.87276000  0.38150000  0.28383000  1.0 -0.0579599801
C  C111  1  0.85240000  0.36070000  0.23025000  1.0 -0.0775109121
C  C112  1  0.77500000  0.30950000  0.27580000  1.0 0.1716223731
C  C113  1  0.77190000  0.80240000  0.67320000  1.0 -0.1913607823
C  C114  1  0.66800000  0.79270000  0.66580000  1.0 -0.1913607823
C  C115  1  0.71352000  0.92142000  0.57685000  1.0 0.5686412838
C  C116  1  0.66517000  0.84450000  0.63490000  1.0 -0.0930794339
C  C117  1  0.71617000  0.87276000  0.61850000  1.0 -0.0579599801
C  C118  1  0.76975000  0.85240000  0.63930000  1.0 -0.0775109121
C  C119  1  0.72420000  0.77500000  0.69050000  1.0 0.1716223731
C  C120  1  0.77190000  0.19760000  0.32680000  1.0 -0.1913607823
C  C121  1  0.66800000  0.20730000  0.33420000  1.0 -0.1913607823
C  C122  1  0.71352000  0.07858000  0.42315000  1.0 0.5686412838
C  C123  1  0.66517000  0.15550000  0.36510000  1.0 -0.0930794339
C  C124  1  0.71617000  0.12724000  0.38150000  1.0 -0.0579599801
C  C125  1  0.76975000  0.14760000  0.36070000  1.0 -0.0775109121
C  C126  1  0.72420000  0.22500000  0.30950000  1.0 0.1716223731
C  C127  1  0.22810000  0.19760000  0.67320000  1.0 -0.1913607823
C  C128  1  0.33200000  0.20730000  0.66580000  1.0 -0.1913607823
C  C129  1  0.28648000  0.07858000  0.57685000  1.0 0.5686412838
C  C130  1  0.33483000  0.15550000  0.63490000  1.0 -0.0930794339
C  C131  1  0.28383000  0.12724000  0.61850000  1.0 -0.0579599801
C  C132  1  0.23025000  0.14760000  0.63930000  1.0 -0.0775109121
C  C133  1  0.27580000  0.22500000  0.69050000  1.0 0.1716223731
C  C134  1  0.22810000  0.80240000  0.32680000  1.0 -0.1913607823
C  C135  1  0.33200000  0.79270000  0.33420000  1.0 -0.1913607823
C  C136  1  0.28648000  0.92142000  0.42315000  1.0 0.5686412838
C  C137  1  0.33483000  0.84450000  0.36510000  1.0 -0.0930794339
C  C138  1  0.28383000  0.87276000  0.38150000  1.0 -0.0579599801
C  C139  1  0.23025000  0.85240000  0.36070000  1.0 -0.0775109121
C  C140  1  0.27580000  0.77500000  0.30950000  1.0 0.1716223731
C  C141  1  0.67320000  0.77190000  0.80240000  1.0 -0.1913607823
C  C142  1  0.66580000  0.66800000  0.79270000  1.0 -0.1913607823
C  C143  1  0.57685000  0.71352000  0.92142000  1.0 0.5686412838
C  C144  1  0.63490000  0.66517000  0.84450000  1.0 -0.0930794339
C  C145  1  0.61850000  0.71617000  0.87276000  1.0 -0.0579599801
C  C146  1  0.63930000  0.76975000  0.85240000  1.0 -0.0775109121
C  C147  1  0.69050000  0.72420000  0.77500000  1.0 0.1716223731
C  C148  1  0.32680000  0.77190000  0.19760000  1.0 -0.1913607823
C  C149  1  0.33420000  0.66800000  0.20730000  1.0 -0.1913607823
C  C150  1  0.42315000  0.71352000  0.07858000  1.0 0.5686412838
C  C151  1  0.36510000  0.66517000  0.15550000  1.0 -0.0930794339
C  C152  1  0.38150000  0.71617000  0.12724000  1.0 -0.0579599801
C  C153  1  0.36070000  0.76975000  0.14760000  1.0 -0.0775109121
C  C154  1  0.30950000  0.72420000  0.22500000  1.0 0.1716223731
C  C155  1  0.67320000  0.22810000  0.19760000  1.0 -0.1913607823
C  C156  1  0.66580000  0.33200000  0.20730000  1.0 -0.1913607823
C  C157  1  0.57685000  0.28648000  0.07858000  1.0 0.5686412838
C  C158  1  0.63490000  0.33483000  0.15550000  1.0 -0.0930794339
C  C159  1  0.61850000  0.28383000  0.12724000  1.0 -0.0579599801
C  C160  1  0.63930000  0.23025000  0.14760000  1.0 -0.0775109121
C  C161  1  0.69050000  0.27580000  0.22500000  1.0 0.1716223731
C  C162  1  0.32680000  0.22810000  0.80240000  1.0 -0.1913607823
C  C163  1  0.33420000  0.33200000  0.79270000  1.0 -0.1913607823
C  C164  1  0.42315000  0.28648000  0.92142000  1.0 0.5686412838
C  C165  1  0.36510000  0.33483000  0.84450000  1.0 -0.0930794339
C  C166  1  0.38150000  0.28383000  0.87276000  1.0 -0.0579599801
C  C167  1  0.36070000  0.23025000  0.85240000  1.0 -0.0775109121
C  C168  1  0.30950000  0.27580000  0.77500000  1.0 0.1716223731
C  C169  1  0.95320000  0.50000000  0.47040000  1.0 0.0132388937
C  C170  1  0.04680000  0.50000000  0.47040000  1.0 0.0132388937
C  C171  1  0.04680000  0.50000000  0.52960000  1.0 0.0132388937
C  C172  1  0.95320000  0.50000000  0.52960000  1.0 0.0132388937
C  C173  1  0.47040000  0.95320000  0.50000000  1.0 0.0132388937
C  C174  1  0.47040000  0.04680000  0.50000000  1.0 0.0132388937
C  C175  1  0.52960000  0.04680000  0.50000000  1.0 0.0132388937
C  C176  1  0.52960000  0.95320000  0.50000000  1.0 0.0132388937
C  C177  1  0.50000000  0.47040000  0.95320000  1.0 0.0132388937
C  C178  1  0.50000000  0.47040000  0.04680000  1.0 0.0132388937
C  C179  1  0.50000000  0.52960000  0.04680000  1.0 0.0132388937
C  C180  1  0.50000000  0.52960000  0.95320000  1.0 0.0132388937
N  N1  1  0.00000000  0.50000000  0.44436000  1.0 -0.1701508898
N  N2  1  0.00000000  0.50000000  0.55564000  1.0 -0.1701508898
N  N3  1  0.44436000  0.00000000  0.50000000  1.0 -0.1701508898
N  N4  1  0.55564000  0.00000000  0.50000000  1.0 -0.1701508898
N  N5  1  0.50000000  0.44436000  0.00000000  1.0 -0.1701508898
N  N6  1  0.50000000  0.55564000  0.00000000  1.0 -0.1701508898
N  N7  1  0.27570000  0.27570000  0.27570000  1.0 -0.148647866
N  N8  1  0.72430000  0.72430000  0.27570000  1.0 -0.148647866
N  N9  1  0.72430000  0.27570000  0.72430000  1.0 -0.148647866
N  N10  1  0.27570000  0.72430000  0.72430000  1.0 -0.148647866
N  N11  1  0.72430000  0.72430000  0.72430000  1.0 -0.148647866
N  N12  1  0.27570000  0.27570000  0.72430000  1.0 -0.148647866
N  N13  1  0.27570000  0.72430000  0.27570000  1.0 -0.148647866
N  N14  1  0.72430000  0.27570000  0.27570000  1.0 -0.148647866
O  O1  1  0.06029000  0.44071000  0.33557000  1.0 -0.5175257562
O  O2  1  0.05882000  0.44062000  0.23634000  1.0 -0.525162949
O  O3  1  0.93971000  0.55929000  0.33557000  1.0 -0.5175257562
O  O4  1  0.94118000  0.55938000  0.23634000  1.0 -0.525162949
O  O5  1  0.93971000  0.44071000  0.66443000  1.0 -0.5175257562
O  O6  1  0.94118000  0.44062000  0.76366000  1.0 -0.525162949
O  O7  1  0.06029000  0.55929000  0.66443000  1.0 -0.5175257562
O  O8  1  0.05882000  0.55938000  0.76366000  1.0 -0.525162949
O  O9  1  0.33557000  0.06029000  0.44071000  1.0 -0.5175257562
O  O10  1  0.23634000  0.05882000  0.44062000  1.0 -0.525162949
O  O11  1  0.33557000  0.93971000  0.55929000  1.0 -0.5175257562
O  O12  1  0.23634000  0.94118000  0.55938000  1.0 -0.525162949
O  O13  1  0.66443000  0.93971000  0.44071000  1.0 -0.5175257562
O  O14  1  0.76366000  0.94118000  0.44062000  1.0 -0.525162949
O  O15  1  0.66443000  0.06029000  0.55929000  1.0 -0.5175257562
O  O16  1  0.76366000  0.05882000  0.55938000  1.0 -0.525162949
O  O17  1  0.44071000  0.33557000  0.06029000  1.0 -0.5175257562
O  O18  1  0.44062000  0.23634000  0.05882000  1.0 -0.525162949
O  O19  1  0.55929000  0.33557000  0.93971000  1.0 -0.5175257562
O  O20  1  0.55938000  0.23634000  0.94118000  1.0 -0.525162949
O  O21  1  0.44071000  0.66443000  0.93971000  1.0 -0.5175257562
O  O22  1  0.44062000  0.76366000  0.94118000  1.0 -0.525162949
O  O23  1  0.55929000  0.66443000  0.06029000  1.0 -0.5175257562
O  O24  1  0.55938000  0.76366000  0.05882000  1.0 -0.525162949
O  O25  1  0.93971000  0.55929000  0.66443000  1.0 -0.5175257562
O  O26  1  0.94118000  0.55938000  0.76366000  1.0 -0.525162949
O  O27  1  0.06029000  0.44071000  0.66443000  1.0 -0.5175257562
O  O28  1  0.05882000  0.44062000  0.76366000  1.0 -0.525162949
O  O29  1  0.06029000  0.55929000  0.33557000  1.0 -0.5175257562
O  O30  1  0.05882000  0.55938000  0.23634000  1.0 -0.525162949
O  O31  1  0.93971000  0.44071000  0.33557000  1.0 -0.5175257562
O  O32  1  0.94118000  0.44062000  0.23634000  1.0 -0.525162949
O  O33  1  0.66443000  0.93971000  0.55929000  1.0 -0.5175257562
O  O34  1  0.76366000  0.94118000  0.55938000  1.0 -0.525162949
O  O35  1  0.66443000  0.06029000  0.44071000  1.0 -0.5175257562
O  O36  1  0.76366000  0.05882000  0.44062000  1.0 -0.525162949
O  O37  1  0.33557000  0.06029000  0.55929000  1.0 -0.5175257562
O  O38  1  0.23634000  0.05882000  0.55938000  1.0 -0.525162949
O  O39  1  0.33557000  0.93971000  0.44071000  1.0 -0.5175257562
O  O40  1  0.23634000  0.94118000  0.44062000  1.0 -0.525162949
O  O41  1  0.55929000  0.66443000  0.93971000  1.0 -0.5175257562
O  O42  1  0.55938000  0.76366000  0.94118000  1.0 -0.525162949
O  O43  1  0.44071000  0.66443000  0.06029000  1.0 -0.5175257562
O  O44  1  0.44062000  0.76366000  0.05882000  1.0 -0.525162949
O  O45  1  0.55929000  0.33557000  0.06029000  1.0 -0.5175257562
O  O46  1  0.55938000  0.23634000  0.05882000  1.0 -0.525162949
O  O47  1  0.44071000  0.33557000  0.93971000  1.0 -0.5175257562
O  O48  1  0.44062000  0.23634000  0.94118000  1.0 -0.525162949
