# DDEC6 charges by PACMAN v1.1 (https://github.com/mtap-research/PACMAN-charge/)
data_DEGPEL_FSR_pacman
_symmetry_space_group_name_H-M   'P 1'
_cell_length_a   17.55040000
_cell_length_b   17.55040000
_cell_length_c   17.55040000
_cell_angle_alpha   60.00000000
_cell_angle_beta   60.00000000
_cell_angle_gamma   60.00000000
_symmetry_Int_Tables_number   1
_chemical_formula_structural   Cu3H6C6N9O
_chemical_formula_sum   'Cu24 H48 C48 N72 O8'
_cell_volume   3822.48737408
_cell_formula_units_Z   8
loop_
 _symmetry_equiv_pos_site_id
 _symmetry_equiv_pos_as_xyz
  1  'x, y, z'
loop_
 _atom_site_type_symbol
 _atom_site_label
 _atom_site_symmetry_multiplicity
 _atom_site_fract_x
 _atom_site_fract_y
 _atom_site_fract_z
 _atom_site_occupancy
 _atom_site_charge
Cu  Cu1  1  0.12500000  0.62500000  0.23810000  1.0 0.5683055082
Cu  Cu2  1  0.23810000  0.12500000  0.62500000  1.0 0.5683055082
Cu  Cu3  1  0.62500000  0.23810000  0.12500000  1.0 0.5683055082
Cu  Cu4  1  0.01190000  0.23810000  0.62500000  1.0 0.5683055082
Cu  Cu5  1  0.23810000  0.01190000  0.12500000  1.0 0.5683055082
Cu  Cu6  1  0.01190000  0.12500000  0.23810000  1.0 0.5683055082
Cu  Cu7  1  0.23810000  0.62500000  0.01190000  1.0 0.5683055082
Cu  Cu8  1  0.62500000  0.01190000  0.23810000  1.0 0.5683055082
Cu  Cu9  1  0.12500000  0.23810000  0.01190000  1.0 0.5683055082
Cu  Cu10  1  0.62500000  0.12500000  0.01190000  1.0 0.5683055082
Cu  Cu11  1  0.01190000  0.62500000  0.12500000  1.0 0.5683055082
Cu  Cu12  1  0.12500000  0.01190000  0.62500000  1.0 0.5683055082
Cu  Cu13  1  0.62500000  0.12500000  0.51190000  1.0 0.5683055082
Cu  Cu14  1  0.51190000  0.62500000  0.12500000  1.0 0.5683055082
Cu  Cu15  1  0.12500000  0.51190000  0.62500000  1.0 0.5683055082
Cu  Cu16  1  0.73810000  0.51190000  0.12500000  1.0 0.5683055082
Cu  Cu17  1  0.51190000  0.73810000  0.62500000  1.0 0.5683055082
Cu  Cu18  1  0.73810000  0.62500000  0.51190000  1.0 0.5683055082
Cu  Cu19  1  0.51190000  0.12500000  0.73810000  1.0 0.5683055082
Cu  Cu20  1  0.12500000  0.73810000  0.51190000  1.0 0.5683055082
Cu  Cu21  1  0.62500000  0.51190000  0.73810000  1.0 0.5683055082
Cu  Cu22  1  0.12500000  0.62500000  0.73810000  1.0 0.5683055082
Cu  Cu23  1  0.73810000  0.12500000  0.62500000  1.0 0.5683055082
Cu  Cu24  1  0.62500000  0.73810000  0.12500000  1.0 0.5683055082
H  H1  1  0.94180000  0.64100000  0.42360000  1.0 0.0893380523
H  H2  1  0.42360000  0.94180000  0.64100000  1.0 0.0893380523
H  H3  1  0.64100000  0.42360000  0.94180000  1.0 0.0893380523
H  H4  1  0.30820000  0.60900000  0.25640000  1.0 0.0893380523
H  H5  1  0.82640000  0.25640000  0.60900000  1.0 0.0893380523
H  H6  1  0.25640000  0.82640000  0.30820000  1.0 0.0893380523
H  H7  1  0.82640000  0.30820000  0.25640000  1.0 0.0893380523
H  H8  1  0.25640000  0.60900000  0.82640000  1.0 0.0893380523
H  H9  1  0.60900000  0.25640000  0.30820000  1.0 0.0893380523
H  H10  1  0.60900000  0.82640000  0.25640000  1.0 0.0893380523
H  H11  1  0.30820000  0.25640000  0.82640000  1.0 0.0893380523
H  H12  1  0.25640000  0.30820000  0.60900000  1.0 0.0893380523
H  H13  1  0.64100000  0.94180000  0.99360000  1.0 0.0893380523
H  H14  1  0.94180000  0.42360000  0.99360000  1.0 0.0893380523
H  H15  1  0.42360000  0.64100000  0.99360000  1.0 0.0893380523
H  H16  1  0.99360000  0.42360000  0.64100000  1.0 0.0893380523
H  H17  1  0.99360000  0.64100000  0.94180000  1.0 0.0893380523
H  H18  1  0.99360000  0.94180000  0.42360000  1.0 0.0893380523
H  H19  1  0.42360000  0.99360000  0.94180000  1.0 0.0893380523
H  H20  1  0.64100000  0.99360000  0.42360000  1.0 0.0893380523
H  H21  1  0.94180000  0.99360000  0.64100000  1.0 0.0893380523
H  H22  1  0.60900000  0.30820000  0.82640000  1.0 0.0893380523
H  H23  1  0.30820000  0.82640000  0.60900000  1.0 0.0893380523
H  H24  1  0.82640000  0.60900000  0.30820000  1.0 0.0893380523
H  H25  1  0.80820000  0.10900000  0.32640000  1.0 0.0893380523
H  H26  1  0.32640000  0.80820000  0.10900000  1.0 0.0893380523
H  H27  1  0.10900000  0.32640000  0.80820000  1.0 0.0893380523
H  H28  1  0.44180000  0.14100000  0.49360000  1.0 0.0893380523
H  H29  1  0.92360000  0.49360000  0.14100000  1.0 0.0893380523
H  H30  1  0.49360000  0.92360000  0.44180000  1.0 0.0893380523
H  H31  1  0.92360000  0.44180000  0.49360000  1.0 0.0893380523
H  H32  1  0.49360000  0.14100000  0.92360000  1.0 0.0893380523
H  H33  1  0.14100000  0.49360000  0.44180000  1.0 0.0893380523
H  H34  1  0.14100000  0.92360000  0.49360000  1.0 0.0893380523
H  H35  1  0.44180000  0.49360000  0.92360000  1.0 0.0893380523
H  H36  1  0.49360000  0.44180000  0.14100000  1.0 0.0893380523
H  H37  1  0.10900000  0.80820000  0.75640000  1.0 0.0893380523
H  H38  1  0.80820000  0.32640000  0.75640000  1.0 0.0893380523
H  H39  1  0.32640000  0.10900000  0.75640000  1.0 0.0893380523
H  H40  1  0.75640000  0.32640000  0.10900000  1.0 0.0893380523
H  H41  1  0.75640000  0.10900000  0.80820000  1.0 0.0893380523
H  H42  1  0.75640000  0.80820000  0.32640000  1.0 0.0893380523
H  H43  1  0.32640000  0.75640000  0.80820000  1.0 0.0893380523
H  H44  1  0.10900000  0.75640000  0.32640000  1.0 0.0893380523
H  H45  1  0.80820000  0.75640000  0.10900000  1.0 0.0893380523
H  H46  1  0.14100000  0.44180000  0.92360000  1.0 0.0893380523
H  H47  1  0.44180000  0.92360000  0.14100000  1.0 0.0893380523
H  H48  1  0.92360000  0.14100000  0.44180000  1.0 0.0893380523
C  C1  1  0.93130000  0.63370000  0.38110000  1.0 0.1281030172
C  C2  1  0.38110000  0.93130000  0.63370000  1.0 0.1281030172
C  C3  1  0.63370000  0.38110000  0.93130000  1.0 0.1281030172
C  C4  1  0.31870000  0.61630000  0.19610000  1.0 0.1281030172
C  C5  1  0.86890000  0.19610000  0.61630000  1.0 0.1281030172
C  C6  1  0.19610000  0.86890000  0.31870000  1.0 0.1281030172
C  C7  1  0.86890000  0.31870000  0.19610000  1.0 0.1281030172
C  C8  1  0.19610000  0.61630000  0.86890000  1.0 0.1281030172
C  C9  1  0.61630000  0.19610000  0.31870000  1.0 0.1281030172
C  C10  1  0.61630000  0.86890000  0.19610000  1.0 0.1281030172
C  C11  1  0.31870000  0.19610000  0.86890000  1.0 0.1281030172
C  C12  1  0.19610000  0.31870000  0.61630000  1.0 0.1281030172
C  C13  1  0.63370000  0.93130000  0.05390000  1.0 0.1281030172
C  C14  1  0.93130000  0.38110000  0.05390000  1.0 0.1281030172
C  C15  1  0.38110000  0.63370000  0.05390000  1.0 0.1281030172
C  C16  1  0.05390000  0.38110000  0.63370000  1.0 0.1281030172
C  C17  1  0.05390000  0.63370000  0.93130000  1.0 0.1281030172
C  C18  1  0.05390000  0.93130000  0.38110000  1.0 0.1281030172
C  C19  1  0.38110000  0.05390000  0.93130000  1.0 0.1281030172
C  C20  1  0.63370000  0.05390000  0.38110000  1.0 0.1281030172
C  C21  1  0.93130000  0.05390000  0.63370000  1.0 0.1281030172
C  C22  1  0.61630000  0.31870000  0.86890000  1.0 0.1281030172
C  C23  1  0.31870000  0.86890000  0.61630000  1.0 0.1281030172
C  C24  1  0.86890000  0.61630000  0.31870000  1.0 0.1281030172
C  C25  1  0.81870000  0.11630000  0.36890000  1.0 0.1281030172
C  C26  1  0.36890000  0.81870000  0.11630000  1.0 0.1281030172
C  C27  1  0.11630000  0.36890000  0.81870000  1.0 0.1281030172
C  C28  1  0.43130000  0.13370000  0.55390000  1.0 0.1281030172
C  C29  1  0.88110000  0.55390000  0.13370000  1.0 0.1281030172
C  C30  1  0.55390000  0.88110000  0.43130000  1.0 0.1281030172
C  C31  1  0.88110000  0.43130000  0.55390000  1.0 0.1281030172
C  C32  1  0.55390000  0.13370000  0.88110000  1.0 0.1281030172
C  C33  1  0.13370000  0.55390000  0.43130000  1.0 0.1281030172
C  C34  1  0.13370000  0.88110000  0.55390000  1.0 0.1281030172
C  C35  1  0.43130000  0.55390000  0.88110000  1.0 0.1281030172
C  C36  1  0.55390000  0.43130000  0.13370000  1.0 0.1281030172
C  C37  1  0.11630000  0.81870000  0.69610000  1.0 0.1281030172
C  C38  1  0.81870000  0.36890000  0.69610000  1.0 0.1281030172
C  C39  1  0.36890000  0.11630000  0.69610000  1.0 0.1281030172
C  C40  1  0.69610000  0.36890000  0.11630000  1.0 0.1281030172
C  C41  1  0.69610000  0.11630000  0.81870000  1.0 0.1281030172
C  C42  1  0.69610000  0.81870000  0.36890000  1.0 0.1281030172
C  C43  1  0.36890000  0.69610000  0.81870000  1.0 0.1281030172
C  C44  1  0.11630000  0.69610000  0.36890000  1.0 0.1281030172
C  C45  1  0.81870000  0.69610000  0.11630000  1.0 0.1281030172
C  C46  1  0.13370000  0.43130000  0.88110000  1.0 0.1281030172
C  C47  1  0.43130000  0.88110000  0.13370000  1.0 0.1281030172
C  C48  1  0.88110000  0.13370000  0.43130000  1.0 0.1281030172
N  N1  1  0.99217000  0.63071000  0.29869000  1.0 -0.1934066837
N  N2  1  0.29869000  0.99217000  0.63071000  1.0 -0.1934066837
N  N3  1  0.63071000  0.29869000  0.99217000  1.0 -0.1934066837
N  N4  1  0.25783000  0.61929000  0.17157000  1.0 -0.1934066837
N  N5  1  0.95131000  0.17157000  0.61929000  1.0 -0.1934066837
N  N6  1  0.17157000  0.95131000  0.25783000  1.0 -0.1934066837
N  N7  1  0.95131000  0.25783000  0.17157000  1.0 -0.1934066837
N  N8  1  0.17157000  0.61929000  0.95131000  1.0 -0.1934066837
N  N9  1  0.61929000  0.17157000  0.25783000  1.0 -0.1934066837
N  N10  1  0.61929000  0.95131000  0.17157000  1.0 -0.1934066837
N  N11  1  0.25783000  0.17157000  0.95131000  1.0 -0.1934066837
N  N12  1  0.17157000  0.25783000  0.61929000  1.0 -0.1934066837
N  N13  1  0.63071000  0.99217000  0.07843000  1.0 -0.1934066837
N  N14  1  0.99217000  0.29869000  0.07843000  1.0 -0.1934066837
N  N15  1  0.29869000  0.63071000  0.07843000  1.0 -0.1934066837
N  N16  1  0.07843000  0.29869000  0.63071000  1.0 -0.1934066837
N  N17  1  0.07843000  0.63071000  0.99217000  1.0 -0.1934066837
N  N18  1  0.07843000  0.99217000  0.29869000  1.0 -0.1934066837
N  N19  1  0.29869000  0.07843000  0.99217000  1.0 -0.1934066837
N  N20  1  0.63071000  0.07843000  0.29869000  1.0 -0.1934066837
N  N21  1  0.99217000  0.07843000  0.63071000  1.0 -0.1934066837
N  N22  1  0.61929000  0.25783000  0.95131000  1.0 -0.1934066837
N  N23  1  0.25783000  0.95131000  0.61929000  1.0 -0.1934066837
N  N24  1  0.95131000  0.61929000  0.25783000  1.0 -0.1934066837
N  N25  1  0.75783000  0.11929000  0.45131000  1.0 -0.1934066837
N  N26  1  0.45131000  0.75783000  0.11929000  1.0 -0.1934066837
N  N27  1  0.11929000  0.45131000  0.75783000  1.0 -0.1934066837
N  N28  1  0.49217000  0.13071000  0.57843000  1.0 -0.1934066837
N  N29  1  0.79869000  0.57843000  0.13071000  1.0 -0.1934066837
N  N30  1  0.57843000  0.79869000  0.49217000  1.0 -0.1934066837
N  N31  1  0.79869000  0.49217000  0.57843000  1.0 -0.1934066837
N  N32  1  0.57843000  0.13071000  0.79869000  1.0 -0.1934066837
N  N33  1  0.13071000  0.57843000  0.49217000  1.0 -0.1934066837
N  N34  1  0.13071000  0.79869000  0.57843000  1.0 -0.1934066837
N  N35  1  0.49217000  0.57843000  0.79869000  1.0 -0.1934066837
N  N36  1  0.57843000  0.49217000  0.13071000  1.0 -0.1934066837
N  N37  1  0.11929000  0.75783000  0.67157000  1.0 -0.1934066837
N  N38  1  0.75783000  0.45131000  0.67157000  1.0 -0.1934066837
N  N39  1  0.45131000  0.11929000  0.67157000  1.0 -0.1934066837
N  N40  1  0.67157000  0.45131000  0.11929000  1.0 -0.1934066837
N  N41  1  0.67157000  0.11929000  0.75783000  1.0 -0.1934066837
N  N42  1  0.67157000  0.75783000  0.45131000  1.0 -0.1934066837
N  N43  1  0.45131000  0.67157000  0.75783000  1.0 -0.1934066837
N  N44  1  0.11929000  0.67157000  0.45131000  1.0 -0.1934066837
N  N45  1  0.75783000  0.67157000  0.11929000  1.0 -0.1934066837
N  N46  1  0.13071000  0.49217000  0.79869000  1.0 -0.1934066837
N  N47  1  0.49217000  0.79869000  0.13071000  1.0 -0.1934066837
N  N48  1  0.79869000  0.13071000  0.49217000  1.0 -0.1934066837
N  N49  1  0.85260000  0.62500000  0.39740000  1.0 -0.3546054683
N  N50  1  0.39740000  0.85260000  0.62500000  1.0 -0.3546054683
N  N51  1  0.62500000  0.39740000  0.85260000  1.0 -0.3546054683
N  N52  1  0.39740000  0.62500000  0.12500000  1.0 -0.3546054683
N  N53  1  0.85260000  0.12500000  0.62500000  1.0 -0.3546054683
N  N54  1  0.12500000  0.85260000  0.39740000  1.0 -0.3563057647
N  N55  1  0.85260000  0.39740000  0.12500000  1.0 -0.3546054683
N  N56  1  0.12500000  0.62500000  0.85260000  1.0 -0.3546054683
N  N57  1  0.62500000  0.12500000  0.39740000  1.0 -0.3546054683
N  N58  1  0.62500000  0.85260000  0.12500000  1.0 -0.3546054683
N  N59  1  0.39740000  0.12500000  0.85260000  1.0 -0.3546054683
N  N60  1  0.12500000  0.39740000  0.62500000  1.0 -0.3546054683
N  N61  1  0.89740000  0.12500000  0.35260000  1.0 -0.3546054683
N  N62  1  0.35260000  0.89740000  0.12500000  1.0 -0.3546054683
N  N63  1  0.12500000  0.35260000  0.89740000  1.0 -0.3546054683
N  N64  1  0.35260000  0.12500000  0.62500000  1.0 -0.3546054683
N  N65  1  0.89740000  0.62500000  0.12500000  1.0 -0.3546054683
N  N66  1  0.62500000  0.89740000  0.35260000  1.0 -0.3546054683
N  N67  1  0.89740000  0.35260000  0.62500000  1.0 -0.3546054683
N  N68  1  0.62500000  0.12500000  0.89740000  1.0 -0.3546054683
N  N69  1  0.12500000  0.62500000  0.35260000  1.0 -0.3546054683
N  N70  1  0.12500000  0.89740000  0.62500000  1.0 -0.3546054683
N  N71  1  0.35260000  0.62500000  0.89740000  1.0 -0.3546054683
N  N72  1  0.62500000  0.35260000  0.12500000  1.0 -0.3546054683
O  O1  1  0.12500000  0.62500000  0.12500000  1.0 -0.7848894207
O  O2  1  0.12500000  0.12500000  0.62500000  1.0 -0.7848894207
O  O3  1  0.62500000  0.12500000  0.12500000  1.0 -0.7865252361
O  O4  1  0.12500000  0.12500000  0.12500000  1.0 -0.7848894207
O  O5  1  0.62500000  0.12500000  0.62500000  1.0 -0.7848894207
O  O6  1  0.62500000  0.62500000  0.12500000  1.0 -0.7848894207
O  O7  1  0.12500000  0.62500000  0.62500000  1.0 -0.7848894207
O  O8  1  0.62500000  0.62500000  0.62500000  1.0 -0.7848894207
