# DDEC6 charges by PACMAN v1.1 (https://github.com/mtap-research/PACMAN-charge/)
data_DEMLAJ_FSR_pacman
_symmetry_space_group_name_H-M   'P 1'
_cell_length_a   13.54690000
_cell_length_b   13.54690000
_cell_length_c   14.81950000
_cell_angle_alpha   87.99830000
_cell_angle_beta   92.00170000
_cell_angle_gamma   105.26300000
_symmetry_Int_Tables_number   1
_chemical_formula_structural   Cu10H42C22N39
_chemical_formula_sum   'Cu20 H84 C44 N78'
_cell_volume   2621.18857526
_cell_formula_units_Z   2
loop_
 _symmetry_equiv_pos_site_id
 _symmetry_equiv_pos_as_xyz
  1  'x, y, z'
loop_
 _atom_site_type_symbol
 _atom_site_label
 _atom_site_symmetry_multiplicity
 _atom_site_fract_x
 _atom_site_fract_y
 _atom_site_fract_z
 _atom_site_occupancy
 _atom_site_charge
Cu  Cu1  1  0.57532000  0.04988000  0.10540000  1.0 0.2759884999
Cu  Cu2  1  0.04988000  0.57532000  0.89460000  1.0 0.273716654
Cu  Cu3  1  0.42468000  0.95012000  0.89460000  1.0 0.273716654
Cu  Cu4  1  0.95012000  0.42468000  0.10540000  1.0 0.2759884999
Cu  Cu5  1  0.63546000  0.00350000  0.50555000  1.0 0.2473060892
Cu  Cu6  1  0.00350000  0.63546000  0.49445000  1.0 0.2473060892
Cu  Cu7  1  0.36454000  0.99650000  0.49445000  1.0 0.2473060892
Cu  Cu8  1  0.99650000  0.36454000  0.50555000  1.0 0.2473060892
Cu  Cu9  1  0.44653000  0.77381000  0.43588000  1.0 0.259538825
Cu  Cu10  1  0.77381000  0.44653000  0.56412000  1.0 0.259538825
Cu  Cu11  1  0.55347000  0.22619000  0.56412000  1.0 0.259538825
Cu  Cu12  1  0.22619000  0.55347000  0.43588000  1.0 0.259538825
Cu  Cu13  1  0.40350000  0.59650000  0.63085000  1.0 0.2364949341
Cu  Cu14  1  0.59650000  0.40350000  0.36915000  1.0 0.2364949341
Cu  Cu15  1  0.49237000  0.72919000  0.82832000  1.0 0.2219266289
Cu  Cu16  1  0.72919000  0.49237000  0.17168000  1.0 0.2219266289
Cu  Cu17  1  0.50763000  0.27081000  0.17168000  1.0 0.2219266289
Cu  Cu18  1  0.27081000  0.50763000  0.82832000  1.0 0.2219266289
Cu  Cu19  1  0.66115000  0.66115000  0.00000000  1.0 0.3001154518
Cu  Cu20  1  0.33885000  0.33885000  0.00000000  1.0 0.3001154518
H  H1  1  0.36570000  0.79850000  0.24090000  1.0 0.1607090394
H  H2  1  0.79850000  0.36570000  0.75910000  1.0 0.1607090394
H  H3  1  0.63430000  0.20150000  0.75910000  1.0 0.1607090394
H  H4  1  0.20150000  0.63430000  0.24090000  1.0 0.1607090394
H  H5  1  0.41060000  0.86100000  0.15390000  1.0 0.1607090394
H  H6  1  0.86100000  0.41060000  0.84610000  1.0 0.1607090394
H  H7  1  0.58940000  0.13900000  0.84610000  1.0 0.1607090394
H  H8  1  0.13900000  0.58940000  0.15390000  1.0 0.1607090394
H  H9  1  0.45830000  0.77470000  0.19380000  1.0 0.1607090394
H  H10  1  0.77470000  0.45830000  0.80620000  1.0 0.1607090394
H  H11  1  0.54170000  0.22530000  0.80620000  1.0 0.1607090394
H  H12  1  0.22530000  0.54170000  0.19380000  1.0 0.1607090394
H  H13  1  0.73250000  0.91570000  0.74540000  1.0 0.1733228669
H  H14  1  0.91570000  0.73250000  0.25460000  1.0 0.1733228669
H  H15  1  0.26750000  0.08430000  0.25460000  1.0 0.1733228669
H  H16  1  0.08430000  0.26750000  0.74540000  1.0 0.1733228669
H  H17  1  0.69680000  0.00820000  0.70230000  1.0 0.1607090394
H  H18  1  0.00820000  0.69680000  0.29770000  1.0 0.1607090394
H  H19  1  0.30320000  0.99180000  0.29770000  1.0 0.1607090394
H  H20  1  0.99180000  0.30320000  0.70230000  1.0 0.1607090394
H  H21  1  0.64490000  0.95190000  0.78950000  1.0 0.1537078408
H  H22  1  0.95190000  0.64490000  0.21050000  1.0 0.1537078408
H  H23  1  0.35510000  0.04810000  0.21050000  1.0 0.1537078408
H  H24  1  0.04810000  0.35510000  0.78950000  1.0 0.1537078408
H  H25  1  0.76930000  0.83470000  0.12140000  1.0 0.1607090394
H  H26  1  0.83470000  0.76930000  0.87860000  1.0 0.1607090394
H  H27  1  0.23070000  0.16530000  0.87860000  1.0 0.1607090394
H  H28  1  0.16530000  0.23070000  0.12140000  1.0 0.1607090394
H  H29  1  0.75010000  0.93870000  0.14880000  1.0 0.1607090394
H  H30  1  0.93870000  0.75010000  0.85120000  1.0 0.1607090394
H  H31  1  0.24990000  0.06130000  0.85120000  1.0 0.1607090394
H  H32  1  0.06130000  0.24990000  0.14880000  1.0 0.1607090394
H  H33  1  0.67740000  0.83480000  0.18270000  1.0 0.1537078408
H  H34  1  0.83480000  0.67740000  0.81730000  1.0 0.1537078408
H  H35  1  0.32260000  0.16520000  0.81730000  1.0 0.1537078408
H  H36  1  0.16520000  0.32260000  0.18270000  1.0 0.1537078408
H  H37  1  0.96980000  0.14020000  0.50460000  1.0 0.0633189858
H  H38  1  0.14020000  0.96980000  0.49540000  1.0 0.0633189858
H  H39  1  0.03020000  0.85980000  0.49540000  1.0 0.0633189858
H  H40  1  0.85980000  0.03020000  0.50460000  1.0 0.0633189858
H  H41  1  0.89480000  0.05060000  0.55730000  1.0 0.0695082071
H  H42  1  0.05060000  0.89480000  0.44270000  1.0 0.0695082071
H  H43  1  0.10520000  0.94940000  0.44270000  1.0 0.0695082071
H  H44  1  0.94940000  0.10520000  0.55730000  1.0 0.0695082071
H  H45  1  0.87990000  0.06470000  0.45270000  1.0 0.0778464588
H  H46  1  0.06470000  0.87990000  0.54730000  1.0 0.0695082071
H  H47  1  0.12010000  0.93530000  0.54730000  1.0 0.0778464588
H  H48  1  0.93530000  0.12010000  0.45270000  1.0 0.0778464588
H  H49  1  0.74300000  0.63200000  0.62370000  1.0 0.1607090394
H  H50  1  0.63200000  0.74300000  0.37630000  1.0 0.1607090394
H  H51  1  0.25700000  0.36800000  0.37630000  1.0 0.1607090394
H  H52  1  0.36800000  0.25700000  0.62370000  1.0 0.1607090394
H  H53  1  0.65900000  0.68700000  0.59160000  1.0 0.1607090394
H  H54  1  0.68700000  0.65900000  0.40840000  1.0 0.1607090394
H  H55  1  0.34100000  0.31300000  0.40840000  1.0 0.1607090394
H  H56  1  0.31300000  0.34100000  0.59160000  1.0 0.1607090394
H  H57  1  0.66730000  0.65370000  0.69340000  1.0 0.1607090394
H  H58  1  0.65370000  0.66730000  0.30660000  1.0 0.1607090394
H  H59  1  0.33270000  0.34630000  0.30660000  1.0 0.1607090394
H  H60  1  0.34630000  0.33270000  0.69340000  1.0 0.1607090394
H  H61  1  0.11700000  0.85800000  0.91440000  1.0 0.0986251849
H  H62  1  0.85800000  0.11700000  0.08560000  1.0 0.0986251849
H  H63  1  0.88300000  0.14200000  0.08560000  1.0 0.0986251849
H  H64  1  0.14200000  0.88300000  0.91440000  1.0 0.0986251849
H  H65  1  0.12370000  0.79590000  0.00460000  1.0 0.0986251849
H  H66  1  0.79590000  0.12370000  0.99540000  1.0 0.0986251849
H  H67  1  0.87630000  0.20410000  0.99540000  1.0 0.0986251849
H  H68  1  0.20410000  0.87630000  0.00460000  1.0 0.0986251849
H  H69  1  0.20850000  0.89690000  0.98320000  1.0 0.0986251849
H  H70  1  0.89690000  0.20850000  0.01680000  1.0 0.0986251849
H  H71  1  0.79150000  0.10310000  0.01680000  1.0 0.0986251849
H  H72  1  0.10310000  0.79150000  0.98320000  1.0 0.0986251849
H  H73  1  0.67710000  0.43110000  0.96120000  1.0 0.0695082071
H  H74  1  0.43110000  0.67710000  0.03880000  1.0 0.0695082071
H  H75  1  0.32290000  0.56890000  0.03880000  1.0 0.0695082071
H  H76  1  0.56890000  0.32290000  0.96120000  1.0 0.0695082071
H  H77  1  0.58010000  0.34810000  0.99430000  1.0 0.0695082071
H  H78  1  0.34810000  0.58010000  0.00570000  1.0 0.0695082071
H  H79  1  0.41990000  0.65190000  0.00570000  1.0 0.0695082071
H  H80  1  0.65190000  0.41990000  0.99430000  1.0 0.0695082071
H  H81  1  0.61870000  0.34490000  0.89620000  1.0 0.0778464588
H  H82  1  0.34490000  0.61870000  0.10380000  1.0 0.0778464588
H  H83  1  0.38130000  0.65510000  0.10380000  1.0 0.0778464588
H  H84  1  0.65510000  0.38130000  0.89620000  1.0 0.0778464588
C  C1  1  0.59890000  0.53090000  0.61300000  1.0 0.3842392371
C  C2  1  0.53090000  0.59890000  0.38700000  1.0 0.3842392371
C  C3  1  0.40110000  0.46910000  0.38700000  1.0 0.3842392371
C  C4  1  0.46910000  0.40110000  0.61300000  1.0 0.3842392371
C  C5  1  0.49910000  0.90350000  0.26530000  1.0 0.3162444339
C  C6  1  0.90350000  0.49910000  0.73470000  1.0 0.3162444339
C  C7  1  0.50090000  0.09650000  0.73470000  1.0 0.3162444339
C  C8  1  0.09650000  0.50090000  0.26530000  1.0 0.3162444339
C  C9  1  0.42710000  0.82770000  0.20850000  1.0 -0.5377073481
C  C10  1  0.82770000  0.42710000  0.79150000  1.0 -0.5377073481
C  C11  1  0.57290000  0.17230000  0.79150000  1.0 -0.5377073481
C  C12  1  0.17230000  0.57290000  0.20850000  1.0 -0.5377073481
C  C13  1  0.83300000  0.16700000  0.52370000  1.0 0.2326540576
C  C14  1  0.16700000  0.83300000  0.47630000  1.0 0.2326540576
C  C15  1  0.90020000  0.09980000  0.50820000  1.0 -0.333529134
C  C16  1  0.09980000  0.90020000  0.49180000  1.0 -0.3385768428
C  C17  1  0.59800000  0.87200000  0.67670000  1.0 0.341706495
C  C18  1  0.87200000  0.59800000  0.32330000  1.0 0.341706495
C  C19  1  0.40200000  0.12800000  0.32330000  1.0 0.341706495
C  C20  1  0.12800000  0.40200000  0.67670000  1.0 0.341706495
C  C21  1  0.67480000  0.94320000  0.73350000  1.0 -0.5217579299
C  C22  1  0.94320000  0.67480000  0.26650000  1.0 -0.5217579299
C  C23  1  0.32520000  0.05680000  0.26650000  1.0 -0.5217579299
C  C24  1  0.05680000  0.32520000  0.73350000  1.0 -0.5217579299
C  C25  1  0.77690000  0.22310000  0.08850000  1.0 0.2326540576
C  C26  1  0.22310000  0.77690000  0.91150000  1.0 0.2364949341
C  C27  1  0.83740000  0.16260000  0.04250000  1.0 -0.4022306396
C  C28  1  0.16260000  0.83740000  0.95750000  1.0 -0.4022306396
C  C29  1  0.54460000  0.45540000  0.90950000  1.0 0.2326540576
C  C30  1  0.45540000  0.54460000  0.09050000  1.0 0.2326540576
C  C31  1  0.61110000  0.38890000  0.94340000  1.0 -0.3667944267
C  C32  1  0.38890000  0.61110000  0.05660000  1.0 -0.3667944267
C  C33  1  0.65110000  0.86790000  0.05190000  1.0 0.3001154518
C  C34  1  0.86790000  0.65110000  0.94810000  1.0 0.3001154518
C  C35  1  0.34890000  0.13210000  0.94810000  1.0 0.3001154518
C  C36  1  0.13210000  0.34890000  0.05190000  1.0 0.3001154518
C  C37  1  0.71790000  0.86910000  0.13340000  1.0 -0.5217579299
C  C38  1  0.86910000  0.71790000  0.86660000  1.0 -0.5217579299
C  C39  1  0.28210000  0.13090000  0.86660000  1.0 -0.5217579299
C  C40  1  0.13090000  0.28210000  0.13340000  1.0 -0.5217579299
C  C41  1  0.67410000  0.63590000  0.63230000  1.0 -0.5217579299
C  C42  1  0.63590000  0.67410000  0.36770000  1.0 -0.5217579299
C  C43  1  0.32590000  0.36410000  0.36770000  1.0 -0.5217579299
C  C44  1  0.36410000  0.32590000  0.63230000  1.0 -0.5217579299
N  N1  1  0.55699000  0.99361000  0.23530000  1.0 -0.2488617345
N  N2  1  0.99361000  0.55699000  0.76470000  1.0 -0.2488617345
N  N3  1  0.44301000  0.00639000  0.76470000  1.0 -0.2488617345
N  N4  1  0.00639000  0.44301000  0.23530000  1.0 -0.2488617345
N  N5  1  0.61039000  0.03801000  0.30740000  1.0 -0.0562897227
N  N6  1  0.03801000  0.61039000  0.69260000  1.0 -0.0562897227
N  N7  1  0.38961000  0.96199000  0.69260000  1.0 -0.0562897227
N  N8  1  0.96199000  0.38961000  0.30740000  1.0 -0.0548751212
N  N9  1  0.58436000  0.97724000  0.37840000  1.0 -0.0562897227
N  N10  1  0.97724000  0.58436000  0.62160000  1.0 -0.0562897227
N  N11  1  0.41564000  0.02276000  0.62160000  1.0 -0.0548751212
N  N12  1  0.02276000  0.41564000  0.37840000  1.0 -0.0562897227
N  N13  1  0.51437000  0.89103000  0.35320000  1.0 -0.2488617345
N  N14  1  0.89103000  0.51437000  0.64680000  1.0 -0.2488617345
N  N15  1  0.48563000  0.10897000  0.64680000  1.0 -0.2488617345
N  N16  1  0.10897000  0.48563000  0.35320000  1.0 -0.2488617345
N  N17  1  0.73198000  0.13502000  0.53310000  1.0 -0.2276975929
N  N18  1  0.13502000  0.73198000  0.46690000  1.0 -0.2276975929
N  N19  1  0.26802000  0.86498000  0.46690000  1.0 -0.2276975929
N  N20  1  0.86498000  0.26802000  0.53310000  1.0 -0.2276975929
N  N21  1  0.29835000  0.78085000  0.45050000  1.0 -0.033743536
N  N22  1  0.78085000  0.29835000  0.54950000  1.0 -0.033743536
N  N23  1  0.70165000  0.21915000  0.54950000  1.0 -0.033743536
N  N24  1  0.21915000  0.70165000  0.45050000  1.0 -0.033743536
N  N25  1  0.58293000  0.88547000  0.58790000  1.0 -0.2392150406
N  N26  1  0.88547000  0.58293000  0.41210000  1.0 -0.2392150406
N  N27  1  0.41707000  0.11453000  0.41210000  1.0 -0.2392150406
N  N28  1  0.11453000  0.41707000  0.58790000  1.0 -0.2392150406
N  N29  1  0.50995000  0.80185000  0.56190000  1.0 -0.033743536
N  N30  1  0.80185000  0.50995000  0.43810000  1.0 -0.033743536
N  N31  1  0.49005000  0.19815000  0.43810000  1.0 -0.033743536
N  N32  1  0.19815000  0.49005000  0.56190000  1.0 -0.033743536
N  N33  1  0.48238000  0.74122000  0.63250000  1.0 -0.0214010614
N  N34  1  0.74122000  0.48238000  0.36750000  1.0 -0.0214010614
N  N35  1  0.51762000  0.25878000  0.36750000  1.0 -0.0214010614
N  N36  1  0.25878000  0.51762000  0.63250000  1.0 -0.0214010614
N  N37  1  0.53601000  0.78379000  0.70600000  1.0 -0.2392150406
N  N38  1  0.78379000  0.53601000  0.29400000  1.0 -0.2392150406
N  N39  1  0.46399000  0.21621000  0.29400000  1.0 -0.2392150406
N  N40  1  0.21621000  0.46399000  0.70600000  1.0 -0.2392150406
N  N41  1  0.49740000  0.50260000  0.62320000  1.0 -0.361340542
N  N42  1  0.50260000  0.49740000  0.37680000  1.0 -0.361340542
N  N43  1  0.44947000  0.63253000  0.40160000  1.0 -0.2276975929
N  N44  1  0.63253000  0.44947000  0.59840000  1.0 -0.2276975929
N  N45  1  0.55053000  0.36747000  0.59840000  1.0 -0.2276975929
N  N46  1  0.36747000  0.55053000  0.40160000  1.0 -0.2276975929
N  N47  1  0.34480000  0.73480000  0.85170000  1.0 -0.033743536
N  N48  1  0.73480000  0.34480000  0.14830000  1.0 -0.033743536
N  N49  1  0.65520000  0.26520000  0.14830000  1.0 -0.0369100745
N  N50  1  0.26520000  0.65520000  0.85170000  1.0 -0.0369100745
N  N51  1  0.67981000  0.18679000  0.11040000  1.0 -0.2572580322
N  N52  1  0.18679000  0.67981000  0.88960000  1.0 -0.2572580322
N  N53  1  0.32019000  0.81321000  0.88960000  1.0 -0.2572580322
N  N54  1  0.81321000  0.32019000  0.11040000  1.0 -0.2572580322
N  N55  1  0.49523000  0.58417000  0.86010000  1.0 -0.0369100745
N  N56  1  0.58417000  0.49523000  0.13990000  1.0 -0.0369100745
N  N57  1  0.50477000  0.41583000  0.13990000  1.0 -0.0369100745
N  N58  1  0.41583000  0.50477000  0.86010000  1.0 -0.0369100745
N  N59  1  0.57815000  0.55565000  0.89230000  1.0 -0.2488617345
N  N60  1  0.55565000  0.57815000  0.10770000  1.0 -0.2488617345
N  N61  1  0.42185000  0.44435000  0.10770000  1.0 -0.2488617345
N  N62  1  0.44435000  0.42185000  0.89230000  1.0 -0.2488617345
N  N63  1  0.63193000  0.79507000  0.99120000  1.0 -0.2488617345
N  N64  1  0.79507000  0.63193000  0.00880000  1.0 -0.2488617345
N  N65  1  0.36807000  0.20493000  0.00880000  1.0 -0.2488617345
N  N66  1  0.20493000  0.36807000  0.99120000  1.0 -0.2488617345
N  N67  1  0.56747000  0.82113000  0.92950000  1.0 -0.0214010614
N  N68  1  0.82113000  0.56747000  0.07050000  1.0 -0.0214010614
N  N69  1  0.43253000  0.17887000  0.07050000  1.0 -0.0214010614
N  N70  1  0.17887000  0.43253000  0.92950000  1.0 -0.0214010614
N  N71  1  0.45124000  0.09336000  0.04690000  1.0 -0.0562897227
N  N72  1  0.09336000  0.45124000  0.95310000  1.0 -0.0562897227
N  N73  1  0.54876000  0.90664000  0.95310000  1.0 -0.0562897227
N  N74  1  0.90664000  0.54876000  0.04690000  1.0 -0.0562897227
N  N75  1  0.60030000  0.93770000  0.03000000  1.0 -0.2392150406
N  N76  1  0.93770000  0.60030000  0.97000000  1.0 -0.2392150406
N  N77  1  0.39970000  0.06230000  0.97000000  1.0 -0.2392150406
N  N78  1  0.06230000  0.39970000  0.03000000  1.0 -0.2392150406
