# DDEC6 charges by PACMAN v1.1 (https://github.com/mtap-research/PACMAN-charge/)
data_DENWAX_FSR_pacman
_symmetry_space_group_name_H-M   'P 1'
_cell_length_a   10.58280000
_cell_length_b   10.58280000
_cell_length_c   10.58280000
_cell_angle_alpha   99.13730000
_cell_angle_beta   99.13730000
_cell_angle_gamma   133.03100000
_symmetry_Int_Tables_number   1
_chemical_formula_structural   NbCuH16C24(N2F7)2
_chemical_formula_sum   'Nb1 Cu1 H16 C24 N4 F14'
_cell_volume   794.62086796
_cell_formula_units_Z   1
loop_
 _symmetry_equiv_pos_site_id
 _symmetry_equiv_pos_as_xyz
  1  'x, y, z'
loop_
 _atom_site_type_symbol
 _atom_site_label
 _atom_site_symmetry_multiplicity
 _atom_site_fract_x
 _atom_site_fract_y
 _atom_site_fract_z
 _atom_site_occupancy
 _atom_site_charge
Nb  Nb1  1  0.50000000  0.50000000  0.00000000  1.0 0.7191317127
Cu  Cu1  1  0.00000000  0.00000000  0.00000000  1.0 0.4792561279
H  H1  1  0.75900000  0.42673000  0.66773000  1.0 0.1128516132
H  H2  1  0.76610000  0.60313000  0.83703000  1.0 0.0509006031
H  H3  1  0.75900000  0.09127000  0.33227000  1.0 0.1128516132
H  H4  1  0.76610000  0.92907000  0.16297000  1.0 0.0509006031
H  H5  1  0.09127000  0.75900000  0.33227000  1.0 0.1128516132
H  H6  1  0.92907000  0.76610000  0.16297000  1.0 0.0509006031
H  H7  1  0.42673000  0.75900000  0.66773000  1.0 0.1128516132
H  H8  1  0.60313000  0.76610000  0.83703000  1.0 0.0509006031
H  H9  1  0.24100000  0.90873000  0.66773000  1.0 0.1128516132
H  H10  1  0.23390000  0.07093000  0.83703000  1.0 0.0509006031
H  H11  1  0.24100000  0.57327000  0.33227000  1.0 0.1128516132
H  H12  1  0.23390000  0.39687000  0.16297000  1.0 0.0509006031
H  H13  1  0.90873000  0.24100000  0.66773000  1.0 0.1128516132
H  H14  1  0.07093000  0.23390000  0.83703000  1.0 0.0509006031
H  H15  1  0.57327000  0.24100000  0.33227000  1.0 0.1128516132
H  H16  1  0.39687000  0.23390000  0.16297000  1.0 0.0509006031
C  C1  1  0.85800000  0.55870000  0.70070000  1.0 -0.2084620475
C  C2  1  0.86300000  0.66480000  0.80180000  1.0 0.0722231464
C  C3  1  0.85800000  0.15730000  0.29930000  1.0 -0.2084620475
C  C4  1  0.86300000  0.06120000  0.19820000  1.0 0.0722231464
C  C5  1  0.15730000  0.85800000  0.29930000  1.0 -0.2084620475
C  C6  1  0.06120000  0.86300000  0.19820000  1.0 0.0722231464
C  C7  1  0.55870000  0.85800000  0.70070000  1.0 -0.2084620475
C  C8  1  0.66480000  0.86300000  0.80180000  1.0 0.0722231464
C  C9  1  0.14200000  0.84270000  0.70070000  1.0 -0.2084620475
C  C10  1  0.13700000  0.93880000  0.80180000  1.0 0.0722231464
C  C11  1  0.14200000  0.44130000  0.29930000  1.0 -0.2084620475
C  C12  1  0.13700000  0.33520000  0.19820000  1.0 0.0722231464
C  C13  1  0.84270000  0.14200000  0.70070000  1.0 -0.2084620475
C  C14  1  0.93880000  0.13700000  0.80180000  1.0 0.0722231464
C  C15  1  0.44130000  0.14200000  0.29930000  1.0 -0.2084620475
C  C16  1  0.33520000  0.13700000  0.19820000  1.0 0.0722231464
C  C17  1  0.00000000  0.64750000  0.64750000  1.0 0.1618220964
C  C18  1  0.00000000  0.54240000  0.54240000  1.0 -0.1026140219
C  C19  1  0.00000000  0.35250000  0.35250000  1.0 0.1618220964
C  C20  1  0.00000000  0.45760000  0.45760000  1.0 -0.1026140219
C  C21  1  0.35250000  0.00000000  0.35250000  1.0 0.1618220964
C  C22  1  0.45760000  0.00000000  0.45760000  1.0 -0.1026140219
C  C23  1  0.64750000  0.00000000  0.64750000  1.0 0.1618220964
C  C24  1  0.54240000  0.00000000  0.54240000  1.0 -0.1026140219
N  N1  1  0.00000000  0.85140000  0.85140000  1.0 -0.2825881718
N  N2  1  0.00000000  0.14860000  0.14860000  1.0 -0.2825881718
N  N3  1  0.14860000  0.00000000  0.14860000  1.0 -0.2825881718
N  N4  1  0.85140000  0.00000000  0.85140000  1.0 -0.2825881718
F  F1  1  0.71610000  0.71610000  0.00000000  1.0 -0.5269279136
F  F2  1  0.28390000  0.28390000  0.00000000  1.0 -0.5269279136
F  F3  1  0.50000000  0.36490000  0.86490000  1.0 0.0304192574
F  F4  1  0.50000000  0.63510000  0.13510000  1.0 0.0304192574
F  F5  1  0.63510000  0.50000000  0.13510000  1.0 0.0304192574
F  F6  1  0.36490000  0.50000000  0.86490000  1.0 0.0304192574
F  F7  1  0.46030000  0.37950000  0.83980000  1.0 0.0509006031
F  F8  1  0.53970000  0.62050000  0.16020000  1.0 0.0509006031
F  F9  1  0.62050000  0.46030000  0.08080000  1.0 0.0509006031
F  F10  1  0.37950000  0.53970000  0.91920000  1.0 0.0509006031
F  F11  1  0.53970000  0.37950000  0.91920000  1.0 0.0509006031
F  F12  1  0.46030000  0.62050000  0.08080000  1.0 0.0509006031
F  F13  1  0.37950000  0.46030000  0.83980000  1.0 0.0509006031
F  F14  1  0.62050000  0.53970000  0.16020000  1.0 0.0509006031
