# DDEC6 charges by PACMAN v1.1 (https://github.com/mtap-research/PACMAN-charge/)
data_DEPJIR_FSR_pacman
_symmetry_space_group_name_H-M   'P 1'
_cell_length_a   8.28900000
_cell_length_b   8.71700000
_cell_length_c   11.61700000
_cell_angle_alpha   90.00000000
_cell_angle_beta   90.00000000
_cell_angle_gamma   90.00000000
_symmetry_Int_Tables_number   1
_chemical_formula_structural   ZnH3C3(NO2)2
_chemical_formula_sum   'Zn4 H12 C12 N8 O16'
_cell_volume   839.38880942
_cell_formula_units_Z   4
loop_
 _symmetry_equiv_pos_site_id
 _symmetry_equiv_pos_as_xyz
  1  'x, y, z'
loop_
 _atom_site_type_symbol
 _atom_site_label
 _atom_site_symmetry_multiplicity
 _atom_site_fract_x
 _atom_site_fract_y
 _atom_site_fract_z
 _atom_site_occupancy
 _atom_site_charge
Zn  Zn1  1  0.00000000  0.98543000  0.25010000  1.0 0.9815138562
Zn  Zn2  1  0.50000000  0.48543000  0.24990000  1.0 0.9815138562
Zn  Zn3  1  0.50000000  0.51457000  0.75010000  1.0 0.9815138562
Zn  Zn4  1  0.00000000  0.01457000  0.74990000  1.0 0.9815138562
H  H1  1  0.33390000  0.16600000  0.22070000  1.0 0.1380378438
H  H2  1  0.83390000  0.66600000  0.27930000  1.0 0.1380378438
H  H3  1  0.83390000  0.33400000  0.72070000  1.0 0.1380378438
H  H4  1  0.33390000  0.83400000  0.77930000  1.0 0.1380378438
H  H5  1  0.16800000  0.66600000  0.22270000  1.0 0.1639756619
H  H6  1  0.66800000  0.16600000  0.27730000  1.0 0.1639756619
H  H7  1  0.66800000  0.83400000  0.72270000  1.0 0.1639756619
H  H8  1  0.16800000  0.33400000  0.77730000  1.0 0.1639756619
H  H9  1  0.08390000  0.00000000  0.50000000  1.0 0.0210119833
H  H10  1  0.58390000  0.50000000  0.00000000  1.0 0.0210119833
H  H11  1  0.91800000  0.00000000  0.00000000  1.0 0.0210119833
H  H12  1  0.41800000  0.50000000  0.50000000  1.0 0.0210119833
C  C1  1  0.26670000  0.21770000  0.28250000  1.0 0.4223027511
C  C2  1  0.76670000  0.71770000  0.21750000  1.0 0.4223027511
C  C3  1  0.76670000  0.28230000  0.78250000  1.0 0.4223027511
C  C4  1  0.26670000  0.78230000  0.71750000  1.0 0.4223027511
C  C5  1  0.22130000  0.72200000  0.27690000  1.0 0.4532092495
C  C6  1  0.72130000  0.22200000  0.22310000  1.0 0.4532092495
C  C7  1  0.72130000  0.77800000  0.77690000  1.0 0.4532092495
C  C8  1  0.22130000  0.27800000  0.72310000  1.0 0.4532092495
C  C9  1  0.94330000  0.00000000  0.50000000  1.0 0.5085260703
C  C10  1  0.44330000  0.50000000  0.00000000  1.0 0.5085260703
C  C11  1  0.07430000  0.00000000  0.00000000  1.0 0.5603489263
C  C12  1  0.57430000  0.50000000  0.50000000  1.0 0.5603489263
N  N1  1  0.33333333  0.33430000  0.32340000  1.0 -0.5134600566
N  N2  1  0.83333000  0.83430000  0.17660000  1.0 -0.5134600566
N  N3  1  0.83333000  0.16570000  0.82340000  1.0 -0.5134600566
N  N4  1  0.33333333  0.66570000  0.67660000  1.0 -0.5134600566
N  N5  1  0.35120000  0.66080000  0.32070000  1.0 -0.5314378606
N  N6  1  0.85120000  0.16080000  0.17930000  1.0 -0.5314378606
N  N7  1  0.85120000  0.83920000  0.82070000  1.0 -0.5314378606
N  N8  1  0.35120000  0.33920000  0.67930000  1.0 -0.5314378606
O  O1  1  0.13930000  0.16470000  0.31300000  1.0 -0.3495574014
O  O2  1  0.63930000  0.66470000  0.18700000  1.0 -0.3495574014
O  O3  1  0.63930000  0.33530000  0.81300000  1.0 -0.3495574014
O  O4  1  0.13930000  0.83530000  0.68700000  1.0 -0.3495574014
O  O5  1  0.15640000  0.83340000  0.32350000  1.0 -0.4300039963
O  O6  1  0.65640000  0.33340000  0.17650000  1.0 -0.4300039963
O  O7  1  0.65640000  0.66666667  0.82350000  1.0 -0.4300039963
O  O8  1  0.15640000  0.16660000  0.67650000  1.0 -0.4300039963
O  O9  1  0.86270000  0.98480000  0.40520000  1.0 -0.4557856338
O  O10  1  0.36270000  0.48480000  0.09480000  1.0 -0.4557856338
O  O11  1  0.36270000  0.51520000  0.90520000  1.0 -0.4546078162
O  O12  1  0.86270000  0.01520000  0.59480000  1.0 -0.4557856338
O  O13  1  0.12960000  0.99090000  0.09460000  1.0 -0.4360498008
O  O14  1  0.62960000  0.49090000  0.40540000  1.0 -0.4360498008
O  O15  1  0.62960000  0.50910000  0.59460000  1.0 -0.4360498008
O  O16  1  0.12960000  0.00910000  0.90540000  1.0 -0.4300039963
