# DDEC6 charges by PACMAN v1.1 (https://github.com/mtap-research/PACMAN-charge/)
data_DEPSEW_FSR_pacman
_symmetry_space_group_name_H-M   'P 1'
_cell_length_a   8.73400000
_cell_length_b   16.30500000
_cell_length_c   14.36500000
_cell_angle_alpha   90.00000000
_cell_angle_beta   90.24300000
_cell_angle_gamma   90.00000000
_symmetry_Int_Tables_number   1
_chemical_formula_structural   GaPO4
_chemical_formula_sum   'Ga16 P16 O64'
_cell_volume   2045.67065431
_cell_formula_units_Z   16
loop_
 _symmetry_equiv_pos_site_id
 _symmetry_equiv_pos_as_xyz
  1  'x, y, z'
loop_
 _atom_site_type_symbol
 _atom_site_label
 _atom_site_symmetry_multiplicity
 _atom_site_fract_x
 _atom_site_fract_y
 _atom_site_fract_z
 _atom_site_occupancy
 _atom_site_charge
Ga  Ga1  1  0.42837000  0.96583000  0.86350000  1.0 1.5495046514
Ga  Ga2  1  0.07163000  0.46583000  0.13650000  1.0 1.5495046514
Ga  Ga3  1  0.57163000  0.03417000  0.13650000  1.0 1.5495046514
Ga  Ga4  1  0.92837000  0.53417000  0.86350000  1.0 1.5495046514
Ga  Ga5  1  0.36760000  0.72837000  0.95762000  1.0 1.5118834314
Ga  Ga6  1  0.13240000  0.22837000  0.04238000  1.0 1.5197425264
Ga  Ga7  1  0.63240000  0.27163000  0.04238000  1.0 1.5118834314
Ga  Ga8  1  0.86760000  0.77163000  0.95762000  1.0 1.5118834314
Ga  Ga9  1  0.58958000  0.87375000  0.47446000  1.0 1.5197425264
Ga  Ga10  1  0.91042000  0.37375000  0.52554000  1.0 1.5197425264
Ga  Ga11  1  0.41042000  0.12625000  0.52554000  1.0 1.5197425264
Ga  Ga12  1  0.08958000  0.62625000  0.47446000  1.0 1.5197425264
Ga  Ga13  1  0.18663000  0.83841000  0.63424000  1.0 1.5611926454
Ga  Ga14  1  0.31337000  0.33841000  0.36576000  1.0 1.5611926454
Ga  Ga15  1  0.81337000  0.16159000  0.36576000  1.0 1.5611926454
Ga  Ga16  1  0.68663000  0.66159000  0.63424000  1.0 1.5611926454
P  P1  1  0.15146000  0.84816000  0.85202000  1.0 1.4816907781
P  P2  1  0.34854000  0.34816000  0.14798000  1.0 1.4816907781
P  P3  1  0.84854000  0.15184000  0.14798000  1.0 1.4816907781
P  P4  1  0.65146000  0.65184000  0.85202000  1.0 1.4816907781
P  P5  1  0.55272000  0.03071000  0.35984000  1.0 1.4722735124
P  P6  1  0.94728000  0.53071000  0.64016000  1.0 1.4722735124
P  P7  1  0.44728000  0.96929000  0.64016000  1.0 1.4722735124
P  P8  1  0.05272000  0.46929000  0.35984000  1.0 1.4722735124
P  P9  1  0.89011000  0.78118000  0.52725000  1.0 1.4872447091
P  P10  1  0.60989000  0.28118000  0.47275000  1.0 1.4872447091
P  P11  1  0.10989000  0.21882000  0.47275000  1.0 1.4872447091
P  P12  1  0.39011000  0.71882000  0.52725000  1.0 1.4872447091
P  P13  1  0.58573000  0.86759000  0.02864000  1.0 1.4053338903
P  P14  1  0.91427000  0.36759000  0.97136000  1.0 1.4036458867
P  P15  1  0.41427000  0.13241000  0.97136000  1.0 1.4036458867
P  P16  1  0.08573000  0.63241000  0.02864000  1.0 1.4036458867
O  O1  1  0.02350000  0.83700000  0.55210000  1.0 -0.721812165
O  O2  1  0.47650000  0.33700000  0.44790000  1.0 -0.721812165
O  O3  1  0.97650000  0.16300000  0.44790000  1.0 -0.721812165
O  O4  1  0.52350000  0.66300000  0.55210000  1.0 -0.721812165
O  O5  1  0.78130000  0.82910000  0.46400000  1.0 -0.7031697494
O  O6  1  0.71870000  0.32910000  0.53600000  1.0 -0.7031697494
O  O7  1  0.21870000  0.17090000  0.53600000  1.0 -0.7031697494
O  O8  1  0.28130000  0.67090000  0.46400000  1.0 -0.7031697494
O  O9  1  0.45910000  0.80280000  0.03390000  1.0 -0.7510292095
O  O10  1  0.04090000  0.30280000  0.96610000  1.0 -0.7510292095
O  O11  1  0.54090000  0.19720000  0.96610000  1.0 -0.7510292095
O  O12  1  0.95910000  0.69720000  0.03390000  1.0 -0.7510292095
O  O13  1  0.56070000  0.93720000  0.37010000  1.0 -0.721812165
O  O14  1  0.93930000  0.43720000  0.62990000  1.0 -0.721812165
O  O15  1  0.43930000  0.06280000  0.62990000  1.0 -0.721812165
O  O16  1  0.06070000  0.56280000  0.37010000  1.0 -0.721812165
O  O17  1  0.24260000  0.67350000  0.03640000  1.0 -0.7031697494
O  O18  1  0.25740000  0.17350000  0.96360000  1.0 -0.7031697494
O  O19  1  0.75740000  0.32650000  0.96360000  1.0 -0.7031697494
O  O20  1  0.74260000  0.82650000  0.03640000  1.0 -0.7031697494
O  O21  1  0.10350000  0.85070000  0.75020000  1.0 -0.7312956763
O  O22  1  0.39650000  0.35070000  0.24980000  1.0 -0.7312956763
O  O23  1  0.89650000  0.14930000  0.24980000  1.0 -0.7312956763
O  O24  1  0.60350000  0.64930000  0.75020000  1.0 -0.7312956763
O  O25  1  0.25720000  0.77490000  0.86480000  1.0 -0.789409044
O  O26  1  0.24280000  0.27490000  0.13520000  1.0 -0.789409044
O  O27  1  0.74280000  0.22510000  0.13520000  1.0 -0.789409044
O  O28  1  0.75720000  0.72510000  0.86480000  1.0 -0.789409044
O  O29  1  0.00840000  0.84130000  0.91170000  1.0 -0.7312956763
O  O30  1  0.49160000  0.34130000  0.08830000  1.0 -0.7312956763
O  O31  1  0.99160000  0.15870000  0.08830000  1.0 -0.7312956763
O  O32  1  0.50840000  0.65870000  0.91170000  1.0 -0.7312956763
O  O33  1  0.22950000  0.92730000  0.88160000  1.0 -0.7738553944
O  O34  1  0.27050000  0.42730000  0.11840000  1.0 -0.7738553944
O  O35  1  0.77050000  0.07270000  0.11840000  1.0 -0.7798524661
O  O36  1  0.72950000  0.57270000  0.88160000  1.0 -0.7738553944
O  O37  1  0.30870000  0.74700000  0.61580000  1.0 -0.7798524661
O  O38  1  0.19130000  0.24700000  0.38420000  1.0 -0.789409044
O  O39  1  0.69130000  0.25300000  0.38420000  1.0 -0.789409044
O  O40  1  0.80870000  0.75300000  0.61580000  1.0 -0.789409044
O  O41  1  0.57790000  0.93620000  0.58030000  1.0 -0.7599132446
O  O42  1  0.92210000  0.43620000  0.41970000  1.0 -0.7599132446
O  O43  1  0.42210000  0.06380000  0.41970000  1.0 -0.7599132446
O  O44  1  0.07790000  0.56380000  0.58030000  1.0 -0.7599132446
O  O45  1  0.57670000  0.91440000  0.93750000  1.0 -0.8000737143
O  O46  1  0.92330000  0.41440000  0.06250000  1.0 -0.8000737143
O  O47  1  0.42330000  0.08560000  0.06250000  1.0 -0.8000737143
O  O48  1  0.07670000  0.58560000  0.93750000  1.0 -0.8000737143
O  O49  1  0.48480000  0.94790000  0.74010000  1.0 -0.7430755061
O  O50  1  0.01520000  0.44790000  0.25990000  1.0 -0.7430755061
O  O51  1  0.51520000  0.05210000  0.25990000  1.0 -0.7430755061
O  O52  1  0.98480000  0.55210000  0.74010000  1.0 -0.7430755061
O  O53  1  0.29440000  0.93360000  0.60800000  1.0 -0.789409044
O  O54  1  0.20560000  0.43360000  0.39200000  1.0 -0.789409044
O  O55  1  0.70560000  0.06640000  0.39200000  1.0 -0.789409044
O  O56  1  0.79440000  0.56640000  0.60800000  1.0 -0.789409044
O  O57  1  0.94340000  0.70720000  0.47040000  1.0 -0.7599132446
O  O58  1  0.55660000  0.20720000  0.52960000  1.0 -0.7599132446
O  O59  1  0.05660000  0.29280000  0.52960000  1.0 -0.7599132446
O  O60  1  0.44340000  0.79280000  0.47040000  1.0 -0.7599132446
O  O61  1  0.43260000  0.07810000  0.88630000  1.0 -0.721812165
O  O62  1  0.06740000  0.57810000  0.11370000  1.0 -0.721812165
O  O63  1  0.56740000  0.92190000  0.11370000  1.0 -0.721812165
O  O64  1  0.93260000  0.42190000  0.88630000  1.0 -0.721812165
