# DDEC6 charges by PACMAN v1.1 (https://github.com/mtap-research/PACMAN-charge/)
data_DEPTOH_ASR_pacman
_symmetry_space_group_name_H-M   'P 1'
_cell_length_a   14.32300000
_cell_length_b   8.75100000
_cell_length_c   16.34000000
_cell_angle_alpha   90.00000000
_cell_angle_beta   90.00000000
_cell_angle_gamma   90.00000000
_symmetry_Int_Tables_number   1
_chemical_formula_structural   GaPO4
_chemical_formula_sum   'Ga16 P16 O64'
_cell_volume   2048.06496282
_cell_formula_units_Z   16
loop_
 _symmetry_equiv_pos_site_id
 _symmetry_equiv_pos_as_xyz
  1  'x, y, z'
loop_
 _atom_site_type_symbol
 _atom_site_label
 _atom_site_symmetry_multiplicity
 _atom_site_fract_x
 _atom_site_fract_y
 _atom_site_fract_z
 _atom_site_occupancy
 _atom_site_charge
Ga  Ga1  1  0.13618000  0.57256000  0.96527000  1.0 1.5485201527
Ga  Ga2  1  0.86382000  0.92744000  0.46527000  1.0 1.5485201527
Ga  Ga3  1  0.86382000  0.42744000  0.03473000  1.0 1.5485201527
Ga  Ga4  1  0.13618000  0.07256000  0.53473000  1.0 1.5485201527
Ga  Ga5  1  0.04135000  0.63290000  0.72822000  1.0 1.5188592424
Ga  Ga6  1  0.95865000  0.86710000  0.22822000  1.0 1.5106887228
Ga  Ga7  1  0.95865000  0.36710000  0.27178000  1.0 1.5106887228
Ga  Ga8  1  0.04135000  0.13290000  0.77178000  1.0 1.5106887228
Ga  Ga9  1  0.52614000  0.41143000  0.87363000  1.0 1.5106887228
Ga  Ga10  1  0.47386000  0.08857000  0.37363000  1.0 1.5106887228
Ga  Ga11  1  0.47386000  0.58857000  0.12637000  1.0 1.5106887228
Ga  Ga12  1  0.52614000  0.91143000  0.62637000  1.0 1.5106887228
Ga  Ga13  1  0.36622000  0.81415000  0.83905000  1.0 1.5652938435
Ga  Ga14  1  0.63378000  0.68585000  0.33905000  1.0 1.5652938435
Ga  Ga15  1  0.63378000  0.18585000  0.16095000  1.0 1.5636784782
Ga  Ga16  1  0.36622000  0.31415000  0.66095000  1.0 1.5652938435
P  P1  1  0.14740000  0.84890000  0.84797000  1.0 1.4777599325
P  P2  1  0.85260000  0.65110000  0.34797000  1.0 1.4777599325
P  P3  1  0.85260000  0.15110000  0.15203000  1.0 1.4777599325
P  P4  1  0.14740000  0.34890000  0.65203000  1.0 1.4777599325
P  P5  1  0.64008000  0.44670000  0.03102000  1.0 1.4704300512
P  P6  1  0.35992000  0.05330000  0.53102000  1.0 1.4704300512
P  P7  1  0.35992000  0.55330000  0.96898000  1.0 1.4704300512
P  P8  1  0.64008000  0.94670000  0.46898000  1.0 1.4704300512
P  P9  1  0.47310000  0.11120000  0.78085000  1.0 1.4864625086
P  P10  1  0.52690000  0.38880000  0.28085000  1.0 1.4864625086
P  P11  1  0.52690000  0.88880000  0.21915000  1.0 1.4864625086
P  P12  1  0.47310000  0.61120000  0.71915000  1.0 1.4864625086
P  P13  1  0.97074000  0.41500000  0.86785000  1.0 1.3998710861
P  P14  1  0.02926000  0.08500000  0.36785000  1.0 1.4069412102
P  P15  1  0.02926000  0.58500000  0.13215000  1.0 1.4069412102
P  P16  1  0.97074000  0.91500000  0.63215000  1.0 1.3998710861
O  O1  1  0.44790000  0.97790000  0.83630000  1.0 -0.7202775031
O  O2  1  0.55210000  0.52210000  0.33630000  1.0 -0.7202775031
O  O3  1  0.55210000  0.02210000  0.16370000  1.0 -0.7202775031
O  O4  1  0.44790000  0.47790000  0.66370000  1.0 -0.7202775031
O  O5  1  0.53640000  0.21980000  0.82870000  1.0 -0.7017661358
O  O6  1  0.46360000  0.28020000  0.32870000  1.0 -0.7017661358
O  O7  1  0.46360000  0.78020000  0.17130000  1.0 -0.7017661358
O  O8  1  0.53640000  0.71980000  0.67130000  1.0 -0.7017661358
O  O9  1  0.96460000  0.54070000  0.80320000  1.0 -0.7515101234
O  O10  1  0.03540000  0.95930000  0.30320000  1.0 -0.7515101234
O  O11  1  0.03540000  0.45930000  0.19680000  1.0 -0.7515101234
O  O12  1  0.96460000  0.04070000  0.69680000  1.0 -0.7515101234
O  O13  1  0.63050000  0.44020000  0.93760000  1.0 -0.7202775031
O  O14  1  0.36950000  0.05980000  0.43760000  1.0 -0.7202775031
O  O15  1  0.36950000  0.55980000  0.06240000  1.0 -0.7202775031
O  O16  1  0.63050000  0.94020000  0.56240000  1.0 -0.7202775031
O  O17  1  0.96210000  0.75750000  0.67270000  1.0 -0.7017661358
O  O18  1  0.03790000  0.74250000  0.17270000  1.0 -0.7017661358
O  O19  1  0.03790000  0.24250000  0.32730000  1.0 -0.7017661358
O  O20  1  0.96210000  0.25750000  0.82730000  1.0 -0.7017661358
O  O21  1  0.24940000  0.89610000  0.85170000  1.0 -0.7291705782
O  O22  1  0.75060000  0.60390000  0.35170000  1.0 -0.7291705782
O  O23  1  0.75060000  0.10390000  0.14830000  1.0 -0.7291705782
O  O24  1  0.24940000  0.39610000  0.64830000  1.0 -0.7291705782
O  O25  1  0.13520000  0.74410000  0.77470000  1.0 -0.799132208
O  O26  1  0.86480000  0.75590000  0.27470000  1.0 -0.799132208
O  O27  1  0.86480000  0.25590000  0.22530000  1.0 -0.799132208
O  O28  1  0.13520000  0.24410000  0.72530000  1.0 -0.799132208
O  O29  1  0.08840000  0.99180000  0.84140000  1.0 -0.7291705782
O  O30  1  0.91160000  0.50820000  0.34140000  1.0 -0.7291705782
O  O31  1  0.91160000  0.00820000  0.15860000  1.0 -0.7291705782
O  O32  1  0.08840000  0.49180000  0.65860000  1.0 -0.7291705782
O  O33  1  0.11710000  0.76930000  0.92620000  1.0 -0.7722482036
O  O34  1  0.88290000  0.73070000  0.42620000  1.0 -0.7722482036
O  O35  1  0.88290000  0.23070000  0.07380000  1.0 -0.7722482036
O  O36  1  0.11710000  0.26930000  0.57380000  1.0 -0.7722482036
O  O37  1  0.38420000  0.69120000  0.74760000  1.0 -0.788407325
O  O38  1  0.61580000  0.80880000  0.24760000  1.0 -0.788407325
O  O39  1  0.61580000  0.30880000  0.25240000  1.0 -0.788407325
O  O40  1  0.38420000  0.19120000  0.75240000  1.0 -0.7842072497
O  O41  1  0.41980000  0.42280000  0.93580000  1.0 -0.7562376807
O  O42  1  0.58020000  0.07720000  0.43580000  1.0 -0.7562376807
O  O43  1  0.58020000  0.57720000  0.06420000  1.0 -0.7562376807
O  O44  1  0.41980000  0.92280000  0.56420000  1.0 -0.7562376807
O  O45  1  0.06260000  0.42340000  0.91370000  1.0 -0.799132208
O  O46  1  0.93740000  0.07660000  0.41370000  1.0 -0.799132208
O  O47  1  0.93740000  0.57660000  0.08630000  1.0 -0.799132208
O  O48  1  0.06260000  0.92340000  0.58630000  1.0 -0.799132208
O  O49  1  0.25960000  0.51720000  0.94700000  1.0 -0.741920198
O  O50  1  0.74040000  0.98280000  0.44700000  1.0 -0.741920198
O  O51  1  0.74040000  0.48280000  0.05300000  1.0 -0.741920198
O  O52  1  0.25960000  0.01720000  0.55300000  1.0 -0.741920198
O  O53  1  0.39320000  0.70630000  0.93420000  1.0 -0.788407325
O  O54  1  0.60680000  0.79370000  0.43420000  1.0 -0.788407325
O  O55  1  0.60680000  0.29370000  0.06580000  1.0 -0.788407325
O  O56  1  0.39320000  0.20630000  0.56580000  1.0 -0.788407325
O  O57  1  0.53080000  0.05810000  0.70710000  1.0 -0.7562376807
O  O58  1  0.46920000  0.44190000  0.20710000  1.0 -0.7562376807
O  O59  1  0.46920000  0.94190000  0.29290000  1.0 -0.7562376807
O  O60  1  0.53080000  0.55810000  0.79290000  1.0 -0.7562376807
O  O61  1  0.11290000  0.56620000  0.07720000  1.0 -0.7202775031
O  O62  1  0.88710000  0.93380000  0.57720000  1.0 -0.7202775031
O  O63  1  0.88710000  0.43380000  0.92280000  1.0 -0.7202775031
O  O64  1  0.11290000  0.06620000  0.42280000  1.0 -0.7202775031
