# DDEC6 charges by PACMAN v1.1 (https://github.com/mtap-research/PACMAN-charge/)
data_DEWNIF_ASR_pacman
_symmetry_space_group_name_H-M   'P 1'
_cell_length_a   5.87780000
_cell_length_b   11.41260000
_cell_length_c   17.41400000
_cell_angle_alpha   90.00000000
_cell_angle_beta   90.38500000
_cell_angle_gamma   90.00000000
_symmetry_Int_Tables_number   1
_chemical_formula_structural   ScH4(C6O5)2
_chemical_formula_sum   'Sc2 H8 C24 O20'
_cell_volume   1168.12181863
_cell_formula_units_Z   2
loop_
 _symmetry_equiv_pos_site_id
 _symmetry_equiv_pos_as_xyz
  1  'x, y, z'
loop_
 _atom_site_type_symbol
 _atom_site_label
 _atom_site_symmetry_multiplicity
 _atom_site_fract_x
 _atom_site_fract_y
 _atom_site_fract_z
 _atom_site_occupancy
 _atom_site_charge
Sc  Sc1  1  0.50000000  0.50000000  0.50000000  1.0 1.7681316343
Sc  Sc2  1  0.50000000  0.00000000  0.00000000  1.0 1.7681316343
H  H1  1  0.70967000  0.36231000  0.28080000  1.0 0.1555497349
H  H2  1  0.70100000  0.24793000  0.15481000  1.0 0.1555497349
H  H3  1  0.29033000  0.86231000  0.21920000  1.0 0.1555497349
H  H4  1  0.29900000  0.74793000  0.34519000  1.0 0.1555497349
H  H5  1  0.29033000  0.63769000  0.71920000  1.0 0.1555497349
H  H6  1  0.29900000  0.75207000  0.84519000  1.0 0.1555497349
H  H7  1  0.70967000  0.13769000  0.78080000  1.0 0.1555497349
H  H8  1  0.70100000  0.25207000  0.65481000  1.0 0.1555497349
C  C1  1  0.25970000  0.38900000  0.34971000  1.0 0.5582436529
C  C2  1  0.36180000  0.33870000  0.27998000  1.0 0.079065439
C  C3  1  0.57890000  0.33130000  0.25570000  1.0 -0.1327555794
C  C4  1  0.57390000  0.26840000  0.18544000  1.0 -0.1485941428
C  C5  1  0.35340000  0.24320000  0.17057000  1.0 0.079065439
C  C6  1  0.24090000  0.18240000  0.10648000  1.0 0.5539394028
C  C7  1  0.74030000  0.88900000  0.15029000  1.0 0.5582436529
C  C8  1  0.63820000  0.83870000  0.22002000  1.0 0.079065439
C  C9  1  0.42110000  0.83130000  0.24430000  1.0 -0.1327555794
C  C10  1  0.42610000  0.76840000  0.31456000  1.0 -0.1485941428
C  C11  1  0.64660000  0.74320000  0.32943000  1.0 0.079065439
C  C12  1  0.75910000  0.68240000  0.39352000  1.0 0.5539394028
C  C13  1  0.74030000  0.61100000  0.65029000  1.0 0.5582436529
C  C14  1  0.63820000  0.66130000  0.72002000  1.0 0.079065439
C  C15  1  0.42110000  0.66870000  0.74430000  1.0 -0.1327555794
C  C16  1  0.42610000  0.73160000  0.81456000  1.0 -0.1485941428
C  C17  1  0.64660000  0.75680000  0.82943000  1.0 0.074408969
C  C18  1  0.75910000  0.81760000  0.89352000  1.0 0.5582436529
C  C19  1  0.25970000  0.11100000  0.84971000  1.0 0.5582436529
C  C20  1  0.36180000  0.16130000  0.77998000  1.0 0.079065439
C  C21  1  0.57890000  0.16870000  0.75570000  1.0 -0.1327555794
C  C22  1  0.57390000  0.23160000  0.68544000  1.0 -0.1485941428
C  C23  1  0.35340000  0.25680000  0.67057000  1.0 0.074408969
C  C24  1  0.24090000  0.31760000  0.60648000  1.0 0.5539394028
O  O1  1  0.40040000  0.43947000  0.39380000  1.0 -0.6188920829
O  O2  1  0.05330000  0.37777000  0.36027000  1.0 -0.4337259921
O  O3  1  0.21870000  0.28440000  0.22850000  1.0 -0.0777246299
O  O4  1  0.37190000  0.14599000  0.05413000  1.0 -0.6135571394
O  O5  1  0.03220000  0.17290000  0.10596000  1.0 -0.4367268433
O  O6  1  0.59960000  0.93947000  0.10620000  1.0 -0.6188920829
O  O7  1  0.94670000  0.87777000  0.13973000  1.0 -0.4367268433
O  O8  1  0.78130000  0.78440000  0.27150000  1.0 -0.0777246299
O  O9  1  0.62810000  0.64599000  0.44587000  1.0 -0.6135571394
O  O10  1  0.96780000  0.67290000  0.39404000  1.0 -0.4367268433
O  O11  1  0.59960000  0.56053000  0.60620000  1.0 -0.6188920829
O  O12  1  0.94670000  0.62223000  0.63973000  1.0 -0.4367268433
O  O13  1  0.78130000  0.71560000  0.77150000  1.0 -0.0777246299
O  O14  1  0.62810000  0.85401000  0.94587000  1.0 -0.6135571394
O  O15  1  0.96780000  0.82710000  0.89404000  1.0 -0.4367268433
O  O16  1  0.40040000  0.06053000  0.89380000  1.0 -0.6188920829
O  O17  1  0.05330000  0.12223000  0.86027000  1.0 -0.4367268433
O  O18  1  0.21870000  0.21560000  0.72850000  1.0 -0.0777246299
O  O19  1  0.37190000  0.35401000  0.55413000  1.0 -0.6135571394
O  O20  1  0.03220000  0.32710000  0.60596000  1.0 -0.4367268433
