# DDEC6 charges by PACMAN v1.1 (https://github.com/mtap-research/PACMAN-charge/)
data_DEYJOI_FSR_pacman
_symmetry_space_group_name_H-M   'P 1'
_cell_length_a   7.77450000
_cell_length_b   11.46350000
_cell_length_c   13.53770000
_cell_angle_alpha   96.80300000
_cell_angle_beta   105.71000000
_cell_angle_gamma   99.22500000
_symmetry_Int_Tables_number   1
_chemical_formula_structural   V2CoH17C18N3O7
_chemical_formula_sum   'V4 Co2 H34 C36 N6 O14'
_cell_volume   1129.67212229
_cell_formula_units_Z   2
loop_
 _symmetry_equiv_pos_site_id
 _symmetry_equiv_pos_as_xyz
  1  'x, y, z'
loop_
 _atom_site_type_symbol
 _atom_site_label
 _atom_site_symmetry_multiplicity
 _atom_site_fract_x
 _atom_site_fract_y
 _atom_site_fract_z
 _atom_site_occupancy
 _atom_site_charge
V  V1  1  0.14243000  0.32339000  0.02523000  1.0 1.7199473851
V  V2  1  0.85757000  0.67661000  0.97477000  1.0 1.7199473851
V  V3  1  0.20555000  0.58047000  0.13956000  1.0 1.5852286094
V  V4  1  0.79445000  0.41953000  0.86044000  1.0 1.5818249458
Co  Co1  1  0.50000000  0.50000000  0.00000000  1.0 0.7849281901
Co  Co2  1  0.00000000  0.00000000  0.00000000  1.0 1.0025424236
H  H1  1  0.92190000  0.13610000  0.18160000  1.0 0.0871696024
H  H2  1  0.07810000  0.86390000  0.81840000  1.0 0.0871696024
H  H3  1  0.91800000  0.12640000  0.34870000  1.0 0.1093288162
H  H4  1  0.08200000  0.87360000  0.65130000  1.0 0.1093288162
H  H5  1  0.12710000  0.82930000  0.33240000  1.0 0.1267599561
H  H6  1  0.87290000  0.17070000  0.66760000  1.0 0.1267599561
H  H7  1  0.13130000  0.85120000  0.16650000  1.0 0.0871696024
H  H8  1  0.86870000  0.14880000  0.83350000  1.0 0.0871696024
H  H9  1  0.05080000  0.89230000  0.48950000  1.0 0.1039504535
H  H10  1  0.94920000  0.10770000  0.51050000  1.0 0.1039504535
H  H11  1  0.33670000  0.34430000  0.78270000  1.0 0.1039504535
H  H12  1  0.66330000  0.65570000  0.21730000  1.0 0.1039504535
H  H13  1  0.18050000  0.35800000  0.61340000  1.0 0.0871696024
H  H14  1  0.81950000  0.64200000  0.38660000  1.0 0.0871696024
H  H15  1  0.08640000  0.67250000  0.72660000  1.0 0.0693496675
H  H16  1  0.91360000  0.32750000  0.27340000  1.0 0.0693496675
H  H17  1  0.26920000  0.65900000  0.88640000  1.0 0.0871696024
H  H18  1  0.73080000  0.34100000  0.11360000  1.0 0.0871696024
H  H19  1  0.94090000  0.59430000  0.54270000  1.0 0.0796403467
H  H20  1  0.05910000  0.40570000  0.45730000  1.0 0.0796403467
H  H21  1  0.30900000  0.94200000  0.02400000  1.0 0.2832113975
H  H22  1  0.69100000  0.05800000  0.97600000  1.0 0.2832113975
H  H23  1  0.33000000  0.04500000  0.99400000  1.0 0.2884267145
H  H24  1  0.67000000  0.95500000  0.00600000  1.0 0.2884267145
H  H25  1  0.38320000  0.34060000  0.79090000  1.0 0.0796403467
H  H26  1  0.61680000  0.65940000  0.20910000  1.0 0.0796403467
H  H27  1  0.17960000  0.30500000  0.63050000  1.0 0.0693496675
H  H28  1  0.82040000  0.69500000  0.36950000  1.0 0.0693496675
H  H29  1  0.07700000  0.63150000  0.68560000  1.0 0.0796403467
H  H30  1  0.92300000  0.36850000  0.31440000  1.0 0.0796403467
H  H31  1  0.23630000  0.64030000  0.86410000  1.0 0.1039504535
H  H32  1  0.76370000  0.35970000  0.13590000  1.0 0.1039504535
H  H33  1  0.00850000  0.38880000  0.48360000  1.0 0.0871696024
H  H34  1  0.99150000  0.61120000  0.51640000  1.0 0.0871696024
C  C1  1  0.96390000  0.07378000  0.21265000  1.0 0.0632207454
C  C2  1  0.03610000  0.92622000  0.78735000  1.0 0.0632207454
C  C3  1  0.96070000  0.06843000  0.31310000  1.0 -0.2205515034
C  C4  1  0.03930000  0.93157000  0.68690000  1.0 -0.2205515034
C  C5  1  0.02190000  0.97549000  0.36118000  1.0 0.1654260927
C  C6  1  0.97810000  0.02451000  0.63882000  1.0 0.1654260927
C  C7  1  0.08530000  0.89304000  0.30377000  1.0 -0.1927005625
C  C8  1  0.91470000  0.10696000  0.69623000  1.0 -0.1927005625
C  C9  1  0.08580000  0.90625000  0.20336000  1.0 0.1039504535
C  C10  1  0.91420000  0.09375000  0.79664000  1.0 0.1039504535
C  C11  1  0.02020000  0.96180000  0.46695000  1.0 -0.1683678107
C  C12  1  0.97980000  0.03820000  0.53305000  1.0 -0.1644056863
C  C13  1  0.29090000  0.41293000  0.76998000  1.0 0.0796403467
C  C14  1  0.70910000  0.58707000  0.23002000  1.0 0.0796403467
C  C15  1  0.19260000  0.41930000  0.66780000  1.0 -0.0464497968
C  C16  1  0.80740000  0.58070000  0.33220000  1.0 -0.0464497968
C  C17  1  0.11320000  0.51840000  0.64860000  1.0 0.0460057394
C  C18  1  0.88680000  0.48160000  0.35140000  1.0 0.0460057394
C  C19  1  0.14090000  0.60630000  0.73450000  1.0 -0.1073950133
C  C20  1  0.85910000  0.39370000  0.26550000  1.0 -0.1073950133
C  C21  1  0.24850000  0.59640000  0.83150000  1.0 0.0871696024
C  C22  1  0.75150000  0.40360000  0.16850000  1.0 0.0871696024
C  C23  1  0.00630000  0.53300000  0.54534000  1.0 -0.0824923008
C  C24  1  0.99370000  0.46700000  0.45466000  1.0 -0.0824923008
C  C25  1  0.31480000  0.39820000  0.77160000  1.0 0.0796403467
C  C26  1  0.68520000  0.60180000  0.22840000  1.0 0.0796403467
C  C27  1  0.20350000  0.37900000  0.67340000  1.0 -0.1202913909
C  C28  1  0.79650000  0.62100000  0.32660000  1.0 -0.1202913909
C  C29  1  0.12520000  0.47290000  0.63770000  1.0 0.0427803662
C  C30  1  0.87480000  0.52710000  0.36230000  1.0 0.0427803662
C  C31  1  0.13510000  0.56990000  0.70690000  1.0 -0.0258153067
C  C32  1  0.86490000  0.43010000  0.29310000  1.0 -0.0246152994
C  C33  1  0.23630000  0.57750000  0.81380000  1.0 0.0796403467
C  C34  1  0.76370000  0.42250000  0.18620000  1.0 0.0796403467
C  C35  1  0.02750000  0.46430000  0.52330000  1.0 -0.0709965113
C  C36  1  0.97250000  0.53570000  0.47670000  1.0 -0.0709965113
N  N1  1  0.02440000  0.99390000  0.15741000  1.0 -0.2438939041
N  N2  1  0.97560000  0.00610000  0.84259000  1.0 -0.2438939041
N  N3  1  0.32390000  0.50235000  0.85046000  1.0 -0.1775526977
N  N4  1  0.67610000  0.49765000  0.14954000  1.0 -0.1775526977
N  N5  1  0.33350000  0.48970000  0.84030000  1.0 -0.1683678107
N  N6  1  0.66650000  0.51030000  0.15970000  1.0 -0.1683678107
O  O1  1  0.34591000  0.59634000  0.06739000  1.0 -0.7262483365
O  O2  1  0.65409000  0.40366000  0.93261000  1.0 -0.7262483365
O  O3  1  0.34944000  0.33652000  0.01021000  1.0 -0.7400457389
O  O4  1  0.65056000  0.66348000  0.98979000  1.0 -0.7400457389
O  O5  1  0.99846000  0.36742000  0.91695000  1.0 -0.8862553365
O  O6  1  0.00154000  0.63258000  0.08305000  1.0 -0.8862553365
O  O7  1  0.06195000  0.18436000  0.03318000  1.0 -0.8188464172
O  O8  1  0.93805000  0.81564000  0.96682000  1.0 -0.8188464172
O  O9  1  0.15265000  0.42152000  0.14120000  1.0 -0.8536953158
O  O10  1  0.84735000  0.57848000  0.85880000  1.0 -0.8536953158
O  O11  1  0.30457000  0.65558000  0.25644000  1.0 -0.6088351137
O  O12  1  0.69543000  0.34442000  0.74356000  1.0 -0.6088351137
O  O13  1  0.27553000  0.00080000  0.02469000  1.0 -0.6215103394
O  O14  1  0.72447000  0.99920000  0.97531000  1.0 -0.6215103394
