# DDEC6 charges by PACMAN v1.1 (https://github.com/mtap-research/PACMAN-charge/)
data_DEYLUQ_ASR_pacman
_symmetry_space_group_name_H-M   'P 1'
_cell_length_a   13.57030000
_cell_length_b   14.40800000
_cell_length_c   19.48790000
_cell_angle_alpha   93.93700000
_cell_angle_beta   109.85600000
_cell_angle_gamma   93.50500000
_symmetry_Int_Tables_number   1
_chemical_formula_structural   Cd2H24C50Br10(N4O3)3
_chemical_formula_sum   'Cd4 H48 C100 Br20 N24 O18'
_cell_volume   3560.79778639
_cell_formula_units_Z   2
loop_
 _symmetry_equiv_pos_site_id
 _symmetry_equiv_pos_as_xyz
  1  'x, y, z'
loop_
 _atom_site_type_symbol
 _atom_site_label
 _atom_site_symmetry_multiplicity
 _atom_site_fract_x
 _atom_site_fract_y
 _atom_site_fract_z
 _atom_site_occupancy
 _atom_site_charge
Cd  Cd1  1  0.05790000  0.54529000  0.79859000  1.0 0.8779211638
Cd  Cd2  1  0.94210000  0.45471000  0.20141000  1.0 0.8779211638
Cd  Cd3  1  0.52834000  0.11492000  0.40842000  1.0 0.9210761485
Cd  Cd4  1  0.47166000  0.88508000  0.59158000  1.0 0.9210761485
H  H1  1  0.82790000  0.56590000  0.83060000  1.0 0.1121930999
H  H2  1  0.17210000  0.43410000  0.16940000  1.0 0.1121930999
H  H3  1  0.10510000  0.59720000  0.98550000  1.0 0.121483233
H  H4  1  0.89490000  0.40280000  0.01450000  1.0 0.1282493224
H  H5  1  0.98280000  0.66800000  0.03920000  1.0 0.1392025126
H  H6  1  0.01720000  0.33200000  0.96080000  1.0 0.1392025126
H  H7  1  0.79800000  0.64960000  0.04590000  1.0 0.1601296065
H  H8  1  0.20200000  0.35040000  0.95410000  1.0 0.1601296065
H  H9  1  0.53190000  0.77330000  0.94370000  1.0 0.1464425174
H  H10  1  0.46810000  0.22670000  0.05630000  1.0 0.1464425174
H  H11  1  0.71700000  0.69160000  0.83000000  1.0 0.1282493224
H  H12  1  0.28300000  0.30840000  0.17000000  1.0 0.1282493224
H  H13  1  0.63270000  0.82440000  0.75650000  1.0 0.1282493224
H  H14  1  0.36730000  0.17560000  0.24350000  1.0 0.1282493224
H  H15  1  0.38980000  0.74000000  0.81620000  1.0 0.1392025126
H  H16  1  0.61020000  0.26000000  0.18380000  1.0 0.1392025126
H  H17  1  0.32240000  0.80180000  0.69520000  1.0 0.1282493224
H  H18  1  0.67760000  0.19820000  0.30480000  1.0 0.1282493224
H  H19  1  0.77420000  0.68870000  0.15040000  1.0 0.121483233
H  H20  1  0.22580000  0.31130000  0.84960000  1.0 0.121483233
H  H21  1  0.52360000  0.77980000  0.17890000  1.0 0.1002076042
H  H22  1  0.47640000  0.22020000  0.82110000  1.0 0.1002076042
H  H23  1  0.49220000  0.76830000  0.04930000  1.0 0.1282493224
H  H24  1  0.50780000  0.23170000  0.95070000  1.0 0.1282493224
H  H25  1  0.90870000  0.55220000  0.61960000  1.0 0.121483233
H  H26  1  0.09130000  0.44780000  0.38040000  1.0 0.121483233
H  H27  1  0.87570000  0.73020000  0.77220000  1.0 0.1282493224
H  H28  1  0.12430000  0.26980000  0.22780000  1.0 0.1282493224
H  H29  1  0.75300000  0.76550000  0.65180000  1.0 0.1392025126
H  H30  1  0.24700000  0.23450000  0.34820000  1.0 0.1392025126
H  H31  1  0.73350000  0.39910000  0.39010000  1.0 0.1392025126
H  H32  1  0.26650000  0.60090000  0.60990000  1.0 0.1392025126
H  H33  1  0.81680000  0.33010000  0.30810000  1.0 0.1282493224
H  H34  1  0.18320000  0.66990000  0.69190000  1.0 0.1282493224
H  H35  1  0.84330000  0.60310000  0.29720000  1.0 0.121483233
H  H36  1  0.15670000  0.39690000  0.70280000  1.0 0.121483233
H  H37  1  0.79640000  0.53090000  0.49770000  1.0 0.1464425174
H  H38  1  0.20360000  0.46910000  0.50230000  1.0 0.1464425174
H  H39  1  0.73480000  0.80030000  0.53280000  1.0 0.1392025126
H  H40  1  0.26520000  0.19970000  0.46720000  1.0 0.1392025126
H  H41  1  0.69660000  0.68960000  0.32650000  1.0 0.1464425174
H  H42  1  0.30340000  0.31040000  0.67350000  1.0 0.1464425174
H  H43  1  0.61030000  0.90430000  0.46840000  1.0 0.121483233
H  H44  1  0.38970000  0.09570000  0.53160000  1.0 0.121483233
H  H45  1  0.71870000  0.85570000  0.30600000  1.0 0.1282493224
H  H46  1  0.28130000  0.14430000  0.69400000  1.0 0.1282493224
H  H47  1  0.64870000  0.00840000  0.29510000  1.0 0.1282493224
H  H48  1  0.35130000  0.99160000  0.70490000  1.0 0.1282493224
C  C1  1  0.88190000  0.58290000  0.87500000  1.0 0.0805512068
C  C2  1  0.11810000  0.41710000  0.12500000  1.0 0.0805512068
C  C3  1  0.03370000  0.60060000  0.96050000  1.0 -0.0025131278
C  C4  1  0.96630000  0.39940000  0.03950000  1.0 -0.0025131278
C  C5  1  0.96650000  0.63990000  0.99170000  1.0 -0.0812803993
C  C6  1  0.03350000  0.36010000  0.00830000  1.0 -0.0812803993
C  C7  1  0.77400000  0.66740000  0.93750000  1.0 0.2293616791
C  C8  1  0.22600000  0.33260000  0.06250000  1.0 0.2293616791
C  C9  1  0.75320000  0.67290000  0.00440000  1.0 -0.2872427108
C  C10  1  0.24680000  0.32710000  0.99560000  1.0 -0.2872427108
C  C11  1  0.66200000  0.71510000  0.00590000  1.0 0.2293616791
C  C12  1  0.33800000  0.28490000  0.99410000  1.0 0.2293616791
C  C13  1  0.59190000  0.74660000  0.94220000  1.0 -0.2795233878
C  C14  1  0.40810000  0.25340000  0.05780000  1.0 -0.2795233878
C  C15  1  0.61260000  0.73780000  0.87680000  1.0 0.2293616791
C  C16  1  0.38740000  0.26220000  0.12320000  1.0 0.2293616791
C  C17  1  0.70380000  0.69770000  0.87380000  1.0 -0.3186838182
C  C18  1  0.29620000  0.30230000  0.12620000  1.0 -0.3186838182
C  C19  1  0.56450000  0.81160000  0.75610000  1.0 0.092040464
C  C20  1  0.43550000  0.18840000  0.24390000  1.0 0.092040464
C  C21  1  0.43010000  0.76340000  0.79000000  1.0 -0.090441941
C  C22  1  0.56990000  0.23660000  0.21000000  1.0 -0.090441941
C  C23  1  0.39310000  0.79940000  0.72280000  1.0 -0.0229457857
C  C24  1  0.60690000  0.20060000  0.27720000  1.0 -0.0229457857
C  C25  1  0.70860000  0.71080000  0.14230000  1.0 0.1002076042
C  C26  1  0.29140000  0.28920000  0.85770000  1.0 0.1002076042
C  C27  1  0.57100000  0.75980000  0.15730000  1.0 -0.0587372472
C  C28  1  0.42900000  0.24020000  0.84270000  1.0 -0.0587372472
C  C29  1  0.55340000  0.75470000  0.08540000  1.0 -0.090441941
C  C30  1  0.44660000  0.24530000  0.91460000  1.0 -0.090441941
C  C31  1  0.88510000  0.59990000  0.64290000  1.0 0.1121930999
C  C32  1  0.11490000  0.40010000  0.35710000  1.0 0.1121930999
C  C33  1  0.86640000  0.69820000  0.72700000  1.0 -0.0447497594
C  C34  1  0.13360000  0.30180000  0.27300000  1.0 -0.0447497594
C  C35  1  0.79870000  0.71860000  0.65950000  1.0 -0.0587372472
C  C36  1  0.20130000  0.28140000  0.34050000  1.0 -0.0587372472
C  C37  1  0.76520000  0.43080000  0.36190000  1.0 -0.1094279217
C  C38  1  0.23480000  0.56920000  0.63810000  1.0 -0.1094279217
C  C39  1  0.81160000  0.39370000  0.31630000  1.0 -0.0327577643
C  C40  1  0.18840000  0.60630000  0.68370000  1.0 -0.0327577643
C  C41  1  0.82680000  0.54450000  0.30970000  1.0 0.1121930999
C  C42  1  0.17320000  0.45550000  0.69030000  1.0 0.1121930999
C  C43  1  0.75320000  0.60100000  0.40370000  1.0 0.2293616791
C  C44  1  0.24680000  0.39900000  0.59630000  1.0 0.2293616791
C  C45  1  0.77740000  0.58790000  0.48000000  1.0 -0.3031240168
C  C46  1  0.22260000  0.41210000  0.52000000  1.0 -0.3031240168
C  C47  1  0.77130000  0.66380000  0.52630000  1.0 0.2293616791
C  C48  1  0.22870000  0.33620000  0.47370000  1.0 0.2293616791
C  C49  1  0.73790000  0.75040000  0.50090000  1.0 -0.3031240168
C  C50  1  0.26210000  0.24960000  0.49910000  1.0 -0.3108642879
C  C51  1  0.70940000  0.75750000  0.42410000  1.0 0.2293616791
C  C52  1  0.29060000  0.24250000  0.57590000  1.0 0.2293616791
C  C53  1  0.71650000  0.68360000  0.37650000  1.0 -0.2795233878
C  C54  1  0.28350000  0.31640000  0.62350000  1.0 -0.2795233878
C  C55  1  0.62840000  0.91160000  0.42700000  1.0 0.0742567626
C  C56  1  0.37160000  0.08840000  0.57300000  1.0 0.0742567626
C  C57  1  0.68850000  0.88380000  0.33740000  1.0 -0.071522618
C  C58  1  0.31150000  0.11620000  0.66260000  1.0 -0.071522618
C  C59  1  0.64980000  0.96910000  0.33120000  1.0 -0.0587372472
C  C60  1  0.35020000  0.03090000  0.66880000  1.0 -0.0587372472
C  C61  1  0.53510000  0.30660000  0.45900000  1.0 0.564502686
C  C62  1  0.46490000  0.69340000  0.54100000  1.0 0.564502686
C  C63  1  0.51730000  0.40630000  0.48010000  1.0 -0.090441941
C  C64  1  0.48270000  0.59370000  0.51990000  1.0 -0.090441941
C  C65  1  0.48200000  0.47030000  0.42630000  1.0 0.029843684
C  C66  1  0.51800000  0.52970000  0.57370000  1.0 0.029843684
C  C67  1  0.46560000  0.56340000  0.44600000  1.0 0.029843684
C  C68  1  0.53440000  0.43660000  0.55400000  1.0 0.029843684
C  C69  1  0.30170000  0.58080000  0.91470000  1.0 0.5760186014
C  C70  1  0.69830000  0.41920000  0.08530000  1.0 0.5760186014
C  C71  1  0.40450000  0.53720000  0.95940000  1.0 -0.090441941
C  C72  1  0.59550000  0.46280000  0.04060000  1.0 -0.090441941
C  C73  1  0.47220000  0.50700000  0.92470000  1.0 0.0232177411
C  C74  1  0.52780000  0.49300000  0.07530000  1.0 0.0232177411
C  C75  1  0.56680000  0.46920000  0.96480000  1.0 0.029843684
C  C76  1  0.43320000  0.53080000  0.03520000  1.0 0.029843684
C  C77  1  0.97910000  0.33310000  0.76540000  1.0 0.5760186014
C  C78  1  0.02090000  0.66690000  0.23460000  1.0 0.5760186014
C  C79  1  0.90380000  0.24650000  0.73150000  1.0 -0.090441941
C  C80  1  0.09620000  0.75350000  0.26850000  1.0 -0.090441941
C  C81  1  0.81500000  0.23040000  0.75110000  1.0 0.0508735429
C  C82  1  0.18500000  0.76960000  0.24890000  1.0 0.0508735429
C  C83  1  0.72720000  0.16180000  0.70210000  1.0 0.0017796168
C  C84  1  0.27280000  0.83820000  0.29790000  1.0 0.0017796168
C  C85  1  0.73160000  0.11180000  0.64300000  1.0 -0.0229457857
C  C86  1  0.26840000  0.88820000  0.35700000  1.0 -0.0229457857
C  C87  1  0.83150000  0.12340000  0.62690000  1.0 0.0017796168
C  C88  1  0.16850000  0.87660000  0.37310000  1.0 -0.0025131278
C  C89  1  0.92230000  0.18130000  0.68050000  1.0 0.0508735429
C  C90  1  0.07770000  0.81870000  0.31950000  1.0 0.0508735429
C  C91  1  0.64090000  0.04380000  0.59140000  1.0 0.3755987582
C  C92  1  0.35910000  0.95620000  0.40860000  1.0 0.372894108
C  C93  1  0.75890000  0.14110000  0.73700000  1.0 0.0074290554
C  C94  1  0.24110000  0.85890000  0.26300000  1.0 0.0074290554
C  C95  1  0.77970000  0.07100000  0.69220000  1.0 -0.0025131278
C  C96  1  0.22030000  0.92900000  0.30780000  1.0 -0.0025131278
C  C97  1  0.87000000  0.08900000  0.66890000  1.0 -0.0072159483
C  C98  1  0.13000000  0.91100000  0.33110000  1.0 -0.0072159483
C  C99  1  0.71550000  0.97590000  0.67110000  1.0 0.3268671183
C  C100  1  0.28450000  0.02410000  0.32890000  1.0 0.3268671183
Br  Br1  1  0.46257000  0.42973000  0.32622000  1.0 -0.0447497594
Br  Br2  1  0.53743000  0.57027000  0.67378000  1.0 -0.0447497594
Br  Br3  1  0.42159000  0.65020000  0.37358000  1.0 -0.0812803993
Br  Br4  1  0.57841000  0.34980000  0.62642000  1.0 -0.0812803993
Br  Br5  1  0.43528000  0.51498000  0.82020000  1.0 -0.0327577643
Br  Br6  1  0.56472000  0.48502000  0.17980000  1.0 -0.0327577643
Br  Br7  1  0.65911000  0.42373000  0.91599000  1.0 -0.0327577643
Br  Br8  1  0.34089000  0.57627000  0.08401000  1.0 -0.0327577643
Br  Br9  1  0.04481000  0.20150000  0.65475000  1.0 -0.071522618
Br  Br10  1  0.95519000  0.79850000  0.34525000  1.0 -0.071522618
Br  Br11  1  0.84380000  0.04120000  0.54870000  1.0 0.0017796168
Br  Br12  1  0.15620000  0.95880000  0.45130000  1.0 0.0074290554
Br  Br13  1  0.79206000  0.31693000  0.82032000  1.0 -0.0812803993
Br  Br14  1  0.20794000  0.68307000  0.17968000  1.0 -0.0812803993
Br  Br15  1  0.60360000  0.14040000  0.72929000  1.0 0.029843684
Br  Br16  1  0.39640000  0.85960000  0.27071000  1.0 0.029843684
Br  Br17  1  0.90105000  0.99140000  0.61038000  1.0 0.0074290554
Br  Br18  1  0.09895000  0.00860000  0.38962000  1.0 0.0074290554
Br  Br19  1  0.63830000  0.11870000  0.76470000  1.0 0.029843684
Br  Br20  1  0.36170000  0.88130000  0.23530000  1.0 0.029843684
N  N1  1  0.98280000  0.56700000  0.88810000  1.0 -0.2872427108
N  N2  1  0.01720000  0.43300000  0.11190000  1.0 -0.2872427108
N  N3  1  0.86830000  0.62780000  0.93560000  1.0 -0.0025131278
N  N4  1  0.13170000  0.37220000  0.06440000  1.0 -0.0025131278
N  N5  1  0.64160000  0.72580000  0.07430000  1.0 -0.0025131278
N  N6  1  0.35840000  0.27420000  0.92570000  1.0 -0.0025131278
N  N7  1  0.67000000  0.73120000  0.19610000  1.0 -0.3108642879
N  N8  1  0.33000000  0.26880000  0.80390000  1.0 -0.3108642879
N  N9  1  0.53960000  0.76910000  0.81100000  1.0 -0.0025131278
N  N10  1  0.46040000  0.23090000  0.18900000  1.0 -0.0025131278
N  N11  1  0.47750000  0.83180000  0.70240000  1.0 -0.3186838182
N  N12  1  0.52250000  0.16820000  0.29760000  1.0 -0.3186838182
N  N13  1  0.91890000  0.62000000  0.71500000  1.0 -0.3108642879
N  N14  1  0.08110000  0.38000000  0.28500000  1.0 -0.3108642879
N  N15  1  0.81080000  0.65770000  0.60620000  1.0 0.0017796168
N  N16  1  0.18920000  0.34230000  0.39380000  1.0 0.0017796168
N  N17  1  0.77540000  0.52830000  0.35750000  1.0 -0.0025131278
N  N18  1  0.22460000  0.47170000  0.64250000  1.0 -0.0025131278
N  N19  1  0.85060000  0.46250000  0.28300000  1.0 -0.3031240168
N  N20  1  0.14940000  0.53750000  0.71700000  1.0 -0.3031240168
N  N21  1  0.67630000  0.84560000  0.39680000  1.0 -0.0072159483
N  N22  1  0.32370000  0.15440000  0.60320000  1.0 -0.0072159483
N  N23  1  0.61150000  0.98690000  0.38950000  1.0 -0.3463674637
N  N24  1  0.38850000  0.01310000  0.61050000  1.0 -0.3463674637
O  O1  1  0.21900000  0.52740000  0.89210000  1.0 -0.5491714555
O  O2  1  0.78100000  0.47260000  0.10790000  1.0 -0.5491714555
O  O3  1  0.31260000  0.66790000  0.91020000  1.0 -0.5760155025
O  O4  1  0.68740000  0.33210000  0.08980000  1.0 -0.5760155025
O  O5  1  0.95990000  0.40410000  0.72970000  1.0 -0.5491714555
O  O6  1  0.04010000  0.59590000  0.27030000  1.0 -0.5491714555
O  O7  1  0.04930000  0.32800000  0.82790000  1.0 -0.5592313411
O  O8  1  0.95070000  0.67200000  0.17210000  1.0 -0.5592313411
O  O9  1  0.45630000  0.24640000  0.43930000  1.0 -0.5491714555
O  O10  1  0.54370000  0.75360000  0.56070000  1.0 -0.5491714555
O  O11  1  0.62630000  0.28910000  0.46120000  1.0 -0.5491714555
O  O12  1  0.37370000  0.71090000  0.53880000  1.0 -0.5491714555
O  O13  1  0.63270000  0.96630000  0.61310000  1.0 -0.2445896792
O  O14  1  0.36730000  0.03370000  0.38690000  1.0 -0.2445896792
O  O15  1  0.59220000  0.08420000  0.53390000  1.0 -0.5124336185
O  O16  1  0.40780000  0.91580000  0.46610000  1.0 -0.5124336185
O  O17  1  0.74730000  0.91570000  0.71850000  1.0 -0.4766605797
O  O18  1  0.25270000  0.08430000  0.28150000  1.0 -0.4766605797
