# DDEC6 charges by PACMAN v1.1 (https://github.com/mtap-research/PACMAN-charge/)
data_DEYXIQ_ASR_pacman
_symmetry_space_group_name_H-M   'P 1'
_cell_length_a   7.90300000
_cell_length_b   32.85800000
_cell_length_c   10.53790000
_cell_angle_alpha   90.00000000
_cell_angle_beta   99.60700000
_cell_angle_gamma   90.00000000
_symmetry_Int_Tables_number   1
_chemical_formula_structural   CoH4(C3O2)3
_chemical_formula_sum   'Co8 H32 C72 O48'
_cell_volume   2698.07098782
_cell_formula_units_Z   8
loop_
 _symmetry_equiv_pos_site_id
 _symmetry_equiv_pos_as_xyz
  1  'x, y, z'
loop_
 _atom_site_type_symbol
 _atom_site_label
 _atom_site_symmetry_multiplicity
 _atom_site_fract_x
 _atom_site_fract_y
 _atom_site_fract_z
 _atom_site_occupancy
 _atom_site_charge
Co  Co1  1  0.05326000  0.25018000  0.48049000  1.0 1.0184066948
Co  Co2  1  0.44674000  0.75018000  0.51951000  1.0 1.0184066948
Co  Co3  1  0.94674000  0.74982000  0.51951000  1.0 1.0184066948
Co  Co4  1  0.55326000  0.24982000  0.48049000  1.0 1.0184066948
Co  Co5  1  0.50000000  0.50000000  0.50000000  1.0 1.0184066948
Co  Co6  1  0.00000000  0.00000000  0.50000000  1.0 1.0184066948
Co  Co7  1  0.00000000  0.50000000  0.50000000  1.0 1.0116460976
Co  Co8  1  0.50000000  0.00000000  0.50000000  1.0 1.0116460976
H  H1  1  0.91380000  0.23840000  0.06990000  1.0 0.1267944473
H  H2  1  0.58620000  0.73840000  0.93010000  1.0 0.1267944473
H  H3  1  0.08620000  0.76160000  0.93010000  1.0 0.1267944473
H  H4  1  0.41380000  0.26160000  0.06990000  1.0 0.1267944473
H  H5  1  0.74350000  0.23890000  0.87000000  1.0 0.1267944473
H  H6  1  0.75650000  0.73890000  0.13000000  1.0 0.1267944473
H  H7  1  0.25650000  0.76110000  0.13000000  1.0 0.1267944473
H  H8  1  0.24350000  0.26110000  0.87000000  1.0 0.1267944473
H  H9  1  0.63890000  0.51050000  0.91640000  1.0 0.1267944473
H  H10  1  0.86110000  0.01050000  0.08360000  1.0 0.1267944473
H  H11  1  0.36110000  0.48950000  0.08360000  1.0 0.1267944473
H  H12  1  0.13890000  0.98950000  0.91640000  1.0 0.1267944473
H  H13  1  0.80370000  0.51000000  0.11880000  1.0 0.1267944473
H  H14  1  0.69630000  0.01000000  0.88120000  1.0 0.1267944473
H  H15  1  0.19630000  0.49000000  0.88120000  1.0 0.1267944473
H  H16  1  0.30370000  0.99000000  0.11880000  1.0 0.1267944473
H  H17  1  0.82850000  0.20590000  0.54530000  1.0 0.3798873655
H  H18  1  0.67150000  0.70590000  0.45470000  1.0 0.3798873655
H  H19  1  0.17150000  0.79410000  0.45470000  1.0 0.3798873655
H  H20  1  0.32850000  0.29410000  0.54530000  1.0 0.3798873655
H  H21  1  0.77370000  0.20870000  0.41060000  1.0 0.3728134838
H  H22  1  0.72630000  0.70870000  0.58940000  1.0 0.3728134838
H  H23  1  0.22630000  0.79130000  0.58940000  1.0 0.3728134838
H  H24  1  0.27370000  0.29130000  0.41060000  1.0 0.3728134838
H  H25  1  0.23150000  0.45690000  0.43760000  1.0 0.3798873655
H  H26  1  0.26850000  0.95690000  0.56240000  1.0 0.3798873655
H  H27  1  0.76850000  0.54310000  0.56240000  1.0 0.3798873655
H  H28  1  0.73150000  0.04310000  0.43760000  1.0 0.3798873655
H  H29  1  0.28080000  0.45700000  0.57280000  1.0 0.3798873655
H  H30  1  0.21920000  0.95700000  0.42720000  1.0 0.3798873655
H  H31  1  0.71920000  0.54300000  0.42720000  1.0 0.3798873655
H  H32  1  0.78080000  0.04300000  0.57280000  1.0 0.3798873655
C  C1  1  0.90760000  0.29894000  0.10280000  1.0 -0.0128193903
C  C2  1  0.59240000  0.79894000  0.89720000  1.0 -0.0128193903
C  C3  1  0.09240000  0.70106000  0.89720000  1.0 -0.0128193903
C  C4  1  0.40760000  0.20106000  0.10280000  1.0 -0.0128193903
C  C5  1  0.87040000  0.26291000  0.03430000  1.0 -0.1000130372
C  C6  1  0.62960000  0.76291000  0.96570000  1.0 -0.1000130372
C  C7  1  0.12960000  0.73709000  0.96570000  1.0 -0.1000130372
C  C8  1  0.37040000  0.23709000  0.03430000  1.0 -0.1000130372
C  C9  1  0.76940000  0.26333000  0.91380000  1.0 -0.1000130372
C  C10  1  0.73060000  0.76333000  0.08620000  1.0 -0.1000130372
C  C11  1  0.23060000  0.73667000  0.08620000  1.0 -0.1000130372
C  C12  1  0.26940000  0.23667000  0.91380000  1.0 -0.1000130372
C  C13  1  0.70580000  0.29971000  0.85700000  1.0 -0.0128193903
C  C14  1  0.79420000  0.79971000  0.14300000  1.0 -0.0128193903
C  C15  1  0.29420000  0.70029000  0.14300000  1.0 -0.0128193903
C  C16  1  0.20580000  0.20029000  0.85700000  1.0 -0.0128193903
C  C17  1  0.74670000  0.33628000  0.92330000  1.0 -0.0512494286
C  C18  1  0.75330000  0.83628000  0.07670000  1.0 -0.0512494286
C  C19  1  0.25330000  0.66372000  0.07670000  1.0 -0.0512494286
C  C20  1  0.24670000  0.16372000  0.92330000  1.0 -0.0512494286
C  C21  1  0.70140000  0.37567000  0.85860000  1.0 0.3417584655
C  C22  1  0.79860000  0.87567000  0.14140000  1.0 0.3417584655
C  C23  1  0.29860000  0.62433000  0.14140000  1.0 0.3417584655
C  C24  1  0.20140000  0.12433000  0.85860000  1.0 0.3417584655
C  C25  1  0.71870000  0.41366000  0.93630000  1.0 -0.0512494286
C  C26  1  0.78130000  0.91366000  0.06370000  1.0 -0.0512494286
C  C27  1  0.28130000  0.58634000  0.06370000  1.0 -0.0512494286
C  C28  1  0.21870000  0.08634000  0.93630000  1.0 -0.0512494286
C  C29  1  0.65150000  0.45018000  0.88150000  1.0 -0.0128193903
C  C30  1  0.84850000  0.95018000  0.11850000  1.0 -0.0128193903
C  C31  1  0.34850000  0.54982000  0.11850000  1.0 -0.0128193903
C  C32  1  0.15150000  0.04982000  0.88150000  1.0 -0.0128193903
C  C33  1  0.68380000  0.48603000  0.95170000  1.0 -0.1000130372
C  C34  1  0.81620000  0.98603000  0.04830000  1.0 -0.1000130372
C  C35  1  0.31620000  0.51397000  0.04830000  1.0 -0.1000130372
C  C36  1  0.18380000  0.01397000  0.95170000  1.0 -0.1000130372
C  C37  1  0.78210000  0.48570000  0.07370000  1.0 -0.1000130372
C  C38  1  0.71790000  0.98570000  0.92630000  1.0 -0.1000130372
C  C39  1  0.21790000  0.51430000  0.92630000  1.0 -0.1000130372
C  C40  1  0.28210000  0.01430000  0.07370000  1.0 -0.1000130372
C  C41  1  0.84860000  0.44957000  0.12910000  1.0 -0.0128193903
C  C42  1  0.65140000  0.94957000  0.87090000  1.0 -0.0128193903
C  C43  1  0.15140000  0.55043000  0.87090000  1.0 -0.0128193903
C  C44  1  0.34860000  0.05043000  0.12910000  1.0 -0.0128193903
C  C45  1  0.81430000  0.41313000  0.06140000  1.0 -0.0512494286
C  C46  1  0.68570000  0.91313000  0.93860000  1.0 -0.0512494286
C  C47  1  0.18570000  0.58687000  0.93860000  1.0 -0.0512494286
C  C48  1  0.31430000  0.08687000  0.06140000  1.0 -0.0512494286
C  C49  1  0.87070000  0.37384000  0.12500000  1.0 0.3510414418
C  C50  1  0.62930000  0.87384000  0.87500000  1.0 0.3510414418
C  C51  1  0.12930000  0.62616000  0.87500000  1.0 0.3510414418
C  C52  1  0.37070000  0.12616000  0.12500000  1.0 0.3510414418
C  C53  1  0.84440000  0.33577000  0.04800000  1.0 -0.0574421649
C  C54  1  0.65560000  0.83577000  0.95200000  1.0 -0.0574421649
C  C55  1  0.15560000  0.66423000  0.95200000  1.0 -0.0574421649
C  C56  1  0.34440000  0.16423000  0.04800000  1.0 -0.0574421649
C  C57  1  0.01960000  0.29600000  0.23390000  1.0 0.5785169757
C  C58  1  0.48040000  0.79600000  0.76610000  1.0 0.5785169757
C  C59  1  0.98040000  0.70400000  0.76610000  1.0 0.5785169757
C  C60  1  0.51960000  0.20400000  0.23390000  1.0 0.5785169757
C  C61  1  0.59070000  0.29742000  0.72700000  1.0 0.5785169757
C  C62  1  0.90930000  0.79742000  0.27300000  1.0 0.5785169757
C  C63  1  0.40930000  0.70258000  0.27300000  1.0 0.5785169757
C  C64  1  0.09070000  0.20258000  0.72700000  1.0 0.5785169757
C  C65  1  0.54120000  0.45319000  0.75030000  1.0 0.5785169757
C  C66  1  0.95880000  0.95319000  0.24970000  1.0 0.5785169757
C  C67  1  0.45880000  0.54681000  0.24970000  1.0 0.5785169757
C  C68  1  0.04120000  0.04681000  0.75030000  1.0 0.5785169757
C  C69  1  0.96420000  0.45291000  0.25820000  1.0 0.5724000391
C  C70  1  0.53580000  0.95291000  0.74180000  1.0 0.5724000391
C  C71  1  0.03580000  0.54709000  0.74180000  1.0 0.5724000391
C  C72  1  0.46420000  0.04709000  0.25820000  1.0 0.5724000391
O  O1  1  0.66000000  0.37771000  0.74160000  1.0 -0.2821283507
O  O2  1  0.84000000  0.87771000  0.25840000  1.0 -0.2821283507
O  O3  1  0.34000000  0.62229000  0.25840000  1.0 -0.2821283507
O  O4  1  0.16000000  0.12229000  0.74160000  1.0 -0.2821283507
O  O5  1  0.92880000  0.37254000  0.23910000  1.0 -0.2717705015
O  O6  1  0.57120000  0.87254000  0.76090000  1.0 -0.2717705015
O  O7  1  0.07120000  0.62746000  0.76090000  1.0 -0.2717705015
O  O8  1  0.42880000  0.12746000  0.23910000  1.0 -0.2717705015
O  O9  1  0.94400000  0.28196000  0.32240000  1.0 -0.5895373924
O  O10  1  0.55600000  0.78196000  0.67760000  1.0 -0.5895373924
O  O11  1  0.05600000  0.71804000  0.67760000  1.0 -0.5895373924
O  O12  1  0.44400000  0.21804000  0.32240000  1.0 -0.5895373924
O  O13  1  0.17380000  0.30451000  0.24640000  1.0 -0.512526432
O  O14  1  0.32620000  0.80451000  0.75360000  1.0 -0.512526432
O  O15  1  0.82620000  0.69549000  0.75360000  1.0 -0.512526432
O  O16  1  0.67380000  0.19549000  0.24640000  1.0 -0.512526432
O  O17  1  0.66260000  0.28255000  0.63790000  1.0 -0.5895373924
O  O18  1  0.83740000  0.78255000  0.36210000  1.0 -0.5895373924
O  O19  1  0.33740000  0.71745000  0.36210000  1.0 -0.5895373924
O  O20  1  0.16260000  0.21745000  0.63790000  1.0 -0.5895373924
O  O21  1  0.43720000  0.30666000  0.71520000  1.0 -0.512526432
O  O22  1  0.06280000  0.80666000  0.28480000  1.0 -0.512526432
O  O23  1  0.56280000  0.69334000  0.28480000  1.0 -0.512526432
O  O24  1  0.93720000  0.19334000  0.71520000  1.0 -0.512526432
O  O25  1  0.39080000  0.44059000  0.73460000  1.0 -0.5211277548
O  O26  1  0.10920000  0.94059000  0.26540000  1.0 -0.5211277548
O  O27  1  0.60920000  0.55941000  0.26540000  1.0 -0.5211277548
O  O28  1  0.89080000  0.05941000  0.73460000  1.0 -0.5211277548
O  O29  1  0.61110000  0.47179000  0.66610000  1.0 -0.5895373924
O  O30  1  0.88890000  0.97179000  0.33390000  1.0 -0.5895373924
O  O31  1  0.38890000  0.52821000  0.33390000  1.0 -0.5953536573
O  O32  1  0.11110000  0.02821000  0.66610000  1.0 -0.5895373924
O  O33  1  0.11990000  0.44847000  0.26580000  1.0 -0.5018624905
O  O34  1  0.38010000  0.94847000  0.73420000  1.0 -0.5018624905
O  O35  1  0.88010000  0.55153000  0.73420000  1.0 -0.5018624905
O  O36  1  0.61990000  0.05153000  0.26580000  1.0 -0.5018624905
O  O37  1  0.89050000  0.46405000  0.35180000  1.0 -0.5895373924
O  O38  1  0.60950000  0.96405000  0.64820000  1.0 -0.5895373924
O  O39  1  0.10950000  0.53595000  0.64820000  1.0 -0.5895373924
O  O40  1  0.39050000  0.03595000  0.35180000  1.0 -0.5895373924
O  O41  1  0.80370000  0.22158000  0.48080000  1.0 -0.7147212469
O  O42  1  0.69630000  0.72158000  0.51920000  1.0 -0.7153794113
O  O43  1  0.19630000  0.77842000  0.51920000  1.0 -0.7147212469
O  O44  1  0.30370000  0.27842000  0.48080000  1.0 -0.7147212469
O  O45  1  0.25240000  0.47135000  0.50540000  1.0 -0.7147212469
O  O46  1  0.24760000  0.97135000  0.49460000  1.0 -0.7153794113
O  O47  1  0.74760000  0.52865000  0.49460000  1.0 -0.7147212469
O  O48  1  0.75240000  0.02865000  0.50540000  1.0 -0.7147212469
