# DDEC6 charges by PACMAN v1.1 (https://github.com/mtap-research/PACMAN-charge/)
data_DIDBIE_ASR_pacman
_symmetry_space_group_name_H-M   'P 1'
_cell_length_a   12.67420000
_cell_length_b   12.67420000
_cell_length_c   12.67420000
_cell_angle_alpha   60.00000000
_cell_angle_beta   60.00000000
_cell_angle_gamma   60.00000000
_symmetry_Int_Tables_number   1
_chemical_formula_structural   Zr3(C3O4)4
_chemical_formula_sum   'Zr6 C24 O32'
_cell_volume   1439.61601831
_cell_formula_units_Z   2
loop_
 _symmetry_equiv_pos_site_id
 _symmetry_equiv_pos_as_xyz
  1  'x, y, z'
loop_
 _atom_site_type_symbol
 _atom_site_label
 _atom_site_symmetry_multiplicity
 _atom_site_fract_x
 _atom_site_fract_y
 _atom_site_fract_z
 _atom_site_occupancy
 _atom_site_charge
Zr  Zr1  1  0.13669000  0.86331000  0.86331000  1.0 2.288606697
Zr  Zr2  1  0.86331000  0.13669000  0.13669000  1.0 2.288606697
Zr  Zr3  1  0.86331000  0.13669000  0.86331000  1.0 2.288606697
Zr  Zr4  1  0.13669000  0.86331000  0.13669000  1.0 2.288606697
Zr  Zr5  1  0.86331000  0.86331000  0.13669000  1.0 2.288606697
Zr  Zr6  1  0.13669000  0.13669000  0.86331000  1.0 2.288606697
C  C1  1  0.00000000  0.00000000  0.66276000  1.0 0.6571035273
C  C2  1  0.00000000  0.00000000  0.54694000  1.0 -0.0387501124
C  C3  1  0.00000000  0.00000000  0.33724000  1.0 0.6571035273
C  C4  1  0.00000000  0.00000000  0.45306000  1.0 -0.0387501124
C  C5  1  0.66276000  0.33724000  0.00000000  1.0 0.6571035273
C  C6  1  0.54694000  0.45306000  0.00000000  1.0 -0.0387501124
C  C7  1  0.33724000  0.66276000  0.00000000  1.0 0.6571035273
C  C8  1  0.45306000  0.54694000  0.00000000  1.0 -0.0387501124
C  C9  1  0.66276000  0.00000000  0.00000000  1.0 0.6571035273
C  C10  1  0.54694000  0.00000000  0.00000000  1.0 -0.0387501124
C  C11  1  0.33724000  0.00000000  0.00000000  1.0 0.6571035273
C  C12  1  0.45306000  0.00000000  0.00000000  1.0 -0.0387501124
C  C13  1  0.00000000  0.66276000  0.33724000  1.0 0.6571035273
C  C14  1  0.00000000  0.54694000  0.45306000  1.0 -0.0387501124
C  C15  1  0.00000000  0.33724000  0.66276000  1.0 0.6571035273
C  C16  1  0.00000000  0.45306000  0.54694000  1.0 -0.0387501124
C  C17  1  0.00000000  0.66276000  0.00000000  1.0 0.6571035273
C  C18  1  0.00000000  0.54694000  0.00000000  1.0 -0.0387501124
C  C19  1  0.00000000  0.33724000  0.00000000  1.0 0.6571035273
C  C20  1  0.00000000  0.45306000  0.00000000  1.0 -0.0387501124
C  C21  1  0.33724000  0.00000000  0.66276000  1.0 0.6571035273
C  C22  1  0.45306000  0.00000000  0.54694000  1.0 -0.0387501124
C  C23  1  0.66276000  0.00000000  0.33724000  1.0 0.6571035273
C  C24  1  0.54694000  0.00000000  0.45306000  1.0 -0.0387501124
O  O1  1  0.07150000  0.07150000  0.78550000  1.0 -1.0430510782
O  O2  1  0.07150000  0.07150000  0.07150000  1.0 -1.0489364329
O  O3  1  0.78550000  0.07150000  0.07150000  1.0 -1.0430510782
O  O4  1  0.07150000  0.78550000  0.07150000  1.0 -1.0430510782
O  O5  1  0.92850000  0.92850000  0.92850000  1.0 -1.0430510782
O  O6  1  0.92850000  0.92850000  0.21450000  1.0 -1.0489364329
O  O7  1  0.21450000  0.92850000  0.92850000  1.0 -1.0430510782
O  O8  1  0.92850000  0.21450000  0.92850000  1.0 -1.0489364329
O  O9  1  0.08970000  0.91030000  0.70068000  1.0 -0.5329090196
O  O10  1  0.91030000  0.08970000  0.29932000  1.0 -0.5329090196
O  O11  1  0.70068000  0.29932000  0.08970000  1.0 -0.5329090196
O  O12  1  0.29932000  0.70068000  0.91030000  1.0 -0.5329090196
O  O13  1  0.70068000  0.08970000  0.91030000  1.0 -0.5329090196
O  O14  1  0.29932000  0.91030000  0.08970000  1.0 -0.5329090196
O  O15  1  0.08970000  0.70068000  0.29932000  1.0 -0.5329090196
O  O16  1  0.91030000  0.29932000  0.70068000  1.0 -0.5329090196
O  O17  1  0.91030000  0.70068000  0.08970000  1.0 -0.5329090196
O  O18  1  0.08970000  0.29932000  0.91030000  1.0 -0.5329090196
O  O19  1  0.29932000  0.08970000  0.70068000  1.0 -0.5329090196
O  O20  1  0.70068000  0.91030000  0.29932000  1.0 -0.5329090196
O  O21  1  0.91030000  0.08970000  0.70068000  1.0 -0.5329090196
O  O22  1  0.08970000  0.91030000  0.29932000  1.0 -0.5329090196
O  O23  1  0.29932000  0.70068000  0.08970000  1.0 -0.5329090196
O  O24  1  0.70068000  0.29932000  0.91030000  1.0 -0.5329090196
O  O25  1  0.29932000  0.91030000  0.70068000  1.0 -0.5329090196
O  O26  1  0.70068000  0.08970000  0.29932000  1.0 -0.5329090196
O  O27  1  0.91030000  0.29932000  0.08970000  1.0 -0.5329090196
O  O28  1  0.08970000  0.70068000  0.91030000  1.0 -0.5329090196
O  O29  1  0.08970000  0.29932000  0.70068000  1.0 -0.5329090196
O  O30  1  0.91030000  0.70068000  0.29932000  1.0 -0.5329090196
O  O31  1  0.70068000  0.91030000  0.08970000  1.0 -0.5329090196
O  O32  1  0.29932000  0.08970000  0.91030000  1.0 -0.5329090196
