# DDEC6 charges by PACMAN v1.1 (https://github.com/mtap-research/PACMAN-charge/)
data_DIFMAJ_FSR_pacman
_chemical_formula_sum              "O18 C28 Cl4 N8 Dy2"
_cell_length_a       11.9237
_cell_length_b       14.0496
_cell_length_c       12.2263
_cell_angle_alpha    90
_cell_angle_beta     90.254
_cell_angle_gamma    90

_symmetry_space_group_name_H-M    "P 1"
_symmetry_Int_Tables_number       1

loop_
  _symmetry_equiv_pos_as_xyz
  'x, y, z'

loop_
  _atom_site_type_symbol
  _atom_site_label
  _atom_site_symmetry_multiplicity
  _atom_site_fract_x
  _atom_site_fract_y
  _atom_site_fract_z
  _atom_site_occupancy
 _atom_site_charge
O   O1        1.0  0.59680  0.46120  0.69330  1.0000 -0.4891765453
O   O2        1.0  0.65340  0.61740  0.59080  1.0000 -0.4555995576
O   O3        1.0  0.80610  0.46010  0.60020  1.0000 -0.4891765453
O   O4        1.0  0.91300  0.61610  0.65420  1.0000 -0.4555995576
C   C1        1.0  0.54930  0.47470  0.60390  1.0000 0.2888343222
C   C2        1.0  0.58240  0.56700  0.54340  1.0000 0.3020097352
C   C3        1.0  0.89580  0.47470  0.55010  1.0000 0.2782272287
C   C4        1.0  0.95870  0.56580  0.58260  1.0000 0.3127420284
C   C5        1.0  0.46770  0.41460  0.55690  1.0000 -0.259121513
C   C6        1.0  0.93930  0.41470  0.46930  1.0000 -0.259121513
C   C7        1.0  0.43010  0.31790  0.62940  1.0000 0.3356369324
C   C8        1.0  0.86570  0.31810  0.43060  1.0000 0.3230807669
Cl  Cl1       1.0  0.56990  0.68210  0.37060  1.0000 0.4051321335
Cl  Cl2       1.0  0.13430  0.68190  0.56940  1.0000 0.3970592506
N   N1        1.0  0.42400  0.25300  0.65900  1.0000 -0.0490227379
N   N2        1.0  0.83400  0.25300  0.42600  1.0000 -0.0490227379
O   O5        1.0  0.90320  0.46120  0.80670  1.0000 -0.4891765453
O   O6        1.0  0.84660  0.61740  0.90920  1.0000 -0.4555995576
O   O7        1.0  0.69390  0.46010  0.89980  1.0000 -0.4891765453
O   O8        1.0  0.58700  0.61610  0.84580  1.0000 -0.4555995576
C   C9        1.0  0.95070  0.47470  0.89610  1.0000 0.2888343222
C   C10       1.0  0.91760  0.56700  0.95660  1.0000 0.3020097352
C   C11       1.0  0.60420  0.47470  0.94990  1.0000 0.2782272287
C   C12       1.0  0.54130  0.56580  0.91740  1.0000 0.3127420284
C   C13       1.0  0.03230  0.41460  0.94310  1.0000 -0.259121513
C   C14       1.0  0.56070  0.41470  0.03070  1.0000 -0.259121513
C   C15       1.0  0.06990  0.31790  0.87060  1.0000 0.3356369324
C   C16       1.0  0.63430  0.31810  0.06940  1.0000 0.3251088448
Cl  Cl3       1.0  0.93010  0.68210  0.12940  1.0000 0.4051321335
Cl  Cl4       1.0  0.36570  0.68190  0.93060  1.0000 0.3970592506
N   N3        1.0  0.07600  0.25300  0.84100  1.0000 -0.0490227379
N   N4        1.0  0.66600  0.25300  0.07400  1.0000 -0.0490227379
O   O9        1.0  0.40320  0.53880  0.30670  1.0000 -0.4682315328
O   O10       1.0  0.34660  0.38260  0.40920  1.0000 -0.4682315328
O   O11       1.0  0.19390  0.53990  0.39980  1.0000 -0.4682315328
O   O12       1.0  0.08700  0.38390  0.34580  1.0000 -0.4682315328
C   C17       1.0  0.45070  0.52530  0.39610  1.0000 0.3127420284
C   C18       1.0  0.41760  0.43300  0.45660  1.0000 0.2782272287
C   C19       1.0  0.10420  0.52530  0.44990  1.0000 0.3020097352
C   C20       1.0  0.04130  0.43420  0.41740  1.0000 0.2888343222
C   C21       1.0  0.53230  0.58540  0.44310  1.0000 -0.259121513
C   C22       1.0  0.06070  0.58530  0.53070  1.0000 -0.259121513
N   N5        1.0  0.57600  0.74700  0.34100  1.0000 -0.2749533169
N   N6        1.0  0.16600  0.74700  0.57400  1.0000 -0.2772586308
O   O13       1.0  0.09680  0.53880  0.19330  1.0000 -0.4682315328
O   O14       1.0  0.15340  0.38260  0.09080  1.0000 -0.4682315328
O   O15       1.0  0.30610  0.53990  0.10020  1.0000 -0.4682315328
O   O16       1.0  0.41300  0.38390  0.15420  1.0000 -0.4682315328
C   C23       1.0  0.04930  0.52530  0.10390  1.0000 0.3127420284
C   C24       1.0  0.08240  0.43300  0.04340  1.0000 0.2782272287
C   C25       1.0  0.39580  0.52530  0.05010  1.0000 0.3020097352
C   C26       1.0  0.45870  0.43420  0.08260  1.0000 0.2888343222
C   C27       1.0  0.96770  0.58540  0.05690  1.0000 -0.259121513
C   C28       1.0  0.43930  0.58530  0.96930  1.0000 -0.259121513
N   N7        1.0  0.92400  0.74700  0.15900  1.0000 -0.2772586308
N   N8        1.0  0.33400  0.74700  0.92600  1.0000 -0.2772586308
Dy  Dy1       1.0  0.75000  0.56011  0.75000  1.0000 1.9219668694
O   O17       1.0  0.75000  0.73350  0.75000  1.0000 -0.2772586308
Dy  Dy2       1.0  0.25000  0.43989  0.25000  1.0000 1.9219668694
O   O18       1.0  0.25000  0.26650  0.25000  1.0000 -0.3170256726
  Cl  Cl5       1.0  0.43010  0.31790  0.62940  1.0000
  Cl  Cl6       1.0  0.86570  0.31810  0.43060  1.0000
  C   C29       1.0  0.56990  0.68210  0.37060  1.0000
  C   C30       1.0  0.13430  0.68190  0.56940  1.0000
  Cl  Cl7       1.0  0.06990  0.31790  0.87060  1.0000
  Cl  Cl8       1.0  0.63430  0.31810  0.06940  1.0000
  C   C31       1.0  0.93010  0.68210  0.12940  1.0000
  C   C32       1.0  0.36570  0.68190  0.93060  1.0000
