# DDEC6 charges by PACMAN v1.1 (https://github.com/mtap-research/PACMAN-charge/)
data_DIGDUV_ASR_pacman
_symmetry_space_group_name_H-M   'P 1'
_cell_length_a   7.87240000
_cell_length_b   24.08700000
_cell_length_c   18.59450000
_cell_angle_alpha   90.00000000
_cell_angle_beta   112.48600000
_cell_angle_gamma   90.00000000
_symmetry_Int_Tables_number   1
_chemical_formula_structural   ZnH33C43N4O5
_chemical_formula_sum   'Zn4 H132 C172 N16 O20'
_cell_volume   3257.86929436
_cell_formula_units_Z   4
loop_
 _symmetry_equiv_pos_site_id
 _symmetry_equiv_pos_as_xyz
  1  'x, y, z'
loop_
 _atom_site_type_symbol
 _atom_site_label
 _atom_site_symmetry_multiplicity
 _atom_site_fract_x
 _atom_site_fract_y
 _atom_site_fract_z
 _atom_site_occupancy
 _atom_site_charge
Zn  Zn1  1  0.28107000  0.79432000  0.71498000  1.0 0.7523139576
Zn  Zn2  1  0.71893000  0.29432000  0.78502000  1.0 0.7523139576
Zn  Zn3  1  0.71893000  0.20568000  0.28502000  1.0 0.7523139576
Zn  Zn4  1  0.28107000  0.70568000  0.21498000  1.0 0.7523139576
H  H1  1  0.79210000  0.85680000  0.60930000  1.0 0.1369173648
H  H2  1  0.35840000  0.75530000  0.50180000  1.0 0.1215424026
H  H3  1  0.65320000  0.70780000  0.74060000  1.0 0.1369173648
H  H4  1  0.95540000  0.73030000  0.75050000  1.0 0.1215424026
H  H5  1  0.43640000  0.65250000  0.76450000  1.0 0.1215424026
H  H6  1  0.69930000  0.79880000  0.39330000  1.0 0.1294332864
H  H7  1  0.98990000  0.37010000  0.73610000  1.0 0.1215424026
H  H8  1  0.06370000  0.72910000  0.55890000  1.0 0.1369173648
H  H9  1  0.79800000  0.66700000  0.53570000  1.0 0.1369173648
H  H10  1  0.70340000  0.59110000  0.59470000  1.0 0.1294332864
H  H11  1  0.49930000  0.53350000  0.62300000  1.0 0.1082141446
H  H12  1  0.28150000  0.86510000  0.42700000  1.0 0.0993749226
H  H13  1  0.88640000  0.88130000  0.39940000  1.0 0.0908145795
H  H14  1  0.04910000  0.82790000  0.44360000  1.0 0.0993749226
H  H15  1  0.51310000  0.93120000  0.44700000  1.0 0.0908145795
H  H16  1  0.15880000  0.92280000  0.56950000  1.0 0.0908145795
H  H17  1  0.40690000  0.98360000  0.59520000  1.0 0.0908145795
H  H18  1  0.94610000  0.55440000  0.75770000  1.0 0.1082141446
H  H19  1  0.14800000  0.61250000  0.72760000  1.0 0.1082141446
H  H20  1  0.56430000  0.41680000  0.77770000  1.0 0.0993749226
H  H21  1  0.72080000  0.50200000  0.76080000  1.0 0.0993749226
H  H22  1  0.12950000  0.42860000  0.67610000  1.0 0.0799150503
H  H23  1  0.35020000  0.48280000  0.65830000  1.0 0.0799150503
H  H24  1  0.43730000  0.47810000  0.70820000  1.0 0.0799150503
H  H25  1  0.23550000  0.42000000  0.73830000  1.0 0.0908145795
H  H26  1  0.70930000  0.41140000  0.86470000  1.0 0.0799150503
H  H27  1  0.88570000  0.49310000  0.85260000  1.0 0.1215424026
H  H28  1  0.21300000  0.87320000  0.37110000  1.0 0.0908145795
H  H29  1  0.46110000  0.93400000  0.39680000  1.0 0.0799150503
H  H30  1  0.97690000  0.97640000  0.48540000  1.0 0.0685674856
H  H31  1  0.21710000  0.04190000  0.51570000  1.0 0.0993749226
H  H32  1  0.99300000  0.82370000  0.42810000  1.0 0.0685674856
H  H33  1  0.87160000  0.86440000  0.39450000  1.0 0.0685674856
H  H34  1  0.20790000  0.35680000  0.89070000  1.0 0.1369173648
H  H35  1  0.64160000  0.25530000  0.99820000  1.0 0.1215424026
H  H36  1  0.34680000  0.20780000  0.75940000  1.0 0.1369173648
H  H37  1  0.04460000  0.23030000  0.74950000  1.0 0.1215424026
H  H38  1  0.56360000  0.15250000  0.73550000  1.0 0.1215424026
H  H39  1  0.30070000  0.29880000  0.10670000  1.0 0.1294332864
H  H40  1  0.01010000  0.87010000  0.76390000  1.0 0.1215424026
H  H41  1  0.93630000  0.22910000  0.94110000  1.0 0.1369173648
H  H42  1  0.20200000  0.16700000  0.96430000  1.0 0.1369173648
H  H43  1  0.29660000  0.09110000  0.90530000  1.0 0.1294332864
H  H44  1  0.50070000  0.03350000  0.87700000  1.0 0.1082141446
H  H45  1  0.71850000  0.36510000  0.07300000  1.0 0.0993749226
H  H46  1  0.11360000  0.38130000  0.10060000  1.0 0.0908145795
H  H47  1  0.95090000  0.32790000  0.05640000  1.0 0.0993749226
H  H48  1  0.48690000  0.43120000  0.05300000  1.0 0.0908145795
H  H49  1  0.84120000  0.42280000  0.93050000  1.0 0.0908145795
H  H50  1  0.59310000  0.48360000  0.90480000  1.0 0.0908145795
H  H51  1  0.05390000  0.05440000  0.74230000  1.0 0.1082141446
H  H52  1  0.85200000  0.11250000  0.77240000  1.0 0.1082141446
H  H53  1  0.43570000  0.91680000  0.72230000  1.0 0.0993749226
H  H54  1  0.27920000  0.00200000  0.73920000  1.0 0.0993749226
H  H55  1  0.87050000  0.92860000  0.82390000  1.0 0.0799150503
H  H56  1  0.64980000  0.98280000  0.84170000  1.0 0.0799150503
H  H57  1  0.56270000  0.97810000  0.79180000  1.0 0.0799150503
H  H58  1  0.76450000  0.92000000  0.76170000  1.0 0.0908145795
H  H59  1  0.29070000  0.91140000  0.63530000  1.0 0.0799150503
H  H60  1  0.11430000  0.99310000  0.64740000  1.0 0.1215424026
H  H61  1  0.78700000  0.37320000  0.12890000  1.0 0.0908145795
H  H62  1  0.53890000  0.43400000  0.10320000  1.0 0.0799150503
H  H63  1  0.02310000  0.47640000  0.01460000  1.0 0.0685674856
H  H64  1  0.78290000  0.54190000  0.98430000  1.0 0.0993749226
H  H65  1  0.00700000  0.32370000  0.07190000  1.0 0.0685674856
H  H66  1  0.12840000  0.36440000  0.10550000  1.0 0.0685674856
H  H67  1  0.20790000  0.14320000  0.39070000  1.0 0.1369173648
H  H68  1  0.64160000  0.24470000  0.49820000  1.0 0.1215424026
H  H69  1  0.34680000  0.29220000  0.25940000  1.0 0.1369173648
H  H70  1  0.04460000  0.26970000  0.24950000  1.0 0.1215424026
H  H71  1  0.56360000  0.34750000  0.23550000  1.0 0.1215424026
H  H72  1  0.30070000  0.20120000  0.60670000  1.0 0.1294332864
H  H73  1  0.01010000  0.62990000  0.26390000  1.0 0.1215424026
H  H74  1  0.93630000  0.27090000  0.44110000  1.0 0.1369173648
H  H75  1  0.20200000  0.33300000  0.46430000  1.0 0.1369173648
H  H76  1  0.29660000  0.40890000  0.40530000  1.0 0.1294332864
H  H77  1  0.50070000  0.46650000  0.37700000  1.0 0.1082141446
H  H78  1  0.71850000  0.13490000  0.57300000  1.0 0.0993749226
H  H79  1  0.11360000  0.11870000  0.60060000  1.0 0.0908145795
H  H80  1  0.95090000  0.17210000  0.55640000  1.0 0.0993749226
H  H81  1  0.48690000  0.06880000  0.55300000  1.0 0.0908145795
H  H82  1  0.84120000  0.07720000  0.43050000  1.0 0.0908145795
H  H83  1  0.59310000  0.01640000  0.40480000  1.0 0.0908145795
H  H84  1  0.05390000  0.44560000  0.24230000  1.0 0.1082141446
H  H85  1  0.85200000  0.38750000  0.27240000  1.0 0.1082141446
H  H86  1  0.43570000  0.58320000  0.22230000  1.0 0.0993749226
H  H87  1  0.27920000  0.49800000  0.23920000  1.0 0.0993749226
H  H88  1  0.87050000  0.57140000  0.32390000  1.0 0.0799150503
H  H89  1  0.64980000  0.51720000  0.34170000  1.0 0.0799150503
H  H90  1  0.56270000  0.52190000  0.29180000  1.0 0.0799150503
H  H91  1  0.76450000  0.58000000  0.26170000  1.0 0.0908145795
H  H92  1  0.29070000  0.58860000  0.13530000  1.0 0.0799150503
H  H93  1  0.11430000  0.50690000  0.14740000  1.0 0.1215424026
H  H94  1  0.78700000  0.12680000  0.62890000  1.0 0.0908145795
H  H95  1  0.53890000  0.06600000  0.60320000  1.0 0.0799150503
H  H96  1  0.02310000  0.02360000  0.51460000  1.0 0.0685674856
H  H97  1  0.78290000  0.95810000  0.48430000  1.0 0.0993749226
H  H98  1  0.00700000  0.17630000  0.57190000  1.0 0.0685674856
H  H99  1  0.12840000  0.13560000  0.60550000  1.0 0.0685674856
H  H100  1  0.79210000  0.64320000  0.10930000  1.0 0.1369173648
H  H101  1  0.35840000  0.74470000  0.00180000  1.0 0.1215424026
H  H102  1  0.65320000  0.79220000  0.24060000  1.0 0.1369173648
H  H103  1  0.95540000  0.76970000  0.25050000  1.0 0.1215424026
H  H104  1  0.43640000  0.84750000  0.26450000  1.0 0.1215424026
H  H105  1  0.69930000  0.70120000  0.89330000  1.0 0.1294332864
H  H106  1  0.98990000  0.12990000  0.23610000  1.0 0.1215424026
H  H107  1  0.06370000  0.77090000  0.05890000  1.0 0.1369173648
H  H108  1  0.79800000  0.83300000  0.03570000  1.0 0.1369173648
H  H109  1  0.70340000  0.90890000  0.09470000  1.0 0.1294332864
H  H110  1  0.49930000  0.96650000  0.12300000  1.0 0.1082141446
H  H111  1  0.28150000  0.63490000  0.92700000  1.0 0.0993749226
H  H112  1  0.88640000  0.61870000  0.89940000  1.0 0.0908145795
H  H113  1  0.04910000  0.67210000  0.94360000  1.0 0.0993749226
H  H114  1  0.51310000  0.56880000  0.94700000  1.0 0.0908145795
H  H115  1  0.15880000  0.57720000  0.06950000  1.0 0.0908145795
H  H116  1  0.40690000  0.51640000  0.09520000  1.0 0.0908145795
H  H117  1  0.94610000  0.94560000  0.25770000  1.0 0.1082141446
H  H118  1  0.14800000  0.88750000  0.22760000  1.0 0.1082141446
H  H119  1  0.56430000  0.08320000  0.27770000  1.0 0.0993749226
H  H120  1  0.72080000  0.99800000  0.26080000  1.0 0.0993749226
H  H121  1  0.12950000  0.07140000  0.17610000  1.0 0.0799150503
H  H122  1  0.35020000  0.01720000  0.15830000  1.0 0.0799150503
H  H123  1  0.43730000  0.02190000  0.20820000  1.0 0.0799150503
H  H124  1  0.23550000  0.08000000  0.23830000  1.0 0.0908145795
H  H125  1  0.70930000  0.08860000  0.36470000  1.0 0.0799150503
H  H126  1  0.88570000  0.00690000  0.35260000  1.0 0.1215424026
H  H127  1  0.21300000  0.62680000  0.87110000  1.0 0.0908145795
H  H128  1  0.46110000  0.56600000  0.89680000  1.0 0.0799150503
H  H129  1  0.97690000  0.52360000  0.98540000  1.0 0.0685674856
H  H130  1  0.21710000  0.45810000  0.01570000  1.0 0.0993749226
H  H131  1  0.99300000  0.67630000  0.92810000  1.0 0.0685674856
H  H132  1  0.87160000  0.63560000  0.89450000  1.0 0.0685674856
C  C1  1  0.39393000  0.74142000  0.36573000  1.0 0.5463732044
C  C2  1  0.52121000  0.80935000  0.63711000  1.0 0.5303070108
C  C3  1  0.72233000  0.83450000  0.56583000  1.0 -0.2790416842
C  C4  1  0.46364000  0.77464000  0.50184000  1.0 -0.1653244039
C  C5  1  0.57065000  0.80537000  0.56645000  1.0 -0.021687709
C  C6  1  0.51141000  0.77224000  0.43651000  1.0 -0.021687709
C  C7  1  0.69394000  0.65482000  0.66484000  1.0 0.1486339281
C  C8  1  0.77253000  0.83121000  0.50213000  1.0 0.2194326157
C  C9  1  0.61886000  0.67288000  0.71546000  1.0 -0.1535317814
C  C10  1  0.95045000  0.72208000  0.69975000  1.0 0.1082141446
C  C11  1  0.44026000  0.58771000  0.69546000  1.0 0.0299310275
C  C12  1  0.49069000  0.63946000  0.72999000  1.0 -0.1535317814
C  C13  1  0.66622000  0.80051000  0.43732000  1.0 -0.2573288819
C  C14  1  0.91929000  0.39263000  0.75619000  1.0 -0.07422614
C  C15  1  0.00801000  0.72129000  0.59501000  1.0 -0.021687709
C  C16  1  0.86332000  0.68720000  0.58192000  1.0 -0.1015592236
C  C17  1  0.64945000  0.60323000  0.62975000  1.0 -0.161902752
C  C18  1  0.52624000  0.56943000  0.64574000  1.0 -0.161902752
C  C19  1  0.26700000  0.90140000  0.44380000  1.0 -0.0092973787
C  C20  1  0.97990000  0.86212000  0.44410000  1.0 -0.1352564683
C  C21  1  0.40740000  0.94040000  0.45740000  1.0 -0.0008567869
C  C22  1  0.16261000  0.89224000  0.46791000  1.0 0.0611058013
C  C23  1  0.22016000  0.92505000  0.53446000  1.0 -0.1015592236
C  C24  1  0.36750000  0.96118000  0.54970000  1.0 -0.1323783954
C  C25  1  0.45728000  0.96451000  0.49838000  1.0 0.0378566729
C  C26  1  0.07178000  0.48174000  0.75080000  1.0 0.0685674856
C  C27  1  0.04581000  0.53890000  0.74765000  1.0 -0.2875617956
C  C28  1  0.16579000  0.57341000  0.72979000  1.0 -0.2290939623
C  C29  1  0.31165000  0.55074000  0.71510000  1.0 0.0510586509
C  C30  1  0.68150000  0.41830000  0.77430000  1.0 0.0085528914
C  C31  1  0.76640000  0.46520000  0.76570000  1.0 -0.021687709
C  C32  1  0.15880000  0.46390000  0.70060000  1.0 -0.0092973787
C  C33  1  0.28250000  0.49680000  0.68710000  1.0 -0.0321393066
C  C34  1  0.33762000  0.49358000  0.71825000  1.0 -0.0494566764
C  C35  1  0.21769000  0.45907000  0.73611000  1.0 -0.0321393066
C  C36  1  0.77440000  0.41500000  0.83120000  1.0 0.0085528914
C  C37  1  0.86910000  0.45940000  0.82400000  1.0 -0.021687709
C  C38  1  0.25239000  0.89557000  0.41659000  1.0 -0.0494566764
C  C39  1  0.39973000  0.93171000  0.43183000  1.0 -0.0822353502
C  C40  1  0.08780000  0.96660000  0.47950000  1.0 -0.161902752
C  C41  1  0.23080000  0.00620000  0.49680000  1.0 -0.2180777331
C  C42  1  0.39270000  0.99270000  0.48620000  1.0 0.0611058013
C  C43  1  0.10680000  0.91490000  0.45440000  1.0 0.0908145795
C  C44  1  0.60607000  0.24142000  0.13427000  1.0 0.5463732044
C  C45  1  0.47879000  0.30935000  0.86289000  1.0 0.5303070108
C  C46  1  0.27767000  0.33450000  0.93417000  1.0 -0.2790416842
C  C47  1  0.53636000  0.27464000  0.99816000  1.0 -0.1653244039
C  C48  1  0.42935000  0.30537000  0.93355000  1.0 -0.021687709
C  C49  1  0.48859000  0.27224000  0.06349000  1.0 -0.021687709
C  C50  1  0.30606000  0.15482000  0.83516000  1.0 0.1486339281
C  C51  1  0.22747000  0.33121000  0.99787000  1.0 0.2194326157
C  C52  1  0.38114000  0.17288000  0.78454000  1.0 -0.1535317814
C  C53  1  0.04955000  0.22208000  0.80025000  1.0 0.1082141446
C  C54  1  0.55974000  0.08771000  0.80454000  1.0 0.0299310275
C  C55  1  0.50931000  0.13946000  0.77001000  1.0 -0.1535317814
C  C56  1  0.33378000  0.30051000  0.06268000  1.0 -0.2573288819
C  C57  1  0.08071000  0.89263000  0.74381000  1.0 -0.07422614
C  C58  1  0.99199000  0.22129000  0.90499000  1.0 -0.021687709
C  C59  1  0.13668000  0.18720000  0.91808000  1.0 -0.1015592236
C  C60  1  0.35055000  0.10323000  0.87025000  1.0 -0.161902752
C  C61  1  0.47376000  0.06943000  0.85426000  1.0 -0.161902752
C  C62  1  0.73300000  0.40140000  0.05620000  1.0 -0.0092973787
C  C63  1  0.02010000  0.36212000  0.05590000  1.0 -0.1352564683
C  C64  1  0.59260000  0.44040000  0.04260000  1.0 -0.0008567869
C  C65  1  0.83739000  0.39224000  0.03209000  1.0 0.0611058013
C  C66  1  0.77984000  0.42505000  0.96554000  1.0 -0.1015592236
C  C67  1  0.63250000  0.46118000  0.95030000  1.0 -0.1323783954
C  C68  1  0.54272000  0.46451000  0.00162000  1.0 0.0378566729
C  C69  1  0.92822000  0.98174000  0.74920000  1.0 0.0685674856
C  C70  1  0.95419000  0.03890000  0.75235000  1.0 -0.2875617956
C  C71  1  0.83421000  0.07341000  0.77021000  1.0 -0.2290939623
C  C72  1  0.68835000  0.05074000  0.78490000  1.0 0.0510586509
C  C73  1  0.31850000  0.91830000  0.72570000  1.0 0.0085528914
C  C74  1  0.23360000  0.96520000  0.73430000  1.0 -0.021687709
C  C75  1  0.84120000  0.96390000  0.79940000  1.0 -0.0092973787
C  C76  1  0.71750000  0.99680000  0.81290000  1.0 -0.0321393066
C  C77  1  0.66238000  0.99358000  0.78175000  1.0 -0.0494566764
C  C78  1  0.78231000  0.95907000  0.76389000  1.0 -0.0321393066
C  C79  1  0.22560000  0.91500000  0.66880000  1.0 0.0085528914
C  C80  1  0.13090000  0.95940000  0.67600000  1.0 -0.021687709
C  C81  1  0.74761000  0.39557000  0.08341000  1.0 -0.0494566764
C  C82  1  0.60027000  0.43171000  0.06817000  1.0 -0.0822353502
C  C83  1  0.91220000  0.46660000  0.02050000  1.0 -0.161902752
C  C84  1  0.76920000  0.50620000  0.00320000  1.0 -0.2180777331
C  C85  1  0.60730000  0.49270000  0.01380000  1.0 0.0611058013
C  C86  1  0.89320000  0.41490000  0.04560000  1.0 0.0908145795
C  C87  1  0.60607000  0.25858000  0.63427000  1.0 0.5463732044
C  C88  1  0.47879000  0.19065000  0.36289000  1.0 0.5303070108
C  C89  1  0.27767000  0.16550000  0.43417000  1.0 -0.2790416842
C  C90  1  0.53636000  0.22536000  0.49816000  1.0 -0.1653244039
C  C91  1  0.42935000  0.19463000  0.43355000  1.0 -0.021687709
C  C92  1  0.48859000  0.22776000  0.56349000  1.0 -0.021687709
C  C93  1  0.30606000  0.34518000  0.33516000  1.0 0.1486339281
C  C94  1  0.22747000  0.16879000  0.49787000  1.0 0.2194326157
C  C95  1  0.38114000  0.32712000  0.28454000  1.0 -0.1535317814
C  C96  1  0.04955000  0.27792000  0.30025000  1.0 0.1082141446
C  C97  1  0.55974000  0.41229000  0.30454000  1.0 0.0299310275
C  C98  1  0.50931000  0.36054000  0.27001000  1.0 -0.1535317814
C  C99  1  0.33378000  0.19949000  0.56268000  1.0 -0.2573288819
C  C100  1  0.08071000  0.60737000  0.24381000  1.0 -0.07422614
C  C101  1  0.99199000  0.27871000  0.40499000  1.0 -0.021687709
C  C102  1  0.13668000  0.31280000  0.41808000  1.0 -0.1015592236
C  C103  1  0.35055000  0.39677000  0.37025000  1.0 -0.161902752
C  C104  1  0.47376000  0.43057000  0.35426000  1.0 -0.161902752
C  C105  1  0.73300000  0.09860000  0.55620000  1.0 -0.0092973787
C  C106  1  0.02010000  0.13788000  0.55590000  1.0 -0.1323783954
C  C107  1  0.59260000  0.05960000  0.54260000  1.0 -0.0008567869
C  C108  1  0.83739000  0.10776000  0.53209000  1.0 0.0611058013
C  C109  1  0.77984000  0.07495000  0.46554000  1.0 -0.1015592236
C  C110  1  0.63250000  0.03882000  0.45030000  1.0 -0.1323783954
C  C111  1  0.54272000  0.03549000  0.50162000  1.0 0.0378566729
C  C112  1  0.92822000  0.51826000  0.24920000  1.0 0.0685674856
C  C113  1  0.95419000  0.46110000  0.25235000  1.0 -0.2875617956
C  C114  1  0.83421000  0.42659000  0.27021000  1.0 -0.2290939623
C  C115  1  0.68835000  0.44926000  0.28490000  1.0 0.0510586509
C  C116  1  0.31850000  0.58170000  0.22570000  1.0 0.0085528914
C  C117  1  0.23360000  0.53480000  0.23430000  1.0 -0.021687709
C  C118  1  0.84120000  0.53610000  0.29940000  1.0 -0.0092973787
C  C119  1  0.71750000  0.50320000  0.31290000  1.0 -0.0321393066
C  C120  1  0.66238000  0.50642000  0.28175000  1.0 -0.0494566764
C  C121  1  0.78231000  0.54093000  0.26389000  1.0 -0.0321393066
C  C122  1  0.22560000  0.58500000  0.16880000  1.0 0.0085528914
C  C123  1  0.13090000  0.54060000  0.17600000  1.0 -0.021687709
C  C124  1  0.74761000  0.10443000  0.58341000  1.0 -0.0494566764
C  C125  1  0.60027000  0.06829000  0.56817000  1.0 -0.0822353502
C  C126  1  0.91220000  0.03340000  0.52050000  1.0 -0.161902752
C  C127  1  0.76920000  0.99380000  0.50320000  1.0 -0.2180777331
C  C128  1  0.60730000  0.00730000  0.51380000  1.0 0.0611058013
C  C129  1  0.89320000  0.08510000  0.54560000  1.0 0.0908145795
C  C130  1  0.39393000  0.75858000  0.86573000  1.0 0.5463732044
C  C131  1  0.52121000  0.69065000  0.13711000  1.0 0.5303070108
C  C132  1  0.72233000  0.66550000  0.06583000  1.0 -0.2790416842
C  C133  1  0.46364000  0.72536000  0.00184000  1.0 -0.1653244039
C  C134  1  0.57065000  0.69463000  0.06645000  1.0 -0.021687709
C  C135  1  0.51141000  0.72776000  0.93651000  1.0 -0.021687709
C  C136  1  0.69394000  0.84518000  0.16484000  1.0 0.1486339281
C  C137  1  0.77253000  0.66879000  0.00213000  1.0 0.2194326157
C  C138  1  0.61886000  0.82712000  0.21546000  1.0 -0.1535317814
C  C139  1  0.95045000  0.77792000  0.19975000  1.0 0.1082141446
C  C140  1  0.44026000  0.91229000  0.19546000  1.0 0.0299310275
C  C141  1  0.49069000  0.86054000  0.22999000  1.0 -0.1535317814
C  C142  1  0.66622000  0.69949000  0.93732000  1.0 -0.2573288819
C  C143  1  0.91929000  0.10737000  0.25619000  1.0 -0.07422614
C  C144  1  0.00801000  0.77871000  0.09501000  1.0 -0.021687709
C  C145  1  0.86332000  0.81280000  0.08192000  1.0 -0.1015592236
C  C146  1  0.64945000  0.89677000  0.12975000  1.0 -0.161902752
C  C147  1  0.52624000  0.93057000  0.14574000  1.0 -0.161902752
C  C148  1  0.26700000  0.59860000  0.94380000  1.0 -0.0092973787
C  C149  1  0.97990000  0.63788000  0.94410000  1.0 -0.1352564683
C  C150  1  0.40740000  0.55960000  0.95740000  1.0 -0.0008567869
C  C151  1  0.16261000  0.60776000  0.96791000  1.0 0.0611058013
C  C152  1  0.22016000  0.57495000  0.03446000  1.0 -0.1015592236
C  C153  1  0.36750000  0.53882000  0.04970000  1.0 -0.1323783954
C  C154  1  0.45728000  0.53549000  0.99838000  1.0 0.0378566729
C  C155  1  0.07178000  0.01826000  0.25080000  1.0 0.0685674856
C  C156  1  0.04581000  0.96110000  0.24765000  1.0 -0.2875617956
C  C157  1  0.16579000  0.92659000  0.22979000  1.0 -0.2290939623
C  C158  1  0.31165000  0.94926000  0.21510000  1.0 0.0510586509
C  C159  1  0.68150000  0.08170000  0.27430000  1.0 0.0085528914
C  C160  1  0.76640000  0.03480000  0.26570000  1.0 -0.021687709
C  C161  1  0.15880000  0.03610000  0.20060000  1.0 -0.0092973787
C  C162  1  0.28250000  0.00320000  0.18710000  1.0 -0.0321393066
C  C163  1  0.33762000  0.00642000  0.21825000  1.0 -0.0494566764
C  C164  1  0.21769000  0.04093000  0.23611000  1.0 -0.0321393066
C  C165  1  0.77440000  0.08500000  0.33120000  1.0 0.0085528914
C  C166  1  0.86910000  0.04060000  0.32400000  1.0 -0.021687709
C  C167  1  0.25239000  0.60443000  0.91659000  1.0 -0.0494566764
C  C168  1  0.39973000  0.56829000  0.93183000  1.0 -0.0822353502
C  C169  1  0.08780000  0.53340000  0.97950000  1.0 -0.161902752
C  C170  1  0.23080000  0.49380000  0.99680000  1.0 -0.2180777331
C  C171  1  0.39270000  0.50730000  0.98620000  1.0 0.0611058013
C  C172  1  0.10680000  0.58510000  0.95440000  1.0 0.0908145795
N  N1  1  0.06283000  0.74319000  0.66943000  1.0 -0.2746672919
N  N2  1  0.82920000  0.68765000  0.65010000  1.0 0.0047505475
N  N3  1  0.79077000  0.37331000  0.77737000  1.0 -0.2290939623
N  N4  1  0.94121000  0.44723000  0.76571000  1.0 -0.0092973787
N  N5  1  0.93717000  0.24319000  0.83057000  1.0 -0.2746672919
N  N6  1  0.17080000  0.18765000  0.84990000  1.0 0.0047505475
N  N7  1  0.20923000  0.87331000  0.72263000  1.0 -0.2290939623
N  N8  1  0.05879000  0.94723000  0.73429000  1.0 -0.0092973787
N  N9  1  0.93717000  0.25681000  0.33057000  1.0 -0.2746672919
N  N10  1  0.17080000  0.31235000  0.34990000  1.0 0.0047505475
N  N11  1  0.20923000  0.62669000  0.22263000  1.0 -0.2290939623
N  N12  1  0.05879000  0.55277000  0.23429000  1.0 -0.0092973787
N  N13  1  0.06283000  0.75681000  0.16943000  1.0 -0.2746672919
N  N14  1  0.82920000  0.81235000  0.15010000  1.0 0.0047505475
N  N15  1  0.79077000  0.12669000  0.27737000  1.0 -0.2290939623
N  N16  1  0.94121000  0.05277000  0.26571000  1.0 -0.0092973787
O  O1  1  0.36637000  0.78913000  0.62917000  1.0 -0.5255921324
O  O2  1  0.45408000  0.73882000  0.31068000  1.0 -0.5375215253
O  O3  1  0.63039000  0.83123000  0.69789000  1.0 -0.5375215253
O  O4  1  0.92388000  0.86124000  0.50738000  1.0 -0.3065051576
O  O5  1  0.24467000  0.72132000  0.35977000  1.0 -0.5476436307
O  O6  1  0.63363000  0.28913000  0.87083000  1.0 -0.5255921324
O  O7  1  0.54592000  0.23882000  0.18932000  1.0 -0.5375215253
O  O8  1  0.36961000  0.33123000  0.80211000  1.0 -0.5375215253
O  O9  1  0.07612000  0.36124000  0.99262000  1.0 -0.3042676886
O  O10  1  0.75533000  0.22132000  0.14023000  1.0 -0.5476436307
O  O11  1  0.63363000  0.21087000  0.37083000  1.0 -0.5255921324
O  O12  1  0.54592000  0.26118000  0.68932000  1.0 -0.5375215253
O  O13  1  0.36961000  0.16877000  0.30211000  1.0 -0.5375215253
O  O14  1  0.07612000  0.13876000  0.49262000  1.0 -0.3065051576
O  O15  1  0.75533000  0.27868000  0.64023000  1.0 -0.5476436307
O  O16  1  0.36637000  0.71087000  0.12917000  1.0 -0.5255921324
O  O17  1  0.45408000  0.76118000  0.81068000  1.0 -0.5375215253
O  O18  1  0.63039000  0.66877000  0.19789000  1.0 -0.5375215253
O  O19  1  0.92388000  0.63876000  0.00738000  1.0 -0.3042676886
O  O20  1  0.24467000  0.77868000  0.85977000  1.0 -0.5476436307
