# DDEC6 charges by PACMAN v1.1 (https://github.com/mtap-research/PACMAN-charge/)
data_DIGFAC_ASR_pacman
_symmetry_space_group_name_H-M   'P 1'
_cell_length_a   9.68700000
_cell_length_b   13.35140000
_cell_length_c   13.40830000
_cell_angle_alpha   90.00000000
_cell_angle_beta   93.07000000
_cell_angle_gamma   90.00000000
_symmetry_Int_Tables_number   1
_chemical_formula_structural   Zn2H52C39N5O8
_chemical_formula_sum   'Zn4 H104 C78 N10 O16'
_cell_volume   1731.67385356
_cell_formula_units_Z   2
loop_
 _symmetry_equiv_pos_site_id
 _symmetry_equiv_pos_as_xyz
  1  'x, y, z'
loop_
 _atom_site_type_symbol
 _atom_site_label
 _atom_site_symmetry_multiplicity
 _atom_site_fract_x
 _atom_site_fract_y
 _atom_site_fract_z
 _atom_site_occupancy
 _atom_site_charge
Zn  Zn1  1  0.85963000  0.45160000  0.74384000  1.0 0.7495421135
Zn  Zn2  1  0.14037000  0.95160000  0.25616000  1.0 0.7495421135
Zn  Zn3  1  0.15288000  0.45331000  0.75609000  1.0 0.74368554
Zn  Zn4  1  0.84712000  0.95331000  0.24391000  1.0 0.74368554
H  H1  1  0.72300000  0.26260000  0.73960000  1.0 0.2821371371
H  H2  1  0.27700000  0.76260000  0.26040000  1.0 0.2821371371
H  H3  1  0.60180000  0.21400000  0.78920000  1.0 0.2923242787
H  H4  1  0.39820000  0.71400000  0.21080000  1.0 0.2923242787
H  H5  1  0.10740000  0.33350000  0.26290000  1.0 0.0889009287
H  H6  1  0.89260000  0.83350000  0.73710000  1.0 0.0889009287
H  H7  1  0.19390000  0.26410000  0.19050000  1.0 0.0705368334
H  H8  1  0.80610000  0.76410000  0.80950000  1.0 0.0705368334
H  H9  1  0.19940000  0.40180000  0.07970000  1.0 0.0794948543
H  H10  1  0.80060000  0.90180000  0.92030000  1.0 0.0794948543
H  H11  1  0.09000000  0.46280000  0.14220000  1.0 0.0794948543
H  H12  1  0.91000000  0.96280000  0.85780000  1.0 0.0794948543
H  H13  1  0.79920000  0.16650000  0.01330000  1.0 0.0889009287
H  H14  1  0.20080000  0.66650000  0.98670000  1.0 0.0889009287
H  H15  1  0.74000000  0.27440000  0.04100000  1.0 0.0705368334
H  H16  1  0.26000000  0.77440000  0.95900000  1.0 0.0705368334
H  H17  1  0.81240000  0.25840000  0.93770000  1.0 0.0889009287
H  H18  1  0.18760000  0.75840000  0.06230000  1.0 0.0889009287
H  H19  1  0.03300000  0.12470000  0.01560000  1.0 0.1119446905
H  H20  1  0.96700000  0.62470000  0.98440000  1.0 0.1119446905
H  H21  1  0.05080000  0.20870000  0.93200000  1.0 0.0705368334
H  H22  1  0.94920000  0.70870000  0.06800000  1.0 0.0705368334
H  H23  1  0.15270000  0.20690000  0.03000000  1.0 0.0402600497
H  H24  1  0.84730000  0.70690000  0.97000000  1.0 0.0402600497
H  H25  1  0.88660000  0.30520000  0.29630000  1.0 0.0988213968
H  H26  1  0.11340000  0.80520000  0.70370000  1.0 0.0988213968
H  H27  1  0.85330000  0.37090000  0.19810000  1.0 0.0889009287
H  H28  1  0.14670000  0.87090000  0.80190000  1.0 0.0889009287
H  H29  1  0.78360000  0.26310000  0.20890000  1.0 0.0705368334
H  H30  1  0.21640000  0.76310000  0.79110000  1.0 0.0794948543
H  H31  1  0.85780000  0.08400000  0.73750000  1.0 0.0794948543
H  H32  1  0.14220000  0.58400000  0.26250000  1.0 0.0794948543
H  H33  1  0.80270000  0.15620000  0.64870000  1.0 0.0599937718
H  H34  1  0.19730000  0.65620000  0.35130000  1.0 0.0599937718
H  H35  1  0.78920000  0.02100000  0.54800000  1.0 0.0705368334
H  H36  1  0.21080000  0.52100000  0.45200000  1.0 0.0705368334
H  H37  1  0.86820000  0.95230000  0.63240000  1.0 0.0705368334
H  H38  1  0.13180000  0.45230000  0.36760000  1.0 0.0705368334
H  H39  1  0.21960000  0.16460000  0.47320000  1.0 0.1190813148
H  H40  1  0.78040000  0.66460000  0.52680000  1.0 0.1255561227
H  H41  1  0.22930000  0.23250000  0.57170000  1.0 0.1190813148
H  H42  1  0.77070000  0.73250000  0.42830000  1.0 0.1190813148
H  H43  1  0.26840000  0.11620000  0.57840000  1.0 0.0599937718
H  H44  1  0.73160000  0.61620000  0.42160000  1.0 0.0599937718
H  H45  1  0.21490000  0.12390000  0.72820000  1.0 0.0705368334
H  H46  1  0.78510000  0.62390000  0.27180000  1.0 0.0705368334
H  H47  1  0.10760000  0.12530000  0.81480000  1.0 0.0794948543
H  H48  1  0.89240000  0.62530000  0.18520000  1.0 0.0794948543
H  H49  1  0.11180000  0.03160000  0.74060000  1.0 0.0889009287
H  H50  1  0.88820000  0.53160000  0.25940000  1.0 0.0889009287
H  H51  1  0.12430000  0.95350000  0.63720000  1.0 0.0794948543
H  H52  1  0.87570000  0.45350000  0.36280000  1.0 0.0794948543
H  H53  1  0.20460000  0.02820000  0.56690000  1.0 0.0705368334
H  H54  1  0.79540000  0.52820000  0.43310000  1.0 0.0705368334
H  H55  1  0.21190000  0.14100000  0.68640000  1.0 0.0705368334
H  H56  1  0.78810000  0.64100000  0.31360000  1.0 0.0705368334
H  H57  1  0.12730000  0.06720000  0.75580000  1.0 0.050572808
H  H58  1  0.87270000  0.56720000  0.24420000  1.0 0.050572808
H  H59  1  0.79930000  0.24920000  0.54220000  1.0 0.1190813148
H  H60  1  0.20070000  0.74920000  0.45780000  1.0 0.1190813148
H  H61  1  0.78300000  0.15820000  0.46480000  1.0 0.1190813148
H  H62  1  0.21700000  0.65820000  0.53520000  1.0 0.1190813148
H  H63  1  0.74910000  0.14190000  0.57920000  1.0 0.0599937718
H  H64  1  0.25090000  0.64190000  0.42080000  1.0 0.0599937718
H  H65  1  0.94450000  0.91790000  0.63730000  1.0 0.0889009287
H  H66  1  0.05550000  0.41790000  0.36270000  1.0 0.0889009287
H  H67  1  0.85210000  0.01660000  0.64570000  1.0 0.0599937718
H  H68  1  0.14790000  0.51660000  0.35430000  1.0 0.0599937718
H  H69  1  0.83010000  0.94440000  0.55090000  1.0 0.0705368334
H  H70  1  0.16990000  0.44440000  0.44910000  1.0 0.0705368334
H  H71  1  0.90960000  0.45990000  0.12550000  1.0 0.0794948543
H  H72  1  0.09040000  0.95990000  0.87450000  1.0 0.0794948543
H  H73  1  0.82260000  0.39410000  0.04460000  1.0 0.0988213968
H  H74  1  0.17740000  0.89410000  0.95540000  1.0 0.0988213968
H  H75  1  0.79460000  0.27730000  0.15440000  1.0 0.0599937718
H  H76  1  0.20540000  0.77730000  0.84560000  1.0 0.0599937718
H  H77  1  0.87290000  0.34700000  0.23740000  1.0 0.0705368334
H  H78  1  0.12710000  0.84700000  0.76260000  1.0 0.0705368334
H  H79  1  0.21400000  0.15820000  0.05770000  1.0 0.0889009287
H  H80  1  0.78600000  0.65820000  0.94230000  1.0 0.0889009287
H  H81  1  0.23240000  0.25020000  0.98310000  1.0 0.0889009287
H  H82  1  0.76760000  0.75020000  0.01690000  1.0 0.0889009287
H  H83  1  0.26780000  0.26400000  0.10020000  1.0 0.0599937718
H  H84  1  0.73220000  0.76400000  0.89980000  1.0 0.0599937718
H  H85  1  0.98530000  0.21120000  0.92540000  1.0 0.0705368334
H  H86  1  0.01470000  0.71120000  0.07460000  1.0 0.0705368334
H  H87  1  0.00540000  0.12290000  0.00560000  1.0 0.1119446905
H  H88  1  0.99460000  0.62290000  0.99440000  1.0 0.1119446905
H  H89  1  0.87780000  0.19840000  0.01110000  1.0 0.050572808
H  H90  1  0.12220000  0.69840000  0.98890000  1.0 0.050572808
H  H91  1  0.12980000  0.51450000  0.10390000  1.0 0.0889009287
H  H92  1  0.87020000  0.01450000  0.89610000  1.0 0.0889009287
H  H93  1  0.16690000  0.41900000  0.17220000  1.0 0.0794948543
H  H94  1  0.83310000  0.91900000  0.82780000  1.0 0.0794948543
H  H95  1  0.23560000  0.43200000  0.06710000  1.0 0.0889009287
H  H96  1  0.76440000  0.93200000  0.93290000  1.0 0.0889009287
H  H97  1  0.30800000  0.63310000  0.78600000  1.0 0.2821371371
H  H98  1  0.69200000  0.13310000  0.21400000  1.0 0.2821371371
H  H99  1  0.41980000  0.68540000  0.72950000  1.0 0.2577825153
H  H100  1  0.58020000  0.18540000  0.27050000  1.0 0.2577825153
H  H101  1  0.71790000  0.63340000  0.75520000  1.0 0.2923242787
H  H102  1  0.28210000  0.13340000  0.24480000  1.0 0.2923242787
H  H103  1  0.58580000  0.68080000  0.70990000  1.0 0.2577825153
H  H104  1  0.41420000  0.18080000  0.29010000  1.0 0.2577825153
C  C1  1  0.01600000  0.40590000  0.93550000  1.0 0.4005584085
C  C2  1  0.98400000  0.90590000  0.06450000  1.0 0.4005584085
C  C3  1  0.01530000  0.37750000  0.04510000  1.0 0.0402600497
C  C4  1  0.98470000  0.87750000  0.95490000  1.0 0.0402600497
C  C5  1  0.00450000  0.00310000  0.43520000  1.0 0.467651304
C  C6  1  0.99550000  0.50310000  0.56480000  1.0 0.467651304
C  C7  1  0.00450000  0.03150000  0.54580000  1.0 0.0794948543
C  C8  1  0.99550000  0.53150000  0.45420000  1.0 0.0794948543
C  C9  1  0.00950000  0.15770000  0.67180000  1.0 0.0705368334
C  C10  1  0.99050000  0.65770000  0.32820000  1.0 0.0705368334
C  C11  1  0.99400000  0.20300000  0.49170000  1.0 -0.0680077037
C  C12  1  0.00600000  0.70300000  0.50830000  1.0 -0.0680077037
C  C13  1  0.00730000  0.26740000  0.70120000  1.0 0.4368431682
C  C14  1  0.99270000  0.76740000  0.29880000  1.0 0.4368431682
C  C15  1  0.95440000  0.26660000  0.05940000  1.0 0.0794948543
C  C16  1  0.04560000  0.76660000  0.94060000  1.0 0.0794948543
C  C17  1  0.99610000  0.25180000  0.17160000  1.0 0.0599937718
C  C18  1  0.00390000  0.75180000  0.82840000  1.0 0.0599937718
C  C19  1  0.99260000  0.14010000  0.20180000  1.0 0.41338354
C  C20  1  0.00740000  0.64010000  0.79820000  1.0 0.41338354
C  C21  1  0.10990000  0.30580000  0.19450000  1.0 -0.2895353174
C  C22  1  0.89010000  0.80580000  0.80550000  1.0 -0.2895353174
C  C23  1  0.10880000  0.39770000  0.11020000  1.0 -0.1301745063
C  C24  1  0.89120000  0.89770000  0.88980000  1.0 -0.1301745063
C  C25  1  0.81380000  0.23900000  0.00820000  1.0 -0.2895353174
C  C26  1  0.18620000  0.73900000  0.99180000  1.0 -0.2895353174
C  C27  1  0.05770000  0.19480000  0.00390000  1.0 -0.1396134345
C  C28  1  0.94230000  0.69480000  0.99610000  1.0 -0.1396134345
C  C29  1  0.86700000  0.30280000  0.22390000  1.0 -0.2277992589
C  C30  1  0.13300000  0.80280000  0.77610000  1.0 -0.2277992589
C  C31  1  0.87600000  0.10770000  0.66950000  1.0 -0.2277992589
C  C32  1  0.12400000  0.60770000  0.33050000  1.0 -0.2277992589
C  C33  1  0.87000000  0.01690000  0.59630000  1.0 -0.1190394069
C  C34  1  0.13000000  0.51690000  0.40370000  1.0 -0.1190394069
C  C35  1  0.05560000  0.14000000  0.56470000  1.0 0.0988213968
C  C36  1  0.94440000  0.64000000  0.43530000  1.0 0.0988213968
C  C37  1  0.20700000  0.16570000  0.54520000  1.0 -0.4360744989
C  C38  1  0.79300000  0.66570000  0.45480000  1.0 -0.4360744989
C  C39  1  0.12200000  0.10450000  0.74610000  1.0 -0.2225055879
C  C40  1  0.87800000  0.60450000  0.25390000  1.0 -0.2225055879
C  C41  1  0.44080000  0.53760000  0.75170000  1.0 0.0599937718
C  C42  1  0.55920000  0.03760000  0.24830000  1.0 0.0599937718
C  C43  1  0.57430000  0.53760000  0.74820000  1.0 0.0705368334
C  C44  1  0.42570000  0.03760000  0.25180000  1.0 0.0705368334
C  C45  1  0.59140000  0.36580000  0.74940000  1.0 0.213326987
C  C46  1  0.40860000  0.86580000  0.25060000  1.0 0.213326987
C  C47  1  0.43050000  0.36680000  0.75010000  1.0 0.0599937718
C  C48  1  0.56950000  0.86680000  0.24990000  1.0 0.0599937718
C  C49  1  0.43280000  0.53590000  0.72130000  1.0 0.0705368334
C  C50  1  0.56720000  0.03590000  0.27870000  1.0 0.0705368334
C  C51  1  0.57570000  0.53440000  0.71640000  1.0 0.1190813148
C  C52  1  0.42430000  0.03440000  0.28360000  1.0 0.1190813148
C  C53  1  0.58110000  0.36580000  0.78010000  1.0 0.138609592
C  C54  1  0.41890000  0.86580000  0.21990000  1.0 0.138609592
C  C55  1  0.43820000  0.36730000  0.78500000  1.0 -0.0295830498
C  C56  1  0.56180000  0.86730000  0.21500000  1.0 -0.0295830498
C  C57  1  0.12230000  0.02120000  0.60700000  1.0 -0.2387054471
C  C58  1  0.87770000  0.52120000  0.39300000  1.0 -0.2460943496
C  C59  1  0.12800000  0.09950000  0.68930000  1.0 -0.1301745063
C  C60  1  0.87200000  0.59950000  0.31070000  1.0 -0.1301745063
C  C61  1  0.95420000  0.14770000  0.55760000  1.0 0.050572808
C  C62  1  0.04580000  0.64770000  0.44240000  1.0 0.050572808
C  C63  1  0.80930000  0.17670000  0.53400000  1.0 -0.3432900941
C  C64  1  0.19070000  0.67670000  0.46600000  1.0 -0.3432900941
C  C65  1  0.89900000  0.97200000  0.59960000  1.0 -0.2063590771
C  C66  1  0.10100000  0.47200000  0.40040000  1.0 -0.2063590771
C  C67  1  0.06360000  0.26170000  0.06360000  1.0 0.050572808
C  C68  1  0.93640000  0.76170000  0.93640000  1.0 0.050572808
C  C69  1  0.90330000  0.39330000  0.09310000  1.0 -0.2387054471
C  C70  1  0.09670000  0.89330000  0.90690000  1.0 -0.2387054471
C  C71  1  0.88040000  0.31540000  0.17110000  1.0 -0.1190394069
C  C72  1  0.11960000  0.81540000  0.82890000  1.0 -0.1190394069
C  C73  1  0.20620000  0.23100000  0.05000000  1.0 -0.2387054471
C  C74  1  0.79380000  0.73100000  0.95000000  1.0 -0.2387054471
C  C75  1  0.97500000  0.19230000  0.99530000  1.0 -0.1607275194
C  C76  1  0.02500000  0.69230000  0.00470000  1.0 -0.1607275194
C  C77  1  0.15200000  0.44300000  0.10340000  1.0 -0.2387054471
C  C78  1  0.84800000  0.94300000  0.89660000  1.0 -0.2387054471
N  N1  1  0.36400000  0.45240000  0.75560000  1.0 -0.1810498646
N  N2  1  0.63600000  0.95240000  0.24440000  1.0 -0.1810498646
N  N3  1  0.64990000  0.44930000  0.74580000  1.0 -0.1396134345
N  N4  1  0.35010000  0.94930000  0.25420000  1.0 -0.1396134345
N  N5  1  0.64350000  0.26800000  0.76810000  1.0 -0.4703352189
N  N6  1  0.35650000  0.76800000  0.23190000  1.0 -0.4703352189
N  N7  1  0.38030000  0.62990000  0.74910000  1.0 -0.4065953827
N  N8  1  0.61970000  0.12990000  0.25090000  1.0 -0.4065953827
N  N9  1  0.63330000  0.62720000  0.72860000  1.0 -0.396638397
N  N10  1  0.36670000  0.12720000  0.27140000  1.0 -0.396638397
O  O1  1  0.10500000  0.10040000  0.22990000  1.0 -0.5208343899
O  O2  1  0.89500000  0.60040000  0.77010000  1.0 -0.5208343899
O  O3  1  0.87710000  0.09870000  0.19470000  1.0 -0.5096859521
O  O4  1  0.12290000  0.59870000  0.80530000  1.0 -0.5096859521
O  O5  1  0.90310000  0.42640000  0.89090000  1.0 -0.5421011782
O  O6  1  0.09690000  0.92640000  0.10910000  1.0 -0.5421011782
O  O7  1  0.13080000  0.40440000  0.89570000  1.0 -0.5283494627
O  O8  1  0.86920000  0.90440000  0.10430000  1.0 -0.5283494627
O  O9  1  0.89550000  0.30620000  0.71760000  1.0 -0.5096859521
O  O10  1  0.10450000  0.80620000  0.28240000  1.0 -0.5096859521
O  O11  1  0.12260000  0.31100000  0.70700000  1.0 -0.5208343899
O  O12  1  0.87740000  0.81100000  0.29300000  1.0 -0.5208343899
O  O13  1  0.11580000  0.97900000  0.40240000  1.0 -0.5036520696
O  O14  1  0.88420000  0.47900000  0.59760000  1.0 -0.5036520696
O  O15  1  0.89170000  0.00280000  0.38490000  1.0 -0.5096859521
O  O16  1  0.10830000  0.50280000  0.61510000  1.0 -0.5096859521
