# DDEC6 charges by PACMAN v1.1 (https://github.com/mtap-research/PACMAN-charge/)
data_DIHPIU_ASR_pacman
_symmetry_space_group_name_H-M   'P 1'
_cell_length_a   13.87100000
_cell_length_b   13.97900000
_cell_length_c   17.52000000
_cell_angle_alpha   90.00000000
_cell_angle_beta   90.00000000
_cell_angle_gamma   90.00000000
_symmetry_Int_Tables_number   1
_chemical_formula_structural   AgH16C21N4
_chemical_formula_sum   'Ag4 H64 C84 N16'
_cell_volume   3397.17546168
_cell_formula_units_Z   4
loop_
 _symmetry_equiv_pos_site_id
 _symmetry_equiv_pos_as_xyz
  1  'x, y, z'
loop_
 _atom_site_type_symbol
 _atom_site_label
 _atom_site_symmetry_multiplicity
 _atom_site_fract_x
 _atom_site_fract_y
 _atom_site_fract_z
 _atom_site_occupancy
 _atom_site_charge
Ag  Ag1  1  0.25839000  0.22919000  0.25006000  1.0 0.1972418232
Ag  Ag2  1  0.74161000  0.77081000  0.25006000  1.0 0.1972418232
Ag  Ag3  1  0.75839000  0.27081000  0.74994000  1.0 0.1972418232
Ag  Ag4  1  0.24161000  0.72919000  0.74994000  1.0 0.1972418232
H  H1  1  0.95800000  0.33280000  0.41540000  1.0 0.1212902129
H  H2  1  0.04200000  0.66720000  0.41540000  1.0 0.1212902129
H  H3  1  0.45800000  0.16720000  0.58460000  1.0 0.1212902129
H  H4  1  0.54200000  0.83280000  0.58460000  1.0 0.1212902129
H  H5  1  0.04080000  0.25010000  0.32010000  1.0 0.0889202072
H  H6  1  0.95920000  0.74990000  0.32010000  1.0 0.0889202072
H  H7  1  0.54080000  0.24990000  0.67990000  1.0 0.0889202072
H  H8  1  0.45920000  0.75010000  0.67990000  1.0 0.0889202072
H  H9  1  0.25370000  0.42630000  0.32750000  1.0 0.0831606379
H  H10  1  0.74630000  0.57370000  0.32750000  1.0 0.0831606379
H  H11  1  0.75370000  0.07370000  0.67250000  1.0 0.0831606379
H  H12  1  0.24630000  0.92630000  0.67250000  1.0 0.0831606379
H  H13  1  0.17450000  0.52460000  0.41700000  1.0 0.1250285832
H  H14  1  0.82550000  0.47540000  0.41700000  1.0 0.1250285832
H  H15  1  0.67450000  0.97540000  0.58300000  1.0 0.1250285832
H  H16  1  0.32550000  0.02460000  0.58300000  1.0 0.1250285832
H  H17  1  0.83640000  0.54190000  0.55410000  1.0 0.1212902129
H  H18  1  0.16360000  0.45810000  0.55410000  1.0 0.1212902129
H  H19  1  0.33640000  0.95810000  0.44590000  1.0 0.1212902129
H  H20  1  0.66360000  0.04190000  0.44590000  1.0 0.1212902129
H  H21  1  0.74060000  0.45580000  0.64250000  1.0 0.0889202072
H  H22  1  0.25940000  0.54420000  0.64250000  1.0 0.0889202072
H  H23  1  0.24060000  0.04420000  0.35750000  1.0 0.0889202072
H  H24  1  0.75940000  0.95580000  0.35750000  1.0 0.0889202072
H  H25  1  0.93410000  0.25100000  0.64320000  1.0 0.0889202072
H  H26  1  0.06590000  0.74900000  0.64320000  1.0 0.0889202072
H  H27  1  0.43410000  0.24900000  0.35680000  1.0 0.0889202072
H  H28  1  0.56590000  0.75100000  0.35680000  1.0 0.0889202072
H  H29  1  0.02210000  0.32470000  0.54320000  1.0 0.1212902129
H  H30  1  0.97790000  0.67530000  0.54320000  1.0 0.1212902129
H  H31  1  0.52210000  0.17530000  0.45680000  1.0 0.1212902129
H  H32  1  0.47790000  0.82470000  0.45680000  1.0 0.1212902129
H  H33  1  0.32000000  0.50660000  0.05830000  1.0 0.1212902129
H  H34  1  0.68000000  0.49340000  0.05830000  1.0 0.1212902129
H  H35  1  0.82000000  0.99340000  0.94170000  1.0 0.1212902129
H  H36  1  0.18000000  0.00660000  0.94170000  1.0 0.1212902129
H  H37  1  0.23850000  0.41450000  0.15020000  1.0 0.0889202072
H  H38  1  0.76150000  0.58550000  0.15020000  1.0 0.0889202072
H  H39  1  0.73850000  0.08550000  0.84980000  1.0 0.0889202072
H  H40  1  0.26150000  0.91450000  0.84980000  1.0 0.0889202072
H  H41  1  0.46930000  0.25760000  0.17910000  1.0 0.0889202072
H  H42  1  0.53070000  0.74240000  0.17910000  1.0 0.0889202072
H  H43  1  0.96930000  0.24240000  0.82090000  1.0 0.0889202072
H  H44  1  0.03070000  0.75760000  0.82090000  1.0 0.0889202072
H  H45  1  0.54890000  0.33560000  0.08020000  1.0 0.1212902129
H  H46  1  0.45110000  0.66440000  0.08020000  1.0 0.1212902129
H  H47  1  0.04890000  0.16440000  0.91980000  1.0 0.1212902129
H  H48  1  0.95110000  0.83560000  0.91980000  1.0 0.1212902129
H  H49  1  0.48960000  0.32000000  0.95330000  1.0 0.1212902129
H  H50  1  0.51040000  0.68000000  0.95330000  1.0 0.1212902129
H  H51  1  0.98960000  0.18000000  0.04670000  1.0 0.1212902129
H  H52  1  0.01040000  0.82000000  0.04670000  1.0 0.1212902129
H  H53  1  0.57710000  0.24630000  0.85720000  1.0 0.0889202072
H  H54  1  0.42290000  0.75370000  0.85720000  1.0 0.0889202072
H  H55  1  0.07710000  0.25370000  0.14280000  1.0 0.0889202072
H  H56  1  0.92290000  0.74630000  0.14280000  1.0 0.0889202072
H  H57  1  0.74620000  0.46960000  0.83360000  1.0 0.0889202072
H  H58  1  0.25380000  0.53040000  0.83360000  1.0 0.0889202072
H  H59  1  0.24620000  0.03040000  0.16640000  1.0 0.0889202072
H  H60  1  0.75380000  0.96960000  0.16640000  1.0 0.0889202072
H  H61  1  0.65830000  0.55290000  0.93110000  1.0 0.1212902129
H  H62  1  0.34170000  0.44710000  0.93110000  1.0 0.1212902129
H  H63  1  0.15830000  0.94710000  0.06890000  1.0 0.1212902129
H  H64  1  0.84170000  0.05290000  0.06890000  1.0 0.1212902129
C  C1  1  0.00000000  0.50000000  0.48370000  1.0 -0.0408582175
C  C2  1  0.50000000  0.00000000  0.51630000  1.0 -0.0408582175
C  C3  1  0.05950000  0.43770000  0.42940000  1.0 0.0831606379
C  C4  1  0.94050000  0.56230000  0.42940000  1.0 0.0831606379
C  C5  1  0.55950000  0.06230000  0.57060000  1.0 0.0831606379
C  C6  1  0.44050000  0.93770000  0.57060000  1.0 0.0831606379
C  C7  1  0.01900000  0.35600000  0.39810000  1.0 -0.2114312668
C  C8  1  0.98100000  0.64400000  0.39810000  1.0 -0.2114312668
C  C9  1  0.51900000  0.14400000  0.60190000  1.0 -0.2114312668
C  C10  1  0.48100000  0.85600000  0.60190000  1.0 -0.2114312668
C  C11  1  0.07100000  0.30590000  0.34340000  1.0 0.0187253599
C  C12  1  0.92900000  0.69410000  0.34340000  1.0 0.0187253599
C  C13  1  0.57100000  0.19410000  0.65660000  1.0 0.0187253599
C  C14  1  0.42900000  0.80590000  0.65660000  1.0 0.0187253599
C  C15  1  0.19200000  0.40700000  0.34760000  1.0 0.0683195023
C  C16  1  0.80800000  0.59300000  0.34760000  1.0 0.0683195023
C  C17  1  0.69200000  0.09300000  0.65240000  1.0 0.0683195023
C  C18  1  0.30800000  0.90700000  0.65240000  1.0 0.0683195023
C  C19  1  0.14500000  0.46700000  0.40130000  1.0 -0.2194605759
C  C20  1  0.85500000  0.53300000  0.40130000  1.0 -0.2114312668
C  C21  1  0.64500000  0.03300000  0.59870000  1.0 -0.2114312668
C  C22  1  0.35500000  0.96700000  0.59870000  1.0 -0.2114312668
C  C23  1  0.93590000  0.44110000  0.54040000  1.0 0.0889202072
C  C24  1  0.06410000  0.55890000  0.54040000  1.0 0.0889202072
C  C25  1  0.43590000  0.05890000  0.45960000  1.0 0.0889202072
C  C26  1  0.56410000  0.94110000  0.45960000  1.0 0.0889202072
C  C27  1  0.85590000  0.47900000  0.57090000  1.0 -0.2014441313
C  C28  1  0.14410000  0.52100000  0.57090000  1.0 -0.2014441313
C  C29  1  0.35590000  0.02100000  0.42910000  1.0 -0.2014441313
C  C30  1  0.64410000  0.97900000  0.42910000  1.0 -0.2014441313
C  C31  1  0.80400000  0.42800000  0.62900000  1.0 0.0427501435
C  C32  1  0.19600000  0.57200000  0.62900000  1.0 0.0427501435
C  C33  1  0.30400000  0.07200000  0.37100000  1.0 0.0427501435
C  C34  1  0.69600000  0.92800000  0.37100000  1.0 0.0427501435
C  C35  1  0.91300000  0.31100000  0.62520000  1.0 0.0534058068
C  C36  1  0.08700000  0.68900000  0.62520000  1.0 0.0534058068
C  C37  1  0.41300000  0.18900000  0.37480000  1.0 0.0534058068
C  C38  1  0.58700000  0.81100000  0.37480000  1.0 0.0534058068
C  C39  1  0.96800000  0.35380000  0.56700000  1.0 -0.2194605759
C  C40  1  0.03200000  0.64620000  0.56700000  1.0 -0.2194605759
C  C41  1  0.46800000  0.14620000  0.43300000  1.0 -0.2194605759
C  C42  1  0.53200000  0.85380000  0.43300000  1.0 -0.2194605759
C  C43  1  0.50000000  0.50000000  0.00600000  1.0 -0.0207300265
C  C44  1  0.00000000  0.00000000  0.99400000  1.0 -0.0207300265
C  C45  1  0.44190000  0.43360000  0.06220000  1.0 0.0831606379
C  C46  1  0.55810000  0.56640000  0.06220000  1.0 0.0831606379
C  C47  1  0.94190000  0.06640000  0.93780000  1.0 0.0831606379
C  C48  1  0.05810000  0.93360000  0.93780000  1.0 0.0831606379
C  C49  1  0.35220000  0.45600000  0.08480000  1.0 -0.1912386445
C  C50  1  0.64780000  0.54400000  0.08480000  1.0 -0.1912386445
C  C51  1  0.85220000  0.04400000  0.91520000  1.0 -0.1912386445
C  C52  1  0.14780000  0.95600000  0.91520000  1.0 -0.1912386445
C  C53  1  0.30500000  0.40120000  0.13890000  1.0 0.0187253599
C  C54  1  0.69500000  0.59880000  0.13890000  1.0 0.0187253599
C  C55  1  0.80500000  0.09880000  0.86110000  1.0 0.0187253599
C  C56  1  0.19500000  0.90120000  0.86110000  1.0 0.0187253599
C  C57  1  0.43500000  0.30800000  0.15170000  1.0 0.0534058068
C  C58  1  0.56500000  0.69200000  0.15170000  1.0 0.0534058068
C  C59  1  0.93500000  0.19200000  0.84830000  1.0 0.0534058068
C  C60  1  0.06500000  0.80800000  0.84830000  1.0 0.0534058068
C  C61  1  0.48800000  0.35600000  0.09500000  1.0 -0.2194605759
C  C62  1  0.51200000  0.64400000  0.09500000  1.0 -0.2194605759
C  C63  1  0.98800000  0.14400000  0.90500000  1.0 -0.2194605759
C  C64  1  0.01200000  0.85600000  0.90500000  1.0 -0.2194605759
C  C65  1  0.56510000  0.44330000  0.94910000  1.0 0.0831606379
C  C66  1  0.43490000  0.55670000  0.94910000  1.0 0.0831606379
C  C67  1  0.06510000  0.05670000  0.05090000  1.0 0.0831606379
C  C68  1  0.93490000  0.94330000  0.05090000  1.0 0.0831606379
C  C69  1  0.54200000  0.35410000  0.92890000  1.0 -0.1912386445
C  C70  1  0.45800000  0.64590000  0.92890000  1.0 -0.1912386445
C  C71  1  0.04200000  0.14590000  0.07110000  1.0 -0.1912386445
C  C72  1  0.95800000  0.85410000  0.07110000  1.0 -0.1912386445
C  C73  1  0.59500000  0.31100000  0.87100000  1.0 0.0306678228
C  C74  1  0.40500000  0.68900000  0.87100000  1.0 0.0306678228
C  C75  1  0.09500000  0.18900000  0.12900000  1.0 0.0306678228
C  C76  1  0.90500000  0.81100000  0.12900000  1.0 0.0306678228
C  C77  1  0.69300000  0.43800000  0.85770000  1.0 0.0534058068
C  C78  1  0.30700000  0.56200000  0.85770000  1.0 0.0534058068
C  C79  1  0.19300000  0.06200000  0.14230000  1.0 0.0534058068
C  C80  1  0.80700000  0.93800000  0.14230000  1.0 0.0534058068
C  C81  1  0.64030000  0.48900000  0.91600000  1.0 -0.2194605759
C  C82  1  0.35970000  0.51100000  0.91600000  1.0 -0.2194605759
C  C83  1  0.14030000  0.01100000  0.08400000  1.0 -0.2194605759
C  C84  1  0.85970000  0.98900000  0.08400000  1.0 -0.2194605759
N  N1  1  0.15970000  0.33070000  0.31870000  1.0 -0.2254409911
N  N2  1  0.84030000  0.66930000  0.31870000  1.0 -0.2194605759
N  N3  1  0.65970000  0.16930000  0.68130000  1.0 -0.2194605759
N  N4  1  0.34030000  0.83070000  0.68130000  1.0 -0.2254409911
N  N5  1  0.83600000  0.34600000  0.65640000  1.0 -0.2114312668
N  N6  1  0.16400000  0.65400000  0.65640000  1.0 -0.2114312668
N  N7  1  0.33600000  0.15400000  0.34360000  1.0 -0.2114312668
N  N8  1  0.66400000  0.84600000  0.34360000  1.0 -0.2114312668
N  N9  1  0.34760000  0.32780000  0.17460000  1.0 -0.2114312668
N  N10  1  0.65240000  0.67220000  0.17460000  1.0 -0.2114312668
N  N11  1  0.84760000  0.17220000  0.82540000  1.0 -0.2114312668
N  N12  1  0.15240000  0.82780000  0.82540000  1.0 -0.2114312668
N  N13  1  0.66970000  0.35000000  0.83510000  1.0 -0.2114312668
N  N14  1  0.33030000  0.65000000  0.83510000  1.0 -0.2114312668
N  N15  1  0.16970000  0.15000000  0.16490000  1.0 -0.2114312668
N  N16  1  0.83030000  0.85000000  0.16490000  1.0 -0.2114312668
