# DDEC6 charges by PACMAN v1.1 (https://github.com/mtap-research/PACMAN-charge/)
data_DIHVIB01_FSR_pacman
_symmetry_space_group_name_H-M   'P 1'
_cell_length_a   18.60870000
_cell_length_b   18.60870000
_cell_length_c   18.60870000
_cell_angle_alpha   60.00000000
_cell_angle_beta   60.00000000
_cell_angle_gamma   60.00000000
_symmetry_Int_Tables_number   1
_chemical_formula_structural   CuH2C6O5
_chemical_formula_sum   'Cu12 H24 C72 O60'
_cell_volume   4556.51816077
_cell_formula_units_Z   12
loop_
 _symmetry_equiv_pos_site_id
 _symmetry_equiv_pos_as_xyz
  1  'x, y, z'
loop_
 _atom_site_type_symbol
 _atom_site_label
 _atom_site_symmetry_multiplicity
 _atom_site_fract_x
 _atom_site_fract_y
 _atom_site_fract_z
 _atom_site_occupancy
 _atom_site_charge
Cu  Cu1  1  0.57054000  0.42946000  0.00000000  1.0 0.9130823808
Cu  Cu2  1  0.42946000  0.57054000  0.00000000  1.0 0.9130823808
Cu  Cu3  1  0.00000000  0.00000000  0.57054000  1.0 0.9130823808
Cu  Cu4  1  0.00000000  0.00000000  0.42946000  1.0 0.9130823808
Cu  Cu5  1  0.00000000  0.57054000  0.42946000  1.0 0.9130823808
Cu  Cu6  1  0.00000000  0.42946000  0.57054000  1.0 0.9130823808
Cu  Cu7  1  0.57054000  0.00000000  0.00000000  1.0 0.9130823808
Cu  Cu8  1  0.42946000  0.00000000  0.00000000  1.0 0.9130823808
Cu  Cu9  1  0.42946000  0.00000000  0.57054000  1.0 0.9130823808
Cu  Cu10  1  0.57054000  0.00000000  0.42946000  1.0 0.9130823808
Cu  Cu11  1  0.00000000  0.57054000  0.00000000  1.0 0.9130823808
Cu  Cu12  1  0.00000000  0.42946000  0.00000000  1.0 0.9130823808
H  H1  1  0.27148000  0.48850000  0.96855000  1.0 0.1576603492
H  H2  1  0.48850000  0.27148000  0.27147000  1.0 0.1576603492
H  H3  1  0.96855000  0.27148000  0.27147000  1.0 0.1576603492
H  H4  1  0.27147000  0.96856000  0.48850000  1.0 0.1576603492
H  H5  1  0.96855000  0.27148000  0.48850000  1.0 0.1576603492
H  H6  1  0.27148000  0.48850000  0.27147000  1.0 0.1576603492
H  H7  1  0.27148000  0.96855000  0.27147000  1.0 0.1576603492
H  H8  1  0.48850000  0.27148000  0.96855000  1.0 0.1576603492
H  H9  1  0.48850000  0.96855000  0.27147000  1.0 0.1576603492
H  H10  1  0.27147000  0.27148000  0.48850000  1.0 0.1576603492
H  H11  1  0.27148000  0.27148000  0.96855000  1.0 0.1576603492
H  H12  1  0.96855000  0.48850000  0.27147000  1.0 0.1576603492
H  H13  1  0.72852000  0.51150000  0.72852000  1.0 0.1576603492
H  H14  1  0.51150000  0.72852000  0.03145000  1.0 0.1576603492
H  H15  1  0.03145000  0.72852000  0.51150000  1.0 0.1576603492
H  H16  1  0.72852000  0.03145000  0.72852000  1.0 0.1576603492
H  H17  1  0.03145000  0.72852000  0.72852000  1.0 0.1576603492
H  H18  1  0.72852000  0.51150000  0.03145000  1.0 0.1576603492
H  H19  1  0.72852000  0.03145000  0.51150000  1.0 0.1576603492
H  H20  1  0.51150000  0.72852000  0.72852000  1.0 0.1576603492
H  H21  1  0.51150000  0.03145000  0.72852000  1.0 0.1576603492
H  H22  1  0.72852000  0.72852000  0.03145000  1.0 0.1576603492
H  H23  1  0.72852000  0.72852000  0.51150000  1.0 0.1576603492
H  H24  1  0.03145000  0.51150000  0.72852000  1.0 0.1576603492
C  C1  1  0.43375000  0.43375000  0.96873000  1.0 0.5887337249
C  C2  1  0.43375000  0.43375000  0.16377000  1.0 0.5887337249
C  C3  1  0.96873000  0.16377000  0.43375000  1.0 0.5887337249
C  C4  1  0.16377000  0.96873000  0.43375000  1.0 0.5887337249
C  C5  1  0.96873000  0.43375000  0.43375000  1.0 0.5887337249
C  C6  1  0.16377000  0.43375000  0.43375000  1.0 0.5887337249
C  C7  1  0.43375000  0.96873000  0.16377000  1.0 0.5887337249
C  C8  1  0.43375000  0.16377000  0.96873000  1.0 0.5887337249
C  C9  1  0.43375000  0.96873000  0.43375000  1.0 0.5887337249
C  C10  1  0.43375000  0.16377000  0.43375000  1.0 0.5887337249
C  C11  1  0.16377000  0.43375000  0.96873000  1.0 0.5887337249
C  C12  1  0.96873000  0.43375000  0.16377000  1.0 0.5887337249
C  C13  1  0.56625000  0.56625000  0.83623000  1.0 0.5887337249
C  C14  1  0.56625000  0.56625000  0.03127000  1.0 0.5887337249
C  C15  1  0.03127000  0.83623000  0.56625000  1.0 0.5887337249
C  C16  1  0.83623000  0.03127000  0.56625000  1.0 0.5887337249
C  C17  1  0.03127000  0.56625000  0.83623000  1.0 0.5887337249
C  C18  1  0.83623000  0.56625000  0.03127000  1.0 0.5887337249
C  C19  1  0.56625000  0.03127000  0.56625000  1.0 0.5887337249
C  C20  1  0.56625000  0.83623000  0.56625000  1.0 0.5887337249
C  C21  1  0.56625000  0.03127000  0.83623000  1.0 0.5887337249
C  C22  1  0.56625000  0.83623000  0.03127000  1.0 0.5887337249
C  C23  1  0.83623000  0.56625000  0.56625000  1.0 0.5887337249
C  C24  1  0.03127000  0.56625000  0.56625000  1.0 0.5887337249
C  C25  1  0.38729000  0.38729000  0.96857000  1.0 -0.0064204531
C  C26  1  0.38729000  0.38729000  0.25685000  1.0 -0.0064204531
C  C27  1  0.96857000  0.25685000  0.38729000  1.0 -0.0064204531
C  C28  1  0.25685000  0.96857000  0.38729000  1.0 -0.0064204531
C  C29  1  0.96857000  0.38729000  0.38729000  1.0 -0.0064204531
C  C30  1  0.25685000  0.38729000  0.38729000  1.0 -0.0064204531
C  C31  1  0.38729000  0.96857000  0.25685000  1.0 -0.0064204531
C  C32  1  0.38729000  0.25685000  0.96857000  1.0 -0.0064204531
C  C33  1  0.38729000  0.96857000  0.38729000  1.0 -0.0064204531
C  C34  1  0.38729000  0.25685000  0.38729000  1.0 -0.0064204531
C  C35  1  0.25685000  0.38729000  0.96857000  1.0 -0.0064204531
C  C36  1  0.96857000  0.38729000  0.25685000  1.0 -0.0064204531
C  C37  1  0.61271000  0.61271000  0.74315000  1.0 -0.0064204531
C  C38  1  0.61271000  0.61271000  0.03143000  1.0 -0.0064204531
C  C39  1  0.03143000  0.74315000  0.61271000  1.0 -0.0064204531
C  C40  1  0.74315000  0.03143000  0.61271000  1.0 -0.0064204531
C  C41  1  0.03143000  0.61271000  0.74315000  1.0 -0.0064204531
C  C42  1  0.74315000  0.61271000  0.03143000  1.0 -0.0064204531
C  C43  1  0.61271000  0.03143000  0.61271000  1.0 -0.0064204531
C  C44  1  0.61271000  0.74315000  0.61271000  1.0 -0.0064204531
C  C45  1  0.61271000  0.03143000  0.74315000  1.0 -0.0064204531
C  C46  1  0.61271000  0.74315000  0.03143000  1.0 -0.0064204531
C  C47  1  0.74315000  0.61271000  0.61271000  1.0 -0.0064204531
C  C48  1  0.03143000  0.61271000  0.61271000  1.0 -0.0064204531
C  C49  1  0.30033000  0.43077000  0.96857000  1.0 -0.0809199531
C  C50  1  0.43077000  0.30033000  0.30033000  1.0 -0.0809199531
C  C51  1  0.96857000  0.30033000  0.30033000  1.0 -0.0809199531
C  C52  1  0.30033000  0.96857000  0.43077000  1.0 -0.0809199531
C  C53  1  0.96857000  0.30033000  0.43077000  1.0 -0.0809199531
C  C54  1  0.30033000  0.43077000  0.30033000  1.0 -0.0809199531
C  C55  1  0.30033000  0.96857000  0.30033000  1.0 -0.0809199531
C  C56  1  0.43077000  0.30033000  0.96857000  1.0 -0.0809199531
C  C57  1  0.43077000  0.96857000  0.30033000  1.0 -0.0809199531
C  C58  1  0.30033000  0.30033000  0.43077000  1.0 -0.0809199531
C  C59  1  0.30033000  0.30033000  0.96857000  1.0 -0.0809199531
C  C60  1  0.96857000  0.43077000  0.30033000  1.0 -0.0809199531
C  C61  1  0.69967000  0.56923000  0.69967000  1.0 -0.0809199531
C  C62  1  0.56923000  0.69967000  0.03143000  1.0 -0.0809199531
C  C63  1  0.03143000  0.69967000  0.56923000  1.0 -0.0809199531
C  C64  1  0.69967000  0.03143000  0.69967000  1.0 -0.0809199531
C  C65  1  0.03143000  0.69967000  0.69967000  1.0 -0.0809199531
C  C66  1  0.69967000  0.56923000  0.03143000  1.0 -0.0809199531
C  C67  1  0.69967000  0.03143000  0.56923000  1.0 -0.0809199531
C  C68  1  0.56923000  0.69967000  0.69967000  1.0 -0.0809199531
C  C69  1  0.56923000  0.03143000  0.69967000  1.0 -0.0809199531
C  C70  1  0.69967000  0.69967000  0.03143000  1.0 -0.0809199531
C  C71  1  0.69967000  0.69967000  0.56923000  1.0 -0.0809199531
C  C72  1  0.03143000  0.56923000  0.69967000  1.0 -0.0809199531
O  O1  1  0.51102000  0.39186000  0.96882000  1.0 -0.4921748877
O  O2  1  0.39186000  0.51102000  0.12830000  1.0 -0.4921748877
O  O3  1  0.96882000  0.12830000  0.51102000  1.0 -0.4921748877
O  O4  1  0.12830000  0.96882000  0.39186000  1.0 -0.4921748877
O  O5  1  0.96882000  0.51102000  0.39186000  1.0 -0.4921748877
O  O6  1  0.12830000  0.39186000  0.51102000  1.0 -0.4921748877
O  O7  1  0.51102000  0.96882000  0.12830000  1.0 -0.4921748877
O  O8  1  0.39186000  0.12830000  0.96882000  1.0 -0.4921748877
O  O9  1  0.39186000  0.96882000  0.51102000  1.0 -0.4921748877
O  O10  1  0.51102000  0.12830000  0.39186000  1.0 -0.4921748877
O  O11  1  0.12830000  0.51102000  0.96882000  1.0 -0.4921748877
O  O12  1  0.96882000  0.39186000  0.12830000  1.0 -0.4921748877
O  O13  1  0.48898000  0.60814000  0.87170000  1.0 -0.4921748877
O  O14  1  0.60814000  0.48898000  0.03118000  1.0 -0.4921748877
O  O15  1  0.03118000  0.87170000  0.60814000  1.0 -0.4921748877
O  O16  1  0.87170000  0.03118000  0.48898000  1.0 -0.4921748877
O  O17  1  0.03118000  0.48898000  0.87170000  1.0 -0.4921748877
O  O18  1  0.87170000  0.60814000  0.03118000  1.0 -0.4921748877
O  O19  1  0.48898000  0.03118000  0.60814000  1.0 -0.4921748877
O  O20  1  0.60814000  0.87170000  0.48898000  1.0 -0.4921748877
O  O21  1  0.60814000  0.03118000  0.87170000  1.0 -0.4921748877
O  O22  1  0.48898000  0.87170000  0.03118000  1.0 -0.4921748877
O  O23  1  0.87170000  0.48898000  0.60814000  1.0 -0.4921748877
O  O24  1  0.03118000  0.60814000  0.48898000  1.0 -0.4921748877
O  O25  1  0.48898000  0.60814000  0.03118000  1.0 -0.4921748877
O  O26  1  0.60814000  0.48898000  0.87170000  1.0 -0.4921748877
O  O27  1  0.03118000  0.87170000  0.48898000  1.0 -0.4921748877
O  O28  1  0.87170000  0.03118000  0.60814000  1.0 -0.4921748877
O  O29  1  0.03118000  0.48898000  0.60814000  1.0 -0.4921748877
O  O30  1  0.87170000  0.60814000  0.48898000  1.0 -0.4921748877
O  O31  1  0.48898000  0.03118000  0.87170000  1.0 -0.4921748877
O  O32  1  0.60814000  0.87170000  0.03118000  1.0 -0.4921748877
O  O33  1  0.60814000  0.03118000  0.48898000  1.0 -0.4921748877
O  O34  1  0.48898000  0.87170000  0.60814000  1.0 -0.4921748877
O  O35  1  0.87170000  0.48898000  0.03118000  1.0 -0.4921748877
O  O36  1  0.03118000  0.60814000  0.87170000  1.0 -0.4921748877
O  O37  1  0.51102000  0.39186000  0.12830000  1.0 -0.4921748877
O  O38  1  0.39186000  0.51102000  0.96882000  1.0 -0.4921748877
O  O39  1  0.96882000  0.12830000  0.39186000  1.0 -0.4921748877
O  O40  1  0.12830000  0.96882000  0.51102000  1.0 -0.4921748877
O  O41  1  0.96882000  0.51102000  0.12830000  1.0 -0.4921748877
O  O42  1  0.12830000  0.39186000  0.96882000  1.0 -0.4921748877
O  O43  1  0.51102000  0.96882000  0.39186000  1.0 -0.4921748877
O  O44  1  0.39186000  0.12830000  0.51102000  1.0 -0.4921748877
O  O45  1  0.39186000  0.96882000  0.12830000  1.0 -0.4921748877
O  O46  1  0.51102000  0.12830000  0.96882000  1.0 -0.4921748877
O  O47  1  0.12830000  0.51102000  0.39186000  1.0 -0.4921748877
O  O48  1  0.96882000  0.39186000  0.51102000  1.0 -0.4921748877
O  O49  1  0.68658000  0.31342000  0.00000000  1.0 -0.258289473
O  O50  1  0.31342000  0.68658000  0.00000000  1.0 -0.2683711363
O  O51  1  0.00000000  0.00000000  0.68658000  1.0 -0.258289473
O  O52  1  0.00000000  0.00000000  0.31342000  1.0 -0.258289473
O  O53  1  0.00000000  0.68658000  0.31342000  1.0 -0.2683711363
O  O54  1  0.00000000  0.31342000  0.68658000  1.0 -0.258289473
O  O55  1  0.68658000  0.00000000  0.00000000  1.0 -0.2683711363
O  O56  1  0.31342000  0.00000000  0.00000000  1.0 -0.2683711363
O  O57  1  0.31342000  0.00000000  0.68658000  1.0 -0.2683711363
O  O58  1  0.68658000  0.00000000  0.31342000  1.0 -0.258289473
O  O59  1  0.00000000  0.68658000  0.00000000  1.0 -0.258289473
O  O60  1  0.00000000  0.31342000  0.00000000  1.0 -0.258289473
