# DDEC6 charges by PACMAN v1.1 (https://github.com/mtap-research/PACMAN-charge/)
data_DIHVIB_FSR_pacman
_symmetry_space_group_name_H-M   'P 1'
_cell_length_a   18.59930000
_cell_length_b   18.59930000
_cell_length_c   18.59930000
_cell_angle_alpha   60.00000000
_cell_angle_beta   60.00000000
_cell_angle_gamma   60.00000000
_symmetry_Int_Tables_number   1
_chemical_formula_structural   CuH2C6O5
_chemical_formula_sum   'Cu12 H24 C72 O60'
_cell_volume   4549.61660850
_cell_formula_units_Z   12
loop_
 _symmetry_equiv_pos_site_id
 _symmetry_equiv_pos_as_xyz
  1  'x, y, z'
loop_
 _atom_site_type_symbol
 _atom_site_label
 _atom_site_symmetry_multiplicity
 _atom_site_fract_x
 _atom_site_fract_y
 _atom_site_fract_z
 _atom_site_occupancy
 _atom_site_charge
Cu  Cu1  1  0.56776000  0.43224000  0.00000000  1.0 0.840142302
Cu  Cu2  1  0.43224000  0.56776000  0.00000000  1.0 0.8316156259
Cu  Cu3  1  0.00000000  0.00000000  0.56776000  1.0 0.840142302
Cu  Cu4  1  0.00000000  0.00000000  0.43224000  1.0 0.840142302
Cu  Cu5  1  0.00000000  0.56776000  0.43224000  1.0 0.840142302
Cu  Cu6  1  0.00000000  0.43224000  0.56776000  1.0 0.840142302
Cu  Cu7  1  0.56776000  0.00000000  0.00000000  1.0 0.8316156259
Cu  Cu8  1  0.43224000  0.00000000  0.00000000  1.0 0.8316156259
Cu  Cu9  1  0.43224000  0.00000000  0.56776000  1.0 0.840142302
Cu  Cu10  1  0.56776000  0.00000000  0.43224000  1.0 0.840142302
Cu  Cu11  1  0.00000000  0.56776000  0.00000000  1.0 0.8316156259
Cu  Cu12  1  0.00000000  0.43224000  0.00000000  1.0 0.8316156259
H  H1  1  0.26899000  0.48355000  0.97847000  1.0 0.1498687895
H  H2  1  0.48355000  0.26899000  0.26899000  1.0 0.1498687895
H  H3  1  0.97847000  0.26899000  0.26899000  1.0 0.1498687895
H  H4  1  0.26899000  0.97847000  0.48355000  1.0 0.1498687895
H  H5  1  0.97847000  0.26899000  0.48355000  1.0 0.1498687895
H  H6  1  0.26899000  0.48355000  0.26899000  1.0 0.1498687895
H  H7  1  0.26899000  0.97847000  0.26899000  1.0 0.1498687895
H  H8  1  0.48355000  0.26899000  0.97847000  1.0 0.1498687895
H  H9  1  0.48355000  0.97847000  0.26899000  1.0 0.1498687895
H  H10  1  0.26899000  0.26899000  0.48355000  1.0 0.1498687895
H  H11  1  0.26899000  0.26899000  0.97847000  1.0 0.1498687895
H  H12  1  0.97847000  0.48355000  0.26899000  1.0 0.1498687895
H  H13  1  0.73101000  0.51645000  0.73101000  1.0 0.1498687895
H  H14  1  0.51645000  0.73101000  0.02153000  1.0 0.1498687895
H  H15  1  0.02153000  0.73101000  0.51645000  1.0 0.1498687895
H  H16  1  0.73101000  0.02153000  0.73101000  1.0 0.1498687895
H  H17  1  0.02153000  0.73101000  0.73101000  1.0 0.1498687895
H  H18  1  0.73101000  0.51645000  0.02153000  1.0 0.1498687895
H  H19  1  0.73101000  0.02153000  0.51645000  1.0 0.1498687895
H  H20  1  0.51645000  0.73101000  0.73101000  1.0 0.1498687895
H  H21  1  0.51645000  0.02153000  0.73101000  1.0 0.1498687895
H  H22  1  0.73101000  0.73101000  0.02153000  1.0 0.1498687895
H  H23  1  0.73101000  0.73101000  0.51645000  1.0 0.1498687895
H  H24  1  0.02153000  0.51645000  0.73101000  1.0 0.1498687895
C  C1  1  0.43008000  0.43008000  0.97874000  1.0 0.5563384728
C  C2  1  0.43008000  0.43008000  0.16110000  1.0 0.5563384728
C  C3  1  0.97874000  0.16110000  0.43008000  1.0 0.5528568616
C  C4  1  0.16110000  0.97874000  0.43008000  1.0 0.5528568616
C  C5  1  0.97874000  0.43008000  0.43008000  1.0 0.5528568616
C  C6  1  0.16110000  0.43008000  0.43008000  1.0 0.5528568616
C  C7  1  0.43008000  0.97874000  0.16110000  1.0 0.5528568616
C  C8  1  0.43008000  0.16110000  0.97874000  1.0 0.5528568616
C  C9  1  0.43008000  0.97874000  0.43008000  1.0 0.5563384728
C  C10  1  0.43008000  0.16110000  0.43008000  1.0 0.5528568616
C  C11  1  0.16110000  0.43008000  0.97874000  1.0 0.5563384728
C  C12  1  0.97874000  0.43008000  0.16110000  1.0 0.5563384728
C  C13  1  0.56992000  0.56992000  0.83890000  1.0 0.5563384728
C  C14  1  0.56992000  0.56992000  0.02126000  1.0 0.5563384728
C  C15  1  0.02126000  0.83890000  0.56992000  1.0 0.5528568616
C  C16  1  0.83890000  0.02126000  0.56992000  1.0 0.5563384728
C  C17  1  0.02126000  0.56992000  0.83890000  1.0 0.5563384728
C  C18  1  0.83890000  0.56992000  0.02126000  1.0 0.5563384728
C  C19  1  0.56992000  0.02126000  0.56992000  1.0 0.5563384728
C  C20  1  0.56992000  0.83890000  0.56992000  1.0 0.5528568616
C  C21  1  0.56992000  0.02126000  0.83890000  1.0 0.5563384728
C  C22  1  0.56992000  0.83890000  0.02126000  1.0 0.5528568616
C  C23  1  0.83890000  0.56992000  0.56992000  1.0 0.5563384728
C  C24  1  0.02126000  0.56992000  0.56992000  1.0 0.5563384728
C  C25  1  0.38378000  0.38378000  0.97846000  1.0 -0.0374872072
C  C26  1  0.38378000  0.38378000  0.25398000  1.0 -0.0374872072
C  C27  1  0.97846000  0.25398000  0.38378000  1.0 -0.0374872072
C  C28  1  0.25398000  0.97846000  0.38378000  1.0 -0.0374872072
C  C29  1  0.97846000  0.38378000  0.38378000  1.0 -0.0374872072
C  C30  1  0.25398000  0.38378000  0.38378000  1.0 -0.0374872072
C  C31  1  0.38378000  0.97846000  0.25398000  1.0 -0.0374872072
C  C32  1  0.38378000  0.25398000  0.97846000  1.0 -0.0374872072
C  C33  1  0.38378000  0.97846000  0.38378000  1.0 -0.0374872072
C  C34  1  0.38378000  0.25398000  0.38378000  1.0 -0.0374872072
C  C35  1  0.25398000  0.38378000  0.97846000  1.0 -0.0374872072
C  C36  1  0.97846000  0.38378000  0.25398000  1.0 -0.0374872072
C  C37  1  0.61622000  0.61622000  0.74602000  1.0 -0.0374872072
C  C38  1  0.61622000  0.61622000  0.02154000  1.0 -0.0374872072
C  C39  1  0.02154000  0.74602000  0.61622000  1.0 -0.0374872072
C  C40  1  0.74602000  0.02154000  0.61622000  1.0 -0.0374872072
C  C41  1  0.02154000  0.61622000  0.74602000  1.0 -0.0374872072
C  C42  1  0.74602000  0.61622000  0.02154000  1.0 -0.0374872072
C  C43  1  0.61622000  0.02154000  0.61622000  1.0 -0.0374872072
C  C44  1  0.61622000  0.74602000  0.61622000  1.0 -0.0374872072
C  C45  1  0.61622000  0.02154000  0.74602000  1.0 -0.0374872072
C  C46  1  0.61622000  0.74602000  0.02154000  1.0 -0.0374872072
C  C47  1  0.74602000  0.61622000  0.61622000  1.0 -0.0374872072
C  C48  1  0.02154000  0.61622000  0.61622000  1.0 -0.0374872072
C  C49  1  0.29724000  0.42706000  0.97846000  1.0 -0.0897364544
C  C50  1  0.42706000  0.29724000  0.29724000  1.0 -0.0897364544
C  C51  1  0.97846000  0.29724000  0.29724000  1.0 -0.0897364544
C  C52  1  0.29724000  0.97846000  0.42706000  1.0 -0.0897364544
C  C53  1  0.97846000  0.29724000  0.42706000  1.0 -0.0897364544
C  C54  1  0.29724000  0.42706000  0.29724000  1.0 -0.0897364544
C  C55  1  0.29724000  0.97846000  0.29724000  1.0 -0.0897364544
C  C56  1  0.42706000  0.29724000  0.97846000  1.0 -0.0897364544
C  C57  1  0.42706000  0.97846000  0.29724000  1.0 -0.0897364544
C  C58  1  0.29724000  0.29724000  0.42706000  1.0 -0.0897364544
C  C59  1  0.29724000  0.29724000  0.97846000  1.0 -0.0897364544
C  C60  1  0.97846000  0.42706000  0.29724000  1.0 -0.0897364544
C  C61  1  0.70276000  0.57294000  0.70276000  1.0 -0.0897364544
C  C62  1  0.57294000  0.70276000  0.02154000  1.0 -0.0897364544
C  C63  1  0.02154000  0.70276000  0.57294000  1.0 -0.0897364544
C  C64  1  0.70276000  0.02154000  0.70276000  1.0 -0.0897364544
C  C65  1  0.02154000  0.70276000  0.70276000  1.0 -0.0897364544
C  C66  1  0.70276000  0.57294000  0.02154000  1.0 -0.0897364544
C  C67  1  0.70276000  0.02154000  0.57294000  1.0 -0.0897364544
C  C68  1  0.57294000  0.70276000  0.70276000  1.0 -0.0897364544
C  C69  1  0.57294000  0.02154000  0.70276000  1.0 -0.0897364544
C  C70  1  0.70276000  0.70276000  0.02154000  1.0 -0.0897364544
C  C71  1  0.70276000  0.70276000  0.57294000  1.0 -0.0897364544
C  C72  1  0.02154000  0.57294000  0.70276000  1.0 -0.0897364544
O  O1  1  0.50516000  0.39676000  0.97890000  1.0 -0.4325343612
O  O2  1  0.39676000  0.50516000  0.11918000  1.0 -0.4325343612
O  O3  1  0.97890000  0.11918000  0.50516000  1.0 -0.4325343612
O  O4  1  0.11918000  0.97890000  0.39676000  1.0 -0.4325343612
O  O5  1  0.97890000  0.50516000  0.39676000  1.0 -0.4325343612
O  O6  1  0.11918000  0.39676000  0.50516000  1.0 -0.4325343612
O  O7  1  0.50516000  0.97890000  0.11918000  1.0 -0.4325343612
O  O8  1  0.39676000  0.11918000  0.97890000  1.0 -0.4325343612
O  O9  1  0.39676000  0.97890000  0.50516000  1.0 -0.4325343612
O  O10  1  0.50516000  0.11918000  0.39676000  1.0 -0.4325343612
O  O11  1  0.11918000  0.50516000  0.97890000  1.0 -0.4325343612
O  O12  1  0.97890000  0.39676000  0.11918000  1.0 -0.4325343612
O  O13  1  0.49484000  0.60324000  0.88082000  1.0 -0.4325343612
O  O14  1  0.60324000  0.49484000  0.02110000  1.0 -0.4325343612
O  O15  1  0.02110000  0.88082000  0.60324000  1.0 -0.4325343612
O  O16  1  0.88082000  0.02110000  0.49484000  1.0 -0.4325343612
O  O17  1  0.02110000  0.49484000  0.88082000  1.0 -0.4325343612
O  O18  1  0.88082000  0.60324000  0.02110000  1.0 -0.4325343612
O  O19  1  0.49484000  0.02110000  0.60324000  1.0 -0.4325343612
O  O20  1  0.60324000  0.88082000  0.49484000  1.0 -0.4325343612
O  O21  1  0.60324000  0.02110000  0.88082000  1.0 -0.4325343612
O  O22  1  0.49484000  0.88082000  0.02110000  1.0 -0.4325343612
O  O23  1  0.88082000  0.49484000  0.60324000  1.0 -0.4325343612
O  O24  1  0.02110000  0.60324000  0.49484000  1.0 -0.4325343612
O  O25  1  0.49484000  0.60324000  0.02110000  1.0 -0.4325343612
O  O26  1  0.60324000  0.49484000  0.88082000  1.0 -0.4325343612
O  O27  1  0.02110000  0.88082000  0.49484000  1.0 -0.4325343612
O  O28  1  0.88082000  0.02110000  0.60324000  1.0 -0.4325343612
O  O29  1  0.02110000  0.49484000  0.60324000  1.0 -0.4325343612
O  O30  1  0.88082000  0.60324000  0.49484000  1.0 -0.4325343612
O  O31  1  0.49484000  0.02110000  0.88082000  1.0 -0.4325343612
O  O32  1  0.60324000  0.88082000  0.02110000  1.0 -0.4325343612
O  O33  1  0.60324000  0.02110000  0.49484000  1.0 -0.4325343612
O  O34  1  0.49484000  0.88082000  0.60324000  1.0 -0.4325343612
O  O35  1  0.88082000  0.49484000  0.02110000  1.0 -0.4325343612
O  O36  1  0.02110000  0.60324000  0.88082000  1.0 -0.4325343612
O  O37  1  0.50516000  0.39676000  0.11918000  1.0 -0.4325343612
O  O38  1  0.39676000  0.50516000  0.97890000  1.0 -0.4325343612
O  O39  1  0.97890000  0.11918000  0.39676000  1.0 -0.4325343612
O  O40  1  0.11918000  0.97890000  0.50516000  1.0 -0.4325343612
O  O41  1  0.97890000  0.50516000  0.11918000  1.0 -0.4325343612
O  O42  1  0.11918000  0.39676000  0.97890000  1.0 -0.4325343612
O  O43  1  0.50516000  0.97890000  0.39676000  1.0 -0.4325343612
O  O44  1  0.39676000  0.11918000  0.50516000  1.0 -0.4325343612
O  O45  1  0.39676000  0.97890000  0.11918000  1.0 -0.4325343612
O  O46  1  0.50516000  0.11918000  0.97890000  1.0 -0.4325343612
O  O47  1  0.11918000  0.50516000  0.39676000  1.0 -0.4325343612
O  O48  1  0.97890000  0.39676000  0.50516000  1.0 -0.4325343612
O  O49  1  0.68640000  0.31360000  0.00000000  1.0 -0.2701211894
O  O50  1  0.31360000  0.68640000  0.00000000  1.0 -0.2593611925
O  O51  1  0.00000000  0.00000000  0.68640000  1.0 -0.2593611925
O  O52  1  0.00000000  0.00000000  0.31360000  1.0 -0.2507816502
O  O53  1  0.00000000  0.68640000  0.31360000  1.0 -0.2593611925
O  O54  1  0.00000000  0.31360000  0.68640000  1.0 -0.2593611925
O  O55  1  0.68640000  0.00000000  0.00000000  1.0 -0.2701211894
O  O56  1  0.31360000  0.00000000  0.00000000  1.0 -0.2701211894
O  O57  1  0.31360000  0.00000000  0.68640000  1.0 -0.2593611925
O  O58  1  0.68640000  0.00000000  0.31360000  1.0 -0.2507816502
O  O59  1  0.00000000  0.68640000  0.00000000  1.0 -0.2593611925
O  O60  1  0.00000000  0.31360000  0.00000000  1.0 -0.2701211894
