# DDEC6 charges by PACMAN v1.1 (https://github.com/mtap-research/PACMAN-charge/)
data_DIHYUP_ion_pacman
_symmetry_space_group_name_H-M   'P 1'
_cell_length_a   16.08700000
_cell_length_b   16.08700000
_cell_length_c   19.12900000
_cell_angle_alpha   82.80250000
_cell_angle_beta   97.19750000
_cell_angle_gamma   119.53500000
_symmetry_Int_Tables_number   1
_chemical_formula_structural   GdCu2H56C60N8(Cl4O29)2
_chemical_formula_sum   'Gd2 Cu4 H112 C120 N16 Cl16 O116'
_cell_volume   4261.61201187
_cell_formula_units_Z   2
loop_
 _symmetry_equiv_pos_site_id
 _symmetry_equiv_pos_as_xyz
  1  'x, y, z'
loop_
 _atom_site_type_symbol
 _atom_site_label
 _atom_site_symmetry_multiplicity
 _atom_site_fract_x
 _atom_site_fract_y
 _atom_site_fract_z
 _atom_site_occupancy
 _atom_site_charge
Gd  Gd1  1  0.62401000  0.62401000  0.75000000  1.0 1.2724015786
Gd  Gd2  1  0.37599000  0.37599000  0.25000000  1.0 1.2724015786
Cu  Cu1  1  0.59721000  0.64081000  0.92757000  1.0 0.8162779285
Cu  Cu2  1  0.64081000  0.59721000  0.57243000  1.0 0.8162779285
Cu  Cu3  1  0.40279000  0.35919000  0.07243000  1.0 0.8162779285
Cu  Cu4  1  0.35919000  0.40279000  0.42757000  1.0 0.8162779285
H  H1  1  0.92150000  0.75850000  0.81030000  1.0 0.1413218726
H  H2  1  0.75850000  0.92150000  0.68970000  1.0 0.1413218726
H  H3  1  0.07850000  0.24150000  0.18970000  1.0 0.1413218726
H  H4  1  0.24150000  0.07850000  0.31030000  1.0 0.1413218726
H  H5  1  0.08230000  0.81370000  0.84120000  1.0 0.1304324338
H  H6  1  0.81370000  0.08230000  0.65880000  1.0 0.1304324338
H  H7  1  0.91770000  0.18630000  0.15880000  1.0 0.1304324338
H  H8  1  0.18630000  0.91770000  0.34120000  1.0 0.1304324338
H  H9  1  0.05500000  0.87240000  0.02770000  1.0 0.1304324338
H  H10  1  0.87240000  0.05500000  0.47230000  1.0 0.1304324338
H  H11  1  0.94500000  0.12760000  0.97230000  1.0 0.1304324338
H  H12  1  0.12760000  0.94500000  0.52770000  1.0 0.1304324338
H  H13  1  0.89350000  0.81630000  0.00090000  1.0 0.1413218726
H  H14  1  0.81630000  0.89350000  0.49910000  1.0 0.1413218726
H  H15  1  0.10650000  0.18370000  0.99910000  1.0 0.1413218726
H  H16  1  0.18370000  0.10650000  0.50090000  1.0 0.1413218726
H  H17  1  0.21870000  0.90250000  0.91490000  1.0 0.1208659765
H  H18  1  0.90250000  0.21870000  0.58510000  1.0 0.1208659765
H  H19  1  0.78130000  0.09750000  0.08510000  1.0 0.1304324338
H  H20  1  0.09750000  0.78130000  0.41490000  1.0 0.1208659765
H  H21  1  0.20790000  0.92390000  0.99010000  1.0 0.1208659765
H  H22  1  0.92390000  0.20790000  0.50990000  1.0 0.1208659765
H  H23  1  0.79210000  0.07610000  0.00990000  1.0 0.1208659765
H  H24  1  0.07610000  0.79210000  0.49010000  1.0 0.1208659765
H  H25  1  0.17240000  0.74200000  0.95480000  1.0 0.1208659765
H  H26  1  0.74200000  0.17240000  0.54520000  1.0 0.1208659765
H  H27  1  0.82760000  0.25800000  0.04520000  1.0 0.1208659765
H  H28  1  0.25800000  0.82760000  0.45480000  1.0 0.1208659765
H  H29  1  0.15620000  0.76020000  0.02970000  1.0 0.1013762614
H  H30  1  0.76020000  0.15620000  0.47030000  1.0 0.1013762614
H  H31  1  0.84380000  0.23980000  0.97030000  1.0 0.1013762614
H  H32  1  0.23980000  0.84380000  0.52970000  1.0 0.1013762614
H  H33  1  0.31880000  0.86620000  0.05030000  1.0 0.1208659765
H  H34  1  0.86620000  0.31880000  0.44970000  1.0 0.1208659765
H  H35  1  0.68120000  0.13380000  0.94970000  1.0 0.1208659765
H  H36  1  0.13380000  0.68120000  0.55030000  1.0 0.1208659765
H  H37  1  0.33800000  0.86300000  0.97240000  1.0 0.1208659765
H  H38  1  0.86300000  0.33800000  0.52760000  1.0 0.1208659765
H  H39  1  0.66200000  0.13700000  0.02760000  1.0 0.1208659765
H  H40  1  0.13700000  0.66200000  0.47240000  1.0 0.1208659765
H  H41  1  0.34780000  0.73260000  0.94050000  1.0 0.1101866667
H  H42  1  0.73260000  0.34780000  0.55950000  1.0 0.1101866667
H  H43  1  0.65220000  0.26740000  0.05950000  1.0 0.1101866667
H  H44  1  0.26740000  0.65220000  0.44050000  1.0 0.1101866667
H  H45  1  0.37550000  0.60510000  0.97250000  1.0 0.1413218726
H  H46  1  0.60510000  0.37550000  0.52750000  1.0 0.1413218726
H  H47  1  0.62450000  0.39490000  0.02750000  1.0 0.1413218726
H  H48  1  0.39490000  0.62450000  0.47250000  1.0 0.1413218726
H  H49  1  0.31960000  0.60720000  0.17100000  1.0 0.1304324338
H  H50  1  0.60720000  0.31960000  0.32900000  1.0 0.1304324338
H  H51  1  0.68040000  0.39280000  0.82900000  1.0 0.1304324338
H  H52  1  0.39280000  0.68040000  0.67100000  1.0 0.1304324338
H  H53  1  0.29230000  0.73390000  0.13450000  1.0 0.1208659765
H  H54  1  0.73390000  0.29230000  0.36550000  1.0 0.1208659765
H  H55  1  0.70770000  0.26610000  0.86550000  1.0 0.1208659765
H  H56  1  0.26610000  0.70770000  0.63450000  1.0 0.1208659765
H  H57  1  0.28840000  0.43820000  0.93620000  1.0 0.1304324338
H  H58  1  0.43820000  0.28840000  0.56380000  1.0 0.1304324338
H  H59  1  0.71160000  0.56180000  0.06380000  1.0 0.1304324338
H  H60  1  0.56180000  0.71160000  0.43620000  1.0 0.1304324338
H  H61  1  0.12760000  0.33860000  0.91110000  1.0 0.1101866667
H  H62  1  0.33860000  0.12760000  0.58890000  1.0 0.1101866667
H  H63  1  0.87240000  0.66140000  0.08890000  1.0 0.1101866667
H  H64  1  0.66140000  0.87240000  0.41110000  1.0 0.1101866667
H  H65  1  0.17090000  0.33550000  0.71330000  1.0 0.1208659765
H  H66  1  0.33550000  0.17090000  0.78670000  1.0 0.1208659765
H  H67  1  0.82910000  0.66450000  0.28670000  1.0 0.1208659765
H  H68  1  0.66450000  0.82910000  0.21330000  1.0 0.1208659765
H  H69  1  0.33220000  0.43760000  0.73470000  1.0 0.1304324338
H  H70  1  0.43760000  0.33220000  0.76530000  1.0 0.1304324338
H  H71  1  0.66780000  0.56240000  0.26530000  1.0 0.1304324338
H  H72  1  0.56240000  0.66780000  0.23470000  1.0 0.1304324338
H  H73  1  0.01740000  0.25680000  0.74500000  1.0 0.1304324338
H  H74  1  0.25680000  0.01740000  0.75500000  1.0 0.1304324338
H  H75  1  0.98260000  0.74320000  0.25500000  1.0 0.1304324338
H  H76  1  0.74320000  0.98260000  0.24500000  1.0 0.1304324338
H  H77  1  0.00180000  0.22200000  0.82510000  1.0 0.1208659765
H  H78  1  0.22200000  0.00180000  0.67490000  1.0 0.1208659765
H  H79  1  0.99820000  0.77800000  0.17490000  1.0 0.1208659765
H  H80  1  0.77800000  0.99820000  0.32510000  1.0 0.1208659765
H  H81  1  0.97600000  0.34200000  0.84550000  1.0 0.1101866667
H  H82  1  0.34200000  0.97600000  0.65450000  1.0 0.1101866667
H  H83  1  0.02400000  0.65800000  0.15450000  1.0 0.1101866667
H  H84  1  0.65800000  0.02400000  0.34550000  1.0 0.1101866667
H  H85  1  0.92100000  0.31140000  0.77160000  1.0 0.1304324338
H  H86  1  0.31140000  0.92100000  0.72840000  1.0 0.1304324338
H  H87  1  0.07900000  0.68860000  0.22840000  1.0 0.1304324338
H  H88  1  0.68860000  0.07900000  0.27160000  1.0 0.1304324338
H  H89  1  0.07410000  0.44250000  0.72530000  1.0 0.1101866667
H  H90  1  0.44250000  0.07410000  0.77470000  1.0 0.1101866667
H  H91  1  0.92590000  0.55750000  0.27470000  1.0 0.1101866667
H  H92  1  0.55750000  0.92590000  0.22530000  1.0 0.1101866667
H  H93  1  0.09070000  0.48070000  0.80020000  1.0 0.1101866667
H  H94  1  0.48070000  0.09070000  0.69980000  1.0 0.1101866667
H  H95  1  0.90930000  0.51930000  0.19980000  1.0 0.1101866667
H  H96  1  0.51930000  0.90930000  0.30020000  1.0 0.1101866667
H  H97  1  0.95860000  0.50260000  0.83770000  1.0 0.1101866667
H  H98  1  0.50260000  0.95860000  0.66230000  1.0 0.1101866667
H  H99  1  0.04140000  0.49740000  0.16230000  1.0 0.1101866667
H  H100  1  0.49740000  0.04140000  0.33770000  1.0 0.1101866667
H  H101  1  0.85200000  0.55840000  0.80170000  1.0 0.1304324338
H  H102  1  0.55840000  0.85200000  0.69830000  1.0 0.1304324338
H  H103  1  0.14800000  0.44160000  0.19830000  1.0 0.1304324338
H  H104  1  0.44160000  0.14800000  0.30170000  1.0 0.1304324338
H  H105  1  0.87960000  0.53840000  0.60010000  1.0 0.1513781919
H  H106  1  0.53840000  0.87960000  0.89990000  1.0 0.1513781919
H  H107  1  0.12040000  0.46160000  0.39990000  1.0 0.1513781919
H  H108  1  0.46160000  0.12040000  0.10010000  1.0 0.1513781919
H  H109  1  0.98570000  0.48130000  0.63920000  1.0 0.1208659765
H  H110  1  0.48130000  0.98570000  0.86080000  1.0 0.1208659765
H  H111  1  0.01430000  0.51870000  0.36080000  1.0 0.1208659765
H  H112  1  0.51870000  0.01430000  0.13920000  1.0 0.1208659765
C  C1  1  0.78354000  0.73408000  0.88749000  1.0 0.5177722944
C  C2  1  0.73408000  0.78354000  0.61251000  1.0 0.5177722944
C  C3  1  0.21646000  0.26592000  0.11251000  1.0 0.5177722944
C  C4  1  0.26592000  0.21646000  0.38749000  1.0 0.5177722944
C  C5  1  0.89004000  0.77878000  0.90363000  1.0 0.0219749816
C  C6  1  0.77878000  0.89004000  0.59637000  1.0 0.0219749816
C  C7  1  0.10996000  0.22122000  0.09637000  1.0 0.0219749816
C  C8  1  0.22122000  0.10996000  0.40363000  1.0 0.0219749816
C  C9  1  0.94749000  0.77997000  0.85488000  1.0 -0.160787878
C  C10  1  0.77997000  0.94749000  0.64512000  1.0 -0.160787878
C  C11  1  0.05251000  0.22003000  0.14512000  1.0 -0.160787878
C  C12  1  0.22003000  0.05251000  0.35488000  1.0 -0.160787878
C  C13  1  0.04319000  0.81325000  0.87332000  1.0 0.0606050383
C  C14  1  0.81325000  0.04319000  0.62668000  1.0 0.0606050383
C  C15  1  0.95681000  0.18675000  0.12668000  1.0 0.0606050383
C  C16  1  0.18675000  0.95681000  0.37332000  1.0 0.0606050383
C  C17  1  0.02685000  0.84779000  0.98419000  1.0 0.0334145798
C  C18  1  0.84779000  0.02685000  0.51581000  1.0 0.0334145798
C  C19  1  0.97315000  0.15221000  0.01581000  1.0 0.0334145798
C  C20  1  0.15221000  0.97315000  0.48419000  1.0 0.0334145798
C  C21  1  0.93085000  0.81463000  0.96830000  1.0 -0.1419660994
C  C22  1  0.81463000  0.93085000  0.53170000  1.0 -0.1419660994
C  C23  1  0.06915000  0.18537000  0.03170000  1.0 -0.1419660994
C  C24  1  0.18537000  0.06915000  0.46830000  1.0 -0.1419660994
C  C25  1  0.18270000  0.87510000  0.95653000  1.0 -0.1094026623
C  C26  1  0.87510000  0.18270000  0.54347000  1.0 -0.1094026623
C  C27  1  0.81730000  0.12490000  0.04347000  1.0 -0.1094026623
C  C28  1  0.12490000  0.81730000  0.45653000  1.0 -0.1094026623
C  C29  1  0.19413000  0.78961000  0.98906000  1.0 -0.20115795
C  C30  1  0.78961000  0.19413000  0.51094000  1.0 -0.20115795
C  C31  1  0.80587000  0.21039000  0.01094000  1.0 -0.20115795
C  C32  1  0.21039000  0.80587000  0.48906000  1.0 -0.20115795
C  C33  1  0.29973000  0.82539000  0.01156000  1.0 -0.1014282692
C  C34  1  0.82539000  0.29973000  0.48844000  1.0 -0.1014282692
C  C35  1  0.70027000  0.17461000  0.98844000  1.0 -0.1014282692
C  C36  1  0.17461000  0.70027000  0.51156000  1.0 -0.1014282692
C  C37  1  0.34193000  0.70637000  0.98694000  1.0 0.0479993586
C  C38  1  0.70637000  0.34193000  0.51306000  1.0 0.0479993586
C  C39  1  0.65807000  0.29363000  0.01306000  1.0 0.0479993586
C  C40  1  0.29363000  0.65807000  0.48694000  1.0 0.0479993586
C  C41  1  0.35859000  0.63045000  0.00586000  1.0 -0.1419660994
C  C42  1  0.63045000  0.35859000  0.49414000  1.0 -0.1419660994
C  C43  1  0.64141000  0.36955000  0.99414000  1.0 -0.1419660994
C  C44  1  0.36955000  0.64141000  0.50586000  1.0 -0.1419660994
C  C45  1  0.34989000  0.59205000  0.07532000  1.0 0.0106135913
C  C46  1  0.59205000  0.34989000  0.42468000  1.0 0.0106135913
C  C47  1  0.65011000  0.40795000  0.92468000  1.0 0.0106135913
C  C48  1  0.40795000  0.65011000  0.57532000  1.0 0.0106135913
C  C49  1  0.32516000  0.63168000  0.12405000  1.0 -0.160787878
C  C50  1  0.63168000  0.32516000  0.37595000  1.0 -0.160787878
C  C51  1  0.67484000  0.36832000  0.87595000  1.0 -0.160787878
C  C52  1  0.36832000  0.67484000  0.62405000  1.0 -0.160787878
C  C53  1  0.30908000  0.70712000  0.10215000  1.0 0.0375527909
C  C54  1  0.70712000  0.30908000  0.39785000  1.0 0.0375527909
C  C55  1  0.69092000  0.29288000  0.89785000  1.0 0.0375527909
C  C56  1  0.29288000  0.69092000  0.60215000  1.0 0.0375527909
C  C57  1  0.36699000  0.50821000  0.09789000  1.0 0.4982659791
C  C58  1  0.50821000  0.36699000  0.40211000  1.0 0.4982659791
C  C59  1  0.63301000  0.49179000  0.90211000  1.0 0.4982659791
C  C60  1  0.49179000  0.63301000  0.59789000  1.0 0.4982659791
C  C61  1  0.43111000  0.52297000  0.84958000  1.0 0.4982659791
C  C62  1  0.52297000  0.43111000  0.65042000  1.0 0.4982659791
C  C63  1  0.56889000  0.47703000  0.15042000  1.0 0.4982659791
C  C64  1  0.47703000  0.56889000  0.34958000  1.0 0.4982659791
C  C65  1  0.32700000  0.45180000  0.83690000  1.0 0.0219749816
C  C66  1  0.45180000  0.32700000  0.66310000  1.0 0.0219749816
C  C67  1  0.67300000  0.54820000  0.16310000  1.0 0.0219749816
C  C68  1  0.54820000  0.67300000  0.33690000  1.0 0.0219749816
C  C69  1  0.26513000  0.41961000  0.89055000  1.0 -0.1419660994
C  C70  1  0.41961000  0.26513000  0.60945000  1.0 -0.1419660994
C  C71  1  0.73487000  0.58039000  0.10945000  1.0 -0.1419660994
C  C72  1  0.58039000  0.73487000  0.39055000  1.0 -0.1419660994
C  C73  1  0.16950000  0.36014000  0.87549000  1.0 0.0106135913
C  C74  1  0.36014000  0.16950000  0.62451000  1.0 0.0106135913
C  C75  1  0.83050000  0.63986000  0.12451000  1.0 0.0106135913
C  C76  1  0.63986000  0.83050000  0.37549000  1.0 0.0106135913
C  C77  1  0.19500000  0.35848000  0.75776000  1.0 0.0479993586
C  C78  1  0.35848000  0.19500000  0.74224000  1.0 0.0479993586
C  C79  1  0.80500000  0.64152000  0.24224000  1.0 0.0479993586
C  C80  1  0.64152000  0.80500000  0.25776000  1.0 0.0479993586
C  C81  1  0.29113000  0.41883000  0.77061000  1.0 -0.160787878
C  C82  1  0.41883000  0.29113000  0.72939000  1.0 -0.160787878
C  C83  1  0.70887000  0.58117000  0.22939000  1.0 -0.160787878
C  C84  1  0.58117000  0.70887000  0.27061000  1.0 -0.160787878
C  C85  1  0.02995000  0.27817000  0.79226000  1.0 -0.1014282692
C  C86  1  0.27817000  0.02995000  0.70774000  1.0 -0.1014282692
C  C87  1  0.97005000  0.72183000  0.20774000  1.0 -0.1014282692
C  C88  1  0.72183000  0.97005000  0.29226000  1.0 -0.1014282692
C  C89  1  0.98411000  0.34041000  0.79638000  1.0 -0.1920673029
C  C90  1  0.34041000  0.98411000  0.70362000  1.0 -0.1920673029
C  C91  1  0.01589000  0.65959000  0.20362000  1.0 -0.1920673029
C  C92  1  0.65959000  0.01589000  0.29638000  1.0 -0.1920673029
C  C93  1  0.04208000  0.44238000  0.76505000  1.0 -0.1014282692
C  C94  1  0.44238000  0.04208000  0.73495000  1.0 -0.1014282692
C  C95  1  0.95792000  0.55762000  0.23495000  1.0 -0.1014282692
C  C96  1  0.55762000  0.95792000  0.26505000  1.0 -0.1014282692
C  C97  1  0.94119000  0.50873000  0.78988000  1.0 0.0375527909
C  C98  1  0.50873000  0.94119000  0.71012000  1.0 0.0375527909
C  C99  1  0.05881000  0.49127000  0.21012000  1.0 0.0375527909
C  C100  1  0.49127000  0.05881000  0.28988000  1.0 0.0375527909
C  C101  1  0.87777000  0.54191000  0.76844000  1.0 -0.1691551732
C  C102  1  0.54191000  0.87777000  0.73156000  1.0 -0.1691551732
C  C103  1  0.12223000  0.45809000  0.23156000  1.0 -0.1691551732
C  C104  1  0.45809000  0.12223000  0.26844000  1.0 -0.1691551732
C  C105  1  0.85219000  0.55087000  0.69735000  1.0 0.0375527909
C  C106  1  0.55087000  0.85219000  0.80265000  1.0 0.0375527909
C  C107  1  0.14781000  0.44913000  0.30265000  1.0 0.0375527909
C  C108  1  0.44913000  0.14781000  0.19735000  1.0 0.0375527909
C  C109  1  0.89395000  0.52989000  0.64823000  1.0 -0.1419660994
C  C110  1  0.52989000  0.89395000  0.85177000  1.0 -0.1419660994
C  C111  1  0.10605000  0.47011000  0.35177000  1.0 -0.1419660994
C  C112  1  0.47011000  0.10605000  0.14823000  1.0 -0.1419660994
C  C113  1  0.95741000  0.49617000  0.67170000  1.0 0.0606050383
C  C114  1  0.49617000  0.95741000  0.82830000  1.0 0.0606050383
C  C115  1  0.04259000  0.50383000  0.32830000  1.0 0.0606050383
C  C116  1  0.50383000  0.04259000  0.17170000  1.0 0.0606050383
C  C117  1  0.77530000  0.57832000  0.67305000  1.0 0.4982659791
C  C118  1  0.57832000  0.77530000  0.82695000  1.0 0.4982659791
C  C119  1  0.22470000  0.42168000  0.32695000  1.0 0.4982659791
C  C120  1  0.42168000  0.22470000  0.17305000  1.0 0.4982659791
N  N1  1  0.08056000  0.84488000  0.93699000  1.0 0.0924411862
N  N2  1  0.84488000  0.08056000  0.56301000  1.0 0.0924411862
N  N3  1  0.91944000  0.15512000  0.06301000  1.0 0.0924411862
N  N4  1  0.15512000  0.91944000  0.43699000  1.0 0.0924411862
N  N5  1  0.31738000  0.74312000  0.03422000  1.0 0.0793163673
N  N6  1  0.74312000  0.31738000  0.46578000  1.0 0.0793163673
N  N7  1  0.68262000  0.25688000  0.96578000  1.0 0.0793163673
N  N8  1  0.25688000  0.68262000  0.53422000  1.0 0.0793163673
N  N9  1  0.13554000  0.33256000  0.80972000  1.0 0.0793163673
N  N10  1  0.33256000  0.13554000  0.69028000  1.0 0.0793163673
N  N11  1  0.86446000  0.66744000  0.19028000  1.0 0.0793163673
N  N12  1  0.66744000  0.86446000  0.30972000  1.0 0.0793163673
N  N13  1  0.97853000  0.48481000  0.74124000  1.0 0.1013762614
N  N14  1  0.48481000  0.97853000  0.75876000  1.0 0.1013762614
N  N15  1  0.02147000  0.51519000  0.25876000  1.0 0.1013762614
N  N16  1  0.51519000  0.02147000  0.24124000  1.0 0.1013762614
Cl  Cl1  1  0.45770000  0.06588000  0.49152000  1.0 1.0119417979
Cl  Cl2  1  0.06588000  0.45770000  0.00848000  1.0 1.0119417979
Cl  Cl3  1  0.54230000  0.93412000  0.50848000  1.0 1.0119417979
Cl  Cl4  1  0.93412000  0.54230000  0.99152000  1.0 1.0119417979
Cl  Cl5  1  0.71267000  0.23235000  0.70250000  1.0 1.216943927
Cl  Cl6  1  0.23235000  0.71267000  0.79750000  1.0 1.216943927
Cl  Cl7  1  0.28733000  0.76765000  0.29750000  1.0 1.216943927
Cl  Cl8  1  0.76765000  0.28733000  0.20250000  1.0 1.216943927
Cl  Cl9  1  0.89380000  0.84728000  0.37995000  1.0 1.2768858744
Cl  Cl10  1  0.84728000  0.89380000  0.12005000  1.0 1.2768858744
Cl  Cl11  1  0.10620000  0.15272000  0.62005000  1.0 1.2768858744
Cl  Cl12  1  0.15272000  0.10620000  0.87995000  1.0 1.2768858744
Cl  Cl13  1  0.89262000  0.58032000  0.43109000  1.0 1.2485157325
Cl  Cl14  1  0.58032000  0.89262000  0.06891000  1.0 1.2485157325
Cl  Cl15  1  0.10738000  0.41968000  0.56891000  1.0 1.2485157325
Cl  Cl16  1  0.41968000  0.10738000  0.93109000  1.0 1.2485157325
O  O1  1  0.59022000  0.66588000  0.03686000  1.0 -0.0532808082
O  O2  1  0.66588000  0.59022000  0.46314000  1.0 -0.0532808082
O  O3  1  0.40978000  0.33412000  0.96314000  1.0 -0.0580486564
O  O4  1  0.33412000  0.40978000  0.53686000  1.0 -0.0580486564
O  O5  1  0.73566000  0.72116000  0.93699000  1.0 -0.4592519838
O  O6  1  0.72116000  0.73566000  0.56301000  1.0 -0.4592519838
O  O7  1  0.26434000  0.27884000  0.06301000  1.0 -0.4592519838
O  O8  1  0.27884000  0.26434000  0.43699000  1.0 -0.4592519838
O  O9  1  0.75071000  0.73471000  0.82209000  1.0 -0.2370166184
O  O10  1  0.73471000  0.75071000  0.67791000  1.0 -0.2370166184
O  O11  1  0.24929000  0.26529000  0.17791000  1.0 -0.2370166184
O  O12  1  0.26529000  0.24929000  0.32209000  1.0 -0.2370166184
O  O13  1  0.32359000  0.46529000  0.15544000  1.0 -0.2463437674
O  O14  1  0.46529000  0.32359000  0.34456000  1.0 -0.2463437674
O  O15  1  0.67641000  0.53471000  0.84456000  1.0 -0.2463437674
O  O16  1  0.53471000  0.67641000  0.65544000  1.0 -0.2463437674
O  O17  1  0.38209000  0.47181000  0.05331000  1.0 -0.4427387194
O  O18  1  0.47181000  0.38209000  0.44669000  1.0 -0.4427387194
O  O19  1  0.61791000  0.52819000  0.94669000  1.0 -0.4427387194
O  O20  1  0.52819000  0.61791000  0.55331000  1.0 -0.4427387194
O  O21  1  0.46051000  0.55555000  0.90724000  1.0 -0.4427387194
O  O22  1  0.55555000  0.46051000  0.59276000  1.0 -0.4427387194
O  O23  1  0.53949000  0.44445000  0.09276000  1.0 -0.4427387194
O  O24  1  0.44445000  0.53949000  0.40724000  1.0 -0.4427387194
O  O25  1  0.48866000  0.51026000  0.80863000  1.0 -0.1920673029
O  O26  1  0.51026000  0.48866000  0.69137000  1.0 -0.1920673029
O  O27  1  0.51134000  0.48974000  0.19137000  1.0 -0.1920673029
O  O28  1  0.48974000  0.51134000  0.30863000  1.0 -0.1920673029
O  O29  1  0.75122000  0.57916000  0.60994000  1.0 -0.4427387194
O  O30  1  0.57916000  0.75122000  0.89006000  1.0 -0.4427387194
O  O31  1  0.24878000  0.42084000  0.39006000  1.0 -0.4427387194
O  O32  1  0.42084000  0.24878000  0.10994000  1.0 -0.4427387194
O  O33  1  0.76823000  0.62831000  0.71241000  1.0 -0.1419660994
O  O34  1  0.62831000  0.76823000  0.78759000  1.0 -0.1419660994
O  O35  1  0.23177000  0.37169000  0.28759000  1.0 -0.1419660994
O  O36  1  0.37169000  0.23177000  0.21241000  1.0 -0.1419660994
O  O37  1  0.71336000  0.56224000  0.72338000  1.0 -0.1787691341
O  O38  1  0.56224000  0.71336000  0.77662000  1.0 -0.1787691341
O  O39  1  0.28664000  0.43776000  0.27662000  1.0 -0.1787691341
O  O40  1  0.43776000  0.28664000  0.22338000  1.0 -0.1787691341
O  O41  1  0.47120000  0.57942000  0.79500000  1.0 -0.2463437674
O  O42  1  0.57942000  0.47120000  0.70500000  1.0 -0.2463437674
O  O43  1  0.52880000  0.42058000  0.20500000  1.0 -0.2463437674
O  O44  1  0.42058000  0.52880000  0.29500000  1.0 -0.2463437674
O  O45  1  0.75187000  0.68741000  0.83471000  1.0 -0.2337390707
O  O46  1  0.68741000  0.75187000  0.66529000  1.0 -0.2337390707
O  O47  1  0.24813000  0.31259000  0.16529000  1.0 -0.2337390707
O  O48  1  0.31259000  0.24813000  0.33471000  1.0 -0.2337390707
O  O49  1  0.40749000  0.50127000  0.16299000  1.0 -0.0940565785
O  O50  1  0.50127000  0.40749000  0.33701000  1.0 -0.0940565785
O  O51  1  0.59251000  0.49873000  0.83701000  1.0 -0.0940565785
O  O52  1  0.49873000  0.59251000  0.66299000  1.0 -0.0940565785
O  O53  1  0.39728000  0.01708000  0.43435000  1.0 -0.4592519838
O  O54  1  0.55227000  0.10083000  0.47327000  1.0 -0.4592519838
O  O55  1  0.45344000  0.12636000  0.51710000  1.0 -0.1691551732
O  O56  1  0.43660000  0.02820000  0.55184000  1.0 -0.2337390707
O  O57  1  0.01708000  0.39728000  0.06565000  1.0 -0.4592519838
O  O58  1  0.10083000  0.55227000  0.02673000  1.0 -0.4592519838
O  O59  1  0.12636000  0.45344000  0.98290000  1.0 -0.1691551732
O  O60  1  0.02820000  0.43660000  0.94816000  1.0 -0.2337390707
O  O61  1  0.60272000  0.98292000  0.56565000  1.0 -0.4592519838
O  O62  1  0.44773000  0.89917000  0.52673000  1.0 -0.4592519838
O  O63  1  0.54656000  0.87364000  0.48290000  1.0 -0.1787691341
O  O64  1  0.56340000  0.97180000  0.44816000  1.0 -0.2337390707
O  O65  1  0.98292000  0.60272000  0.93435000  1.0 -0.4592519838
O  O66  1  0.89917000  0.44773000  0.97327000  1.0 -0.4592519838
O  O67  1  0.87364000  0.54656000  0.01710000  1.0 -0.1787691341
O  O68  1  0.97180000  0.56340000  0.05184000  1.0 -0.2337390707
O  O69  1  0.63785000  0.21257000  0.65491000  1.0 -0.4337240236
O  O70  1  0.74851000  0.31369000  0.74170000  1.0 -0.4592519838
O  O71  1  0.67864000  0.15874000  0.75473000  1.0 -0.4427387194
O  O72  1  0.78985000  0.25629000  0.66541000  1.0 -0.4528613763
O  O73  1  0.21257000  0.63785000  0.84509000  1.0 -0.4337240236
O  O74  1  0.31369000  0.74851000  0.75830000  1.0 -0.4592519838
O  O75  1  0.15874000  0.67864000  0.74527000  1.0 -0.4427387194
O  O76  1  0.25629000  0.78985000  0.83459000  1.0 -0.4528613763
O  O77  1  0.36215000  0.78743000  0.34509000  1.0 -0.4337240236
O  O78  1  0.25149000  0.68631000  0.25830000  1.0 -0.4592519838
O  O79  1  0.32136000  0.84126000  0.24527000  1.0 -0.4427387194
O  O80  1  0.21015000  0.74371000  0.33459000  1.0 -0.4528613763
O  O81  1  0.78743000  0.36215000  0.15491000  1.0 -0.4337240236
O  O82  1  0.68631000  0.25149000  0.24170000  1.0 -0.4592519838
O  O83  1  0.84126000  0.32136000  0.25473000  1.0 -0.4427387194
O  O84  1  0.74371000  0.21015000  0.16541000  1.0 -0.4528613763
O  O85  1  0.80212000  0.76312000  0.37099000  1.0 -0.4770941065
O  O86  1  0.93555000  0.84535000  0.45026000  1.0 -0.4914112688
O  O87  1  0.95599000  0.85171000  0.33083000  1.0 -0.501651168
O  O88  1  0.88066000  0.93014000  0.36823000  1.0 -0.501651168
O  O89  1  0.76312000  0.80212000  0.12901000  1.0 -0.4770941065
O  O90  1  0.84535000  0.93555000  0.04974000  1.0 -0.4914112688
O  O91  1  0.85171000  0.95599000  0.16917000  1.0 -0.501651168
O  O92  1  0.93014000  0.88066000  0.13177000  1.0 -0.501651168
O  O93  1  0.19788000  0.23688000  0.62901000  1.0 -0.4770941065
O  O94  1  0.06445000  0.15465000  0.54974000  1.0 -0.4914112688
O  O95  1  0.04401000  0.14829000  0.66917000  1.0 -0.501651168
O  O96  1  0.11934000  0.06986000  0.63177000  1.0 -0.501651168
O  O97  1  0.23688000  0.19788000  0.87099000  1.0 -0.4770941065
O  O98  1  0.15465000  0.06445000  0.95026000  1.0 -0.4914112688
O  O99  1  0.14829000  0.04401000  0.83083000  1.0 -0.501651168
O  O100  1  0.06986000  0.11934000  0.86823000  1.0 -0.501651168
O  O101  1  0.79584000  0.54164000  0.40300000  1.0 -0.4592519838
O  O102  1  0.90619000  0.63423000  0.48921000  1.0 -0.4592519838
O  O103  1  0.95609000  0.64261000  0.37812000  1.0 -0.5252550171
O  O104  1  0.91492000  0.50558000  0.45555000  1.0 -0.501651168
O  O105  1  0.54164000  0.79584000  0.09700000  1.0 -0.4592519838
O  O106  1  0.63423000  0.90619000  0.01079000  1.0 -0.4592519838
O  O107  1  0.64261000  0.95609000  0.12188000  1.0 -0.5252550171
O  O108  1  0.50558000  0.91492000  0.04445000  1.0 -0.501651168
O  O109  1  0.20416000  0.45836000  0.59700000  1.0 -0.4592519838
O  O110  1  0.09381000  0.36577000  0.51079000  1.0 -0.4592519838
O  O111  1  0.04391000  0.35739000  0.62188000  1.0 -0.5252550171
O  O112  1  0.08508000  0.49442000  0.54445000  1.0 -0.501651168
O  O113  1  0.45836000  0.20416000  0.90300000  1.0 -0.4592519838
O  O114  1  0.36577000  0.09381000  0.98921000  1.0 -0.4592519838
O  O115  1  0.35739000  0.04391000  0.87812000  1.0 -0.5252550171
O  O116  1  0.49442000  0.08508000  0.95555000  1.0 -0.501651168
