# DDEC6 charges by PACMAN v1.1 (https://github.com/mtap-research/PACMAN-charge/)
data_DIMMOF_FSR_pacman
_symmetry_space_group_name_H-M   'P 1'
_cell_length_a   7.44200000
_cell_length_b   10.07500000
_cell_length_c   12.88700000
_cell_angle_alpha   90.74000000
_cell_angle_beta   94.86000000
_cell_angle_gamma   96.93000000
_symmetry_Int_Tables_number   1
_chemical_formula_structural   NiH20C34(NO)6
_chemical_formula_sum   'Ni1 H20 C34 N6 O6'
_cell_volume   955.47425726
_cell_formula_units_Z   1
loop_
 _symmetry_equiv_pos_site_id
 _symmetry_equiv_pos_as_xyz
  1  'x, y, z'
loop_
 _atom_site_type_symbol
 _atom_site_label
 _atom_site_symmetry_multiplicity
 _atom_site_fract_x
 _atom_site_fract_y
 _atom_site_fract_z
 _atom_site_occupancy
 _atom_site_charge
Ni  Ni1  1  0.00000000  0.50000000  0.00000000  1.0 0.8284000271
H  H1  1  0.43390000  0.71710000  0.57240000  1.0 0.3043459767
H  H2  1  0.56610000  0.28290000  0.42760000  1.0 0.3043459767
H  H3  1  0.34930000  0.46650000  0.90510000  1.0 0.121321749
H  H4  1  0.65070000  0.53350000  0.09490000  1.0 0.121321749
H  H5  1  0.97080000  0.69150000  0.81740000  1.0 0.1140051522
H  H6  1  0.02920000  0.30850000  0.18260000  1.0 0.1140051522
H  H7  1  0.11610000  0.76610000  0.67420000  1.0 0.1511624122
H  H8  1  0.88390000  0.23390000  0.32580000  1.0 0.1511624122
H  H9  1  0.81880000  0.42530000  0.66230000  1.0 0.1356670671
H  H10  1  0.18120000  0.57470000  0.33770000  1.0 0.1356670671
H  H11  1  0.42240000  0.24610000  0.02470000  1.0 0.121321749
H  H12  1  0.57760000  0.75390000  0.97530000  1.0 0.121321749
H  H13  1  0.31100000  0.29310000  0.51910000  1.0 0.121321749
H  H14  1  0.68900000  0.70690000  0.48090000  1.0 0.121321749
H  H15  1  0.07880000  0.32480000  0.61520000  1.0 0.1303428524
H  H16  1  0.92120000  0.67520000  0.38480000  1.0 0.1303428524
H  H17  1  0.70970000  0.17710000  0.06110000  1.0 0.121321749
H  H18  1  0.29030000  0.82290000  0.93890000  1.0 0.121321749
H  H19  1  0.08280000  0.96570000  0.91650000  1.0 0.121321749
H  H20  1  0.91720000  0.03430000  0.08350000  1.0 0.121321749
C  C1  1  0.39520000  0.56400000  0.77260000  1.0 0.0822196567
C  C2  1  0.60480000  0.43600000  0.22740000  1.0 0.0822196567
C  C3  1  0.32370000  0.65410000  0.70290000  1.0 0.1673072764
C  C4  1  0.67630000  0.34590000  0.29710000  1.0 0.1673072764
C  C5  1  0.30210000  0.52520000  0.85800000  1.0 0.0020523629
C  C6  1  0.69790000  0.47480000  0.14200000  1.0 0.0020523629
C  C7  1  0.07950000  0.65970000  0.80510000  1.0 0.0476576761
C  C8  1  0.92050000  0.34030000  0.19490000  1.0 0.0476576761
C  C9  1  0.16390000  0.70500000  0.71890000  1.0 -0.2344648129
C  C10  1  0.83610000  0.29500000  0.28110000  1.0 -0.2344648129
C  C11  1  0.57520000  0.58730000  0.65070000  1.0 0.2874344998
C  C12  1  0.42480000  0.41270000  0.34930000  1.0 0.2874344998
C  C13  1  0.71980000  0.57100000  0.58310000  1.0 0.0227333178
C  C14  1  0.28020000  0.42900000  0.41690000  1.0 0.0227333178
C  C15  1  0.09120000  0.23160000  0.93740000  1.0 0.5393840187
C  C16  1  0.90880000  0.76840000  0.06260000  1.0 0.5393840187
C  C17  1  0.83550000  0.47850000  0.60460000  1.0 -0.2004739529
C  C18  1  0.16450000  0.52150000  0.39540000  1.0 -0.2004739529
C  C19  1  0.98230000  0.45860000  0.54270000  1.0 0.0561356732
C  C20  1  0.01770000  0.54140000  0.45730000  1.0 0.0561356732
C  C21  1  0.22370000  0.12930000  0.95210000  1.0 -0.0231848051
C  C22  1  0.77630000  0.87070000  0.04790000  1.0 -0.0231848051
C  C23  1  0.38970000  0.15910000  0.99890000  1.0 -0.1287026914
C  C24  1  0.61030000  0.84090000  0.00110000  1.0 -0.1364343948
C  C25  1  0.52260000  0.06730000  0.01260000  1.0 0.0561356732
C  C26  1  0.47740000  0.93270000  0.98740000  1.0 0.0561356732
C  C27  1  0.23940000  0.35930000  0.49870000  1.0 -0.175813008
C  C28  1  0.76060000  0.64070000  0.50130000  1.0 -0.175813008
C  C29  1  0.09280000  0.37900000  0.55780000  1.0 -0.1287026914
C  C30  1  0.90720000  0.62100000  0.44220000  1.0 -0.1287026914
C  C31  1  0.66850000  0.08810000  0.04370000  1.0 -0.082387451
C  C32  1  0.33150000  0.91190000  0.95630000  1.0 -0.082387451
C  C33  1  0.20000000  0.00330000  0.93950000  1.0 -0.1057389191
C  C34  1  0.80000000  0.99670000  0.06050000  1.0 -0.1057389191
N  N1  1  0.14430000  0.57150000  0.87350000  1.0 -0.2368667981
N  N2  1  0.85570000  0.42850000  0.12650000  1.0 -0.2368667981
N  N3  1  0.55350000  0.52380000  0.73910000  1.0 -0.3038996048
N  N4  1  0.44650000  0.47620000  0.26090000  1.0 -0.3038996048
N  N5  1  0.44200000  0.66750000  0.62600000  1.0 -0.3082891739
N  N6  1  0.55800000  0.33250000  0.37400000  1.0 -0.3082891739
O  O1  1  0.11950000  0.32830000  0.99950000  1.0 -0.5295051224
O  O2  1  0.88050000  0.67170000  0.00050000  1.0 -0.5295051224
O  O3  1  0.22500000  0.58980000  0.09850000  1.0 -0.1689240447
O  O4  1  0.77500000  0.41020000  0.90150000  1.0 -0.1689240447
O  O5  1  0.96830000  0.21340000  0.86570000  1.0 -0.4865734465
O  O6  1  0.03170000  0.78660000  0.13430000  1.0 -0.4865734465
