# DDEC6 charges by PACMAN v1.1 (https://github.com/mtap-research/PACMAN-charge/)
data_DIMMIZ_ASR_pacman
_symmetry_space_group_name_H-M   'P 1'
_cell_length_a   8.32300000
_cell_length_b   14.70400000
_cell_length_c   15.61300000
_cell_angle_alpha   108.40000000
_cell_angle_beta   105.07000000
_cell_angle_gamma   93.56000000
_symmetry_Int_Tables_number   1
_chemical_formula_structural   CoH22C34(N3O2)2
_chemical_formula_sum   'Co2 H44 C68 N12 O8'
_cell_volume   1728.89695692
_cell_formula_units_Z   2
loop_
 _symmetry_equiv_pos_site_id
 _symmetry_equiv_pos_as_xyz
  1  'x, y, z'
loop_
 _atom_site_type_symbol
 _atom_site_label
 _atom_site_symmetry_multiplicity
 _atom_site_fract_x
 _atom_site_fract_y
 _atom_site_fract_z
 _atom_site_occupancy
 _atom_site_charge
Co  Co1  1  0.61776000  0.88258000  0.95890000  1.0 0.8502241594
Co  Co2  1  0.38224000  0.11742000  0.04110000  1.0 0.8502241594
H  H1  1  0.18100000  0.18320000  0.21160000  1.0 0.3073203114
H  H2  1  0.81900000  0.81680000  0.78840000  1.0 0.3073203114
H  H3  1  0.98880000  0.68810000  0.53740000  1.0 0.3073203114
H  H4  1  0.01120000  0.31190000  0.46260000  1.0 0.3073203114
H  H5  1  0.92980000  0.04540000  0.06420000  1.0 0.1271447448
H  H6  1  0.07020000  0.95460000  0.93580000  1.0 0.1271447448
H  H7  1  0.46430000  0.91200000  0.76840000  1.0 0.1137904016
H  H8  1  0.53570000  0.08800000  0.23160000  1.0 0.1137904016
H  H9  1  0.71800000  0.86060000  0.15370000  1.0 0.1137904016
H  H10  1  0.28200000  0.13940000  0.84630000  1.0 0.1137904016
H  H11  1  0.32090000  0.71840000  0.86730000  1.0 0.1271447448
H  H12  1  0.67910000  0.28160000  0.13270000  1.0 0.1271447448
H  H13  1  0.16300000  0.88160000  0.12590000  1.0 0.1381038897
H  H14  1  0.83700000  0.11840000  0.87410000  1.0 0.1381038897
H  H15  1  0.89460000  0.93200000  0.30620000  1.0 0.1381038897
H  H16  1  0.10540000  0.06800000  0.69380000  1.0 0.1381038897
H  H17  1  0.30540000  0.58910000  0.04810000  1.0 0.1209916215
H  H18  1  0.69460000  0.41090000  0.95190000  1.0 0.1209916215
H  H19  1  0.34370000  0.74990000  0.04610000  1.0 0.1271447448
H  H20  1  0.65630000  0.25010000  0.95390000  1.0 0.1271447448
H  H21  1  0.36550000  0.30650000  0.31030000  1.0 0.1209916215
H  H22  1  0.63450000  0.69350000  0.68970000  1.0 0.1209916215
H  H23  1  0.25330000  0.84930000  0.62950000  1.0 0.1485474741
H  H24  1  0.74670000  0.15070000  0.37050000  1.0 0.1485474741
H  H25  1  0.11590000  0.36820000  0.14840000  1.0 0.1381038897
H  H26  1  0.88410000  0.63180000  0.85160000  1.0 0.1381038897
H  H27  1  0.83570000  0.46350000  0.64310000  1.0 0.1209916215
H  H28  1  0.16430000  0.53650000  0.35690000  1.0 0.1209916215
H  H29  1  0.28380000  0.42710000  0.04060000  1.0 0.1209916215
H  H30  1  0.71620000  0.57290000  0.95940000  1.0 0.1209916215
H  H31  1  0.00570000  0.50570000  0.17860000  1.0 0.1209916215
H  H32  1  0.99430000  0.49430000  0.82140000  1.0 0.1209916215
H  H33  1  0.03620000  0.77510000  0.17130000  1.0 0.1209916215
H  H34  1  0.96380000  0.22490000  0.82870000  1.0 0.1209916215
H  H35  1  0.90970000  0.65440000  0.20810000  1.0 0.1209916215
H  H36  1  0.09030000  0.34560000  0.79190000  1.0 0.1209916215
H  H37  1  0.77640000  0.56310000  0.43670000  1.0 0.1209916215
H  H38  1  0.22360000  0.43690000  0.56330000  1.0 0.1209916215
H  H39  1  0.56410000  0.44350000  0.34590000  1.0 0.1271447448
H  H40  1  0.43590000  0.55650000  0.65410000  1.0 0.1271447448
H  H41  1  0.64270000  0.31840000  0.59580000  1.0 0.1271447448
H  H42  1  0.35730000  0.68160000  0.40420000  1.0 0.1271447448
H  H43  1  0.40760000  0.19790000  0.50260000  1.0 0.1209916215
H  H44  1  0.59240000  0.80210000  0.49740000  1.0 0.1209916215
C  C1  1  0.02310000  0.06920000  0.20410000  1.0 0.0889054907
C  C2  1  0.97690000  0.93080000  0.79590000  1.0 0.0889054907
C  C3  1  0.01960000  0.03600000  0.27790000  1.0 0.1485474741
C  C4  1  0.98040000  0.96400000  0.72210000  1.0 0.1485474741
C  C5  1  0.33850000  0.92610000  0.06590000  1.0 0.6148189826
C  C6  1  0.66150000  0.07390000  0.93410000  1.0 0.6148189826
C  C7  1  0.91890000  0.02350000  0.11240000  1.0 0.0120555127
C  C8  1  0.08110000  0.97650000  0.88760000  1.0 0.0120555127
C  C9  1  0.39040000  0.85740000  0.75930000  1.0 0.0527383422
C  C10  1  0.60960000  0.14260000  0.24070000  1.0 0.0527383422
C  C11  1  0.21630000  0.15930000  0.33430000  1.0 0.2982067836
C  C12  1  0.78370000  0.84070000  0.66570000  1.0 0.2982067836
C  C13  1  0.79720000  0.91450000  0.16700000  1.0 0.0302006445
C  C14  1  0.20280000  0.08550000  0.83300000  1.0 0.0302006445
C  C15  1  0.18350000  0.70020000  0.73550000  1.0 0.0693674681
C  C16  1  0.81650000  0.29980000  0.26450000  1.0 0.0693674681
C  C17  1  0.26030000  0.27370000  0.07930000  1.0 0.5904119236
C  C18  1  0.73970000  0.72630000  0.92070000  1.0 0.5904119236
C  C19  1  0.30950000  0.74340000  0.81860000  1.0 0.0302006445
C  C20  1  0.69050000  0.25660000  0.18140000  1.0 0.0302006445
C  C21  1  0.24190000  0.85900000  0.09500000  1.0 -0.2212758522
C  C22  1  0.75810000  0.14100000  0.90500000  1.0 -0.2212758522
C  C23  1  0.15950000  0.73870000  0.66390000  1.0 0.1591479999
C  C24  1  0.84050000  0.26130000  0.33610000  1.0 0.1591479999
C  C25  1  0.90280000  0.95660000  0.25920000  1.0 -0.2212758522
C  C26  1  0.09720000  0.04340000  0.74080000  1.0 -0.2212758522
C  C27  1  0.97340000  0.60800000  0.61810000  1.0 0.2947060985
C  C28  1  0.02660000  0.39200000  0.38190000  1.0 0.2947060985
C  C29  1  0.18150000  0.69590000  0.10440000  1.0 0.1209916215
C  C30  1  0.81850000  0.30410000  0.89560000  1.0 0.1209916215
C  C31  1  0.83080000  0.52990000  0.55360000  1.0 0.0302006445
C  C32  1  0.16920000  0.47010000  0.44640000  1.0 0.0302006445
C  C33  1  0.16100000  0.53080000  0.10850000  1.0 0.1209916215
C  C34  1  0.83900000  0.46920000  0.89150000  1.0 0.1137904016
C  C35  1  0.22770000  0.60290000  0.08190000  1.0 -0.1939724611
C  C36  1  0.77230000  0.39710000  0.91810000  1.0 -0.1939724611
C  C37  1  0.26530000  0.76960000  0.07820000  1.0 -0.0924670829
C  C38  1  0.73470000  0.23040000  0.92180000  1.0 -0.0924670829
C  C39  1  0.41520000  0.30700000  0.37120000  1.0 -0.2089427091
C  C40  1  0.58480000  0.69300000  0.62880000  1.0 -0.2089427091
C  C41  1  0.26610000  0.82090000  0.67580000  1.0 -0.2212758522
C  C42  1  0.73390000  0.17910000  0.32420000  1.0 -0.2089427091
C  C43  1  0.35070000  0.23700000  0.39630000  1.0 0.0212356641
C  C44  1  0.64930000  0.76300000  0.60370000  1.0 0.0212356641
C  C45  1  0.18540000  0.36360000  0.10970000  1.0 -0.2212758522
C  C46  1  0.81460000  0.63640000  0.89030000  1.0 -0.2212758522
C  C47  1  0.78040000  0.46280000  0.58280000  1.0 -0.2212758522
C  C48  1  0.21960000  0.53720000  0.41720000  1.0 -0.2212758522
C  C49  1  0.21800000  0.43650000  0.08160000  1.0 -0.0982971715
C  C50  1  0.78200000  0.56350000  0.91840000  1.0 -0.0982971715
C  C51  1  0.04790000  0.55220000  0.15790000  1.0 -0.1486035588
C  C52  1  0.95210000  0.44780000  0.84210000  1.0 -0.1486035588
C  C53  1  0.06630000  0.71350000  0.15380000  1.0 -0.1432965176
C  C54  1  0.93370000  0.28650000  0.84620000  1.0 -0.1432965176
C  C55  1  0.99350000  0.64250000  0.17840000  1.0 -0.0924670829
C  C56  1  0.00650000  0.35750000  0.82160000  1.0 -0.0924670829
C  C57  1  0.55430000  0.38280000  0.43000000  1.0 0.0527383422
C  C58  1  0.44570000  0.61720000  0.57000000  1.0 0.0527383422
C  C59  1  0.64090000  0.38770000  0.52390000  1.0 0.0693674681
C  C60  1  0.35910000  0.61230000  0.47610000  1.0 0.0693674681
C  C61  1  0.74430000  0.51850000  0.46250000  1.0 -0.1760547461
C  C62  1  0.25570000  0.48150000  0.53750000  1.0 -0.1760547461
C  C63  1  0.61290000  0.44520000  0.40730000  1.0 -0.1078133921
C  C64  1  0.38710000  0.55480000  0.59270000  1.0 -0.1078133921
C  C65  1  0.58690000  0.32360000  0.53800000  1.0 -0.1211836862
C  C66  1  0.41310000  0.67640000  0.46200000  1.0 -0.1211836862
C  C67  1  0.43690000  0.24390000  0.47770000  1.0 -0.1486035588
C  C68  1  0.56310000  0.75610000  0.52230000  1.0 -0.1486035588
N  N1  1  0.80230000  0.94740000  0.09440000  1.0 -0.2637948173
N  N2  1  0.19770000  0.05260000  0.90560000  1.0 -0.2637948173
N  N3  1  0.15000000  0.14820000  0.24110000  1.0 -0.2991044598
N  N4  1  0.85000000  0.85180000  0.75890000  1.0 -0.2991044598
N  N5  1  0.14140000  0.09410000  0.36030000  1.0 -0.4497729617
N  N6  1  0.85860000  0.90590000  0.63970000  1.0 -0.4497729617
N  N7  1  0.41540000  0.82060000  0.83040000  1.0 -0.2538890469
N  N8  1  0.58460000  0.17940000  0.16960000  1.0 -0.2538890469
N  N9  1  0.06250000  0.61680000  0.70730000  1.0 -0.40241427
N  N10  1  0.93750000  0.38320000  0.29270000  1.0 -0.40241427
N  N11  1  0.02910000  0.68060000  0.59100000  1.0 -0.2908008175
N  N12  1  0.97090000  0.31940000  0.40900000  1.0 -0.2908008175
O  O1  1  0.21930000  0.20510000  0.10660000  1.0 -0.5476674067
O  O2  1  0.78070000  0.79490000  0.89340000  1.0 -0.5476674067
O  O3  1  0.30090000  0.01110000  0.08380000  1.0 -0.5476674067
O  O4  1  0.69910000  0.98890000  0.91620000  1.0 -0.5476674067
O  O5  1  0.35760000  0.26320000  0.02830000  1.0 -0.5571634846
O  O6  1  0.64240000  0.73680000  0.97170000  1.0 -0.5571634846
O  O7  1  0.44320000  0.89600000  0.02490000  1.0 -0.5369958358
O  O8  1  0.55680000  0.10400000  0.97510000  1.0 -0.5369958358
