# DDEC6 charges by PACMAN v1.1 (https://github.com/mtap-research/PACMAN-charge/)
data_DIMQOH_ASR_pacman
_symmetry_space_group_name_H-M   'P 1'
_cell_length_a   10.58410000
_cell_length_b   10.58410000
_cell_length_c   12.22460000
_cell_angle_alpha   90.00000000
_cell_angle_beta   90.00000000
_cell_angle_gamma   112.85400000
_symmetry_Int_Tables_number   1
_chemical_formula_structural   MnAg2H8(C7N3)2
_chemical_formula_sum   'Mn2 Ag4 H16 C28 N12'
_cell_volume   1261.93415799
_cell_formula_units_Z   2
loop_
 _symmetry_equiv_pos_site_id
 _symmetry_equiv_pos_as_xyz
  1  'x, y, z'
loop_
 _atom_site_type_symbol
 _atom_site_label
 _atom_site_symmetry_multiplicity
 _atom_site_fract_x
 _atom_site_fract_y
 _atom_site_fract_z
 _atom_site_occupancy
 _atom_site_charge
Mn  Mn1  1  0.50000000  0.50000000  0.00000000  1.0 0.8326396667
Mn  Mn2  1  0.00000000  0.00000000  0.50000000  1.0 0.8326396667
Ag  Ag1  1  0.75429000  0.24571000  0.24211000  1.0 0.1382633485
Ag  Ag2  1  0.74571000  0.25429000  0.74211000  1.0 0.1382633485
Ag  Ag3  1  0.25429000  0.74571000  0.25789000  1.0 0.1382633485
Ag  Ag4  1  0.24571000  0.75429000  0.75789000  1.0 0.1382633485
H  H1  1  0.30080000  0.26680000  0.15580000  1.0 0.0961911375
H  H2  1  0.19920000  0.23320000  0.65580000  1.0 0.0961911375
H  H3  1  0.23320000  0.19920000  0.34420000  1.0 0.0961911375
H  H4  1  0.26680000  0.30080000  0.84420000  1.0 0.0961911375
H  H5  1  0.69920000  0.73320000  0.84420000  1.0 0.0961911375
H  H6  1  0.80080000  0.76680000  0.34420000  1.0 0.0961911375
H  H7  1  0.76680000  0.80080000  0.65580000  1.0 0.0961911375
H  H8  1  0.73320000  0.69920000  0.15580000  1.0 0.0961911375
H  H9  1  0.08460000  0.08900000  0.16270000  1.0 0.1349325203
H  H10  1  0.41540000  0.41100000  0.66270000  1.0 0.1382633485
H  H11  1  0.41100000  0.41540000  0.33730000  1.0 0.1382633485
H  H12  1  0.08900000  0.08460000  0.83730000  1.0 0.1349325203
H  H13  1  0.91540000  0.91100000  0.83730000  1.0 0.1382633485
H  H14  1  0.58460000  0.58900000  0.33730000  1.0 0.1382633485
H  H15  1  0.58900000  0.58460000  0.66270000  1.0 0.1382633485
H  H16  1  0.91100000  0.91540000  0.16270000  1.0 0.1382633485
C  C1  1  0.64900000  0.35100000  0.16890000  1.0 -0.0186279495
C  C2  1  0.85100000  0.14900000  0.66890000  1.0 -0.0186279495
C  C3  1  0.14900000  0.85100000  0.33110000  1.0 -0.0186279495
C  C4  1  0.35100000  0.64900000  0.83110000  1.0 -0.0186279495
C  C5  1  0.85860000  0.14140000  0.31690000  1.0 -0.0186279495
C  C6  1  0.64140000  0.35860000  0.81690000  1.0 -0.0186279495
C  C7  1  0.35860000  0.64140000  0.18310000  1.0 -0.0186279495
C  C8  1  0.14140000  0.85860000  0.68310000  1.0 -0.0186279495
C  C9  1  0.25130000  0.23710000  0.08950000  1.0 0.0929650566
C  C10  1  0.24870000  0.26290000  0.58950000  1.0 0.0929650566
C  C11  1  0.26290000  0.24870000  0.41050000  1.0 0.0929650566
C  C12  1  0.23710000  0.25130000  0.91050000  1.0 0.0929650566
C  C13  1  0.74870000  0.76290000  0.91050000  1.0 0.0929650566
C  C14  1  0.75130000  0.73710000  0.41050000  1.0 0.0929650566
C  C15  1  0.73710000  0.75130000  0.58950000  1.0 0.0929650566
C  C16  1  0.76290000  0.74870000  0.08950000  1.0 0.0929650566
C  C17  1  0.12530000  0.12310000  0.09400000  1.0 -0.1874980215
C  C18  1  0.37470000  0.37690000  0.59400000  1.0 -0.1874980215
C  C19  1  0.37690000  0.37470000  0.40600000  1.0 -0.1874980215
C  C20  1  0.12310000  0.12530000  0.90600000  1.0 -0.1874980215
C  C21  1  0.87470000  0.87690000  0.90600000  1.0 -0.1874980215
C  C22  1  0.62530000  0.62310000  0.40600000  1.0 -0.1874980215
C  C23  1  0.62310000  0.62530000  0.59400000  1.0 -0.1874980215
C  C24  1  0.87690000  0.87470000  0.09400000  1.0 -0.1874980215
C  C25  1  0.06180000  0.06180000  0.00000000  1.0 0.1171226524
C  C26  1  0.43820000  0.43820000  0.50000000  1.0 0.1171226524
C  C27  1  0.93820000  0.93820000  0.00000000  1.0 0.1171226524
C  C28  1  0.56180000  0.56180000  0.50000000  1.0 0.1171226524
N  N1  1  0.59280000  0.40720000  0.12350000  1.0 -0.3478925355
N  N2  1  0.90720000  0.09280000  0.62350000  1.0 -0.3478925355
N  N3  1  0.09280000  0.90720000  0.37650000  1.0 -0.3478925355
N  N4  1  0.40720000  0.59280000  0.87650000  1.0 -0.3478925355
N  N5  1  0.91420000  0.08580000  0.36740000  1.0 -0.3478925355
N  N6  1  0.58580000  0.41420000  0.86740000  1.0 -0.3478925355
N  N7  1  0.41420000  0.58580000  0.13260000  1.0 -0.3478925355
N  N8  1  0.08580000  0.91420000  0.63260000  1.0 -0.3478925355
N  N9  1  0.30440000  0.30440000  0.00000000  1.0 -0.2168424926
N  N10  1  0.19560000  0.19560000  0.50000000  1.0 -0.2168424926
N  N11  1  0.69560000  0.69560000  0.00000000  1.0 -0.2168424926
N  N12  1  0.80440000  0.80440000  0.50000000  1.0 -0.2168424926
