# DDEC6 charges by PACMAN v1.1 (https://github.com/mtap-research/PACMAN-charge/)
data_DIMQIB_ASR_pacman
_symmetry_space_group_name_H-M   'P 1'
_cell_length_a   24.18230000
_cell_length_b   24.18230000
_cell_length_c   17.80510000
_cell_angle_alpha   87.83410000
_cell_angle_beta   92.16590000
_cell_angle_gamma   157.07600000
_symmetry_Int_Tables_number   1
_chemical_formula_structural   Co3H28C60(NO5)4
_chemical_formula_sum   'Co6 H56 C120 N8 O40'
_cell_volume   4052.61033615
_cell_formula_units_Z   2
loop_
 _symmetry_equiv_pos_site_id
 _symmetry_equiv_pos_as_xyz
  1  'x, y, z'
loop_
 _atom_site_type_symbol
 _atom_site_label
 _atom_site_symmetry_multiplicity
 _atom_site_fract_x
 _atom_site_fract_y
 _atom_site_fract_z
 _atom_site_occupancy
 _atom_site_charge
Co  Co1  1  0.64568000  0.00002000  0.50854000  1.0 0.8696932462
Co  Co2  1  0.00002000  0.64568000  0.99146000  1.0 0.8696932462
Co  Co3  1  0.35432000  0.99998000  0.49146000  1.0 0.8696932462
Co  Co4  1  0.99998000  0.35432000  0.00854000  1.0 0.8696932462
Co  Co5  1  0.50000000  0.00000000  0.50000000  1.0 1.0737737087
Co  Co6  1  0.00000000  0.50000000  0.00000000  1.0 1.0737737087
H  H1  1  0.03320000  0.46120000  0.41590000  1.0 0.1097689964
H  H2  1  0.46120000  0.03320000  0.08410000  1.0 0.1097689964
H  H3  1  0.96680000  0.53880000  0.58410000  1.0 0.1097689964
H  H4  1  0.53880000  0.96680000  0.91590000  1.0 0.1097689964
H  H5  1  0.80710000  0.31850000  0.57900000  1.0 0.1210036185
H  H6  1  0.31850000  0.80710000  0.92100000  1.0 0.1210036185
H  H7  1  0.19290000  0.68150000  0.42100000  1.0 0.1210036185
H  H8  1  0.68150000  0.19290000  0.07900000  1.0 0.1210036185
H  H9  1  0.39340000  0.72640000  0.31660000  1.0 0.1097689964
H  H10  1  0.72640000  0.39340000  0.18340000  1.0 0.1097689964
H  H11  1  0.60660000  0.27360000  0.68340000  1.0 0.1097689964
H  H12  1  0.27360000  0.60660000  0.81660000  1.0 0.1097689964
H  H13  1  0.27400000  0.60100000  0.20230000  1.0 0.1210036185
H  H14  1  0.60100000  0.27400000  0.29770000  1.0 0.1210036185
H  H15  1  0.72600000  0.39900000  0.79770000  1.0 0.1210036185
H  H16  1  0.39900000  0.72600000  0.70230000  1.0 0.1210036185
H  H17  1  0.27730000  0.76570000  0.15720000  1.0 0.1210036185
H  H18  1  0.76570000  0.27730000  0.34280000  1.0 0.1210036185
H  H19  1  0.72270000  0.23430000  0.84280000  1.0 0.1210036185
H  H20  1  0.23430000  0.72270000  0.65720000  1.0 0.1210036185
H  H21  1  0.39140000  0.88520000  0.26970000  1.0 0.1210036185
H  H22  1  0.88520000  0.39140000  0.23030000  1.0 0.1210036185
H  H23  1  0.60860000  0.11480000  0.73030000  1.0 0.1210036185
H  H24  1  0.11480000  0.60860000  0.76970000  1.0 0.1210036185
H  H25  1  0.88890000  0.14670000  0.48590000  1.0 0.1097689964
H  H26  1  0.14670000  0.88890000  0.01410000  1.0 0.1097689964
H  H27  1  0.11110000  0.85330000  0.51410000  1.0 0.1097689964
H  H28  1  0.85330000  0.11110000  0.98590000  1.0 0.1097689964
H  H29  1  0.93990000  0.11210000  0.42480000  1.0 0.1210036185
H  H30  1  0.11210000  0.93990000  0.07520000  1.0 0.1210036185
H  H31  1  0.06010000  0.88790000  0.57520000  1.0 0.1210036185
H  H32  1  0.88790000  0.06010000  0.92480000  1.0 0.1210036185
H  H33  1  0.53500000  0.72040000  0.38890000  1.0 0.1268179868
H  H34  1  0.72040000  0.53500000  0.11110000  1.0 0.1268179868
H  H35  1  0.46500000  0.27960000  0.61110000  1.0 0.1268179868
H  H36  1  0.27960000  0.46500000  0.88890000  1.0 0.1268179868
H  H37  1  0.49240000  0.76000000  0.44720000  1.0 0.1097689964
H  H38  1  0.76000000  0.49240000  0.05280000  1.0 0.1097689964
H  H39  1  0.50760000  0.24000000  0.55280000  1.0 0.1097689964
H  H40  1  0.24000000  0.50760000  0.94720000  1.0 0.1097689964
H  H41  1  0.71810000  0.83430000  0.13800000  1.0 0.073692745
H  H42  1  0.83430000  0.71810000  0.36200000  1.0 0.073692745
H  H43  1  0.28190000  0.16570000  0.86200000  1.0 0.073692745
H  H44  1  0.16570000  0.28190000  0.63800000  1.0 0.073692745
H  H45  1  0.93230000  0.89690000  0.43710000  1.0 0.0635477793
H  H46  1  0.89690000  0.93230000  0.06290000  1.0 0.0635477793
H  H47  1  0.06770000  0.10310000  0.56290000  1.0 0.0635477793
H  H48  1  0.10310000  0.06770000  0.93710000  1.0 0.0635477793
H  H49  1  0.86900000  0.98340000  0.13450000  1.0 0.0764292911
H  H50  1  0.98340000  0.86900000  0.36550000  1.0 0.0764292911
H  H51  1  0.13100000  0.01660000  0.86550000  1.0 0.0764292911
H  H52  1  0.01660000  0.13100000  0.63450000  1.0 0.0764292911
H  H53  1  0.79460000  0.75560000  0.43300000  1.0 0.073692745
H  H54  1  0.75560000  0.79460000  0.06700000  1.0 0.073692745
H  H55  1  0.20540000  0.24440000  0.56700000  1.0 0.073692745
H  H56  1  0.24440000  0.20540000  0.93300000  1.0 0.073692745
C  C1  1  0.80392000  0.22888000  0.49400000  1.0 0.5659835008
C  C2  1  0.22888000  0.80392000  0.00600000  1.0 0.5659835008
C  C3  1  0.19608000  0.77112000  0.50600000  1.0 0.5659835008
C  C4  1  0.77112000  0.19608000  0.99400000  1.0 0.5659835008
C  C5  1  0.90429000  0.36851000  0.49760000  1.0 -0.0184992001
C  C6  1  0.36851000  0.90429000  0.00240000  1.0 -0.0184992001
C  C7  1  0.09571000  0.63149000  0.50240000  1.0 -0.0184992001
C  C8  1  0.63149000  0.09571000  0.99760000  1.0 -0.0184992001
C  C9  1  0.01953000  0.47647000  0.44980000  1.0 -0.1083319229
C  C10  1  0.47647000  0.01953000  0.05020000  1.0 -0.1083319229
C  C11  1  0.98047000  0.52353000  0.55020000  1.0 -0.1083319229
C  C12  1  0.52353000  0.98047000  0.94980000  1.0 -0.1083319229
C  C13  1  0.88478000  0.39142000  0.54700000  1.0 -0.1001048791
C  C14  1  0.39142000  0.88478000  0.95300000  1.0 -0.1001048791
C  C15  1  0.11522000  0.60858000  0.45300000  1.0 -0.1001048791
C  C16  1  0.60858000  0.11522000  0.04700000  1.0 -0.1001048791
C  C17  1  0.19162000  0.59538000  0.09390000  1.0 0.5876185563
C  C18  1  0.59538000  0.19162000  0.40610000  1.0 0.5876185563
C  C19  1  0.80838000  0.40462000  0.90610000  1.0 0.5876185563
C  C20  1  0.40462000  0.80838000  0.59390000  1.0 0.5876185563
C  C21  1  0.47758000  0.89582000  0.37850000  1.0 0.5876185563
C  C22  1  0.89582000  0.47758000  0.12150000  1.0 0.5876185563
C  C23  1  0.52242000  0.10418000  0.62150000  1.0 0.5876185563
C  C24  1  0.10418000  0.52242000  0.87850000  1.0 0.5876185563
C  C25  1  0.40439000  0.81941000  0.30400000  1.0 -0.0254020176
C  C26  1  0.81941000  0.40439000  0.19600000  1.0 -0.0254020176
C  C27  1  0.59561000  0.18059000  0.69600000  1.0 -0.0254020176
C  C28  1  0.18059000  0.59561000  0.80400000  1.0 -0.0254020176
C  C29  1  0.37015000  0.73485000  0.28430000  1.0 -0.1287073526
C  C30  1  0.73485000  0.37015000  0.21570000  1.0 -0.1287073526
C  C31  1  0.62985000  0.26515000  0.71570000  1.0 -0.1287073526
C  C32  1  0.26515000  0.62985000  0.78430000  1.0 -0.1287073526
C  C33  1  0.29945000  0.66015000  0.21480000  1.0 -0.1083319229
C  C34  1  0.66015000  0.29945000  0.28520000  1.0 -0.1083319229
C  C35  1  0.70055000  0.33985000  0.78520000  1.0 -0.1083319229
C  C36  1  0.33985000  0.70055000  0.71480000  1.0 -0.1083319229
C  C37  1  0.27035000  0.67665000  0.16750000  1.0 -0.0104526429
C  C38  1  0.67665000  0.27035000  0.33250000  1.0 -0.0104526429
C  C39  1  0.72965000  0.32335000  0.83250000  1.0 -0.0104526429
C  C40  1  0.32335000  0.72965000  0.66750000  1.0 -0.0104526429
C  C41  1  0.30166000  0.75794000  0.18870000  1.0 -0.1083319229
C  C42  1  0.75794000  0.30166000  0.31130000  1.0 -0.1083319229
C  C43  1  0.69834000  0.24206000  0.81130000  1.0 -0.1083319229
C  C44  1  0.24206000  0.69834000  0.68870000  1.0 -0.1083319229
C  C45  1  0.36964000  0.82916000  0.25680000  1.0 -0.1001048791
C  C46  1  0.82916000  0.36964000  0.24320000  1.0 -0.1001048791
C  C47  1  0.63036000  0.17084000  0.74320000  1.0 -0.1001048791
C  C48  1  0.17084000  0.63036000  0.75680000  1.0 -0.1001048791
C  C49  1  0.81446000  0.05794000  0.46610000  1.0 0.0906536
C  C50  1  0.05794000  0.81446000  0.03390000  1.0 0.0906536
C  C51  1  0.18554000  0.94206000  0.53390000  1.0 0.0957617578
C  C52  1  0.94206000  0.18554000  0.96610000  1.0 0.0957617578
C  C53  1  0.84660000  0.03840000  0.42810000  1.0 -0.2597270827
C  C54  1  0.03840000  0.84660000  0.07190000  1.0 -0.2597270827
C  C55  1  0.15340000  0.96160000  0.57190000  1.0 -0.2597270827
C  C56  1  0.96160000  0.15340000  0.92810000  1.0 -0.2597270827
C  C57  1  0.74260000  0.91460000  0.39760000  1.0 0.1097689964
C  C58  1  0.91460000  0.74260000  0.10240000  1.0 0.1097689964
C  C59  1  0.25740000  0.08540000  0.60240000  1.0 0.1097689964
C  C60  1  0.08540000  0.25740000  0.89760000  1.0 0.1097689964
C  C61  1  0.61080000  0.81040000  0.40720000  1.0 -0.2311220128
C  C62  1  0.81040000  0.61080000  0.09280000  1.0 -0.2311220128
C  C63  1  0.38920000  0.18960000  0.59280000  1.0 -0.2311220128
C  C64  1  0.18960000  0.38920000  0.90720000  1.0 -0.2311220128
C  C65  1  0.58607000  0.83473000  0.44360000  1.0 0.0906536
C  C66  1  0.83473000  0.58607000  0.05640000  1.0 0.0906536
C  C67  1  0.41393000  0.16527000  0.55640000  1.0 0.0906536
C  C68  1  0.16527000  0.41393000  0.94360000  1.0 0.0906536
C  C69  1  0.73370000  0.86230000  0.28000000  1.0 0.1947391596
C  C70  1  0.86230000  0.73370000  0.22000000  1.0 0.2017187095
C  C71  1  0.26630000  0.13770000  0.72000000  1.0 0.1947391596
C  C72  1  0.13770000  0.26630000  0.78000000  1.0 0.1947391596
C  C73  1  0.76580000  0.84420000  0.23700000  1.0 -0.0104526429
C  C74  1  0.84420000  0.76580000  0.26300000  1.0 -0.0104526429
C  C75  1  0.23420000  0.15580000  0.76300000  1.0 -0.0104526429
C  C76  1  0.15580000  0.23420000  0.73700000  1.0 -0.0104526429
C  C77  1  0.83000000  0.85500000  0.26980000  1.0 -0.0502418582
C  C78  1  0.85500000  0.83000000  0.23020000  1.0 -0.0502418582
C  C79  1  0.17000000  0.14500000  0.73020000  1.0 -0.0502418582
C  C80  1  0.14500000  0.17000000  0.76980000  1.0 -0.0502418582
C  C81  1  0.87390000  0.89410000  0.35400000  1.0 -0.0104526429
C  C82  1  0.89410000  0.87390000  0.14600000  1.0 -0.0104526429
C  C83  1  0.12610000  0.10590000  0.64600000  1.0 -0.0184992001
C  C84  1  0.10590000  0.12610000  0.85400000  1.0 -0.0184992001
C  C85  1  0.84590000  0.91810000  0.39600000  1.0 0.2091472593
C  C86  1  0.91810000  0.84590000  0.10400000  1.0 0.2091472593
C  C87  1  0.15410000  0.08190000  0.60400000  1.0 0.2091472593
C  C88  1  0.08190000  0.15410000  0.89600000  1.0 0.2091472593
C  C89  1  0.74850000  0.82950000  0.16170000  1.0 -0.0619456084
C  C90  1  0.82950000  0.74850000  0.33830000  1.0 -0.0619456084
C  C91  1  0.25150000  0.17050000  0.83830000  1.0 -0.0619456084
C  C92  1  0.17050000  0.25150000  0.66170000  1.0 -0.0619456084
C  C93  1  0.91860000  0.88740000  0.38530000  1.0 -0.0867524898
C  C94  1  0.88740000  0.91860000  0.11470000  1.0 -0.0867524898
C  C95  1  0.08140000  0.11260000  0.61470000  1.0 -0.0867524898
C  C96  1  0.11260000  0.08140000  0.88530000  1.0 -0.0867524898
C  C97  1  0.81540000  0.94260000  0.27700000  1.0 0.2091472593
C  C98  1  0.94260000  0.81540000  0.22300000  1.0 0.2017187095
C  C99  1  0.18460000  0.05740000  0.72300000  1.0 0.2017187095
C  C100  1  0.05740000  0.18460000  0.77700000  1.0 0.2091472593
C  C101  1  0.84500000  0.92100000  0.23300000  1.0 0.0023638757
C  C102  1  0.92100000  0.84500000  0.26700000  1.0 0.0023638757
C  C103  1  0.15500000  0.07900000  0.76700000  1.0 0.0023638757
C  C104  1  0.07900000  0.15500000  0.73300000  1.0 0.0023638757
C  C105  1  0.80100000  0.81900000  0.34800000  1.0 0.0065721767
C  C106  1  0.81900000  0.80100000  0.15200000  1.0 0.0065721767
C  C107  1  0.19900000  0.18100000  0.65200000  1.0 0.0065721767
C  C108  1  0.18100000  0.19900000  0.84800000  1.0 0.0065721767
C  C109  1  0.77040000  0.84360000  0.39100000  1.0 0.2091472593
C  C110  1  0.84360000  0.77040000  0.10900000  1.0 0.2091472593
C  C111  1  0.22960000  0.15640000  0.60900000  1.0 0.2091472593
C  C112  1  0.15640000  0.22960000  0.89100000  1.0 0.2091472593
C  C113  1  0.86730000  0.94670000  0.15800000  1.0 -0.0725021078
C  C114  1  0.94670000  0.86730000  0.34200000  1.0 -0.0725021078
C  C115  1  0.13270000  0.05330000  0.84200000  1.0 -0.0725021078
C  C116  1  0.05330000  0.13270000  0.65800000  1.0 -0.0725021078
C  C117  1  0.80640000  0.77160000  0.38100000  1.0 -0.0502418582
C  C118  1  0.77160000  0.80640000  0.11900000  1.0 -0.0502418582
C  C119  1  0.19360000  0.22840000  0.61900000  1.0 -0.0502418582
C  C120  1  0.22840000  0.19360000  0.88100000  1.0 -0.0502418582
N  N1  1  0.68486000  0.95634000  0.47420000  1.0 -0.2311220128
N  N2  1  0.95634000  0.68486000  0.02580000  1.0 -0.2311220128
N  N3  1  0.31514000  0.04366000  0.52580000  1.0 -0.2311220128
N  N4  1  0.04366000  0.31514000  0.97420000  1.0 -0.2311220128
N  N5  1  0.77724000  0.89896000  0.35570000  1.0 -0.2161211156
N  N6  1  0.89896000  0.77724000  0.14430000  1.0 -0.2161211156
N  N7  1  0.22276000  0.10104000  0.64430000  1.0 -0.2124594781
N  N8  1  0.10104000  0.22276000  0.85570000  1.0 -0.2161211156
O  O1  1  0.68457000  0.12223000  0.52660000  1.0 -0.5957888696
O  O2  1  0.12223000  0.68457000  0.97340000  1.0 -0.5957888696
O  O3  1  0.31543000  0.87777000  0.47340000  1.0 -0.5957888696
O  O4  1  0.87777000  0.31543000  0.02660000  1.0 -0.5957888696
O  O5  1  0.83825000  0.21635000  0.46360000  1.0 -0.5504620332
O  O6  1  0.21635000  0.83825000  0.03640000  1.0 -0.5504620332
O  O7  1  0.16175000  0.78365000  0.53640000  1.0 -0.5504620332
O  O8  1  0.78365000  0.16175000  0.96360000  1.0 -0.5504620332
O  O9  1  0.52806000  0.90074000  0.41280000  1.0 -0.5601369573
O  O10  1  0.90074000  0.52806000  0.08720000  1.0 -0.5601369573
O  O11  1  0.47194000  0.09926000  0.58720000  1.0 -0.5601369573
O  O12  1  0.09926000  0.47194000  0.91280000  1.0 -0.5601369573
O  O13  1  0.47824000  0.94536000  0.39710000  1.0 -0.5504620332
O  O14  1  0.94536000  0.47824000  0.10290000  1.0 -0.5504620332
O  O15  1  0.52176000  0.05464000  0.60290000  1.0 -0.5504620332
O  O16  1  0.05464000  0.52176000  0.89710000  1.0 -0.5504620332
O  O17  1  0.15936000  0.51644000  0.08160000  1.0 -0.5601369573
O  O18  1  0.51644000  0.15936000  0.41840000  1.0 -0.5601369573
O  O19  1  0.84064000  0.48356000  0.91840000  1.0 -0.5601369573
O  O20  1  0.48356000  0.84064000  0.58160000  1.0 -0.5601369573
O  O21  1  0.16788000  0.61572000  0.05480000  1.0 -0.5601369573
O  O22  1  0.61572000  0.16788000  0.44520000  1.0 -0.5601369573
O  O23  1  0.83212000  0.38428000  0.94520000  1.0 -0.5601369573
O  O24  1  0.38428000  0.83212000  0.55480000  1.0 -0.5601369573
O  O25  1  0.68670000  0.86130000  0.25360000  1.0 -0.0796196702
O  O26  1  0.86130000  0.68670000  0.24640000  1.0 -0.0796196702
O  O27  1  0.31330000  0.13870000  0.74640000  1.0 -0.0796196702
O  O28  1  0.13870000  0.31330000  0.75360000  1.0 -0.0796196702
O  O29  1  0.85820000  0.92780000  0.46210000  1.0 -0.0867524898
O  O30  1  0.92780000  0.85820000  0.03790000  1.0 -0.0867524898
O  O31  1  0.14180000  0.07220000  0.53790000  1.0 -0.0867524898
O  O32  1  0.07220000  0.14180000  0.96210000  1.0 -0.0796196702
O  O33  1  0.80180000  0.97620000  0.24870000  1.0 -0.0867524898
O  O34  1  0.97620000  0.80180000  0.25130000  1.0 -0.0867524898
O  O35  1  0.19820000  0.02380000  0.75130000  1.0 -0.0867524898
O  O36  1  0.02380000  0.19820000  0.74870000  1.0 -0.0867524898
O  O37  1  0.74330000  0.81470000  0.45800000  1.0 -0.1083319229
O  O38  1  0.81470000  0.74330000  0.04200000  1.0 -0.1083319229
O  O39  1  0.25670000  0.18530000  0.54200000  1.0 -0.1083319229
O  O40  1  0.18530000  0.25670000  0.95800000  1.0 -0.1083319229
