# DDEC6 charges by PACMAN v1.1 (https://github.com/mtap-research/PACMAN-charge/)
data_DINJAP_ASR_pacman
_symmetry_space_group_name_H-M   'P 1'
_cell_length_a   21.50020000
_cell_length_b   21.50020000
_cell_length_c   25.18930000
_cell_angle_alpha   57.59410000
_cell_angle_beta   122.40600000
_cell_angle_gamma   128.08300000
_symmetry_Int_Tables_number   1
_chemical_formula_structural   Zr3H11C16O13
_chemical_formula_sum   'Zr24 H88 C128 O104'
_cell_volume   7359.16268229
_cell_formula_units_Z   8
loop_
 _symmetry_equiv_pos_site_id
 _symmetry_equiv_pos_as_xyz
  1  'x, y, z'
loop_
 _atom_site_type_symbol
 _atom_site_label
 _atom_site_symmetry_multiplicity
 _atom_site_fract_x
 _atom_site_fract_y
 _atom_site_fract_z
 _atom_site_occupancy
 _atom_site_charge
Zr  Zr1  1  0.69012000  0.21544000  0.01606000  1.0 2.27970546
Zr  Zr2  1  0.21544000  0.69012000  0.48394000  1.0 2.27970546
Zr  Zr3  1  0.30988000  0.78456000  0.98394000  1.0 2.27970546
Zr  Zr4  1  0.78456000  0.30988000  0.51606000  1.0 2.27970546
Zr  Zr5  1  0.78540000  0.30686000  0.83585000  1.0 2.27970546
Zr  Zr6  1  0.30686000  0.78540000  0.66415000  1.0 2.27970546
Zr  Zr7  1  0.21460000  0.69314000  0.16415000  1.0 2.27970546
Zr  Zr8  1  0.69314000  0.21460000  0.33585000  1.0 2.27970546
Zr  Zr9  1  0.78023000  0.40751000  0.90479000  1.0 2.2165337752
Zr  Zr10  1  0.40751000  0.78023000  0.59521000  1.0 2.2165337752
Zr  Zr11  1  0.21977000  0.59249000  0.09521000  1.0 2.2165337752
Zr  Zr12  1  0.59249000  0.21977000  0.40479000  1.0 2.2165337752
Zr  Zr13  1  0.69433000  0.11329000  0.94743000  1.0 2.3306307488
Zr  Zr14  1  0.11329000  0.69433000  0.55257000  1.0 2.3368667912
Zr  Zr15  1  0.30567000  0.88671000  0.05257000  1.0 2.3306307488
Zr  Zr16  1  0.88671000  0.30567000  0.44743000  1.0 2.3306307488
Zr  Zr17  1  0.59656000  0.24272000  0.84606000  1.0 2.3306307488
Zr  Zr18  1  0.24272000  0.59656000  0.65394000  1.0 2.3306307488
Zr  Zr19  1  0.40344000  0.75728000  0.15394000  1.0 2.3306307488
Zr  Zr20  1  0.75728000  0.40344000  0.34606000  1.0 2.3306307488
Zr  Zr21  1  0.87800000  0.27788000  0.00609000  1.0 2.2397048624
Zr  Zr22  1  0.27788000  0.87800000  0.49391000  1.0 2.2340893101
Zr  Zr23  1  0.12200000  0.72212000  0.99391000  1.0 2.2397048624
Zr  Zr24  1  0.72212000  0.12200000  0.50609000  1.0 2.2397048624
H  H1  1  0.77780000  0.12083000  0.07679000  1.0 0.3887580473
H  H2  1  0.12083000  0.77779000  0.42321000  1.0 0.3887580473
H  H3  1  0.22220000  0.87916000  0.92321000  1.0 0.3887580473
H  H4  1  0.87916000  0.22220000  0.57679000  1.0 0.3887580473
H  H5  1  0.62168000  0.32882000  0.91434000  1.0 0.3799593798
H  H6  1  0.32882000  0.62168000  0.58566000  1.0 0.3799593798
H  H7  1  0.37832000  0.67118000  0.08566000  1.0 0.3799593798
H  H8  1  0.67118000  0.37832000  0.41434000  1.0 0.3799593798
H  H9  1  0.62604000  0.16320000  0.80989000  1.0 0.3887580473
H  H10  1  0.16320000  0.62604000  0.69011000  1.0 0.3887580473
H  H11  1  0.37396000  0.83680000  0.19011000  1.0 0.3887580473
H  H12  1  0.83680000  0.37396000  0.30989000  1.0 0.3887580473
H  H13  1  0.92150000  0.42728000  0.90364000  1.0 0.3799593798
H  H14  1  0.42728000  0.92150000  0.59636000  1.0 0.3799593798
H  H15  1  0.07850000  0.57272000  0.09636000  1.0 0.3799593798
H  H16  1  0.57272000  0.07850000  0.40364000  1.0 0.3799593798
H  H17  1  0.70583000  0.32503000  0.13456000  1.0 0.1217824358
H  H18  1  0.32503000  0.70583000  0.36544000  1.0 0.1217824358
H  H19  1  0.29417000  0.67497000  0.86544000  1.0 0.1217824358
H  H20  1  0.67497000  0.29417000  0.63456000  1.0 0.1217824358
H  H21  1  0.72202000  0.52404000  0.12910000  1.0 0.1016045298
H  H22  1  0.52404000  0.72202000  0.37090000  1.0 0.1016045298
H  H23  1  0.27798000  0.47596000  0.87090000  1.0 0.1016045298
H  H24  1  0.47596000  0.27798000  0.62910000  1.0 0.1016045298
H  H25  1  0.77018000  0.19778000  0.71952000  1.0 0.1217824358
H  H26  1  0.19778000  0.77018000  0.78048000  1.0 0.1217824358
H  H27  1  0.22982000  0.80222000  0.28048000  1.0 0.1217824358
H  H28  1  0.80222000  0.22982000  0.21952000  1.0 0.1217824358
H  H29  1  0.58481000  0.96795000  0.09344000  1.0 0.1016045298
H  H30  1  0.96795000  0.58481000  0.40656000  1.0 0.1016045298
H  H31  1  0.41519000  0.03205000  0.90656000  1.0 0.1016045298
H  H32  1  0.03205000  0.41519000  0.59344000  1.0 0.090416791
H  H33  1  0.67277000  0.85683000  0.76037000  1.0 0.090416791
H  H34  1  0.85683000  0.67277000  0.73963000  1.0 0.090416791
H  H35  1  0.32723000  0.14317000  0.23963000  1.0 0.090416791
H  H36  1  0.14317000  0.32723000  0.26037000  1.0 0.090416791
H  H37  1  0.73795000  0.99375000  0.87731000  1.0 0.1050215911
H  H38  1  0.99375000  0.73795000  0.62269000  1.0 0.1050215911
H  H39  1  0.26205000  0.00625000  0.12269000  1.0 0.1050215911
H  H40  1  0.00625000  0.26205000  0.37731000  1.0 0.1050215911
H  H41  1  0.01854000  0.34196000  0.90643000  1.0 0.1016045298
H  H42  1  0.34196000  0.01854000  0.59357000  1.0 0.1016045298
H  H43  1  0.98146000  0.65804000  0.09357000  1.0 0.1016045298
H  H44  1  0.65804000  0.98146000  0.40643000  1.0 0.1016045298
H  H45  1  0.74265000  0.99531000  0.71931000  1.0 0.090416791
H  H46  1  0.99531000  0.74265000  0.78069000  1.0 0.090416791
H  H47  1  0.25735000  0.00469000  0.28069000  1.0 0.090416791
H  H48  1  0.00469000  0.25735000  0.21931000  1.0 0.090416791
H  H49  1  0.78875000  0.90565000  0.93121000  1.0 0.1016045298
H  H50  1  0.90565000  0.78875000  0.56879000  1.0 0.1016045298
H  H51  1  0.21125000  0.09435000  0.06879000  1.0 0.1016045298
H  H52  1  0.09435000  0.21125000  0.43121000  1.0 0.1016045298
H  H53  1  0.45111000  0.15601000  0.95241000  1.0 0.090416791
H  H54  1  0.15601000  0.45111000  0.54759000  1.0 0.090416791
H  H55  1  0.54889000  0.84399000  0.04759000  1.0 0.090416791
H  H56  1  0.84399000  0.54889000  0.45241000  1.0 0.090416791
H  H57  1  0.75569000  0.53379000  0.98187000  1.0 0.090416791
H  H58  1  0.53379000  0.75569000  0.51813000  1.0 0.090416791
H  H59  1  0.24431000  0.46621000  0.01813000  1.0 0.090416791
H  H60  1  0.46621000  0.24431000  0.48187000  1.0 0.090416791
H  H61  1  0.87180000  0.55224000  0.74895000  1.0 0.090416791
H  H62  1  0.55224000  0.87180000  0.75105000  1.0 0.090416791
H  H63  1  0.12820000  0.44776000  0.25105000  1.0 0.090416791
H  H64  1  0.44776000  0.12820000  0.24895000  1.0 0.090416791
H  H65  1  0.65959000  0.72625000  0.81545000  1.0 0.1016045298
H  H66  1  0.72625000  0.65959000  0.68455000  1.0 0.1016045298
H  H67  1  0.34041000  0.27375000  0.18455000  1.0 0.1016045298
H  H68  1  0.27375000  0.34041000  0.31545000  1.0 0.1016045298
H  H69  1  0.69067000  0.61773000  0.92153000  1.0 0.1016045298
H  H70  1  0.61773000  0.69067000  0.57847000  1.0 0.1016045298
H  H71  1  0.30933000  0.38227000  0.07847000  1.0 0.1016045298
H  H72  1  0.38227000  0.30933000  0.42153000  1.0 0.1016045298
H  H73  1  0.81543000  0.67079000  0.09265000  1.0 0.1016045298
H  H74  1  0.67079000  0.81543000  0.40735000  1.0 0.1016045298
H  H75  1  0.18457000  0.32921000  0.90735000  1.0 0.1016045298
H  H76  1  0.32921000  0.18457000  0.59265000  1.0 0.1016045298
H  H77  1  0.81979000  0.79891000  0.03785000  1.0 0.1016045298
H  H78  1  0.79891000  0.81979000  0.46215000  1.0 0.1016045298
H  H79  1  0.18021000  0.20109000  0.96215000  1.0 0.1016045298
H  H80  1  0.20109000  0.18021000  0.53785000  1.0 0.1050215911
H  H81  1  0.05177000  0.39487000  0.11204000  1.0 0.1424043875
H  H82  1  0.39487000  0.05177000  0.38796000  1.0 0.1424043875
H  H83  1  0.94823000  0.60513000  0.88796000  1.0 0.1424043875
H  H84  1  0.60513000  0.94823000  0.61204000  1.0 0.1424043875
H  H85  1  0.08960000  0.43494000  0.02334000  1.0 0.1465950708
H  H86  1  0.43494000  0.08960000  0.47666000  1.0 0.1465950708
H  H87  1  0.91040000  0.56506000  0.97666000  1.0 0.1465950708
H  H88  1  0.56506000  0.91040000  0.52334000  1.0 0.1465950708
C  C1  1  0.76224000  0.14556000  0.64024000  1.0 0.6084263276
C  C2  1  0.14556000  0.76224000  0.85976000  1.0 0.6084263276
C  C3  1  0.23776000  0.85444000  0.35976000  1.0 0.6084263276
C  C4  1  0.85444000  0.23776000  0.14024000  1.0 0.6084263276
C  C5  1  0.71330000  0.41810000  0.14190000  1.0 -0.0410782083
C  C6  1  0.41810000  0.71330000  0.35810000  1.0 -0.0410782083
C  C7  1  0.28670000  0.58190000  0.85810000  1.0 -0.0410782083
C  C8  1  0.58190000  0.28670000  0.64190000  1.0 -0.0410782083
C  C9  1  0.70300000  0.37400000  0.21000000  1.0 0.6084263276
C  C10  1  0.37400000  0.70300000  0.29000000  1.0 0.6084263276
C  C11  1  0.29700000  0.62600000  0.79000000  1.0 0.6084263276
C  C12  1  0.62600000  0.29700000  0.71000000  1.0 0.6084263276
C  C13  1  0.75700000  0.10260000  0.70890000  1.0 -0.0410782083
C  C14  1  0.10260000  0.75700000  0.79110000  1.0 -0.0410782083
C  C15  1  0.24300000  0.89740000  0.29110000  1.0 -0.0410782083
C  C16  1  0.89740000  0.24300000  0.20890000  1.0 -0.0410782083
C  C17  1  0.75298000  0.14102000  0.83638000  1.0 0.6018759635
C  C18  1  0.14102000  0.75298000  0.66362000  1.0 0.6018759635
C  C19  1  0.24702000  0.85898000  0.16362000  1.0 0.6018759635
C  C20  1  0.85898000  0.24702000  0.33638000  1.0 0.6018759635
C  C21  1  0.71556000  0.38004000  0.11346000  1.0 -0.1359680642
C  C22  1  0.38004000  0.71556000  0.38654000  1.0 -0.1359680642
C  C23  1  0.28444000  0.61996000  0.88654000  1.0 -0.1359680642
C  C24  1  0.61996000  0.28444000  0.61346000  1.0 -0.1359680642
C  C25  1  0.73503000  0.38297000  0.02163000  1.0 0.6018759635
C  C26  1  0.38297000  0.73503000  0.47837000  1.0 0.6018759635
C  C27  1  0.26497000  0.61703000  0.97837000  1.0 0.6018759635
C  C28  1  0.61703000  0.26497000  0.52163000  1.0 0.6018759635
C  C29  1  0.74110000  0.97990000  0.80570000  1.0 0.0333075474
C  C30  1  0.97990000  0.74110000  0.69430000  1.0 0.0333075474
C  C31  1  0.25890000  0.02010000  0.19430000  1.0 0.0333075474
C  C32  1  0.02010000  0.25890000  0.30570000  1.0 0.0333075474
C  C33  1  0.72470000  0.49930000  0.10990000  1.0 -0.1702447687
C  C34  1  0.49930000  0.72470000  0.39010000  1.0 -0.1702447687
C  C35  1  0.27530000  0.50070000  0.89010000  1.0 -0.1702447687
C  C36  1  0.50070000  0.27530000  0.60990000  1.0 -0.1702447687
C  C37  1  0.76164000  0.14316000  0.74034000  1.0 -0.1318637796
C  C38  1  0.14316000  0.76164000  0.75966000  1.0 -0.1318637796
C  C39  1  0.23836000  0.85684000  0.25966000  1.0 -0.1318637796
C  C40  1  0.85684000  0.23836000  0.24034000  1.0 -0.1318637796
C  C41  1  0.61320000  0.01860000  0.06580000  1.0 0.3799593798
C  C42  1  0.01860000  0.61320000  0.43420000  1.0 0.3708466938
C  C43  1  0.38680000  0.98140000  0.93420000  1.0 0.3708466938
C  C44  1  0.98140000  0.38680000  0.56580000  1.0 0.3708466938
C  C45  1  0.75326000  0.10054000  0.80336000  1.0 -0.0410782083
C  C46  1  0.10054000  0.75326000  0.69664000  1.0 -0.0410782083
C  C47  1  0.24674000  0.89946000  0.19664000  1.0 -0.0410782083
C  C48  1  0.89946000  0.24674000  0.30336000  1.0 -0.0410782083
C  C49  1  0.69470000  0.84010000  0.80620000  1.0 -0.1929283973
C  C50  1  0.84010000  0.69470000  0.69380000  1.0 -0.1929283973
C  C51  1  0.30530000  0.15990000  0.19380000  1.0 -0.1929283973
C  C52  1  0.15990000  0.30530000  0.30620000  1.0 -0.1929283973
C  C53  1  0.74330000  0.02090000  0.83520000  1.0 -0.1626792471
C  C54  1  0.02090000  0.74330000  0.66480000  1.0 -0.1626792471
C  C55  1  0.25670000  0.97910000  0.16480000  1.0 -0.1626792471
C  C56  1  0.97910000  0.25670000  0.33520000  1.0 -0.1626792471
C  C57  1  0.73220000  0.42320000  0.05300000  1.0 -0.0410782083
C  C58  1  0.42320000  0.73220000  0.44700000  1.0 -0.0410782083
C  C59  1  0.26780000  0.57680000  0.94700000  1.0 -0.0410782083
C  C60  1  0.57680000  0.26780000  0.55300000  1.0 -0.0410782083
C  C61  1  0.97140000  0.33160000  0.90930000  1.0 0.29153351
C  C62  1  0.33160000  0.97140000  0.59070000  1.0 0.29153351
C  C63  1  0.02860000  0.66840000  0.09070000  1.0 0.29153351
C  C64  1  0.66840000  0.02860000  0.40930000  1.0 0.29153351
C  C65  1  0.74637000  0.02203000  0.74097000  1.0 -0.1702447687
C  C66  1  0.02203000  0.74637000  0.75903000  1.0 -0.1702447687
C  C67  1  0.25363000  0.97797000  0.25903000  1.0 -0.1702447687
C  C68  1  0.97797000  0.25363000  0.24097000  1.0 -0.1702447687
C  C69  1  0.76550000  0.86990000  0.90840000  1.0 -0.2048249442
C  C70  1  0.86990000  0.76550000  0.59160000  1.0 -0.2048249442
C  C71  1  0.23450000  0.13010000  0.09160000  1.0 -0.2055468459
C  C72  1  0.13010000  0.23450000  0.40840000  1.0 -0.2048249442
C  C73  1  0.72270000  0.73490000  0.90960000  1.0 0.0578107981
C  C74  1  0.73490000  0.72270000  0.59040000  1.0 0.0578107981
C  C75  1  0.27730000  0.26510000  0.09040000  1.0 0.0578107981
C  C76  1  0.26510000  0.27730000  0.40960000  1.0 0.0578107981
C  C77  1  0.73530000  0.89590000  0.84150000  1.0 0.049218836
C  C78  1  0.89590000  0.73530000  0.65850000  1.0 0.049218836
C  C79  1  0.26470000  0.10410000  0.15850000  1.0 0.049218836
C  C80  1  0.10410000  0.26470000  0.34150000  1.0 0.049218836
C  C81  1  0.76330000  0.79030000  0.94550000  1.0 0.0578107981
C  C82  1  0.79030000  0.76330000  0.55450000  1.0 0.0578107981
C  C83  1  0.23670000  0.20970000  0.05450000  1.0 0.0578107981
C  C84  1  0.20970000  0.23670000  0.44550000  1.0 0.0578107981
C  C85  1  0.50050000  0.17370000  0.94810000  1.0 0.4318471055
C  C86  1  0.17370000  0.50050000  0.55190000  1.0 0.4318471055
C  C87  1  0.49950000  0.82630000  0.05190000  1.0 0.4318471055
C  C88  1  0.82630000  0.49950000  0.44810000  1.0 0.4318471055
C  C89  1  0.74450000  0.50450000  0.02190000  1.0 -0.1791017466
C  C90  1  0.50450000  0.74450000  0.47810000  1.0 -0.1791017466
C  C91  1  0.25550000  0.49550000  0.97810000  1.0 -0.1791017466
C  C92  1  0.49550000  0.25550000  0.52190000  1.0 -0.1791017466
C  C93  1  0.84830000  0.50170000  0.77920000  1.0 0.3233070846
C  C94  1  0.50170000  0.84830000  0.72080000  1.0 0.3233070846
C  C95  1  0.15170000  0.49830000  0.22080000  1.0 0.3233070846
C  C96  1  0.49830000  0.15170000  0.27920000  1.0 0.3233070846
C  C97  1  0.68780000  0.76260000  0.83920000  1.0 -0.1540477473
C  C98  1  0.76260000  0.68780000  0.66080000  1.0 -0.1540477473
C  C99  1  0.31220000  0.23740000  0.16080000  1.0 -0.1540477473
C  C100  1  0.23740000  0.31220000  0.33920000  1.0 -0.1540477473
C  C101  1  0.74020000  0.54400000  0.04930000  1.0 0.0396397018
C  C102  1  0.54400000  0.74020000  0.45070000  1.0 0.0396397018
C  C103  1  0.25980000  0.45600000  0.95070000  1.0 0.0396397018
C  C104  1  0.45600000  0.25980000  0.54930000  1.0 0.0396397018
C  C105  1  0.71660000  0.65420000  0.94460000  1.0 -0.2294798989
C  C106  1  0.65420000  0.71660000  0.55540000  1.0 -0.2294798989
C  C107  1  0.28340000  0.34580000  0.05540000  1.0 -0.2294798989
C  C108  1  0.34580000  0.28340000  0.44460000  1.0 -0.2294798989
C  C109  1  0.74880000  0.62920000  0.01260000  1.0 0.049218836
C  C110  1  0.62920000  0.74880000  0.48740000  1.0 0.049218836
C  C111  1  0.25120000  0.37080000  0.98740000  1.0 0.049218836
C  C112  1  0.37080000  0.25120000  0.51260000  1.0 0.049218836
C  C113  1  0.79070000  0.68610000  0.04710000  1.0 -0.1791017466
C  C114  1  0.68610000  0.79070000  0.45290000  1.0 -0.1791017466
C  C115  1  0.20930000  0.31390000  0.95290000  1.0 -0.1791017466
C  C116  1  0.31390000  0.20930000  0.54710000  1.0 -0.1702447687
C  C117  1  0.79510000  0.76370000  0.01400000  1.0 -0.1626792471
C  C118  1  0.76370000  0.79510000  0.48600000  1.0 -0.1626792471
C  C119  1  0.20490000  0.23630000  0.98600000  1.0 -0.1626792471
C  C120  1  0.23630000  0.20490000  0.51400000  1.0 -0.1702447687
C  C121  1  0.04630000  0.42470000  0.06750000  1.0 0.2210313608
C  C122  1  0.42470000  0.04630000  0.43250000  1.0 0.2210313608
C  C123  1  0.95370000  0.57530000  0.93250000  1.0 0.2210313608
C  C124  1  0.57530000  0.95370000  0.56750000  1.0 0.2210313608
C  C125  1  0.06140000  0.44000000  0.03760000  1.0 0.2210313608
C  C126  1  0.44000000  0.06140000  0.46240000  1.0 0.2210313608
C  C127  1  0.93860000  0.56000000  0.96240000  1.0 0.2210313608
C  C128  1  0.56000000  0.93860000  0.53760000  1.0 0.2254309904
O  O1  1  0.78849000  0.22331000  0.61793000  1.0 -0.5986031194
O  O2  1  0.22331000  0.78849000  0.88207000  1.0 -0.5986031194
O  O3  1  0.21151000  0.77669000  0.38207000  1.0 -0.5986031194
O  O4  1  0.77669000  0.21151000  0.11793000  1.0 -0.5986031194
O  O5  1  0.68503000  0.29777000  0.23394000  1.0 -0.6073588852
O  O6  1  0.29777000  0.68503000  0.26606000  1.0 -0.6073588852
O  O7  1  0.31497000  0.70223000  0.76606000  1.0 -0.6073588852
O  O8  1  0.70223000  0.31497000  0.73394000  1.0 -0.6073588852
O  O9  1  0.63634000  0.16926000  0.93974000  1.0 -1.2096381832
O  O10  1  0.16926000  0.63634000  0.56026000  1.0 -1.2096381832
O  O11  1  0.36366000  0.83074000  0.06026000  1.0 -1.2096381832
O  O12  1  0.83074000  0.36366000  0.43974000  1.0 -1.2096381832
O  O13  1  0.77545000  0.21795000  0.81024000  1.0 -0.5986031194
O  O14  1  0.21795000  0.77545000  0.68976000  1.0 -0.5986031194
O  O15  1  0.22455000  0.78205000  0.18976000  1.0 -0.5986031194
O  O16  1  0.78205000  0.22455000  0.31024000  1.0 -0.5986031194
O  O17  1  0.79995000  0.22465000  0.93079000  1.0 -1.195783322
O  O18  1  0.22465000  0.79995000  0.56921000  1.0 -1.195783322
O  O19  1  0.20005000  0.77535000  0.06921000  1.0 -1.1943252731
O  O20  1  0.77535000  0.20005000  0.43079000  1.0 -1.1943252731
O  O21  1  0.70193000  0.30427000  0.04364000  1.0 -0.6073588852
O  O22  1  0.30427000  0.70193000  0.45636000  1.0 -0.6073588852
O  O23  1  0.29807000  0.69573000  0.95636000  1.0 -0.6073588852
O  O24  1  0.69573000  0.29807000  0.54364000  1.0 -0.6073588852
O  O25  1  0.56100000  0.17920000  0.99862000  1.0 -0.5527791827
O  O26  1  0.17920000  0.56100000  0.50138000  1.0 -0.5443179656
O  O27  1  0.43900000  0.82080000  0.00138000  1.0 -0.5443179656
O  O28  1  0.82080000  0.43900000  0.49862000  1.0 -0.5443179656
O  O29  1  0.79665000  0.31175000  0.99049000  1.0 -1.1073676992
O  O30  1  0.31175000  0.79665000  0.50951000  1.0 -1.1073676992
O  O31  1  0.20335000  0.68825000  0.00951000  1.0 -1.1039947916
O  O32  1  0.68825000  0.20335000  0.49049000  1.0 -1.1073676992
O  O33  1  0.71595000  0.33725000  0.84250000  1.0 -1.1742999006
O  O34  1  0.33725000  0.71595000  0.65750000  1.0 -1.1742999006
O  O35  1  0.28405000  0.66275000  0.15750000  1.0 -1.1742999006
O  O36  1  0.66275000  0.28405000  0.34250000  1.0 -1.1742999006
O  O37  1  0.76671000  0.16069000  0.03317000  1.0 -1.129720057
O  O38  1  0.16069000  0.76671000  0.46683000  1.0 -1.129720057
O  O39  1  0.23329000  0.83931000  0.96683000  1.0 -1.129720057
O  O40  1  0.83931000  0.23329000  0.53317000  1.0 -1.129720057
O  O41  1  0.76854000  0.42946000  0.97717000  1.0 -0.6476040446
O  O42  1  0.42946000  0.76854000  0.52283000  1.0 -0.6476040446
O  O43  1  0.23146000  0.57054000  0.02283000  1.0 -0.6476040446
O  O44  1  0.57054000  0.23146000  0.47717000  1.0 -0.6476040446
O  O45  1  0.65482000  0.30998000  0.91671000  1.0 -1.129720057
O  O46  1  0.30998000  0.65482000  0.58329000  1.0 -1.129720057
O  O47  1  0.34518000  0.69002000  0.08329000  1.0 -1.129720057
O  O48  1  0.69002000  0.34518000  0.41671000  1.0 -1.129720057
O  O49  1  0.83978000  0.43902000  0.77648000  1.0 -0.5527791827
O  O50  1  0.43902000  0.83978000  0.72352000  1.0 -0.5527791827
O  O51  1  0.16022000  0.56098000  0.22352000  1.0 -0.5527791827
O  O52  1  0.56098000  0.16022000  0.27648000  1.0 -0.5527791827
O  O53  1  0.74045000  0.10015000  0.61049000  1.0 -0.6571610767
O  O54  1  0.10015000  0.74045000  0.88951000  1.0 -0.6571610767
O  O55  1  0.25955000  0.89985000  0.38951000  1.0 -0.6571610767
O  O56  1  0.89985000  0.25955000  0.11049000  1.0 -0.6571610767
O  O57  1  0.63475000  0.08345000  0.07444000  1.0 -0.5527791827
O  O58  1  0.08345000  0.63475000  0.42556000  1.0 -0.5527791827
O  O59  1  0.36525000  0.91655000  0.92556000  1.0 -0.5527791827
O  O60  1  0.91655000  0.36525000  0.57444000  1.0 -0.5527791827
O  O61  1  0.91375000  0.33945000  0.85434000  1.0 -0.5591196913
O  O62  1  0.33945000  0.91375000  0.64566000  1.0 -0.5591196913
O  O63  1  0.08625000  0.66055000  0.14566000  1.0 -0.5591196913
O  O64  1  0.66055000  0.08625000  0.35434000  1.0 -0.5591196913
O  O65  1  0.71555000  0.41585000  0.23818000  1.0 -0.6437978078
O  O66  1  0.41585000  0.71555000  0.26182000  1.0 -0.6476040446
O  O67  1  0.28445000  0.58415000  0.76182000  1.0 -0.6476040446
O  O68  1  0.58415000  0.28445000  0.73818000  1.0 -0.6476040446
O  O69  1  0.72870000  0.09630000  0.88654000  1.0 -0.6437978078
O  O70  1  0.09630000  0.72870000  0.61346000  1.0 -0.6437978078
O  O71  1  0.27130000  0.90370000  0.11346000  1.0 -0.6437978078
O  O72  1  0.90370000  0.27130000  0.38654000  1.0 -0.6437978078
O  O73  1  0.65711000  0.19029000  0.84389000  1.0 -1.129720057
O  O74  1  0.19029000  0.65711000  0.65611000  1.0 -1.129720057
O  O75  1  0.34289000  0.80971000  0.15611000  1.0 -1.129720057
O  O76  1  0.80971000  0.34289000  0.34389000  1.0 -1.129720057
O  O77  1  0.98909000  0.38691000  0.03249000  1.0 -0.3508651663
O  O78  1  0.38691000  0.98909000  0.46751000  1.0 -0.3508651663
O  O79  1  0.01091000  0.61309000  0.96751000  1.0 -0.3508651663
O  O80  1  0.61309000  0.01091000  0.53249000  1.0 -0.3508651663
O  O81  1  0.86863000  0.37937000  0.91077000  1.0 -1.0675436605
O  O82  1  0.37937000  0.86863000  0.58923000  1.0 -1.0675436605
O  O83  1  0.13137000  0.62063000  0.08923000  1.0 -1.0675436605
O  O84  1  0.62063000  0.13137000  0.41077000  1.0 -1.0675436605
O  O85  1  0.10053000  0.49567000  0.05764000  1.0 -0.3508651663
O  O86  1  0.49567000  0.10053000  0.44236000  1.0 -0.3553197035
O  O87  1  0.89947000  0.50433000  0.94236000  1.0 -0.3553197035
O  O88  1  0.50433000  0.89947000  0.55764000  1.0 -0.3553197035
O  O89  1  0.83010000  0.50490000  0.81632000  1.0 -0.5904374394
O  O90  1  0.50490000  0.83010000  0.68368000  1.0 -0.5904374394
O  O91  1  0.16990000  0.49510000  0.18368000  1.0 -0.5904374394
O  O92  1  0.49510000  0.16990000  0.31632000  1.0 -0.5904374394
O  O93  1  0.62540000  0.01460000  0.02524000  1.0 -0.5834778596
O  O94  1  0.01460000  0.62540000  0.47476000  1.0 -0.5834778596
O  O95  1  0.37460000  0.98540000  0.97476000  1.0 -0.5834778596
O  O96  1  0.98540000  0.37460000  0.52524000  1.0 -0.5834778596
O  O97  1  0.97230000  0.31210000  0.96562000  1.0 -0.5904374394
O  O98  1  0.31210000  0.97230000  0.53438000  1.0 -0.5904374394
O  O99  1  0.02770000  0.68790000  0.03438000  1.0 -0.5904374394
O  O100  1  0.68790000  0.02770000  0.46562000  1.0 -0.5904374394
O  O101  1  0.49787000  0.18953000  0.89090000  1.0 -0.6184205611
O  O102  1  0.18953000  0.49787000  0.60910000  1.0 -0.6184205611
O  O103  1  0.50213000  0.81047000  0.10910000  1.0 -0.6184205611
O  O104  1  0.81047000  0.50213000  0.39090000  1.0 -0.6184205611
