# DDEC6 charges by PACMAN v1.1 (https://github.com/mtap-research/PACMAN-charge/)
data_DINQIC_FSR_pacman
_symmetry_space_group_name_H-M   'P 1'
_cell_length_a   13.08320000
_cell_length_b   13.08320000
_cell_length_c   16.13830000
_cell_angle_alpha   87.60850000
_cell_angle_beta   92.39150000
_cell_angle_gamma   82.64940000
_symmetry_Int_Tables_number   1
_chemical_formula_structural   Zn2H52C64N3O8
_chemical_formula_sum   'Zn4 H104 C128 N6 O16'
_cell_volume   2734.21736260
_cell_formula_units_Z   2
loop_
 _symmetry_equiv_pos_site_id
 _symmetry_equiv_pos_as_xyz
  1  'x, y, z'
loop_
 _atom_site_type_symbol
 _atom_site_label
 _atom_site_symmetry_multiplicity
 _atom_site_fract_x
 _atom_site_fract_y
 _atom_site_fract_z
 _atom_site_occupancy
 _atom_site_charge
Zn  Zn1  1  0.67920000  0.32080000  0.87164000  1.0 0.7131358871
Zn  Zn2  1  0.64390000  0.35610000  0.69080000  1.0 0.6848592052
Zn  Zn3  1  0.32080000  0.67920000  0.12836000  1.0 0.7131358871
Zn  Zn4  1  0.35610000  0.64390000  0.30920000  1.0 0.6848592052
H  H1  1  0.01180000  0.30860000  0.88190000  1.0 0.13357557
H  H2  1  0.69140000  0.98820000  0.88190000  1.0 0.13357557
H  H3  1  0.95950000  0.35930000  0.63520000  1.0 0.1108957009
H  H4  1  0.64070000  0.04050000  0.63520000  1.0 0.1108957009
H  H5  1  0.13220000  0.36840000  0.61790000  1.0 0.1185552592
H  H6  1  0.63160000  0.86780000  0.61790000  1.0 0.1185552592
H  H7  1  0.76050000  0.43950000  0.55200000  1.0 0.0613804334
H  H8  1  0.56050000  0.23950000  0.55200000  1.0 0.0613804334
H  H9  1  0.19080000  0.30340000  0.94360000  1.0 0.1185552592
H  H10  1  0.69660000  0.80920000  0.94360000  1.0 0.1185552592
H  H11  1  0.75420000  0.44420000  0.40690000  1.0 0.069115652
H  H12  1  0.55580000  0.24580000  0.40690000  1.0 0.069115652
H  H13  1  0.36290000  0.31550000  0.92750000  1.0 0.1185552592
H  H14  1  0.68450000  0.63710000  0.92750000  1.0 0.1185552592
H  H15  1  0.31140000  0.36440000  0.67970000  1.0 0.13357557
H  H16  1  0.63560000  0.68860000  0.67970000  1.0 0.13357557
H  H17  1  0.63170000  0.44890000  0.28520000  1.0 0.1030097233
H  H18  1  0.55110000  0.36830000  0.28520000  1.0 0.1030097233
H  H19  1  0.74640000  0.33360000  0.27660000  1.0 0.1030097233
H  H20  1  0.66640000  0.25360000  0.27660000  1.0 0.1030097233
H  H21  1  0.54930000  0.42130000  0.14250000  1.0 0.0613804334
H  H22  1  0.57870000  0.45070000  0.14250000  1.0 0.0613804334
H  H23  1  0.81190000  0.21910000  0.16520000  1.0 0.0613804334
H  H24  1  0.78090000  0.18810000  0.16520000  1.0 0.0613804334
H  H25  1  0.55290000  0.41710000  0.99780000  1.0 0.0613804334
H  H26  1  0.58290000  0.44710000  0.99780000  1.0 0.0613804334
H  H27  1  0.81560000  0.21500000  0.02050000  1.0 0.0613804334
H  H28  1  0.78500000  0.18440000  0.02050000  1.0 0.0613804334
H  H29  1  0.55880000  0.50600000  0.54660000  1.0 0.0508022973
H  H30  1  0.49400000  0.44120000  0.54660000  1.0 0.0508022973
H  H31  1  0.55640000  0.50780000  0.40150000  1.0 0.0508022973
H  H32  1  0.49220000  0.44360000  0.40150000  1.0 0.0508022973
H  H33  1  0.71460000  0.21980000  0.41310000  1.0 0.0613804334
H  H34  1  0.78020000  0.28540000  0.41310000  1.0 0.0613804334
H  H35  1  0.71700000  0.21800000  0.55820000  1.0 0.069115652
H  H36  1  0.78200000  0.28300000  0.55820000  1.0 0.069115652
H  H37  1  0.64280000  0.43800000  0.28400000  1.0 0.1108957009
H  H38  1  0.56200000  0.35720000  0.28400000  1.0 0.1108957009
H  H39  1  0.65550000  0.47290000  0.00990000  1.0 0.0508022973
H  H40  1  0.52710000  0.34450000  0.00990000  1.0 0.0508022973
H  H41  1  0.66080000  0.46640000  0.15510000  1.0 0.0613804334
H  H42  1  0.53360000  0.33920000  0.15510000  1.0 0.0613804334
H  H43  1  0.71570000  0.15430000  0.15830000  1.0 0.069115652
H  H44  1  0.84570000  0.28430000  0.15830000  1.0 0.069115652
H  H45  1  0.71040000  0.16080000  0.01300000  1.0 0.069115652
H  H46  1  0.83920000  0.28960000  0.01300000  1.0 0.069115652
H  H47  1  0.76370000  0.31710000  0.27990000  1.0 0.0896533841
H  H48  1  0.68290000  0.23630000  0.27990000  1.0 0.0896533841
H  H49  1  0.69970000  0.50230000  0.40700000  1.0 0.0508022973
H  H50  1  0.49770000  0.30030000  0.40700000  1.0 0.0508022973
H  H51  1  0.70440000  0.49600000  0.55240000  1.0 0.0508022973
H  H52  1  0.50400000  0.29560000  0.55240000  1.0 0.0508022973
H  H53  1  0.30860000  0.01180000  0.11810000  1.0 0.13357557
H  H54  1  0.98820000  0.69140000  0.11810000  1.0 0.13357557
H  H55  1  0.35930000  0.95950000  0.36480000  1.0 0.1108957009
H  H56  1  0.04050000  0.64070000  0.36480000  1.0 0.1108957009
H  H57  1  0.36840000  0.13220000  0.38210000  1.0 0.1185552592
H  H58  1  0.86780000  0.63160000  0.38210000  1.0 0.1185552592
H  H59  1  0.43950000  0.76050000  0.44800000  1.0 0.0613804334
H  H60  1  0.23950000  0.56050000  0.44800000  1.0 0.0613804334
H  H61  1  0.30340000  0.19080000  0.05640000  1.0 0.1185552592
H  H62  1  0.80920000  0.69660000  0.05640000  1.0 0.1185552592
H  H63  1  0.44420000  0.75420000  0.59310000  1.0 0.069115652
H  H64  1  0.24580000  0.55580000  0.59310000  1.0 0.069115652
H  H65  1  0.31550000  0.36290000  0.07250000  1.0 0.1185552592
H  H66  1  0.63710000  0.68450000  0.07250000  1.0 0.1185552592
H  H67  1  0.36440000  0.31140000  0.32030000  1.0 0.13357557
H  H68  1  0.68860000  0.63560000  0.32030000  1.0 0.13357557
H  H69  1  0.44890000  0.63170000  0.71480000  1.0 0.1030097233
H  H70  1  0.36830000  0.55110000  0.71480000  1.0 0.1030097233
H  H71  1  0.33360000  0.74640000  0.72340000  1.0 0.1030097233
H  H72  1  0.25360000  0.66640000  0.72340000  1.0 0.1030097233
H  H73  1  0.42130000  0.54930000  0.85750000  1.0 0.0613804334
H  H74  1  0.45070000  0.57870000  0.85750000  1.0 0.0613804334
H  H75  1  0.21910000  0.81190000  0.83480000  1.0 0.0613804334
H  H76  1  0.18810000  0.78090000  0.83480000  1.0 0.0613804334
H  H77  1  0.41710000  0.55290000  0.00220000  1.0 0.0613804334
H  H78  1  0.44710000  0.58290000  0.00220000  1.0 0.0613804334
H  H79  1  0.21500000  0.81560000  0.97950000  1.0 0.0613804334
H  H80  1  0.18440000  0.78500000  0.97950000  1.0 0.0613804334
H  H81  1  0.50600000  0.55880000  0.45340000  1.0 0.0508022973
H  H82  1  0.44120000  0.49400000  0.45340000  1.0 0.0508022973
H  H83  1  0.50780000  0.55640000  0.59850000  1.0 0.0508022973
H  H84  1  0.44360000  0.49220000  0.59850000  1.0 0.0508022973
H  H85  1  0.21980000  0.71460000  0.58690000  1.0 0.0613804334
H  H86  1  0.28540000  0.78020000  0.58690000  1.0 0.0613804334
H  H87  1  0.21800000  0.71700000  0.44180000  1.0 0.069115652
H  H88  1  0.28300000  0.78200000  0.44180000  1.0 0.069115652
H  H89  1  0.43800000  0.64280000  0.71600000  1.0 0.1108957009
H  H90  1  0.35720000  0.56200000  0.71600000  1.0 0.1108957009
H  H91  1  0.47290000  0.65550000  0.99010000  1.0 0.0508022973
H  H92  1  0.34450000  0.52710000  0.99010000  1.0 0.0508022973
H  H93  1  0.46640000  0.66080000  0.84490000  1.0 0.0613804334
H  H94  1  0.33920000  0.53360000  0.84490000  1.0 0.0613804334
H  H95  1  0.15430000  0.71570000  0.84170000  1.0 0.069115652
H  H96  1  0.28430000  0.84570000  0.84170000  1.0 0.069115652
H  H97  1  0.16080000  0.71040000  0.98700000  1.0 0.069115652
H  H98  1  0.28960000  0.83920000  0.98700000  1.0 0.069115652
H  H99  1  0.31710000  0.76370000  0.72010000  1.0 0.0896533841
H  H100  1  0.23630000  0.68290000  0.72010000  1.0 0.0896533841
H  H101  1  0.50230000  0.69970000  0.59300000  1.0 0.0508022973
H  H102  1  0.30030000  0.49770000  0.59300000  1.0 0.0508022973
H  H103  1  0.49600000  0.70440000  0.44760000  1.0 0.0508022973
H  H104  1  0.29560000  0.50400000  0.44760000  1.0 0.0508022973
C  C1  1  0.85720000  0.33100000  0.77120000  1.0 0.5543510804
C  C2  1  0.66900000  0.14280000  0.77120000  1.0 0.5543510804
C  C3  1  0.96970000  0.33410000  0.76090000  1.0 -0.0132264711
C  C4  1  0.66590000  0.03030000  0.76090000  1.0 -0.0132264711
C  C5  1  0.03690000  0.32170000  0.82860000  1.0 -0.1601854499
C  C6  1  0.67830000  0.96310000  0.82860000  1.0 -0.1601854499
C  C7  1  0.00640000  0.35140000  0.68230000  1.0 -0.1214802673
C  C8  1  0.64860000  0.99360000  0.68230000  1.0 -0.1214802673
C  C9  1  0.14300000  0.32780000  0.82090000  1.0 0.0840087647
C  C10  1  0.67220000  0.85700000  0.82090000  1.0 0.0840087647
C  C11  1  0.10870000  0.35710000  0.67200000  1.0 -0.1601854499
C  C12  1  0.64290000  0.89130000  0.67200000  1.0 -0.1601854499
C  C13  1  0.70711000  0.41131000  0.52260000  1.0 0.0263883852
C  C14  1  0.58869000  0.29289000  0.52260000  1.0 0.0263883852
C  C15  1  0.21430000  0.31630000  0.88970000  1.0 -0.1279982227
C  C16  1  0.68370000  0.78570000  0.88970000  1.0 -0.1279982227
C  C17  1  0.17960000  0.34640000  0.74120000  1.0 0.0896533841
C  C18  1  0.65360000  0.82040000  0.74120000  1.0 0.0896533841
C  C19  1  0.70320000  0.41420000  0.43630000  1.0 -0.0499423718
C  C20  1  0.58580000  0.29680000  0.43630000  1.0 -0.0499423718
C  C21  1  0.31620000  0.32320000  0.88030000  1.0 -0.179802723
C  C22  1  0.67680000  0.68380000  0.88030000  1.0 -0.179802723
C  C23  1  0.28610000  0.35250000  0.73310000  1.0 -0.2703293597
C  C24  1  0.64750000  0.71390000  0.73310000  1.0 -0.2703293597
C  C25  1  0.62610000  0.37390000  0.39330000  1.0 0.0508022973
C  C26  1  0.35270000  0.34170000  0.80070000  1.0 -0.0697479228
C  C27  1  0.65830000  0.64730000  0.80070000  1.0 -0.0697479228
C  C28  1  0.62300000  0.37700000  0.30210000  1.0 -0.2238131871
C  C29  1  0.46599000  0.34599000  0.79080000  1.0 0.3911042849
C  C30  1  0.65401000  0.53401000  0.79080000  1.0 0.3911042849
C  C31  1  0.67520000  0.32480000  0.25800000  1.0 -0.1601854499
C  C32  1  0.67990000  0.32010000  0.16740000  1.0 0.0263883852
C  C33  1  0.60320000  0.37920000  0.11770000  1.0 -0.0312392197
C  C34  1  0.62080000  0.39680000  0.11770000  1.0 -0.0312392197
C  C35  1  0.75920000  0.25920000  0.13120000  1.0 -0.0406146262
C  C36  1  0.74080000  0.24080000  0.13120000  1.0 -0.0406146262
C  C37  1  0.60540000  0.37680000  0.03180000  1.0 -0.0132264711
C  C38  1  0.62320000  0.39460000  0.03180000  1.0 -0.0132264711
C  C39  1  0.76140000  0.25680000  0.04530000  1.0 0.0086554986
C  C40  1  0.74320000  0.23860000  0.04530000  1.0 0.0086554986
C  C41  1  0.59050000  0.44790000  0.51950000  1.0 0.0228583593
C  C42  1  0.55210000  0.40950000  0.51950000  1.0 0.0228583593
C  C43  1  0.58920000  0.44900000  0.43330000  1.0 -0.0499423718
C  C44  1  0.55100000  0.41080000  0.43330000  1.0 -0.0499423718
C  C45  1  0.63570000  0.36430000  0.39360000  1.0 0.0355913194
C  C46  1  0.68310000  0.27790000  0.44020000  1.0 -0.0697479228
C  C47  1  0.72210000  0.31690000  0.44020000  1.0 -0.0697479228
C  C48  1  0.68440000  0.27680000  0.52640000  1.0 0.0086554986
C  C49  1  0.72320000  0.31560000  0.52640000  1.0 0.0086554986
C  C50  1  0.63310000  0.36690000  0.30250000  1.0 -0.197291985
C  C51  1  0.66780000  0.40820000  0.04000000  1.0 0.0010055585
C  C52  1  0.59180000  0.33220000  0.04000000  1.0 0.0010055585
C  C53  1  0.67120000  0.40440000  0.12630000  1.0 -0.0499423718
C  C54  1  0.59560000  0.32880000  0.12630000  1.0 -0.0499423718
C  C55  1  0.68980000  0.31020000  0.17040000  1.0 0.0228583593
C  C56  1  0.70390000  0.21890000  0.12810000  1.0 -0.0132264711
C  C57  1  0.78110000  0.29610000  0.12810000  1.0 -0.0132264711
C  C58  1  0.70040000  0.22280000  0.04180000  1.0 0.0086554986
C  C59  1  0.77720000  0.29960000  0.04180000  1.0 0.0086554986
C  C60  1  0.69260000  0.30740000  0.26150000  1.0 -0.197291985
C  C61  1  0.55090000  0.32870000  0.43660000  1.0 -0.0312392197
C  C62  1  0.67130000  0.44910000  0.43660000  1.0 -0.0312392197
C  C63  1  0.55477000  0.32577000  0.52280000  1.0 0.0228583593
C  C64  1  0.67423000  0.44523000  0.52280000  1.0 0.0228583593
C  C65  1  0.33100000  0.85720000  0.22880000  1.0 0.5543510804
C  C66  1  0.14280000  0.66900000  0.22880000  1.0 0.5543510804
C  C67  1  0.33410000  0.96970000  0.23910000  1.0 -0.0132264711
C  C68  1  0.03030000  0.66590000  0.23910000  1.0 -0.0132264711
C  C69  1  0.32170000  0.03690000  0.17140000  1.0 -0.1601854499
C  C70  1  0.96310000  0.67830000  0.17140000  1.0 -0.1601854499
C  C71  1  0.35140000  0.00640000  0.31770000  1.0 -0.1214802673
C  C72  1  0.99360000  0.64860000  0.31770000  1.0 -0.1214802673
C  C73  1  0.32780000  0.14300000  0.17910000  1.0 0.0840087647
C  C74  1  0.85700000  0.67220000  0.17910000  1.0 0.0840087647
C  C75  1  0.35710000  0.10870000  0.32800000  1.0 -0.1601854499
C  C76  1  0.89130000  0.64290000  0.32800000  1.0 -0.1601854499
C  C77  1  0.41131000  0.70711000  0.47740000  1.0 0.0263883852
C  C78  1  0.29289000  0.58869000  0.47740000  1.0 0.0263883852
C  C79  1  0.31630000  0.21430000  0.11030000  1.0 -0.1279982227
C  C80  1  0.78570000  0.68370000  0.11030000  1.0 -0.1279982227
C  C81  1  0.34640000  0.17960000  0.25880000  1.0 0.0896533841
C  C82  1  0.82040000  0.65360000  0.25880000  1.0 0.0896533841
C  C83  1  0.41420000  0.70320000  0.56370000  1.0 -0.0499423718
C  C84  1  0.29680000  0.58580000  0.56370000  1.0 -0.0499423718
C  C85  1  0.32320000  0.31620000  0.11970000  1.0 -0.179802723
C  C86  1  0.68380000  0.67680000  0.11970000  1.0 -0.179802723
C  C87  1  0.35250000  0.28610000  0.26690000  1.0 -0.2703293597
C  C88  1  0.71390000  0.64750000  0.26690000  1.0 -0.2703293597
C  C89  1  0.37390000  0.62610000  0.60670000  1.0 0.0508022973
C  C90  1  0.34170000  0.35270000  0.19930000  1.0 -0.0697479228
C  C91  1  0.64730000  0.65830000  0.19930000  1.0 -0.0697479228
C  C92  1  0.37700000  0.62300000  0.69790000  1.0 -0.2238131871
C  C93  1  0.34599000  0.46599000  0.20920000  1.0 0.3911042849
C  C94  1  0.53401000  0.65401000  0.20920000  1.0 0.3911042849
C  C95  1  0.32480000  0.67520000  0.74200000  1.0 -0.1601854499
C  C96  1  0.32010000  0.67990000  0.83260000  1.0 0.0263883852
C  C97  1  0.37920000  0.60320000  0.88230000  1.0 -0.0312392197
C  C98  1  0.39680000  0.62080000  0.88230000  1.0 -0.0312392197
C  C99  1  0.25920000  0.75920000  0.86880000  1.0 -0.0406146262
C  C100  1  0.24080000  0.74080000  0.86880000  1.0 -0.0406146262
C  C101  1  0.37680000  0.60540000  0.96820000  1.0 -0.0132264711
C  C102  1  0.39460000  0.62320000  0.96820000  1.0 -0.0132264711
C  C103  1  0.25680000  0.76140000  0.95470000  1.0 0.0086554986
C  C104  1  0.23860000  0.74320000  0.95470000  1.0 0.0086554986
C  C105  1  0.44790000  0.59050000  0.48050000  1.0 0.0228583593
C  C106  1  0.40950000  0.55210000  0.48050000  1.0 0.0228583593
C  C107  1  0.44900000  0.58920000  0.56670000  1.0 -0.0499423718
C  C108  1  0.41080000  0.55100000  0.56670000  1.0 -0.0499423718
C  C109  1  0.36430000  0.63570000  0.60640000  1.0 0.0355913194
C  C110  1  0.27790000  0.68310000  0.55980000  1.0 -0.0697479228
C  C111  1  0.31690000  0.72210000  0.55980000  1.0 -0.0697479228
C  C112  1  0.27680000  0.68440000  0.47360000  1.0 0.0086554986
C  C113  1  0.31560000  0.72320000  0.47360000  1.0 0.0086554986
C  C114  1  0.36690000  0.63310000  0.69750000  1.0 -0.197291985
C  C115  1  0.40820000  0.66780000  0.96000000  1.0 0.0010055585
C  C116  1  0.33220000  0.59180000  0.96000000  1.0 0.0010055585
C  C117  1  0.40440000  0.67120000  0.87370000  1.0 -0.0499423718
C  C118  1  0.32880000  0.59560000  0.87370000  1.0 -0.0499423718
C  C119  1  0.31020000  0.68980000  0.82960000  1.0 0.0228583593
C  C120  1  0.21890000  0.70390000  0.87190000  1.0 -0.0154018847
C  C121  1  0.29610000  0.78110000  0.87190000  1.0 -0.0154018847
C  C122  1  0.22280000  0.70040000  0.95820000  1.0 0.0086554986
C  C123  1  0.29960000  0.77720000  0.95820000  1.0 0.0086554986
C  C124  1  0.30740000  0.69260000  0.73850000  1.0 -0.197291985
C  C125  1  0.32870000  0.55090000  0.56340000  1.0 -0.0312392197
C  C126  1  0.44910000  0.67130000  0.56340000  1.0 -0.0312392197
C  C127  1  0.32577000  0.55477000  0.47720000  1.0 0.0228583593
C  C128  1  0.44523000  0.67423000  0.47720000  1.0 0.0228583593
N  N1  1  0.68440000  0.31560000  0.99550000  1.0 -0.1601854499
N  N2  1  0.63290000  0.36710000  0.56590000  1.0 -0.1279982227
N  N3  1  0.63820000  0.36180000  0.56600000  1.0 -0.1538523247
N  N4  1  0.31560000  0.68440000  0.00450000  1.0 -0.1601854499
N  N5  1  0.36710000  0.63290000  0.43410000  1.0 -0.1279982227
N  N6  1  0.36180000  0.63820000  0.43400000  1.0 -0.1538523247
O  O1  1  0.82791000  0.31631000  0.84218000  1.0 -0.503924351
O  O2  1  0.68369000  0.17209000  0.84218000  1.0 -0.503924351
O  O3  1  0.52274000  0.33414000  0.85487000  1.0 -0.4860922059
O  O4  1  0.66586000  0.47726000  0.85487000  1.0 -0.4860922059
O  O5  1  0.79960000  0.34440000  0.70680000  1.0 -0.5221699288
O  O6  1  0.65560000  0.20040000  0.70680000  1.0 -0.5221699288
O  O7  1  0.49467000  0.36107000  0.71940000  1.0 -0.5078216305
O  O8  1  0.63893000  0.50533000  0.71940000  1.0 -0.5078216305
O  O9  1  0.31631000  0.82791000  0.15782000  1.0 -0.5078216305
O  O10  1  0.17209000  0.68369000  0.15782000  1.0 -0.5078216305
O  O11  1  0.33414000  0.52274000  0.14513000  1.0 -0.4860922059
O  O12  1  0.47726000  0.66586000  0.14513000  1.0 -0.4860922059
O  O13  1  0.34440000  0.79960000  0.29320000  1.0 -0.5221699288
O  O14  1  0.20040000  0.65560000  0.29320000  1.0 -0.5221699288
O  O15  1  0.36107000  0.49467000  0.28060000  1.0 -0.5078216305
O  O16  1  0.50533000  0.63893000  0.28060000  1.0 -0.5078216305
