# DDEC6 charges by PACMAN v1.1 (https://github.com/mtap-research/PACMAN-charge/)
data_DIRBIP_FSR_pacman
_symmetry_space_group_name_H-M   'P 1'
_cell_length_a   8.70000000
_cell_length_b   18.14600000
_cell_length_c   10.54970000
_cell_angle_alpha   90.00000000
_cell_angle_beta   124.66700000
_cell_angle_gamma   90.00000000
_symmetry_Int_Tables_number   1
_chemical_formula_structural   Ga3P3HO13
_chemical_formula_sum   'Ga12 P12 H4 O52'
_cell_volume   1369.81298250
_cell_formula_units_Z   4
loop_
 _symmetry_equiv_pos_site_id
 _symmetry_equiv_pos_as_xyz
  1  'x, y, z'
loop_
 _atom_site_type_symbol
 _atom_site_label
 _atom_site_symmetry_multiplicity
 _atom_site_fract_x
 _atom_site_fract_y
 _atom_site_fract_z
 _atom_site_occupancy
 _atom_site_charge
Ga  Ga1  1  0.79070000  0.29520000  0.70890000  1.0 1.542975258
Ga  Ga2  1  0.20930000  0.79520000  0.79110000  1.0 1.542975258
Ga  Ga3  1  0.20930000  0.70480000  0.29110000  1.0 1.542975258
Ga  Ga4  1  0.79070000  0.20480000  0.20890000  1.0 1.542975258
Ga  Ga5  1  0.97540000  0.10790000  0.83900000  1.0 1.5265257768
Ga  Ga6  1  0.02460000  0.60790000  0.66100000  1.0 1.5265257768
Ga  Ga7  1  0.02460000  0.89210000  0.16100000  1.0 1.5265257768
Ga  Ga8  1  0.97540000  0.39210000  0.33900000  1.0 1.524169486
Ga  Ga9  1  0.33250000  0.32090000  0.80340000  1.0 1.5589208715
Ga  Ga10  1  0.66750000  0.82090000  0.69660000  1.0 1.5589208715
Ga  Ga11  1  0.66750000  0.67910000  0.19660000  1.0 1.5589208715
Ga  Ga12  1  0.33250000  0.17910000  0.30340000  1.0 1.5589208715
P  P1  1  0.99060000  0.42680000  0.64040000  1.0 1.584156745
P  P2  1  0.00940000  0.92680000  0.85960000  1.0 1.5893655233
P  P3  1  0.00940000  0.57320000  0.35960000  1.0 1.5893655233
P  P4  1  0.99060000  0.07320000  0.14040000  1.0 1.584156745
P  P5  1  0.33280000  0.29300000  0.51800000  1.0 1.5893655233
P  P6  1  0.66720000  0.79300000  0.98200000  1.0 1.584156745
P  P7  1  0.66720000  0.70700000  0.48200000  1.0 1.584156745
P  P8  1  0.33280000  0.20700000  0.01800000  1.0 1.584156745
P  P9  1  0.77050000  0.16940000  0.50350000  1.0 1.5589208715
P  P10  1  0.22950000  0.66940000  0.99650000  1.0 1.5589208715
P  P11  1  0.22950000  0.83060000  0.49650000  1.0 1.5589208715
P  P12  1  0.77050000  0.33060000  0.00350000  1.0 1.5589208715
H  H1  1  0.86730000  0.21310000  0.90370000  1.0 0.4067730717
H  H2  1  0.13270000  0.71310000  0.59630000  1.0 0.4067730717
H  H3  1  0.13270000  0.78690000  0.09630000  1.0 0.4067730717
H  H4  1  0.86730000  0.28690000  0.40370000  1.0 0.4067730717
O  O1  1  0.85950000  0.20500000  0.82000000  1.0 -0.8506673165
O  O2  1  0.14050000  0.70500000  0.68000000  1.0 -0.8506673165
O  O3  1  0.14050000  0.79500000  0.18000000  1.0 -0.8506673165
O  O4  1  0.85950000  0.29500000  0.32000000  1.0 -0.8506673165
O  O5  1  0.89640000  0.38120000  0.69810000  1.0 -0.7202309631
O  O6  1  0.10360000  0.88120000  0.80190000  1.0 -0.7202309631
O  O7  1  0.10360000  0.61880000  0.30190000  1.0 -0.7202309631
O  O8  1  0.89640000  0.11880000  0.19810000  1.0 -0.7202309631
O  O9  1  0.81810000  0.25000000  0.55750000  1.0 -0.7598290749
O  O10  1  0.18190000  0.75000000  0.94250000  1.0 -0.7598290749
O  O11  1  0.18190000  0.75000000  0.44250000  1.0 -0.7598290749
O  O12  1  0.81810000  0.25000000  0.05750000  1.0 -0.7598290749
O  O13  1  0.53210000  0.30600000  0.56770000  1.0 -0.7598290749
O  O14  1  0.46790000  0.80600000  0.93230000  1.0 -0.7598290749
O  O15  1  0.46790000  0.69400000  0.43230000  1.0 -0.7598290749
O  O16  1  0.53210000  0.19400000  0.06770000  1.0 -0.7481415359
O  O17  1  0.79800000  0.15610000  0.37580000  1.0 -0.7268256359
O  O18  1  0.20200000  0.65610000  0.12420000  1.0 -0.7268256359
O  O19  1  0.20200000  0.84390000  0.62420000  1.0 -0.7268256359
O  O20  1  0.79800000  0.34390000  0.87580000  1.0 -0.7268256359
O  O21  1  0.19800000  0.40450000  0.72680000  1.0 -0.7598290749
O  O22  1  0.80200000  0.90450000  0.77320000  1.0 -0.7598290749
O  O23  1  0.80200000  0.59550000  0.27320000  1.0 -0.7598290749
O  O24  1  0.19800000  0.09550000  0.22680000  1.0 -0.7598290749
O  O25  1  0.24250000  0.23200000  0.39520000  1.0 -0.7481415359
O  O26  1  0.75750000  0.73200000  0.10480000  1.0 -0.7481415359
O  O27  1  0.75750000  0.76800000  0.60480000  1.0 -0.7481415359
O  O28  1  0.24250000  0.26800000  0.89520000  1.0 -0.7481415359
O  O29  1  0.56970000  0.15170000  0.45000000  1.0 -0.7417461581
O  O30  1  0.43030000  0.65170000  0.05000000  1.0 -0.7417461581
O  O31  1  0.43030000  0.84830000  0.55000000  1.0 -0.7417461581
O  O32  1  0.56970000  0.34830000  0.95000000  1.0 -0.7417461581
O  O33  1  0.32610000  0.26650000  0.65400000  1.0 -0.7481415359
O  O34  1  0.67390000  0.76650000  0.84600000  1.0 -0.7481415359
O  O35  1  0.67390000  0.73350000  0.34600000  1.0 -0.7481415359
O  O36  1  0.32610000  0.23350000  0.15400000  1.0 -0.7481415359
O  O37  1  0.89630000  0.11510000  0.63360000  1.0 -0.7202309631
O  O38  1  0.10370000  0.61510000  0.86640000  1.0 -0.7202309631
O  O39  1  0.10370000  0.88490000  0.36640000  1.0 -0.7202309631
O  O40  1  0.89630000  0.38490000  0.13360000  1.0 -0.7202309631
O  O41  1  0.89790000  0.41440000  0.46930000  1.0 -0.7598290749
O  O42  1  0.10210000  0.91440000  0.03070000  1.0 -0.7598290749
O  O43  1  0.10210000  0.58560000  0.53070000  1.0 -0.7598290749
O  O44  1  0.89790000  0.08560000  0.96930000  1.0 -0.7598290749
O  O45  1  0.97800000  0.50640000  0.67650000  1.0 -0.7268256359
O  O46  1  0.02200000  0.00640000  0.82350000  1.0 -0.7268256359
O  O47  1  0.02200000  0.49360000  0.32350000  1.0 -0.7268256359
O  O48  1  0.97800000  0.99360000  0.17650000  1.0 -0.7268256359
O  O49  1  0.22490000  0.36480000  0.45330000  1.0 -0.7481415359
O  O50  1  0.77510000  0.86480000  0.04670000  1.0 -0.7417461581
O  O51  1  0.77510000  0.63520000  0.54670000  1.0 -0.7481415359
O  O52  1  0.22490000  0.13520000  0.95330000  1.0 -0.7481415359
