# DDEC6 charges by PACMAN v1.1 (https://github.com/mtap-research/PACMAN-charge/)
data_DISTAB_FSR_pacman
_symmetry_space_group_name_H-M   'P 1'
_cell_length_a   18.74600000
_cell_length_b   18.74600000
_cell_length_c   18.74600000
_cell_angle_alpha   129.19600000
_cell_angle_beta   129.19600000
_cell_angle_gamma   74.69560000
_symmetry_Int_Tables_number   1
_chemical_formula_structural   Zn5P6(HO6)4
_chemical_formula_sum   'Zn20 P24 H16 O96'
_cell_volume   3854.62713340
_cell_formula_units_Z   4
loop_
 _symmetry_equiv_pos_site_id
 _symmetry_equiv_pos_as_xyz
  1  'x, y, z'
loop_
 _atom_site_type_symbol
 _atom_site_label
 _atom_site_symmetry_multiplicity
 _atom_site_fract_x
 _atom_site_fract_y
 _atom_site_fract_z
 _atom_site_occupancy
 _atom_site_charge
Zn  Zn1  1  0.13170000  0.61998000  0.67096000  1.0 1.0704891544
Zn  Zn2  1  0.94902000  0.46074000  0.32904000  1.0 1.0704891544
Zn  Zn3  1  0.38002000  0.05098000  0.51172000  1.0 1.0704891544
Zn  Zn4  1  0.53926000  0.86830000  0.48828000  1.0 1.0704891544
Zn  Zn5  1  0.80098000  0.63002000  0.01172000  1.0 1.0704891544
Zn  Zn6  1  0.61830000  0.78926000  0.98828000  1.0 1.0704891544
Zn  Zn7  1  0.21074000  0.19902000  0.82904000  1.0 1.0704891544
Zn  Zn8  1  0.36998000  0.38170000  0.17096000  1.0 1.0704891544
Zn  Zn9  1  0.23558000  0.40091000  0.69371000  1.0 1.2358232599
Zn  Zn10  1  0.70720000  0.54187000  0.30629000  1.0 1.2345435482
Zn  Zn11  1  0.59909000  0.29280000  0.83467000  1.0 1.2358232599
Zn  Zn12  1  0.45813000  0.76442000  0.16533000  1.0 1.2345435482
Zn  Zn13  1  0.04280000  0.84909000  0.33467000  1.0 1.2345435482
Zn  Zn14  1  0.51442000  0.70813000  0.66533000  1.0 1.2345435482
Zn  Zn15  1  0.29187000  0.95720000  0.80629000  1.0 1.2345435482
Zn  Zn16  1  0.15091000  0.48558000  0.19371000  1.0 1.2345435482
Zn  Zn17  1  0.37500000  0.79798000  0.92298000  1.0 1.1194171172
Zn  Zn18  1  0.87500000  0.45202000  0.07702000  1.0 1.1194171172
Zn  Zn19  1  0.20202000  0.12500000  0.57702000  1.0 1.1194171172
Zn  Zn20  1  0.54798000  0.62500000  0.42298000  1.0 1.1194171172
P  P1  1  0.30239000  0.62836000  0.87827000  1.0 1.4412474256
P  P2  1  0.75009000  0.42412000  0.12173000  1.0 1.4412474256
P  P3  1  0.37164000  0.24991000  0.67403000  1.0 1.4412474256
P  P4  1  0.57588000  0.69761000  0.32597000  1.0 1.4412474256
P  P5  1  0.99991000  0.62164000  0.17403000  1.0 1.4412474256
P  P6  1  0.44761000  0.82588000  0.82597000  1.0 1.4412474256
P  P7  1  0.17412000  0.00009000  0.62173000  1.0 1.4412474256
P  P8  1  0.37836000  0.55239000  0.37827000  1.0 1.4412474256
P  P9  1  0.11124000  0.41111000  0.48127000  1.0 1.4301525217
P  P10  1  0.92984000  0.62997000  0.51873000  1.0 1.4301525217
P  P11  1  0.58889000  0.07016000  0.70013000  1.0 1.4301525217
P  P12  1  0.37003000  0.88876000  0.29987000  1.0 1.4301525217
P  P13  1  0.82016000  0.83889000  0.20013000  1.0 1.4301525217
P  P14  1  0.63876000  0.62003000  0.79987000  1.0 1.4301525217
P  P15  1  0.37997000  0.17984000  0.01873000  1.0 1.4301525217
P  P16  1  0.16111000  0.36124000  0.98127000  1.0 1.4301525217
P  P17  1  0.18411000  0.82957000  0.78654000  1.0 1.4412474256
P  P18  1  0.04303000  0.39757000  0.21346000  1.0 1.4454929691
P  P19  1  0.17043000  0.95697000  0.35454000  1.0 1.4412474256
P  P20  1  0.60243000  0.81589000  0.64546000  1.0 1.4412474256
P  P21  1  0.70697000  0.42043000  0.85454000  1.0 1.4412474256
P  P22  1  0.56589000  0.85243000  0.14546000  1.0 1.4412474256
P  P23  1  0.14757000  0.29303000  0.71346000  1.0 1.4412474256
P  P24  1  0.57957000  0.43411000  0.28654000  1.0 1.4412474256
H  H1  1  0.11780000  0.34330000  0.35110000  1.0 0.3981030595
H  H2  1  0.99220000  0.76670000  0.64890000  1.0 0.3981030595
H  H3  1  0.65670000  0.00780000  0.77450000  1.0 0.3981030595
H  H4  1  0.23330000  0.88220000  0.22550000  1.0 0.3981030595
H  H5  1  0.75780000  0.90670000  0.27450000  1.0 0.3981030595
H  H6  1  0.63220000  0.48330000  0.72550000  1.0 0.3981030595
H  H7  1  0.51670000  0.24220000  0.14890000  1.0 0.3981030595
H  H8  1  0.09330000  0.36780000  0.85110000  1.0 0.3981030595
H  H9  1  0.04870000  0.80550000  0.71440000  1.0 0.3901862067
H  H10  1  0.09110000  0.33430000  0.28560000  1.0 0.3901862067
H  H11  1  0.19450000  0.90890000  0.24320000  1.0 0.3901862067
H  H12  1  0.66570000  0.95130000  0.75680000  1.0 0.3901862067
H  H13  1  0.65890000  0.44450000  0.74320000  1.0 0.3901862067
H  H14  1  0.70130000  0.91570000  0.25680000  1.0 0.3901862067
H  H15  1  0.08430000  0.34110000  0.78560000  1.0 0.3901862067
H  H16  1  0.55550000  0.29870000  0.21440000  1.0 0.3901862067
O  O1  1  0.31400000  0.52720000  0.82820000  1.0 -0.6953002948
O  O2  1  0.69900000  0.48580000  0.17180000  1.0 -0.693174515
O  O3  1  0.47280000  0.30100000  0.78680000  1.0 -0.693174515
O  O4  1  0.51420000  0.68600000  0.21320000  1.0 -0.693174515
O  O5  1  0.05100000  0.72280000  0.28680000  1.0 -0.693174515
O  O6  1  0.43600000  0.76420000  0.71320000  1.0 -0.693174515
O  O7  1  0.23580000  0.94900000  0.67180000  1.0 -0.693174515
O  O8  1  0.27720000  0.56400000  0.32820000  1.0 -0.693174515
O  O9  1  0.19742000  0.63192000  0.80990000  1.0 -0.7116412435
O  O10  1  0.82202000  0.38752000  0.19010000  1.0 -0.7116412435
O  O11  1  0.36808000  0.17798000  0.56550000  1.0 -0.7116412435
O  O12  1  0.61248000  0.80258000  0.43450000  1.0 -0.7116412435
O  O13  1  0.92798000  0.61808000  0.06550000  1.0 -0.7116412435
O  O14  1  0.55258000  0.86248000  0.93450000  1.0 -0.7116412435
O  O15  1  0.13752000  0.07202000  0.69010000  1.0 -0.7116412435
O  O16  1  0.38192000  0.44742000  0.30990000  1.0 -0.7116412435
O  O17  1  0.35205000  0.67265000  0.86840000  1.0 -0.7251191277
O  O18  1  0.80425000  0.48365000  0.13160000  1.0 -0.7251191277
O  O19  1  0.32735000  0.19575000  0.67940000  1.0 -0.7251191277
O  O20  1  0.51635000  0.64795000  0.32060000  1.0 -0.7241536218
O  O21  1  0.94575000  0.57735000  0.17940000  1.0 -0.7251191277
O  O22  1  0.39795000  0.76635000  0.82060000  1.0 -0.7251191277
O  O23  1  0.23365000  0.05425000  0.63160000  1.0 -0.7241536218
O  O24  1  0.42265000  0.60205000  0.36840000  1.0 -0.7251191277
O  O25  1  0.34392000  0.68502000  0.00590000  1.0 -0.7116412435
O  O26  1  0.67912000  0.33802000  0.99410000  1.0 -0.7116412435
O  O27  1  0.31498000  0.32088000  0.65890000  1.0 -0.7116412435
O  O28  1  0.66198000  0.65608000  0.34110000  1.0 -0.7116412435
O  O29  1  0.07088000  0.56498000  0.15890000  1.0 -0.7116412435
O  O30  1  0.40608000  0.91198000  0.84110000  1.0 -0.7116412435
O  O31  1  0.08802000  0.92912000  0.49410000  1.0 -0.7116412435
O  O32  1  0.43502000  0.59392000  0.50590000  1.0 -0.7116412435
O  O33  1  0.15762000  0.51612000  0.56610000  1.0 -0.693174515
O  O34  1  0.95002000  0.59152000  0.43390000  1.0 -0.693174515
O  O35  1  0.48388000  0.04998000  0.64150000  1.0 -0.693174515
O  O36  1  0.40848000  0.84238000  0.35850000  1.0 -0.693174515
O  O37  1  0.79998000  0.73388000  0.14150000  1.0 -0.693174515
O  O38  1  0.59238000  0.65848000  0.85850000  1.0 -0.693174515
O  O39  1  0.34152000  0.20002000  0.93390000  1.0 -0.693174515
O  O40  1  0.26612000  0.40762000  0.06610000  1.0 -0.693174515
O  O41  1  0.00395000  0.39355000  0.39300000  1.0 -0.6740040097
O  O42  1  0.00055000  0.61095000  0.60700000  1.0 -0.6740040097
O  O43  1  0.60645000  0.99945000  0.61040000  1.0 -0.6740040097
O  O44  1  0.38905000  0.99605000  0.38960000  1.0 -0.6740040097
O  O45  1  0.74945000  0.85645000  0.11040000  1.0 -0.6740040097
O  O46  1  0.74605000  0.63905000  0.88960000  1.0 -0.6740040097
O  O47  1  0.36095000  0.25055000  0.10700000  1.0 -0.6740040097
O  O48  1  0.14355000  0.25395000  0.89300000  1.0 -0.6740040097
O  O49  1  0.15250000  0.35310000  0.41580000  1.0 -0.4976236659
O  O50  1  0.93730000  0.73670000  0.58420000  1.0 -0.4976236659
O  O51  1  0.64690000  0.06270000  0.79940000  1.0 -0.4976236659
O  O52  1  0.26330000  0.84750000  0.20060000  1.0 -0.4976236659
O  O53  1  0.81270000  0.89690000  0.29940000  1.0 -0.4976236659
O  O54  1  0.59750000  0.51330000  0.70060000  1.0 -0.4976236659
O  O55  1  0.48670000  0.18730000  0.08420000  1.0 -0.4976236659
O  O56  1  0.10310000  0.40250000  0.91580000  1.0 -0.4976236659
O  O57  1  0.13045000  0.37775000  0.54690000  1.0 -0.6810006898
O  O58  1  0.83085000  0.58355000  0.45310000  1.0 -0.6810006898
O  O59  1  0.62225000  0.16915000  0.75270000  1.0 -0.6810006898
O  O60  1  0.41645000  0.86955000  0.24730000  1.0 -0.6810006898
O  O61  1  0.91915000  0.87225000  0.25270000  1.0 -0.6810006898
O  O62  1  0.61955000  0.66645000  0.74730000  1.0 -0.6810006898
O  O63  1  0.33355000  0.08085000  0.95310000  1.0 -0.6810006898
O  O64  1  0.12775000  0.38045000  0.04690000  1.0 -0.6810006898
O  O65  1  0.16959000  0.72429000  0.69290000  1.0 -0.6953002948
O  O66  1  0.03139000  0.47669000  0.30710000  1.0 -0.6953002948
O  O67  1  0.27571000  0.96861000  0.44530000  1.0 -0.6953002948
O  O68  1  0.52331000  0.83041000  0.55470000  1.0 -0.6953002948
O  O69  1  0.71861000  0.52571000  0.94530000  1.0 -0.6953002948
O  O70  1  0.58041000  0.77331000  0.05470000  1.0 -0.6953002948
O  O71  1  0.22669000  0.28139000  0.80710000  1.0 -0.6953002948
O  O72  1  0.47429000  0.41959000  0.19290000  1.0 -0.6953002948
O  O73  1  0.09837000  0.84527000  0.78490000  1.0 -0.5288201708
O  O74  1  0.06037000  0.31347000  0.21510000  1.0 -0.5288201708
O  O75  1  0.15473000  0.93963000  0.25310000  1.0 -0.5288201708
O  O76  1  0.68653000  0.90163000  0.74690000  1.0 -0.5288201708
O  O77  1  0.68963000  0.40473000  0.75310000  1.0 -0.5288201708
O  O78  1  0.65163000  0.93653000  0.24690000  1.0 -0.5288201708
O  O79  1  0.06347000  0.31037000  0.71510000  1.0 -0.5288201708
O  O80  1  0.59527000  0.34837000  0.28490000  1.0 -0.5288201708
O  O81  1  0.27085000  0.86205000  0.90880000  1.0 -0.6740040097
O  O82  1  0.95325000  0.36205000  0.09120000  1.0 -0.6740040097
O  O83  1  0.13795000  0.04675000  0.40880000  1.0 -0.6740040097
O  O84  1  0.63795000  0.72915000  0.59120000  1.0 -0.6740040097
O  O85  1  0.79675000  0.38795000  0.90880000  1.0 -0.6740040097
O  O86  1  0.47915000  0.88795000  0.09120000  1.0 -0.6740040097
O  O87  1  0.11205000  0.20325000  0.59120000  1.0 -0.6740040097
O  O88  1  0.61205000  0.52085000  0.40880000  1.0 -0.6740040097
O  O89  1  0.19159000  0.88579000  0.75780000  1.0 -0.6810006898
O  O90  1  0.12799000  0.43379000  0.24220000  1.0 -0.6810006898
O  O91  1  0.11421000  0.87201000  0.30580000  1.0 -0.6810006898
O  O92  1  0.56621000  0.80841000  0.69420000  1.0 -0.6810006898
O  O93  1  0.62201000  0.36421000  0.80580000  1.0 -0.6810006898
O  O94  1  0.55841000  0.81621000  0.19420000  1.0 -0.6810006898
O  O95  1  0.18379000  0.37799000  0.74220000  1.0 -0.6810006898
O  O96  1  0.63579000  0.44159000  0.25780000  1.0 -0.6810006898
