# DDEC6 charges by PACMAN v1.1 (https://github.com/mtap-research/PACMAN-charge/)
data_DITJIB_ASR_pacman
_symmetry_space_group_name_H-M   'P 1'
_cell_length_a   24.99900000
_cell_length_b   24.99900000
_cell_length_c   24.99900000
_cell_angle_alpha   130.22800000
_cell_angle_beta   130.22800000
_cell_angle_gamma   73.04310000
_symmetry_Int_Tables_number   1
_chemical_formula_structural   HfH16C23O4
_chemical_formula_sum   'Hf6 H96 C138 O24'
_cell_volume   8893.37106268
_cell_formula_units_Z   6
loop_
 _symmetry_equiv_pos_site_id
 _symmetry_equiv_pos_as_xyz
  1  'x, y, z'
loop_
 _atom_site_type_symbol
 _atom_site_label
 _atom_site_symmetry_multiplicity
 _atom_site_fract_x
 _atom_site_fract_y
 _atom_site_fract_z
 _atom_site_occupancy
 _atom_site_charge
Hf  Hf1  1  0.56122000  0.56122000  0.00000000  1.0 1.5192714018
Hf  Hf2  1  0.43878000  0.43878000  0.00000000  1.0 1.5143984836
Hf  Hf3  1  0.38300000  0.50046000  0.88346000  1.0 1.5314821682
Hf  Hf4  1  0.50046000  0.61700000  0.11746000  1.0 1.5314821682
Hf  Hf5  1  0.61700000  0.49954000  0.11654000  1.0 1.5192714018
Hf  Hf6  1  0.49954000  0.38300000  0.88254000  1.0 1.5314821682
H  H1  1  0.34840000  0.82390000  0.68330000  1.0 0.0863077446
H  H2  1  0.82390000  0.14060000  0.47550000  1.0 0.0863077446
H  H3  1  0.14060000  0.66510000  0.31670000  1.0 0.0863077446
H  H4  1  0.66510000  0.34840000  0.52450000  1.0 0.0863077446
H  H5  1  0.65160000  0.17610000  0.31670000  1.0 0.0863077446
H  H6  1  0.17610000  0.85940000  0.52450000  1.0 0.0863077446
H  H7  1  0.85940000  0.33490000  0.68330000  1.0 0.0863077446
H  H8  1  0.33490000  0.65160000  0.47550000  1.0 0.0863077446
H  H9  1  0.39510000  0.78440000  0.76610000  1.0 0.0995345778
H  H10  1  0.78440000  0.01830000  0.38930000  1.0 0.0995345778
H  H11  1  0.01830000  0.62900000  0.23390000  1.0 0.0995345778
H  H12  1  0.62900000  0.39510000  0.61070000  1.0 0.0995345778
H  H13  1  0.60490000  0.21560000  0.23390000  1.0 0.0995345778
H  H14  1  0.21560000  0.98170000  0.61070000  1.0 0.0995345778
H  H15  1  0.98170000  0.37100000  0.76610000  1.0 0.0995345778
H  H16  1  0.37100000  0.60490000  0.38930000  1.0 0.0995345778
H  H17  1  0.27430000  0.58470000  0.53500000  1.0 0.0995345778
H  H18  1  0.58470000  0.04970000  0.31040000  1.0 0.0995345778
H  H19  1  0.04970000  0.73930000  0.46500000  1.0 0.0995345778
H  H20  1  0.73930000  0.27430000  0.68960000  1.0 0.0995345778
H  H21  1  0.72570000  0.41530000  0.46500000  1.0 0.0995345778
H  H22  1  0.41530000  0.95030000  0.68960000  1.0 0.0995345778
H  H23  1  0.95030000  0.26070000  0.53500000  1.0 0.0995345778
H  H24  1  0.26070000  0.72570000  0.31040000  1.0 0.0995345778
H  H25  1  0.22760000  0.62420000  0.45220000  1.0 0.0679576361
H  H26  1  0.62420000  0.17200000  0.39660000  1.0 0.0679576361
H  H27  1  0.17200000  0.77540000  0.54780000  1.0 0.0679576361
H  H28  1  0.77540000  0.22760000  0.60340000  1.0 0.0679576361
H  H29  1  0.77240000  0.37580000  0.54780000  1.0 0.0679576361
H  H30  1  0.37580000  0.82800000  0.60340000  1.0 0.0679576361
H  H31  1  0.82800000  0.22460000  0.45220000  1.0 0.0679576361
H  H32  1  0.22460000  0.77240000  0.39660000  1.0 0.0679576361
H  H33  1  0.46720000  0.68430000  0.78010000  1.0 0.1138990495
H  H34  1  0.68430000  0.90420000  0.21710000  1.0 0.1138990495
H  H35  1  0.90420000  0.68710000  0.21990000  1.0 0.1138990495
H  H36  1  0.68710000  0.46720000  0.78290000  1.0 0.1138990495
H  H37  1  0.53280000  0.31570000  0.21990000  1.0 0.1138990495
H  H38  1  0.31570000  0.09580000  0.78290000  1.0 0.1138990495
H  H39  1  0.09580000  0.31290000  0.78010000  1.0 0.1138990495
H  H40  1  0.31290000  0.53280000  0.21710000  1.0 0.1138990495
H  H41  1  0.50770000  0.64350000  0.86140000  1.0 0.13158945
H  H42  1  0.64350000  0.78210000  0.13580000  1.0 0.13158945
H  H43  1  0.78210000  0.64630000  0.13860000  1.0 0.13158945
H  H44  1  0.64630000  0.50770000  0.86420000  1.0 0.13158945
H  H45  1  0.49230000  0.35650000  0.13860000  1.0 0.13158945
H  H46  1  0.35650000  0.21790000  0.86420000  1.0 0.13158945
H  H47  1  0.21790000  0.35370000  0.86140000  1.0 0.13158945
H  H48  1  0.35370000  0.49230000  0.13580000  1.0 0.13158945
H  H49  1  0.30230000  0.57510000  0.73060000  1.0 0.1170153772
H  H50  1  0.57510000  0.84450000  0.27280000  1.0 0.1170153772
H  H51  1  0.84450000  0.57170000  0.26940000  1.0 0.1170153772
H  H52  1  0.57170000  0.30230000  0.72720000  1.0 0.1170153772
H  H53  1  0.69770000  0.42490000  0.26940000  1.0 0.1170153772
H  H54  1  0.42490000  0.15550000  0.72720000  1.0 0.1170153772
H  H55  1  0.15550000  0.42830000  0.73060000  1.0 0.1170153772
H  H56  1  0.42830000  0.69770000  0.27280000  1.0 0.1170153772
H  H57  1  0.26500000  0.61660000  0.65160000  1.0 0.1170153772
H  H58  1  0.61660000  0.96500000  0.35160000  1.0 0.1170153772
H  H59  1  0.96500000  0.61340000  0.34840000  1.0 0.1170153772
H  H60  1  0.61340000  0.26500000  0.64840000  1.0 0.1170153772
H  H61  1  0.73500000  0.38340000  0.34840000  1.0 0.1170153772
H  H62  1  0.38340000  0.03500000  0.64840000  1.0 0.1170153772
H  H63  1  0.03500000  0.38660000  0.65160000  1.0 0.1170153772
H  H64  1  0.38660000  0.73500000  0.35160000  1.0 0.1170153772
H  H65  1  0.22850000  0.77830000  0.60880000  1.0 0.0679576361
H  H66  1  0.77830000  0.16950000  0.54980000  1.0 0.0679576361
H  H67  1  0.16950000  0.61970000  0.39120000  1.0 0.0679576361
H  H68  1  0.61970000  0.22850000  0.45020000  1.0 0.0679576361
H  H69  1  0.77150000  0.22170000  0.39120000  1.0 0.0679576361
H  H70  1  0.22170000  0.83050000  0.45020000  1.0 0.0679576361
H  H71  1  0.83050000  0.38030000  0.60880000  1.0 0.0679576361
H  H72  1  0.38030000  0.77150000  0.54980000  1.0 0.0679576361
H  H73  1  0.27520000  0.73870000  0.69170000  1.0 0.0995345778
H  H74  1  0.73870000  0.04700000  0.46350000  1.0 0.0995345778
H  H75  1  0.04700000  0.58350000  0.30830000  1.0 0.0995345778
H  H76  1  0.58350000  0.27520000  0.53650000  1.0 0.0995345778
H  H77  1  0.72480000  0.26130000  0.30830000  1.0 0.0995345778
H  H78  1  0.26130000  0.95300000  0.53650000  1.0 0.0995345778
H  H79  1  0.95300000  0.41650000  0.69170000  1.0 0.0995345778
H  H80  1  0.41650000  0.72480000  0.46350000  1.0 0.0995345778
H  H81  1  0.39430000  0.63040000  0.60950000  1.0 0.0995345778
H  H82  1  0.63040000  0.02090000  0.23610000  1.0 0.0995345778
H  H83  1  0.02090000  0.78480000  0.39050000  1.0 0.0995345778
H  H84  1  0.78480000  0.39430000  0.76390000  1.0 0.0995345778
H  H85  1  0.60570000  0.36960000  0.39050000  1.0 0.0995345778
H  H86  1  0.36960000  0.97910000  0.76390000  1.0 0.0995345778
H  H87  1  0.97910000  0.21520000  0.60950000  1.0 0.0995345778
H  H88  1  0.21520000  0.60570000  0.23610000  1.0 0.0995345778
H  H89  1  0.34760000  0.66990000  0.52670000  1.0 0.0863077446
H  H90  1  0.66990000  0.14320000  0.32230000  1.0 0.0863077446
H  H91  1  0.14320000  0.82090000  0.47330000  1.0 0.0863077446
H  H92  1  0.82090000  0.34760000  0.67770000  1.0 0.0863077446
H  H93  1  0.65240000  0.33010000  0.47330000  1.0 0.0863077446
H  H94  1  0.33010000  0.85680000  0.67770000  1.0 0.0863077446
H  H95  1  0.85680000  0.17910000  0.52670000  1.0 0.0863077446
H  H96  1  0.17910000  0.65240000  0.32230000  1.0 0.0863077446
C  C1  1  0.25000000  0.75000000  0.50000000  1.0 -0.0384167544
C  C2  1  0.75000000  0.25000000  0.50000000  1.0 -0.0384167544
C  C3  1  0.28360000  0.72778000  0.55990000  1.0 0.0474863407
C  C4  1  0.72778000  0.16788000  0.44418000  1.0 0.0474863407
C  C5  1  0.16788000  0.72370000  0.44010000  1.0 0.0474863407
C  C6  1  0.72370000  0.28360000  0.55582000  1.0 0.0474863407
C  C7  1  0.71640000  0.27222000  0.44010000  1.0 0.0474863407
C  C8  1  0.27222000  0.83212000  0.55582000  1.0 0.0474863407
C  C9  1  0.83212000  0.27630000  0.55990000  1.0 0.0474863407
C  C10  1  0.27630000  0.71640000  0.44418000  1.0 0.0474863407
C  C11  1  0.33920000  0.68080000  0.65840000  1.0 0.0648444575
C  C12  1  0.68080000  0.02240000  0.34160000  1.0 0.0648444575
C  C13  1  0.02240000  0.68080000  0.34160000  1.0 0.0648444575
C  C14  1  0.68080000  0.33920000  0.65840000  1.0 0.0648444575
C  C15  1  0.66080000  0.31920000  0.34160000  1.0 0.0648444575
C  C16  1  0.31920000  0.97760000  0.65840000  1.0 0.0648444575
C  C17  1  0.97760000  0.31920000  0.65840000  1.0 0.0648444575
C  C18  1  0.31920000  0.66080000  0.34160000  1.0 0.0648444575
C  C19  1  0.33338000  0.77528000  0.65310000  1.0 -0.119293611
C  C20  1  0.77528000  0.12218000  0.44190000  1.0 -0.119293611
C  C21  1  0.12218000  0.68028000  0.34690000  1.0 -0.119293611
C  C22  1  0.68028000  0.33338000  0.55810000  1.0 -0.119293611
C  C23  1  0.66666667  0.22472000  0.34690000  1.0 -0.119293611
C  C24  1  0.22472000  0.87782000  0.55810000  1.0 -0.119293611
C  C25  1  0.87782000  0.31972000  0.65310000  1.0 -0.119293611
C  C26  1  0.31972000  0.66666667  0.44190000  1.0 -0.119293611
C  C27  1  0.36112000  0.75192000  0.70240000  1.0 -0.0877713544
C  C28  1  0.75192000  0.04952000  0.39080000  1.0 -0.0877713544
C  C29  1  0.04952000  0.65872000  0.29760000  1.0 -0.0877713544
C  C30  1  0.65872000  0.36112000  0.60920000  1.0 -0.0877713544
C  C31  1  0.63888000  0.24808000  0.29760000  1.0 -0.0877713544
C  C32  1  0.24808000  0.95048000  0.60920000  1.0 -0.0877713544
C  C33  1  0.95048000  0.34128000  0.70240000  1.0 -0.0877713544
C  C34  1  0.34128000  0.63888000  0.39080000  1.0 -0.0877713544
C  C35  1  0.28935000  0.63325000  0.56510000  1.0 -0.0877713544
C  C36  1  0.63325000  0.06815000  0.34390000  1.0 -0.0877713544
C  C37  1  0.06815000  0.72425000  0.43490000  1.0 -0.0877713544
C  C38  1  0.72425000  0.28935000  0.65610000  1.0 -0.0877713544
C  C39  1  0.71065000  0.36675000  0.43490000  1.0 -0.0877713544
C  C40  1  0.36675000  0.93185000  0.65610000  1.0 -0.0877713544
C  C41  1  0.93185000  0.27575000  0.56510000  1.0 -0.0877713544
C  C42  1  0.27575000  0.71065000  0.34390000  1.0 -0.0877713544
C  C43  1  0.26162000  0.65672000  0.51590000  1.0 -0.0994159718
C  C44  1  0.65672000  0.14082000  0.39510000  1.0 -0.0994159718
C  C45  1  0.14082000  0.74572000  0.48410000  1.0 -0.0994159718
C  C46  1  0.74572000  0.26162000  0.60490000  1.0 -0.0994159718
C  C47  1  0.73838000  0.34328000  0.48410000  1.0 -0.0994159718
C  C48  1  0.34328000  0.85918000  0.60490000  1.0 -0.0994159718
C  C49  1  0.85918000  0.25428000  0.51590000  1.0 -0.0994159718
C  C50  1  0.25428000  0.73838000  0.39510000  1.0 -0.0994159718
C  C51  1  0.36400000  0.65407000  0.71007000  1.0 0.0679576361
C  C52  1  0.65407000  0.94400000  0.29007000  1.0 0.0679576361
C  C53  1  0.94400000  0.65393000  0.28993000  1.0 0.0679576361
C  C54  1  0.65393000  0.36400000  0.70993000  1.0 0.0679576361
C  C55  1  0.63600000  0.34593000  0.28993000  1.0 0.0679576361
C  C56  1  0.34593000  0.05600000  0.70993000  1.0 0.0679576361
C  C57  1  0.05600000  0.34607000  0.71007000  1.0 0.0679576361
C  C58  1  0.34607000  0.63600000  0.29007000  1.0 0.0679576361
C  C59  1  0.43340000  0.66200000  0.76980000  1.0 -0.1622044108
C  C60  1  0.66200000  0.89220000  0.22860000  1.0 -0.1622044108
C  C61  1  0.89220000  0.66360000  0.23020000  1.0 -0.1622044108
C  C62  1  0.66360000  0.43340000  0.77140000  1.0 -0.1622044108
C  C63  1  0.56660000  0.33800000  0.23020000  1.0 -0.1622044108
C  C64  1  0.33800000  0.10780000  0.77140000  1.0 -0.1622044108
C  C65  1  0.10780000  0.33640000  0.76980000  1.0 -0.1622044108
C  C66  1  0.33640000  0.56660000  0.22860000  1.0 -0.1622044108
C  C67  1  0.45780000  0.63760000  0.81860000  1.0 -0.0877713544
C  C68  1  0.63760000  0.81900000  0.17980000  1.0 -0.0877713544
C  C69  1  0.81900000  0.63920000  0.18140000  1.0 -0.0877713544
C  C70  1  0.63920000  0.45780000  0.82020000  1.0 -0.0877713544
C  C71  1  0.54220000  0.36240000  0.18140000  1.0 -0.0877713544
C  C72  1  0.36240000  0.18100000  0.82020000  1.0 -0.0877713544
C  C73  1  0.18100000  0.36080000  0.81860000  1.0 -0.0877713544
C  C74  1  0.36080000  0.54220000  0.17980000  1.0 -0.0877713544
C  C75  1  0.40880000  0.60590000  0.80330000  1.0 -0.0254725072
C  C76  1  0.60590000  0.80260000  0.19710000  1.0 -0.0254725072
C  C77  1  0.80260000  0.60550000  0.19670000  1.0 -0.0254725072
C  C78  1  0.60550000  0.40880000  0.80290000  1.0 -0.0254725072
C  C79  1  0.59120000  0.39410000  0.19670000  1.0 -0.0254725072
C  C80  1  0.39410000  0.19740000  0.80290000  1.0 -0.0254725072
C  C81  1  0.19740000  0.39450000  0.80330000  1.0 -0.0254725072
C  C82  1  0.39450000  0.59120000  0.19710000  1.0 -0.0254725072
C  C83  1  0.33670000  0.59740000  0.74150000  1.0 -0.0846182828
C  C84  1  0.59740000  0.85590000  0.26070000  1.0 -0.0846182828
C  C85  1  0.85590000  0.59520000  0.25850000  1.0 -0.0846182828
C  C86  1  0.59520000  0.33670000  0.73930000  1.0 -0.0846182828
C  C87  1  0.66330000  0.40260000  0.25850000  1.0 -0.0877713544
C  C88  1  0.40260000  0.14410000  0.73930000  1.0 -0.0846182828
C  C89  1  0.14410000  0.40480000  0.74150000  1.0 -0.0846182828
C  C90  1  0.40480000  0.66330000  0.26070000  1.0 -0.0846182828
C  C91  1  0.31470000  0.62210000  0.69460000  1.0 -0.1734700891
C  C92  1  0.62210000  0.92750000  0.30740000  1.0 -0.1734700891
C  C93  1  0.92750000  0.62010000  0.30540000  1.0 -0.1734700891
C  C94  1  0.62010000  0.31470000  0.69260000  1.0 -0.1734700891
C  C95  1  0.68530000  0.37790000  0.30540000  1.0 -0.1734700891
C  C96  1  0.37790000  0.07250000  0.69260000  1.0 -0.1734700891
C  C97  1  0.07250000  0.37990000  0.69460000  1.0 -0.1734700891
C  C98  1  0.37990000  0.68530000  0.30740000  1.0 -0.1734700891
C  C99  1  0.43300000  0.58030000  0.85570000  1.0 0.5707343278
C  C100  1  0.58030000  0.72460000  0.14730000  1.0 0.5707343278
C  C101  1  0.72460000  0.57730000  0.14430000  1.0 0.5707343278
C  C102  1  0.57730000  0.43300000  0.85270000  1.0 0.5707343278
C  C103  1  0.56700000  0.41970000  0.14430000  1.0 0.5707343278
C  C104  1  0.41970000  0.27540000  0.85270000  1.0 0.5707343278
C  C105  1  0.27540000  0.42270000  0.85570000  1.0 0.5707343278
C  C106  1  0.42270000  0.56700000  0.14730000  1.0 0.5707343278
C  C107  1  0.26212000  0.74822000  0.60890000  1.0 -0.0994159718
C  C108  1  0.74822000  0.13932000  0.48610000  1.0 -0.0994159718
C  C109  1  0.13932000  0.65322000  0.39110000  1.0 -0.0994159718
C  C110  1  0.65322000  0.26212000  0.51390000  1.0 -0.0994159718
C  C111  1  0.73788000  0.25178000  0.39110000  1.0 -0.0994159718
C  C112  1  0.25178000  0.86068000  0.51390000  1.0 -0.0994159718
C  C113  1  0.86068000  0.34678000  0.60890000  1.0 -0.0994159718
C  C114  1  0.34678000  0.73788000  0.48610000  1.0 -0.0994159718
C  C115  1  0.28985000  0.72475000  0.65810000  1.0 -0.0877713544
C  C116  1  0.72475000  0.06665000  0.43490000  1.0 -0.0877713544
C  C117  1  0.06665000  0.63175000  0.34190000  1.0 -0.0877713544
C  C118  1  0.63175000  0.28985000  0.56510000  1.0 -0.0877713544
C  C119  1  0.71015000  0.27525000  0.34190000  1.0 -0.0877713544
C  C120  1  0.27525000  0.93335000  0.56510000  1.0 -0.0877713544
C  C121  1  0.93335000  0.36825000  0.65810000  1.0 -0.0877713544
C  C122  1  0.36825000  0.71015000  0.43490000  1.0 -0.0877713544
C  C123  1  0.36063000  0.66033000  0.60930000  1.0 -0.0877713544
C  C124  1  0.66033000  0.05103000  0.29970000  1.0 -0.0877713544
C  C125  1  0.05103000  0.75133000  0.39070000  1.0 -0.0877713544
C  C126  1  0.75133000  0.36063000  0.70030000  1.0 -0.0877713544
C  C127  1  0.63937000  0.33967000  0.39070000  1.0 -0.0877713544
C  C128  1  0.33967000  0.94897000  0.70030000  1.0 -0.0877713544
C  C129  1  0.94897000  0.24867000  0.60930000  1.0 -0.0877713544
C  C130  1  0.24867000  0.63937000  0.29970000  1.0 -0.0877713544
C  C131  1  0.33289000  0.68389000  0.56020000  1.0 -0.119293611
C  C132  1  0.68389000  0.12369000  0.35100000  1.0 -0.119293611
C  C133  1  0.12369000  0.77269000  0.43980000  1.0 -0.119293611
C  C134  1  0.77269000  0.33289000  0.64900000  1.0 -0.119293611
C  C135  1  0.66711000  0.31611000  0.43980000  1.0 -0.119293611
C  C136  1  0.31611000  0.87631000  0.64900000  1.0 -0.119293611
C  C137  1  0.87631000  0.22731000  0.56020000  1.0 -0.119293611
C  C138  1  0.22731000  0.66711000  0.35100000  1.0 -0.119293611
O  O1  1  0.50047000  0.58927000  0.91200000  1.0 -0.4977582561
O  O2  1  0.58927000  0.67727000  0.08880000  1.0 -0.4977582561
O  O3  1  0.67727000  0.58847000  0.08800000  1.0 -0.4977582561
O  O4  1  0.58847000  0.50047000  0.91120000  1.0 -0.4977582561
O  O5  1  0.49953000  0.41073000  0.08800000  1.0 -0.4944346714
O  O6  1  0.41073000  0.32273000  0.91120000  1.0 -0.4944346714
O  O7  1  0.32273000  0.41153000  0.91200000  1.0 -0.4944346714
O  O8  1  0.41153000  0.49953000  0.08880000  1.0 -0.4944346714
O  O9  1  0.38380000  0.55040000  0.83560000  1.0 -0.5267343042
O  O10  1  0.55040000  0.71480000  0.16660000  1.0 -0.5267343042
O  O11  1  0.71480000  0.54820000  0.16440000  1.0 -0.5226854998
O  O12  1  0.54820000  0.38380000  0.83340000  1.0 -0.5267343042
O  O13  1  0.61620000  0.44960000  0.16440000  1.0 -0.5226854998
O  O14  1  0.44960000  0.28520000  0.83340000  1.0 -0.5267343042
O  O15  1  0.28520000  0.45180000  0.83560000  1.0 -0.5267343042
O  O16  1  0.45180000  0.61620000  0.16660000  1.0 -0.5267343042
O  O17  1  0.46969000  0.58799000  0.99930000  1.0 -0.7271187536
O  O18  1  0.58799000  0.58869000  0.11830000  1.0 -0.7271187536
O  O19  1  0.58869000  0.47039000  0.00070000  1.0 -0.7271187536
O  O20  1  0.47039000  0.46969000  0.88170000  1.0 -0.7271187536
O  O21  1  0.53031000  0.41201000  0.00070000  1.0 -0.7243802863
O  O22  1  0.41201000  0.41131000  0.88170000  1.0 -0.7271187536
O  O23  1  0.41131000  0.52961000  0.99930000  1.0 -0.7271187536
O  O24  1  0.52961000  0.53031000  0.11830000  1.0 -0.7271187536
