# DDEC6 charges by PACMAN v1.1 (https://github.com/mtap-research/PACMAN-charge/)
data_DIWMUT_ASR_pacman
_symmetry_space_group_name_H-M   'P 1'
_cell_length_a   23.10900000
_cell_length_b   23.10900000
_cell_length_c   26.36170000
_cell_angle_alpha   73.57590000
_cell_angle_beta   106.42400000
_cell_angle_gamma   144.24200000
_symmetry_Int_Tables_number   1
_chemical_formula_structural   Ca7H54(C21O10)4
_chemical_formula_sum   'Ca14 H108 C168 O80'
_cell_volume   7855.12514777
_cell_formula_units_Z   2
loop_
 _symmetry_equiv_pos_site_id
 _symmetry_equiv_pos_as_xyz
  1  'x, y, z'
loop_
 _atom_site_type_symbol
 _atom_site_label
 _atom_site_symmetry_multiplicity
 _atom_site_fract_x
 _atom_site_fract_y
 _atom_site_fract_z
 _atom_site_occupancy
 _atom_site_charge
Ca  Ca1  1  0.92495000  0.92495000  0.75000000  1.0 1.3399644016
Ca  Ca2  1  0.07505000  0.07505000  0.25000000  1.0 1.3399644016
Ca  Ca3  1  0.70730000  0.98162000  0.56036000  1.0 1.3858589946
Ca  Ca4  1  0.98162000  0.70730000  0.93964000  1.0 1.3858589946
Ca  Ca5  1  0.29270000  0.01838000  0.43964000  1.0 1.3858589946
Ca  Ca6  1  0.01838000  0.29270000  0.06036000  1.0 1.3858589946
Ca  Ca7  1  0.48229000  0.90165000  0.54284000  1.0 1.3643146872
Ca  Ca8  1  0.90165000  0.48229000  0.95716000  1.0 1.3665228008
Ca  Ca9  1  0.51771000  0.09835000  0.45716000  1.0 1.3665228008
Ca  Ca10  1  0.09835000  0.51771000  0.04284000  1.0 1.3643146872
Ca  Ca11  1  0.71795000  0.82793000  0.65626000  1.0 1.3803602575
Ca  Ca12  1  0.82793000  0.71795000  0.84374000  1.0 1.3803602575
Ca  Ca13  1  0.28205000  0.17207000  0.34374000  1.0 1.3803602575
Ca  Ca14  1  0.17207000  0.28205000  0.15626000  1.0 1.3803602575
H  H1  1  0.67820000  0.18900000  0.24630000  1.0 0.2453424632
H  H2  1  0.18900000  0.67820000  0.25370000  1.0 0.2390337198
H  H3  1  0.32180000  0.81100000  0.75370000  1.0 0.2390337198
H  H4  1  0.81100000  0.32180000  0.74630000  1.0 0.2390337198
H  H5  1  0.56380000  0.70320000  0.76660000  1.0 0.1209856017
H  H6  1  0.70320000  0.56380000  0.73340000  1.0 0.1209856017
H  H7  1  0.43620000  0.29680000  0.23340000  1.0 0.1209856017
H  H8  1  0.29680000  0.43620000  0.26660000  1.0 0.1209856017
H  H9  1  0.72720000  0.74940000  0.90110000  1.0 0.1269910938
H  H10  1  0.74940000  0.72720000  0.59890000  1.0 0.1209856017
H  H11  1  0.27280000  0.25060000  0.09890000  1.0 0.1209856017
H  H12  1  0.25060000  0.27280000  0.40110000  1.0 0.1209856017
H  H13  1  0.59240000  0.64920000  0.94770000  1.0 0.1030846456
H  H14  1  0.64920000  0.59240000  0.55230000  1.0 0.1030846456
H  H15  1  0.40760000  0.35080000  0.05230000  1.0 0.1030846456
H  H16  1  0.35080000  0.40760000  0.44770000  1.0 0.1030846456
H  H17  1  0.21790000  0.45770000  0.93940000  1.0 0.1410548756
H  H18  1  0.45770000  0.21790000  0.56060000  1.0 0.1410548756
H  H19  1  0.78210000  0.54230000  0.06060000  1.0 0.1410548756
H  H20  1  0.54230000  0.78210000  0.43940000  1.0 0.1410548756
H  H21  1  0.31800000  0.37180000  0.02100000  1.0 0.1105785069
H  H22  1  0.37180000  0.31800000  0.47900000  1.0 0.1105785069
H  H23  1  0.68200000  0.62820000  0.97900000  1.0 0.1105785069
H  H24  1  0.62820000  0.68200000  0.52100000  1.0 0.1105785069
H  H25  1  0.43520000  0.47280000  0.96200000  1.0 0.1030846456
H  H26  1  0.47280000  0.43520000  0.53800000  1.0 0.1030846456
H  H27  1  0.56480000  0.52720000  0.03800000  1.0 0.1030846456
H  H28  1  0.52720000  0.56480000  0.46200000  1.0 0.1030846456
H  H29  1  0.38880000  0.61860000  0.85370000  1.0 0.342175056
H  H30  1  0.61860000  0.38880000  0.64630000  1.0 0.342175056
H  H31  1  0.61120000  0.38140000  0.14630000  1.0 0.342175056
H  H32  1  0.38140000  0.61120000  0.35370000  1.0 0.342175056
H  H33  1  0.47200000  0.66980000  0.69670000  1.0 0.1269910938
H  H34  1  0.66980000  0.47200000  0.80330000  1.0 0.1269910938
H  H35  1  0.52800000  0.33020000  0.30330000  1.0 0.1209856017
H  H36  1  0.33020000  0.52800000  0.19670000  1.0 0.1269910938
H  H37  1  0.35640000  0.65480000  0.54670000  1.0 0.1209856017
H  H38  1  0.65480000  0.35640000  0.95330000  1.0 0.1209856017
H  H39  1  0.64360000  0.34520000  0.45330000  1.0 0.1209856017
H  H40  1  0.34520000  0.64360000  0.04670000  1.0 0.1209856017
H  H41  1  0.21280000  0.48380000  0.56330000  1.0 0.1105785069
H  H42  1  0.48380000  0.21280000  0.93670000  1.0 0.1105785069
H  H43  1  0.78720000  0.51620000  0.43670000  1.0 0.1105785069
H  H44  1  0.51620000  0.78720000  0.06330000  1.0 0.1105785069
H  H45  1  0.37180000  0.53100000  0.75060000  1.0 0.342175056
H  H46  1  0.53100000  0.37180000  0.74940000  1.0 0.342175056
H  H47  1  0.62820000  0.46900000  0.24940000  1.0 0.342175056
H  H48  1  0.46900000  0.62820000  0.25060000  1.0 0.342175056
H  H49  1  0.07700000  0.15840000  0.69280000  1.0 0.1030846456
H  H50  1  0.15840000  0.07700000  0.80720000  1.0 0.1105785069
H  H51  1  0.92300000  0.84160000  0.30720000  1.0 0.1105785069
H  H52  1  0.84160000  0.92300000  0.19280000  1.0 0.1105785069
H  H53  1  0.92010000  0.18270000  0.61270000  1.0 0.1209856017
H  H54  1  0.18270000  0.92010000  0.88730000  1.0 0.1209856017
H  H55  1  0.07990000  0.81730000  0.38730000  1.0 0.1209856017
H  H56  1  0.81730000  0.07990000  0.11270000  1.0 0.1209856017
H  H57  1  0.06570000  0.35550000  0.60940000  1.0 0.1105785069
H  H58  1  0.35550000  0.06570000  0.89060000  1.0 0.1105785069
H  H59  1  0.93430000  0.64450000  0.39060000  1.0 0.1105785069
H  H60  1  0.64450000  0.93430000  0.10940000  1.0 0.1105785069
H  H61  1  0.23190000  0.29230000  0.71910000  1.0 0.34587
H  H62  1  0.29230000  0.23190000  0.78090000  1.0 0.34587
H  H63  1  0.76810000  0.70770000  0.28090000  1.0 0.34587
H  H64  1  0.70770000  0.76810000  0.21910000  1.0 0.34587
H  H65  1  0.58980000  0.10000000  0.36530000  1.0 0.1269910938
H  H66  1  0.10000000  0.58980000  0.13470000  1.0 0.1269910938
H  H67  1  0.41020000  0.90000000  0.63470000  1.0 0.1269910938
H  H68  1  0.90000000  0.41020000  0.86530000  1.0 0.1269910938
H  H69  1  0.69950000  0.01930000  0.42670000  1.0 0.1209856017
H  H70  1  0.01930000  0.69950000  0.07330000  1.0 0.1209856017
H  H71  1  0.30050000  0.98070000  0.57330000  1.0 0.1209856017
H  H72  1  0.98070000  0.30050000  0.92670000  1.0 0.1209856017
H  H73  1  0.78420000  0.09780000  0.35100000  1.0 0.1410548756
H  H74  1  0.09780000  0.78420000  0.14900000  1.0 0.1410548756
H  H75  1  0.21580000  0.90220000  0.64900000  1.0 0.1410548756
H  H76  1  0.90220000  0.21580000  0.85100000  1.0 0.1410548756
H  H77  1  0.64270000  0.99270000  0.26390000  1.0 0.2390337198
H  H78  1  0.99270000  0.64270000  0.23610000  1.0 0.2390337198
H  H79  1  0.35730000  0.00730000  0.73610000  1.0 0.2390337198
H  H80  1  0.00730000  0.35730000  0.76390000  1.0 0.2390337198
H  H81  1  0.81170000  0.13910000  0.17280000  1.0 0.1209856017
H  H82  1  0.13910000  0.81170000  0.32720000  1.0 0.1209856017
H  H83  1  0.18830000  0.86090000  0.82720000  1.0 0.1209856017
H  H84  1  0.86090000  0.18830000  0.67280000  1.0 0.1209856017
H  H85  1  0.95010000  0.39690000  0.19200000  1.0 0.1209856017
H  H86  1  0.39690000  0.95010000  0.30800000  1.0 0.1209856017
H  H87  1  0.04990000  0.60310000  0.80800000  1.0 0.1209856017
H  H88  1  0.60310000  0.04990000  0.69200000  1.0 0.1209856017
H  H89  1  0.86040000  0.32120000  0.26420000  1.0 0.1410548756
H  H90  1  0.32120000  0.86040000  0.23580000  1.0 0.1410548756
H  H91  1  0.13960000  0.67880000  0.73580000  1.0 0.1410548756
H  H92  1  0.67880000  0.13960000  0.76420000  1.0 0.1410548756
H  H93  1  0.65970000  0.16270000  0.28700000  1.0 0.1105785069
H  H94  1  0.16270000  0.65970000  0.21300000  1.0 0.1105785069
H  H95  1  0.34030000  0.83730000  0.71300000  1.0 0.1105785069
H  H96  1  0.83730000  0.34030000  0.78700000  1.0 0.1105785069
H  H97  1  0.77550000  0.03990000  0.37350000  1.0 0.2161255224
H  H98  1  0.03990000  0.77550000  0.12650000  1.0 0.2144764035
H  H99  1  0.22450000  0.96010000  0.62650000  1.0 0.2144764035
H  H100  1  0.96010000  0.22450000  0.87350000  1.0 0.2161255224
H  H101  1  0.71530000  0.05750000  0.24480000  1.0 0.1501302986
H  H102  1  0.05750000  0.71530000  0.25520000  1.0 0.1501302986
H  H103  1  0.28470000  0.94250000  0.75520000  1.0 0.1501302986
H  H104  1  0.94250000  0.28470000  0.74480000  1.0 0.1501302986
H  H105  1  0.91530000  0.40470000  0.25690000  1.0 0.2390337198
H  H106  1  0.40470000  0.91530000  0.24310000  1.0 0.2390337198
H  H107  1  0.08470000  0.59530000  0.74310000  1.0 0.2390337198
H  H108  1  0.59530000  0.08470000  0.75690000  1.0 0.2348329543
C  C1  1  0.49468000  0.60912000  0.88647000  1.0 -0.0201388722
C  C2  1  0.60912000  0.49468000  0.61353000  1.0 -0.0201388722
C  C3  1  0.50532000  0.39088000  0.11353000  1.0 -0.0201388722
C  C4  1  0.39088000  0.50532000  0.38647000  1.0 -0.0201388722
C  C5  1  0.48859000  0.62881000  0.83110000  1.0 0.2654288008
C  C6  1  0.62881000  0.48859000  0.66890000  1.0 0.2654288008
C  C7  1  0.51141000  0.37119000  0.16890000  1.0 0.2654288008
C  C8  1  0.37119000  0.51141000  0.33110000  1.0 0.2654288008
C  C9  1  0.56931000  0.69009000  0.80399000  1.0 -0.225675884
C  C10  1  0.69009000  0.56931000  0.69601000  1.0 -0.225675884
C  C11  1  0.43069000  0.30991000  0.19601000  1.0 -0.225675884
C  C12  1  0.30991000  0.43069000  0.30399000  1.0 -0.225675884
C  C13  1  0.65724000  0.73316000  0.82838000  1.0 -0.0201388722
C  C14  1  0.73316000  0.65724000  0.67162000  1.0 -0.0201388722
C  C15  1  0.34276000  0.26684000  0.17162000  1.0 -0.0201388722
C  C16  1  0.26684000  0.34276000  0.32838000  1.0 -0.0201388722
C  C17  1  0.66650000  0.71870000  0.88260000  1.0 -0.1323329822
C  C18  1  0.71870000  0.66650000  0.61740000  1.0 -0.1323329822
C  C19  1  0.33350000  0.28130000  0.11740000  1.0 -0.1323329822
C  C20  1  0.28130000  0.33350000  0.38260000  1.0 -0.1323329822
C  C21  1  0.58455000  0.65745000  0.91000000  1.0 -0.1397679055
C  C22  1  0.65745000  0.58455000  0.59000000  1.0 -0.1397679055
C  C23  1  0.41545000  0.34255000  0.09000000  1.0 -0.1397679055
C  C24  1  0.34255000  0.41545000  0.41000000  1.0 -0.1397679055
C  C25  1  0.74029000  0.79251000  0.79699000  1.0 0.6107473432
C  C26  1  0.79251000  0.74029000  0.70301000  1.0 0.6107473432
C  C27  1  0.25971000  0.20749000  0.20301000  1.0 0.6107473432
C  C28  1  0.20749000  0.25971000  0.29699000  1.0 0.6107473432
C  C29  1  0.40686000  0.53594000  0.91824000  1.0 -0.0201388722
C  C30  1  0.53594000  0.40686000  0.58176000  1.0 -0.0201388722
C  C31  1  0.59314000  0.46406000  0.08176000  1.0 -0.0201388722
C  C32  1  0.46406000  0.59314000  0.41824000  1.0 -0.0201388722
C  C33  1  0.33814000  0.52726000  0.91100000  1.0 0.2654288008
C  C34  1  0.52726000  0.33814000  0.58900000  1.0 0.2654288008
C  C35  1  0.66186000  0.47274000  0.08900000  1.0 0.2654288008
C  C36  1  0.47274000  0.66186000  0.41100000  1.0 0.2654288008
C  C37  1  0.26455000  0.46305000  0.94510000  1.0 -0.2113848061
C  C38  1  0.46305000  0.26455000  0.55490000  1.0 -0.2113848061
C  C39  1  0.73545000  0.53695000  0.05490000  1.0 -0.2113848061
C  C40  1  0.53695000  0.73545000  0.44510000  1.0 -0.2113848061
C  C41  1  0.25796000  0.40684000  0.98727000  1.0 -0.0104341424
C  C42  1  0.40684000  0.25796000  0.51273000  1.0 -0.0104341424
C  C43  1  0.74204000  0.59316000  0.01273000  1.0 -0.0104341424
C  C44  1  0.59316000  0.74204000  0.48727000  1.0 -0.0104341424
C  C45  1  0.32252000  0.41148000  0.99300000  1.0 -0.1323329822
C  C46  1  0.41148000  0.32252000  0.50700000  1.0 -0.1323329822
C  C47  1  0.67748000  0.58852000  0.00700000  1.0 -0.1323329822
C  C48  1  0.58852000  0.67748000  0.49300000  1.0 -0.1323329822
C  C49  1  0.39345000  0.47315000  0.95830000  1.0 -0.1467372563
C  C50  1  0.47315000  0.39345000  0.54170000  1.0 -0.1467372563
C  C51  1  0.60655000  0.52685000  0.04170000  1.0 -0.1467372563
C  C52  1  0.52685000  0.60655000  0.45830000  1.0 -0.1467372563
C  C53  1  0.17765000  0.33775000  0.02522000  1.0 0.6006307124
C  C54  1  0.33775000  0.17765000  0.47478000  1.0 0.6006307124
C  C55  1  0.82235000  0.66225000  0.97478000  1.0 0.6006307124
C  C56  1  0.66225000  0.82235000  0.52522000  1.0 0.6006307124
C  C57  1  0.25290000  0.47250000  0.64120000  1.0 -0.0104341424
C  C58  1  0.47250000  0.25290000  0.85880000  1.0 -0.0104341424
C  C59  1  0.74710000  0.52750000  0.35880000  1.0 -0.0104341424
C  C60  1  0.52750000  0.74710000  0.14120000  1.0 -0.0104341424
C  C61  1  0.33039000  0.52921000  0.68170000  1.0 0.281544578
C  C62  1  0.52921000  0.33039000  0.81830000  1.0 0.281544578
C  C63  1  0.66961000  0.47079000  0.31830000  1.0 0.281544578
C  C64  1  0.47079000  0.66961000  0.18170000  1.0 0.281544578
C  C65  1  0.41870000  0.63150000  0.66960000  1.0 -0.244601059
C  C66  1  0.63150000  0.41870000  0.83040000  1.0 -0.244601059
C  C67  1  0.58130000  0.36850000  0.33040000  1.0 -0.2450204373
C  C68  1  0.36850000  0.58130000  0.16960000  1.0 -0.2450204373
C  C69  1  0.43041000  0.67779000  0.61976000  1.0 -0.0201388722
C  C70  1  0.67779000  0.43041000  0.88024000  1.0 -0.0201388722
C  C71  1  0.56959000  0.32221000  0.38024000  1.0 -0.0201388722
C  C72  1  0.32221000  0.56959000  0.11976000  1.0 -0.0201388722
C  C73  1  0.35123000  0.62277000  0.58050000  1.0 -0.1467372563
C  C74  1  0.62277000  0.35123000  0.91950000  1.0 -0.1467372563
C  C75  1  0.64877000  0.37723000  0.41950000  1.0 -0.1467372563
C  C76  1  0.37723000  0.64877000  0.08050000  1.0 -0.1467372563
C  C77  1  0.26506000  0.52134000  0.59090000  1.0 -0.1397679055
C  C78  1  0.52134000  0.26506000  0.90910000  1.0 -0.1397679055
C  C79  1  0.73494000  0.47866000  0.40910000  1.0 -0.1397679055
C  C80  1  0.47866000  0.73494000  0.09090000  1.0 -0.1397679055
C  C81  1  0.52778000  0.78562000  0.60754000  1.0 0.6107473432
C  C82  1  0.78562000  0.52778000  0.89246000  1.0 0.6107473432
C  C83  1  0.47222000  0.21438000  0.39246000  1.0 0.6107473432
C  C84  1  0.21438000  0.47222000  0.10754000  1.0 0.6107473432
C  C85  1  0.15956000  0.36104000  0.64960000  1.0 -0.0104341424
C  C86  1  0.36104000  0.15956000  0.85040000  1.0 -0.0104341424
C  C87  1  0.84044000  0.63896000  0.35040000  1.0 -0.0104341424
C  C88  1  0.63896000  0.84044000  0.14960000  1.0 -0.0104341424
C  C89  1  0.15991000  0.30049000  0.67640000  1.0 0.2453424632
C  C90  1  0.30049000  0.15991000  0.82360000  1.0 0.2453424632
C  C91  1  0.84009000  0.69951000  0.32360000  1.0 0.2453424632
C  C92  1  0.69951000  0.84009000  0.17640000  1.0 0.2453424632
C  C93  1  0.07444000  0.19856000  0.67600000  1.0 -0.2570200146
C  C94  1  0.19856000  0.07444000  0.82400000  1.0 -0.2570200146
C  C95  1  0.92556000  0.80144000  0.32400000  1.0 -0.2570200146
C  C96  1  0.80144000  0.92556000  0.17600000  1.0 -0.2570200146
C  C97  1  0.98446000  0.15354000  0.65136000  1.0 -0.0272535545
C  C98  1  0.15354000  0.98446000  0.84864000  1.0 -0.0272535545
C  C99  1  0.01554000  0.84646000  0.34864000  1.0 -0.0272535545
C  C100  1  0.84646000  0.01554000  0.15136000  1.0 -0.0272535545
C  C101  1  0.98160000  0.21240000  0.62790000  1.0 -0.1323329822
C  C102  1  0.21240000  0.98160000  0.87210000  1.0 -0.1323329822
C  C103  1  0.01840000  0.78760000  0.37210000  1.0 -0.1323329822
C  C104  1  0.78760000  0.01840000  0.12790000  1.0 -0.1323329822
C  C105  1  0.06848000  0.31552000  0.62640000  1.0 -0.1397679055
C  C106  1  0.31552000  0.06848000  0.87360000  1.0 -0.1397679055
C  C107  1  0.93152000  0.68448000  0.37360000  1.0 -0.1397679055
C  C108  1  0.68448000  0.93152000  0.12640000  1.0 -0.1397679055
C  C109  1  0.89375000  0.04365000  0.65252000  1.0 0.6202544569
C  C110  1  0.04365000  0.89375000  0.84748000  1.0 0.6202544569
C  C111  1  0.10625000  0.95635000  0.34748000  1.0 0.6202544569
C  C112  1  0.95635000  0.10625000  0.15252000  1.0 0.6202544569
C  C113  1  0.73222000  0.14198000  0.31150000  1.0 -0.1323329822
C  C114  1  0.14198000  0.73222000  0.18850000  1.0 -0.1323329822
C  C115  1  0.26778000  0.85802000  0.68850000  1.0 -0.1323329822
C  C116  1  0.85802000  0.26778000  0.81150000  1.0 -0.1397679055
C  C117  1  0.67284000  0.13856000  0.31640000  1.0 0.0796451302
C  C118  1  0.13856000  0.67284000  0.18360000  1.0 0.0796451302
C  C119  1  0.32716000  0.86144000  0.68360000  1.0 0.0796451302
C  C120  1  0.86144000  0.32716000  0.81640000  1.0 0.0796451302
C  C121  1  0.63090000  0.10110000  0.36290000  1.0 -0.1938488365
C  C122  1  0.10110000  0.63090000  0.13710000  1.0 -0.1938488365
C  C123  1  0.36910000  0.89890000  0.63710000  1.0 -0.1938488365
C  C124  1  0.89890000  0.36910000  0.86290000  1.0 -0.1938488365
C  C125  1  0.64887000  0.06493000  0.40602000  1.0 -0.0104341424
C  C126  1  0.06493000  0.64887000  0.09398000  1.0 -0.0104341424
C  C127  1  0.35113000  0.93507000  0.59398000  1.0 -0.0104341424
C  C128  1  0.93507000  0.35113000  0.90602000  1.0 -0.0104341424
C  C129  1  0.69758000  0.05522000  0.39970000  1.0 -0.203148098
C  C130  1  0.05522000  0.69758000  0.10030000  1.0 -0.203148098
C  C131  1  0.30242000  0.94478000  0.60030000  1.0 -0.203148098
C  C132  1  0.94478000  0.30242000  0.89970000  1.0 -0.203148098
C  C133  1  0.74432000  0.09808000  0.35380000  1.0 0.0796451302
C  C134  1  0.09808000  0.74432000  0.14620000  1.0 0.0796451302
C  C135  1  0.25568000  0.90192000  0.64620000  1.0 0.0796451302
C  C136  1  0.90192000  0.25568000  0.85380000  1.0 0.0796451302
C  C137  1  0.60905000  0.02895000  0.45827000  1.0 0.6202544569
C  C138  1  0.02895000  0.60905000  0.04173000  1.0 0.6202544569
C  C139  1  0.39095000  0.97105000  0.54173000  1.0 0.6202544569
C  C140  1  0.97105000  0.39095000  0.95827000  1.0 0.6202544569
C  C141  1  0.78428000  0.18832000  0.26250000  1.0 -0.0902306021
C  C142  1  0.18832000  0.78428000  0.23750000  1.0 -0.0902306021
C  C143  1  0.21572000  0.81168000  0.73750000  1.0 -0.0902306021
C  C144  1  0.81168000  0.21572000  0.76250000  1.0 -0.0902306021
C  C145  1  0.76330000  0.12650000  0.23450000  1.0 0.0796451302
C  C146  1  0.12650000  0.76330000  0.26550000  1.0 0.0796451302
C  C147  1  0.23670000  0.87350000  0.76550000  1.0 0.0796451302
C  C148  1  0.87350000  0.23670000  0.73450000  1.0 0.0796451302
C  C149  1  0.81920000  0.17540000  0.19080000  1.0 -0.1607322128
C  C150  1  0.17540000  0.81920000  0.30920000  1.0 -0.1607322128
C  C151  1  0.18080000  0.82460000  0.80920000  1.0 -0.1607322128
C  C152  1  0.82460000  0.18080000  0.69080000  1.0 -0.1607322128
C  C153  1  0.88424000  0.27436000  0.17320000  1.0 -0.0104341424
C  C154  1  0.27436000  0.88424000  0.32680000  1.0 -0.0104341424
C  C155  1  0.11576000  0.72564000  0.82680000  1.0 -0.0104341424
C  C156  1  0.72564000  0.11576000  0.67320000  1.0 -0.0104341424
C  C157  1  0.90159000  0.32761000  0.20170000  1.0 -0.203148098
C  C158  1  0.32761000  0.90159000  0.29830000  1.0 -0.203148098
C  C159  1  0.09841000  0.67239000  0.79830000  1.0 -0.203148098
C  C160  1  0.67239000  0.09841000  0.70170000  1.0 -0.203148098
C  C161  1  0.84870000  0.28210000  0.24580000  1.0 0.0582932408
C  C162  1  0.28210000  0.84870000  0.25420000  1.0 0.0582932408
C  C163  1  0.15130000  0.71790000  0.75420000  1.0 0.0582932408
C  C164  1  0.71790000  0.15130000  0.74580000  1.0 0.0582932408
C  C165  1  0.94285000  0.32215000  0.12722000  1.0 0.6202544569
C  C166  1  0.32215000  0.94285000  0.37278000  1.0 0.6202544569
C  C167  1  0.05715000  0.67785000  0.87278000  1.0 0.6107473432
C  C168  1  0.67785000  0.05715000  0.62722000  1.0 0.6107473432
O  O1  1  0.64810000  0.16810000  0.27190000  1.0 -0.3732735098
O  O2  1  0.16810000  0.64810000  0.22810000  1.0 -0.3732735098
O  O3  1  0.35190000  0.83190000  0.72810000  1.0 -0.3732735098
O  O4  1  0.83190000  0.35190000  0.77190000  1.0 -0.3732735098
O  O5  1  0.40448000  0.59032000  0.80471000  1.0 -0.5399667353
O  O6  1  0.59032000  0.40448000  0.69529000  1.0 -0.5399667353
O  O7  1  0.59552000  0.40968000  0.19529000  1.0 -0.5399667353
O  O8  1  0.40968000  0.59552000  0.30471000  1.0 -0.5399667353
O  O9  1  0.74127000  0.82533000  0.74999000  1.0 -0.6313068033
O  O10  1  0.82533000  0.74127000  0.75001000  1.0 -0.6313068033
O  O11  1  0.25873000  0.17467000  0.25001000  1.0 -0.6313068033
O  O12  1  0.17467000  0.25873000  0.24999000  1.0 -0.6313068033
O  O13  1  0.81015000  0.81165000  0.81939000  1.0 -0.6670317531
O  O14  1  0.81165000  0.81015000  0.68061000  1.0 -0.6670317531
O  O15  1  0.18985000  0.18835000  0.18061000  1.0 -0.6670317531
O  O16  1  0.18835000  0.18985000  0.31939000  1.0 -0.6670317531
O  O17  1  0.34102000  0.58158000  0.87160000  1.0 -0.4361415536
O  O18  1  0.58158000  0.34102000  0.62840000  1.0 -0.4344045401
O  O19  1  0.65898000  0.41842000  0.12840000  1.0 -0.4361415536
O  O20  1  0.41842000  0.65898000  0.37160000  1.0 -0.4344045401
O  O21  1  0.18734000  0.30366000  0.06764000  1.0 -0.6313068033
O  O22  1  0.30366000  0.18734000  0.43236000  1.0 -0.6313068033
O  O23  1  0.81266000  0.69634000  0.93236000  1.0 -0.6313068033
O  O24  1  0.69634000  0.81266000  0.56764000  1.0 -0.6313068033
O  O25  1  0.11054000  0.32306000  0.01166000  1.0 -0.6179092632
O  O26  1  0.32306000  0.11054000  0.48834000  1.0 -0.6179092632
O  O27  1  0.88946000  0.67694000  0.98834000  1.0 -0.6179092632
O  O28  1  0.67694000  0.88946000  0.51166000  1.0 -0.6179092632
O  O29  1  0.31963000  0.48757000  0.73100000  1.0 -0.4011576951
O  O30  1  0.48757000  0.31963000  0.76900000  1.0 -0.4011576951
O  O31  1  0.68037000  0.51243000  0.26900000  1.0 -0.4011576951
O  O32  1  0.51243000  0.68037000  0.23100000  1.0 -0.4011576951
O  O33  1  0.52922000  0.83634000  0.57290000  1.0 -0.6577024342
O  O34  1  0.83634000  0.52922000  0.92710000  1.0 -0.6577024342
O  O35  1  0.47078000  0.16366000  0.42710000  1.0 -0.6577024342
O  O36  1  0.16366000  0.47078000  0.07290000  1.0 -0.6577024342
O  O37  1  0.60675000  0.82235000  0.63190000  1.0 -0.6412625373
O  O38  1  0.82235000  0.60675000  0.86810000  1.0 -0.6412625373
O  O39  1  0.39325000  0.17765000  0.36810000  1.0 -0.6412625373
O  O40  1  0.17765000  0.39325000  0.13190000  1.0 -0.6412625373
O  O41  1  0.24496000  0.33904000  0.70480000  1.0 -0.4495910288
O  O42  1  0.33904000  0.24496000  0.79520000  1.0 -0.4495910288
O  O43  1  0.75504000  0.66096000  0.29520000  1.0 -0.4495910288
O  O44  1  0.66096000  0.75504000  0.20480000  1.0 -0.4495910288
O  O45  1  0.81450000  0.00220000  0.62527000  1.0 -0.6510028274
O  O46  1  0.00220000  0.81450000  0.87473000  1.0 -0.6510028274
O  O47  1  0.18550000  0.99780000  0.37473000  1.0 -0.6510028274
O  O48  1  0.99780000  0.18550000  0.12527000  1.0 -0.6510028274
O  O49  1  0.89724000  0.99122000  0.67960000  1.0 -0.6828596474
O  O50  1  0.99122000  0.89724000  0.82040000  1.0 -0.6828596474
O  O51  1  0.10276000  0.00878000  0.32040000  1.0 -0.6828596474
O  O52  1  0.00878000  0.10276000  0.17960000  1.0 -0.6828596474
O  O53  1  0.56288000  0.03532000  0.46411000  1.0 -0.6577024342
O  O54  1  0.03532000  0.56288000  0.03589000  1.0 -0.6577024342
O  O55  1  0.43712000  0.96468000  0.53589000  1.0 -0.6577024342
O  O56  1  0.96468000  0.43712000  0.96411000  1.0 -0.6577024342
O  O57  1  0.61952000  0.98868000  0.49396000  1.0 -0.6412625373
O  O58  1  0.98868000  0.61952000  0.00604000  1.0 -0.6412625373
O  O59  1  0.38048000  0.01132000  0.50604000  1.0 -0.6412625373
O  O60  1  0.01132000  0.38048000  0.99396000  1.0 -0.6412625373
O  O61  1  0.67090000  0.01490000  0.23690000  1.0 -0.3870856644
O  O62  1  0.01490000  0.67090000  0.26310000  1.0 -0.3870856644
O  O63  1  0.32910000  0.98510000  0.76310000  1.0 -0.3870856644
O  O64  1  0.98510000  0.32910000  0.73690000  1.0 -0.3870856644
O  O65  1  0.99845000  0.40995000  0.11126000  1.0 -0.6179092632
O  O66  1  0.40995000  0.99845000  0.38874000  1.0 -0.6179092632
O  O67  1  0.00155000  0.59005000  0.88874000  1.0 -0.6179092632
O  O68  1  0.59005000  0.00155000  0.61126000  1.0 -0.6179092632
O  O69  1  0.92962000  0.26798000  0.10779000  1.0 -0.6412625373
O  O70  1  0.26798000  0.92962000  0.39221000  1.0 -0.6412625373
O  O71  1  0.07038000  0.73202000  0.89221000  1.0 -0.6313068033
O  O72  1  0.73202000  0.07038000  0.60779000  1.0 -0.6313068033
O  O73  1  0.78430000  0.07610000  0.34690000  1.0 -0.3421324895
O  O74  1  0.07610000  0.78430000  0.15310000  1.0 -0.3421324895
O  O75  1  0.21570000  0.92390000  0.65310000  1.0 -0.3421324895
O  O76  1  0.92390000  0.21570000  0.84690000  1.0 -0.3421324895
O  O77  1  0.87280000  0.34720000  0.27280000  1.0 -0.3732735098
O  O78  1  0.34720000  0.87280000  0.22720000  1.0 -0.3732735098
O  O79  1  0.12720000  0.65280000  0.72720000  1.0 -0.3732735098
O  O80  1  0.65280000  0.12720000  0.77280000  1.0 -0.3732735098
