# DDEC6 charges by PACMAN v1.1 (https://github.com/mtap-research/PACMAN-charge/)
data_DIZVAK_ASR_pacman
_symmetry_space_group_name_H-M   'P 1'
_cell_length_a   14.34010000
_cell_length_b   14.34010000
_cell_length_c   14.34010000
_cell_angle_alpha   116.15900000
_cell_angle_beta   116.15900000
_cell_angle_gamma   96.79220000
_symmetry_Int_Tables_number   1
_chemical_formula_structural   CoH4C20NO4
_chemical_formula_sum   'Co4 H16 C80 N4 O16'
_cell_volume   2189.56252764
_cell_formula_units_Z   4
loop_
 _symmetry_equiv_pos_site_id
 _symmetry_equiv_pos_as_xyz
  1  'x, y, z'
loop_
 _atom_site_type_symbol
 _atom_site_label
 _atom_site_symmetry_multiplicity
 _atom_site_fract_x
 _atom_site_fract_y
 _atom_site_fract_z
 _atom_site_occupancy
 _atom_site_charge
Co  Co1  1  0.42791000  0.42791000  0.00000000  1.0 0.8216019017
Co  Co2  1  0.07209000  0.07209000  0.00000000  1.0 0.8216019017
Co  Co3  1  0.57209000  0.57209000  0.00000000  1.0 0.8216019017
Co  Co4  1  0.92791000  0.92791000  0.00000000  1.0 0.8216019017
H  H1  1  0.54810000  0.63450000  0.39280000  1.0 0.1223756564
H  H2  1  0.63450000  0.24170000  0.08640000  1.0 0.1223756564
H  H3  1  0.15530000  0.54810000  0.91360000  1.0 0.1223756564
H  H4  1  0.34470000  0.25830000  0.39280000  1.0 0.1223756564
H  H5  1  0.24170000  0.15530000  0.60720000  1.0 0.1223756564
H  H6  1  0.25830000  0.86550000  0.91360000  1.0 0.1223756564
H  H7  1  0.95190000  0.34470000  0.08640000  1.0 0.1223756564
H  H8  1  0.86550000  0.95190000  0.60720000  1.0 0.1223756564
H  H9  1  0.45190000  0.36550000  0.60720000  1.0 0.1223756564
H  H10  1  0.36550000  0.75830000  0.91360000  1.0 0.1223756564
H  H11  1  0.84470000  0.45190000  0.08640000  1.0 0.1223756564
H  H12  1  0.65530000  0.74170000  0.60720000  1.0 0.1223756564
H  H13  1  0.75830000  0.84470000  0.39280000  1.0 0.1223756564
H  H14  1  0.74170000  0.13450000  0.08640000  1.0 0.1223756564
H  H15  1  0.04810000  0.65530000  0.91360000  1.0 0.1223756564
H  H16  1  0.13450000  0.04810000  0.39280000  1.0 0.1223756564
C  C1  1  0.58320000  0.64860000  0.23180000  1.0 0.5444842321
C  C2  1  0.64860000  0.41680000  0.06540000  1.0 0.5444842321
C  C3  1  0.35140000  0.58320000  0.93460000  1.0 0.5444842321
C  C4  1  0.14860000  0.08320000  0.23180000  1.0 0.5444842321
C  C5  1  0.41680000  0.35140000  0.76820000  1.0 0.5444842321
C  C6  1  0.08320000  0.85140000  0.93460000  1.0 0.5444842321
C  C7  1  0.91680000  0.14860000  0.06540000  1.0 0.5444842321
C  C8  1  0.85140000  0.91680000  0.76820000  1.0 0.5444842321
C  C9  1  0.64470000  0.72500000  0.36970000  1.0 0.0426976509
C  C10  1  0.72500000  0.35530000  0.08030000  1.0 0.0426976509
C  C11  1  0.27500000  0.64470000  0.91970000  1.0 0.0426976509
C  C12  1  0.22500000  0.14470000  0.36970000  1.0 0.0426976509
C  C13  1  0.35530000  0.27500000  0.63030000  1.0 0.0426976509
C  C14  1  0.14470000  0.77500000  0.91970000  1.0 0.0426976509
C  C15  1  0.85530000  0.22500000  0.08030000  1.0 0.0426976509
C  C16  1  0.77500000  0.85530000  0.63030000  1.0 0.0426976509
C  C17  1  0.61324000  0.69714000  0.43570000  1.0 -0.1274207798
C  C18  1  0.69714000  0.26144000  0.08390000  1.0 -0.1274207798
C  C19  1  0.17754000  0.61324000  0.91610000  1.0 -0.1274207798
C  C20  1  0.32246000  0.23856000  0.43570000  1.0 -0.1274207798
C  C21  1  0.26144000  0.17754000  0.56430000  1.0 -0.1274207798
C  C22  1  0.23856000  0.80286000  0.91610000  1.0 -0.1274207798
C  C23  1  0.88676000  0.32246000  0.08390000  1.0 -0.1274207798
C  C24  1  0.80286000  0.88676000  0.56430000  1.0 -0.1274207798
C  C25  1  0.38676000  0.30286000  0.56430000  1.0 -0.1274207798
C  C26  1  0.30286000  0.73856000  0.91610000  1.0 -0.1274207798
C  C27  1  0.82246000  0.38676000  0.08390000  1.0 -0.1274207798
C  C28  1  0.67754000  0.76144000  0.56430000  1.0 -0.1274207798
C  C29  1  0.73856000  0.82246000  0.43570000  1.0 -0.1274207798
C  C30  1  0.76144000  0.19714000  0.08390000  1.0 -0.1274207798
C  C31  1  0.11324000  0.67754000  0.91610000  1.0 -0.1274207798
C  C32  1  0.19714000  0.11324000  0.43570000  1.0 -0.1274207798
C  C33  1  0.34950000  0.21720000  0.98370000  1.0 0.0085437616
C  C34  1  0.21720000  0.23350000  0.86770000  1.0 0.0085437616
C  C35  1  0.36580000  0.34950000  0.13230000  1.0 0.0085437616
C  C36  1  0.13420000  0.26650000  0.98370000  1.0 0.0085437616
C  C37  1  0.23350000  0.36580000  0.01630000  1.0 0.0085437616
C  C38  1  0.26650000  0.28280000  0.13230000  1.0 0.0085437616
C  C39  1  0.15050000  0.13420000  0.86770000  1.0 0.0085437616
C  C40  1  0.28280000  0.15050000  0.01630000  1.0 0.0085437616
C  C41  1  0.65050000  0.78280000  0.01630000  1.0 0.0085437616
C  C42  1  0.78280000  0.76650000  0.13230000  1.0 0.0085437616
C  C43  1  0.63420000  0.65050000  0.86770000  1.0 0.0085437616
C  C44  1  0.86580000  0.73350000  0.01630000  1.0 0.0085437616
C  C45  1  0.76650000  0.63420000  0.98370000  1.0 0.0085437616
C  C46  1  0.73350000  0.71720000  0.86770000  1.0 0.0085437616
C  C47  1  0.84950000  0.86580000  0.13230000  1.0 0.0085437616
C  C48  1  0.71720000  0.84950000  0.98370000  1.0 0.0085437616
C  C49  1  0.37710000  0.25290000  0.05020000  1.0 0.0085437616
C  C50  1  0.25290000  0.20270000  0.87580000  1.0 0.0085437616
C  C51  1  0.32690000  0.37710000  0.12420000  1.0 0.0085437616
C  C52  1  0.17310000  0.29730000  0.05020000  1.0 0.0085437616
C  C53  1  0.20270000  0.32690000  0.94980000  1.0 0.0085437616
C  C54  1  0.29730000  0.24710000  0.12420000  1.0 0.0085437616
C  C55  1  0.12290000  0.17310000  0.87580000  1.0 0.0085437616
C  C56  1  0.24710000  0.12290000  0.94980000  1.0 0.0085437616
C  C57  1  0.62290000  0.74710000  0.94980000  1.0 0.0085437616
C  C58  1  0.74710000  0.79730000  0.12420000  1.0 0.0085437616
C  C59  1  0.67310000  0.62290000  0.87580000  1.0 0.0085437616
C  C60  1  0.82690000  0.70270000  0.94980000  1.0 0.0085437616
C  C61  1  0.79730000  0.67310000  0.05020000  1.0 0.0085437616
C  C62  1  0.70270000  0.75290000  0.87580000  1.0 0.0085437616
C  C63  1  0.87710000  0.82690000  0.12420000  1.0 0.0085437616
C  C64  1  0.75290000  0.87710000  0.05020000  1.0 0.0085437616
C  C65  1  0.38360000  0.30340000  0.10420000  1.0 0.000925593
C  C66  1  0.30340000  0.19920000  0.91980000  1.0 0.000925593
C  C67  1  0.27940000  0.38360000  0.08020000  1.0 0.000925593
C  C68  1  0.22060000  0.30080000  0.10420000  1.0 0.000925593
C  C69  1  0.19920000  0.27940000  0.89580000  1.0 0.000925593
C  C70  1  0.30080000  0.19660000  0.08020000  1.0 0.000925593
C  C71  1  0.11640000  0.22060000  0.91980000  1.0 0.000925593
C  C72  1  0.19660000  0.11640000  0.89580000  1.0 0.000925593
C  C73  1  0.61640000  0.69660000  0.89580000  1.0 0.000925593
C  C74  1  0.69660000  0.80080000  0.08020000  1.0 0.000925593
C  C75  1  0.72060000  0.61640000  0.91980000  1.0 0.000925593
C  C76  1  0.77940000  0.69920000  0.89580000  1.0 0.000925593
C  C77  1  0.80080000  0.72060000  0.10420000  1.0 0.000925593
C  C78  1  0.69920000  0.80340000  0.91980000  1.0 0.000925593
C  C79  1  0.88360000  0.77940000  0.08020000  1.0 0.000925593
C  C80  1  0.80340000  0.88360000  0.10420000  1.0 0.000925593
N  N1  1  0.31760000  0.31760000  0.00000000  1.0 0.0489534181
N  N2  1  0.18240000  0.18240000  0.00000000  1.0 0.0489534181
N  N3  1  0.68240000  0.68240000  0.00000000  1.0 0.0489534181
N  N4  1  0.81760000  0.81760000  0.00000000  1.0 0.0489534181
O  O1  1  0.50221000  0.55961000  0.17860000  1.0 -0.5241977642
O  O2  1  0.55961000  0.38101000  0.05740000  1.0 -0.5241977642
O  O3  1  0.32361000  0.50221000  0.94260000  1.0 -0.5241977642
O  O4  1  0.17639000  0.11899000  0.17860000  1.0 -0.5241977642
O  O5  1  0.38101000  0.32361000  0.82140000  1.0 -0.5241977642
O  O6  1  0.11899000  0.94039000  0.94260000  1.0 -0.5241977642
O  O7  1  0.99779000  0.17639000  0.05740000  1.0 -0.5241977642
O  O8  1  0.94039000  0.99779000  0.82140000  1.0 -0.5241977642
O  O9  1  0.49779000  0.44039000  0.82140000  1.0 -0.5241977642
O  O10  1  0.44039000  0.61899000  0.94260000  1.0 -0.5241977642
O  O11  1  0.67639000  0.49779000  0.05740000  1.0 -0.5241977642
O  O12  1  0.82361000  0.88101000  0.82140000  1.0 -0.5241977642
O  O13  1  0.61899000  0.67639000  0.17860000  1.0 -0.5241977642
O  O14  1  0.88101000  0.05961000  0.05740000  1.0 -0.5241977642
O  O15  1  0.00221000  0.82361000  0.94260000  1.0 -0.5241977642
O  O16  1  0.05961000  0.00221000  0.17860000  1.0 -0.5241977642
