# DDEC6 charges by PACMAN v1.1 (https://github.com/mtap-research/PACMAN-charge/)
data_DOCVAV_ASR_pacman
_symmetry_space_group_name_H-M   'P 1'
_cell_length_a   21.31390000
_cell_length_b   21.31390000
_cell_length_c   8.29810000
_cell_angle_alpha   90.00000000
_cell_angle_beta   90.00000000
_cell_angle_gamma   90.00000000
_symmetry_Int_Tables_number   1
_chemical_formula_structural   TiCuH24C36(N13F5)2
_chemical_formula_sum   'Ti4 Cu4 H96 C144 N104 F40'
_cell_volume   3769.68022921
_cell_formula_units_Z   4
loop_
 _symmetry_equiv_pos_site_id
 _symmetry_equiv_pos_as_xyz
  1  'x, y, z'
loop_
 _atom_site_type_symbol
 _atom_site_label
 _atom_site_symmetry_multiplicity
 _atom_site_fract_x
 _atom_site_fract_y
 _atom_site_fract_z
 _atom_site_occupancy
 _atom_site_charge
Ti  Ti1  1  0.50000000  0.00000000  0.00000000  1.0 1.6317441789
Ti  Ti2  1  0.00000000  0.50000000  0.00000000  1.0 1.6317441789
Ti  Ti3  1  0.00000000  0.00000000  0.50000000  1.0 0.5666333167
Ti  Ti4  1  0.50000000  0.50000000  0.50000000  1.0 0.5666333167
Cu  Cu1  1  0.50000000  0.00000000  0.50000000  1.0 0.3015439836
Cu  Cu2  1  0.00000000  0.50000000  0.50000000  1.0 0.3015439836
Cu  Cu3  1  0.00000000  0.00000000  0.00000000  1.0 0.623462948
Cu  Cu4  1  0.50000000  0.50000000  0.00000000  1.0 0.623462948
H  H1  1  0.43360000  0.08270000  0.26650000  1.0 0.0711568133
H  H2  1  0.36320000  0.16470000  0.26320000  1.0 0.0711568133
H  H3  1  0.35910000  0.16000000  0.74320000  1.0 0.0789713073
H  H4  1  0.43340000  0.08200000  0.73710000  1.0 0.0789713073
H  H5  1  0.56640000  0.91730000  0.26650000  1.0 0.0711568133
H  H6  1  0.63680000  0.83530000  0.26320000  1.0 0.0711568133
H  H7  1  0.64090000  0.84000000  0.74320000  1.0 0.0789713073
H  H8  1  0.56660000  0.91800000  0.73710000  1.0 0.0789713073
H  H9  1  0.08270000  0.56640000  0.26650000  1.0 0.0711568133
H  H10  1  0.16470000  0.63680000  0.26320000  1.0 0.0711568133
H  H11  1  0.16000000  0.64090000  0.74320000  1.0 0.0789713073
H  H12  1  0.08200000  0.56660000  0.73710000  1.0 0.0789713073
H  H13  1  0.91730000  0.43360000  0.26650000  1.0 0.0711568133
H  H14  1  0.83530000  0.36320000  0.26320000  1.0 0.0711568133
H  H15  1  0.84000000  0.35910000  0.74320000  1.0 0.0789713073
H  H16  1  0.91800000  0.43340000  0.73710000  1.0 0.0789713073
H  H17  1  0.43360000  0.91730000  0.73350000  1.0 0.0711568133
H  H18  1  0.36320000  0.83530000  0.73680000  1.0 0.0711568133
H  H19  1  0.35910000  0.84000000  0.25680000  1.0 0.0789713073
H  H20  1  0.43340000  0.91800000  0.26290000  1.0 0.0789713073
H  H21  1  0.56640000  0.08270000  0.73350000  1.0 0.0711568133
H  H22  1  0.63680000  0.16470000  0.73680000  1.0 0.0711568133
H  H23  1  0.64090000  0.16000000  0.25680000  1.0 0.0789713073
H  H24  1  0.56660000  0.08200000  0.26290000  1.0 0.0789713073
H  H25  1  0.08270000  0.43360000  0.73350000  1.0 0.0711568133
H  H26  1  0.16470000  0.36320000  0.73680000  1.0 0.0711568133
H  H27  1  0.16000000  0.35910000  0.25680000  1.0 0.0789713073
H  H28  1  0.08200000  0.43340000  0.26290000  1.0 0.0789713073
H  H29  1  0.91730000  0.56640000  0.73350000  1.0 0.0711568133
H  H30  1  0.83530000  0.63680000  0.73680000  1.0 0.0711568133
H  H31  1  0.84000000  0.64090000  0.25680000  1.0 0.0789713073
H  H32  1  0.91800000  0.56660000  0.26290000  1.0 0.0789713073
H  H33  1  0.06640000  0.41730000  0.73350000  1.0 0.0711568133
H  H34  1  0.13680000  0.33530000  0.73680000  1.0 0.0711568133
H  H35  1  0.14090000  0.34000000  0.25680000  1.0 0.0789713073
H  H36  1  0.06660000  0.41800000  0.26290000  1.0 0.0789713073
H  H37  1  0.93360000  0.58270000  0.73350000  1.0 0.0711568133
H  H38  1  0.86320000  0.66470000  0.73680000  1.0 0.0711568133
H  H39  1  0.85910000  0.66000000  0.25680000  1.0 0.0789713073
H  H40  1  0.93340000  0.58200000  0.26290000  1.0 0.0789713073
H  H41  1  0.41730000  0.93360000  0.73350000  1.0 0.0711568133
H  H42  1  0.33530000  0.86320000  0.73680000  1.0 0.0711568133
H  H43  1  0.34000000  0.85910000  0.25680000  1.0 0.0789713073
H  H44  1  0.41800000  0.93340000  0.26290000  1.0 0.0789713073
H  H45  1  0.58270000  0.06640000  0.73350000  1.0 0.0711568133
H  H46  1  0.66470000  0.13680000  0.73680000  1.0 0.0711568133
H  H47  1  0.66000000  0.14090000  0.25680000  1.0 0.0789713073
H  H48  1  0.58200000  0.06660000  0.26290000  1.0 0.0789713073
H  H49  1  0.06640000  0.58270000  0.26650000  1.0 0.0711568133
H  H50  1  0.13680000  0.66470000  0.26320000  1.0 0.0711568133
H  H51  1  0.14090000  0.66000000  0.74320000  1.0 0.0789713073
H  H52  1  0.06660000  0.58200000  0.73710000  1.0 0.0789713073
H  H53  1  0.93360000  0.41730000  0.26650000  1.0 0.0711568133
H  H54  1  0.86320000  0.33530000  0.26320000  1.0 0.0711568133
H  H55  1  0.85910000  0.34000000  0.74320000  1.0 0.0789713073
H  H56  1  0.93340000  0.41800000  0.73710000  1.0 0.0789713073
H  H57  1  0.41730000  0.06640000  0.26650000  1.0 0.0711568133
H  H58  1  0.33530000  0.13680000  0.26320000  1.0 0.0711568133
H  H59  1  0.34000000  0.14090000  0.74320000  1.0 0.0789713073
H  H60  1  0.41800000  0.06660000  0.73710000  1.0 0.0789713073
H  H61  1  0.58270000  0.93360000  0.26650000  1.0 0.0711568133
H  H62  1  0.66470000  0.86320000  0.26320000  1.0 0.0711568133
H  H63  1  0.66000000  0.85910000  0.74320000  1.0 0.0789713073
H  H64  1  0.58200000  0.93340000  0.73710000  1.0 0.0789713073
H  H65  1  0.11340000  0.03420000  0.18870000  1.0 0.0711568133
H  H66  1  0.19260000  0.10890000  0.19050000  1.0 0.1288616602
H  H67  1  0.88660000  0.96580000  0.18870000  1.0 0.0711568133
H  H68  1  0.80740000  0.89110000  0.19050000  1.0 0.1288616602
H  H69  1  0.03420000  0.88660000  0.18870000  1.0 0.0711568133
H  H70  1  0.10890000  0.80740000  0.19050000  1.0 0.1288616602
H  H71  1  0.96580000  0.11340000  0.18870000  1.0 0.0711568133
H  H72  1  0.89110000  0.19260000  0.19050000  1.0 0.1288616602
H  H73  1  0.11340000  0.96580000  0.81130000  1.0 0.0711568133
H  H74  1  0.19260000  0.89110000  0.80950000  1.0 0.1288616602
H  H75  1  0.88660000  0.03420000  0.81130000  1.0 0.0711568133
H  H76  1  0.80740000  0.10890000  0.80950000  1.0 0.1288616602
H  H77  1  0.03420000  0.11340000  0.81130000  1.0 0.0711568133
H  H78  1  0.10890000  0.19260000  0.80950000  1.0 0.1288616602
H  H79  1  0.96580000  0.88660000  0.81130000  1.0 0.0711568133
H  H80  1  0.89110000  0.80740000  0.80950000  1.0 0.1288616602
H  H81  1  0.38660000  0.46580000  0.81130000  1.0 0.0711568133
H  H82  1  0.30740000  0.39110000  0.80950000  1.0 0.1288616602
H  H83  1  0.61340000  0.53420000  0.81130000  1.0 0.0711568133
H  H84  1  0.69260000  0.60890000  0.80950000  1.0 0.1288616602
H  H85  1  0.46580000  0.61340000  0.81130000  1.0 0.0711568133
H  H86  1  0.39110000  0.69260000  0.80950000  1.0 0.1288616602
H  H87  1  0.53420000  0.38660000  0.81130000  1.0 0.0711568133
H  H88  1  0.60890000  0.30740000  0.80950000  1.0 0.1288616602
H  H89  1  0.38660000  0.53420000  0.18870000  1.0 0.0711568133
H  H90  1  0.30740000  0.60890000  0.19050000  1.0 0.1288616602
H  H91  1  0.61340000  0.46580000  0.18870000  1.0 0.0711568133
H  H92  1  0.69260000  0.39110000  0.19050000  1.0 0.1288616602
H  H93  1  0.46580000  0.38660000  0.18870000  1.0 0.0711568133
H  H94  1  0.39110000  0.30740000  0.19050000  1.0 0.1288616602
H  H95  1  0.53420000  0.61340000  0.18870000  1.0 0.0711568133
H  H96  1  0.60890000  0.69260000  0.19050000  1.0 0.1288616602
C  C1  1  0.41850000  0.09870000  0.36600000  1.0 0.0494527549
C  C2  1  0.37650000  0.14740000  0.36310000  1.0 -0.0479161598
C  C3  1  0.37470000  0.14510000  0.64300000  1.0 -0.0479161598
C  C4  1  0.41770000  0.09790000  0.63800000  1.0 0.0382138305
C  C5  1  0.35440000  0.17060000  0.50230000  1.0 0.0241459964
C  C6  1  0.30980000  0.22570000  0.50250000  1.0 0.0962025067
C  C7  1  0.58150000  0.90130000  0.36600000  1.0 0.0494527549
C  C8  1  0.62350000  0.85260000  0.36310000  1.0 -0.0479161598
C  C9  1  0.62530000  0.85490000  0.64300000  1.0 -0.0479161598
C  C10  1  0.58230000  0.90210000  0.63800000  1.0 0.0382138305
C  C11  1  0.64560000  0.82940000  0.50230000  1.0 0.0241459964
C  C12  1  0.69020000  0.77430000  0.50250000  1.0 0.0962025067
C  C13  1  0.09870000  0.58150000  0.36600000  1.0 0.0494527549
C  C14  1  0.14740000  0.62350000  0.36310000  1.0 -0.0479161598
C  C15  1  0.14510000  0.62530000  0.64300000  1.0 -0.0479161598
C  C16  1  0.09790000  0.58230000  0.63800000  1.0 0.0382138305
C  C17  1  0.17060000  0.64560000  0.50230000  1.0 0.0241459964
C  C18  1  0.22570000  0.69020000  0.50250000  1.0 0.0962025067
C  C19  1  0.90130000  0.41850000  0.36600000  1.0 0.0494527549
C  C20  1  0.85260000  0.37650000  0.36310000  1.0 -0.0445213662
C  C21  1  0.85490000  0.37470000  0.64300000  1.0 -0.0479161598
C  C22  1  0.90210000  0.41770000  0.63800000  1.0 0.0382138305
C  C23  1  0.82940000  0.35440000  0.50230000  1.0 0.0241459964
C  C24  1  0.77430000  0.30980000  0.50250000  1.0 0.0962025067
C  C25  1  0.41850000  0.90130000  0.63400000  1.0 0.0494527549
C  C26  1  0.37650000  0.85260000  0.63690000  1.0 -0.0479161598
C  C27  1  0.37470000  0.85490000  0.35700000  1.0 -0.0479161598
C  C28  1  0.41770000  0.90210000  0.36200000  1.0 0.0382138305
C  C29  1  0.35440000  0.82940000  0.49770000  1.0 0.0241459964
C  C30  1  0.30980000  0.77430000  0.49750000  1.0 0.0962025067
C  C31  1  0.58150000  0.09870000  0.63400000  1.0 0.0494527549
C  C32  1  0.62350000  0.14740000  0.63690000  1.0 -0.0445213662
C  C33  1  0.62530000  0.14510000  0.35700000  1.0 -0.0479161598
C  C34  1  0.58230000  0.09790000  0.36200000  1.0 0.0382138305
C  C35  1  0.64560000  0.17060000  0.49770000  1.0 0.0241459964
C  C36  1  0.69020000  0.22570000  0.49750000  1.0 0.0962025067
C  C37  1  0.09870000  0.41850000  0.63400000  1.0 0.0494527549
C  C38  1  0.14740000  0.37650000  0.63690000  1.0 -0.0479161598
C  C39  1  0.14510000  0.37470000  0.35700000  1.0 -0.0479161598
C  C40  1  0.09790000  0.41770000  0.36200000  1.0 0.0382138305
C  C41  1  0.17060000  0.35440000  0.49770000  1.0 0.0241459964
C  C42  1  0.22570000  0.30980000  0.49750000  1.0 0.0962025067
C  C43  1  0.90130000  0.58150000  0.63400000  1.0 0.0494527549
C  C44  1  0.85260000  0.62350000  0.63690000  1.0 -0.0445213662
C  C45  1  0.85490000  0.62530000  0.35700000  1.0 -0.0479161598
C  C46  1  0.90210000  0.58230000  0.36200000  1.0 0.0382138305
C  C47  1  0.82940000  0.64560000  0.49770000  1.0 0.0241459964
C  C48  1  0.77430000  0.69020000  0.49750000  1.0 0.0962025067
C  C49  1  0.08150000  0.40130000  0.63400000  1.0 0.0494527549
C  C50  1  0.12350000  0.35260000  0.63690000  1.0 -0.0479161598
C  C51  1  0.12530000  0.35490000  0.35700000  1.0 -0.0479161598
C  C52  1  0.08230000  0.40210000  0.36200000  1.0 0.0382138305
C  C53  1  0.14560000  0.32940000  0.49770000  1.0 0.0241459964
C  C54  1  0.19020000  0.27430000  0.49750000  1.0 0.0962025067
C  C55  1  0.91850000  0.59870000  0.63400000  1.0 0.0494527549
C  C56  1  0.87650000  0.64740000  0.63690000  1.0 -0.0445213662
C  C57  1  0.87470000  0.64510000  0.35700000  1.0 -0.0479161598
C  C58  1  0.91770000  0.59790000  0.36200000  1.0 0.0382138305
C  C59  1  0.85440000  0.67060000  0.49770000  1.0 0.0241459964
C  C60  1  0.80980000  0.72570000  0.49750000  1.0 0.0962025067
C  C61  1  0.40130000  0.91850000  0.63400000  1.0 0.0494527549
C  C62  1  0.35260000  0.87650000  0.63690000  1.0 -0.0479161598
C  C63  1  0.35490000  0.87470000  0.35700000  1.0 -0.0479161598
C  C64  1  0.40210000  0.91770000  0.36200000  1.0 0.0382138305
C  C65  1  0.32940000  0.85440000  0.49770000  1.0 0.0241459964
C  C66  1  0.27430000  0.80980000  0.49750000  1.0 0.0962025067
C  C67  1  0.59870000  0.08150000  0.63400000  1.0 0.0494527549
C  C68  1  0.64740000  0.12350000  0.63690000  1.0 -0.0445213662
C  C69  1  0.64510000  0.12530000  0.35700000  1.0 -0.0479161598
C  C70  1  0.59790000  0.08230000  0.36200000  1.0 0.0382138305
C  C71  1  0.67060000  0.14560000  0.49770000  1.0 0.0241459964
C  C72  1  0.72570000  0.19020000  0.49750000  1.0 0.0962025067
C  C73  1  0.08150000  0.59870000  0.36600000  1.0 0.0494527549
C  C74  1  0.12350000  0.64740000  0.36310000  1.0 -0.0479161598
C  C75  1  0.12530000  0.64510000  0.64300000  1.0 -0.0479161598
C  C76  1  0.08230000  0.59790000  0.63800000  1.0 0.0382138305
C  C77  1  0.14560000  0.67060000  0.50230000  1.0 0.0241459964
C  C78  1  0.19020000  0.72570000  0.50250000  1.0 0.0962025067
C  C79  1  0.91850000  0.40130000  0.36600000  1.0 0.0494527549
C  C80  1  0.87650000  0.35260000  0.36310000  1.0 -0.0445213662
C  C81  1  0.87470000  0.35490000  0.64300000  1.0 -0.0479161598
C  C82  1  0.91770000  0.40210000  0.63800000  1.0 0.0382138305
C  C83  1  0.85440000  0.32940000  0.50230000  1.0 0.0241459964
C  C84  1  0.80980000  0.27430000  0.50250000  1.0 0.0962025067
C  C85  1  0.40130000  0.08150000  0.36600000  1.0 0.0494527549
C  C86  1  0.35260000  0.12350000  0.36310000  1.0 -0.0479161598
C  C87  1  0.35490000  0.12530000  0.64300000  1.0 -0.0479161598
C  C88  1  0.40210000  0.08230000  0.63800000  1.0 0.0382138305
C  C89  1  0.32940000  0.14560000  0.50230000  1.0 0.0241459964
C  C90  1  0.27430000  0.19020000  0.50250000  1.0 0.0962025067
C  C91  1  0.59870000  0.91850000  0.36600000  1.0 0.0494527549
C  C92  1  0.64740000  0.87650000  0.36310000  1.0 -0.0479161598
C  C93  1  0.64510000  0.87470000  0.64300000  1.0 -0.0479161598
C  C94  1  0.59790000  0.91770000  0.63800000  1.0 0.0382138305
C  C95  1  0.67060000  0.85440000  0.50230000  1.0 0.0241459964
C  C96  1  0.72570000  0.80980000  0.50250000  1.0 0.0962025067
C  C97  1  0.11304000  0.06646000  0.10970000  1.0 0.0711568133
C  C98  1  0.15998000  0.11092000  0.11270000  1.0 -0.1495151082
C  C99  1  0.88696000  0.93354000  0.10970000  1.0 0.0711568133
C  C100  1  0.84002000  0.88908000  0.11270000  1.0 -0.1495151082
C  C101  1  0.06646000  0.88696000  0.10970000  1.0 0.0711568133
C  C102  1  0.11092000  0.84002000  0.11270000  1.0 -0.1495151082
C  C103  1  0.93354000  0.11304000  0.10970000  1.0 0.0711568133
C  C104  1  0.88908000  0.15998000  0.11270000  1.0 -0.1495151082
C  C105  1  0.11304000  0.93354000  0.89030000  1.0 0.0711568133
C  C106  1  0.15998000  0.88908000  0.88730000  1.0 -0.1495151082
C  C107  1  0.88696000  0.06646000  0.89030000  1.0 0.0711568133
C  C108  1  0.84002000  0.11092000  0.88730000  1.0 -0.1495151082
C  C109  1  0.06646000  0.11304000  0.89030000  1.0 0.0711568133
C  C110  1  0.11092000  0.15998000  0.88730000  1.0 -0.1495151082
C  C111  1  0.93354000  0.88696000  0.89030000  1.0 0.0711568133
C  C112  1  0.88908000  0.84002000  0.88730000  1.0 -0.1495151082
C  C113  1  0.38696000  0.43354000  0.89030000  1.0 0.0711568133
C  C114  1  0.34002000  0.38908000  0.88730000  1.0 -0.1495151082
C  C115  1  0.61304000  0.56646000  0.89030000  1.0 0.0711568133
C  C116  1  0.65998000  0.61092000  0.88730000  1.0 -0.1495151082
C  C117  1  0.43354000  0.61304000  0.89030000  1.0 0.0711568133
C  C118  1  0.38908000  0.65998000  0.88730000  1.0 -0.1495151082
C  C119  1  0.56646000  0.38696000  0.89030000  1.0 0.0711568133
C  C120  1  0.61092000  0.34002000  0.88730000  1.0 -0.1495151082
C  C121  1  0.38696000  0.56646000  0.10970000  1.0 0.0711568133
C  C122  1  0.34002000  0.61092000  0.11270000  1.0 -0.1495151082
C  C123  1  0.61304000  0.43354000  0.10970000  1.0 0.0711568133
C  C124  1  0.65998000  0.38908000  0.11270000  1.0 -0.1495151082
C  C125  1  0.43354000  0.38696000  0.10970000  1.0 0.0711568133
C  C126  1  0.38908000  0.34002000  0.11270000  1.0 -0.1495151082
C  C127  1  0.56646000  0.61304000  0.10970000  1.0 0.0711568133
C  C128  1  0.61092000  0.65998000  0.11270000  1.0 -0.1495151082
C  C129  1  0.15840000  0.15840000  0.00000000  1.0 0.087924677
C  C130  1  0.20796000  0.20796000  0.00000000  1.0 0.2112423135
C  C131  1  0.84160000  0.84160000  0.00000000  1.0 0.087924677
C  C132  1  0.79204000  0.79204000  0.00000000  1.0 0.2112423135
C  C133  1  0.15840000  0.84160000  0.00000000  1.0 0.087924677
C  C134  1  0.20796000  0.79204000  0.00000000  1.0 0.2112423135
C  C135  1  0.84160000  0.15840000  0.00000000  1.0 0.087924677
C  C136  1  0.79204000  0.20796000  0.00000000  1.0 0.2112423135
C  C137  1  0.34160000  0.34160000  0.00000000  1.0 0.087924677
C  C138  1  0.29204000  0.29204000  0.00000000  1.0 0.2112423135
C  C139  1  0.65840000  0.65840000  0.00000000  1.0 0.087924677
C  C140  1  0.70796000  0.70796000  0.00000000  1.0 0.2112423135
C  C141  1  0.34160000  0.65840000  0.00000000  1.0 0.087924677
C  C142  1  0.29204000  0.70796000  0.00000000  1.0 0.2112423135
C  C143  1  0.65840000  0.34160000  0.00000000  1.0 0.087924677
C  C144  1  0.70796000  0.29204000  0.00000000  1.0 0.2112423135
N  N1  1  0.43880000  0.07290000  0.50190000  1.0 -0.1998956623
N  N2  1  0.28480000  0.23950000  0.35960000  1.0 0.0241459964
N  N3  1  0.24130000  0.28320000  0.35450000  1.0 0.0111296606
N  N4  1  0.25160000  0.29600000  0.63770000  1.0 -0.0479161598
N  N5  1  0.29620000  0.25310000  0.64260000  1.0 -0.057608135
N  N6  1  0.56120000  0.92710000  0.50190000  1.0 -0.1998956623
N  N7  1  0.71520000  0.76050000  0.35960000  1.0 0.0254904097
N  N8  1  0.75870000  0.71680000  0.35450000  1.0 0.0111296606
N  N9  1  0.74840000  0.70400000  0.63770000  1.0 -0.0479161598
N  N10  1  0.70380000  0.74690000  0.64260000  1.0 -0.057608135
N  N11  1  0.07290000  0.56120000  0.50190000  1.0 -0.1998956623
N  N12  1  0.23950000  0.71520000  0.35960000  1.0 0.0254904097
N  N13  1  0.28320000  0.75870000  0.35450000  1.0 0.0111296606
N  N14  1  0.29600000  0.74840000  0.63770000  1.0 -0.0479161598
N  N15  1  0.25310000  0.70380000  0.64260000  1.0 -0.057608135
N  N16  1  0.92710000  0.43880000  0.50190000  1.0 -0.1998956623
N  N17  1  0.76050000  0.28480000  0.35960000  1.0 0.0254904097
N  N18  1  0.71680000  0.24130000  0.35450000  1.0 0.0111296606
N  N19  1  0.70400000  0.25160000  0.63770000  1.0 -0.0479161598
N  N20  1  0.74690000  0.29620000  0.64260000  1.0 -0.057608135
N  N21  1  0.43880000  0.92710000  0.49810000  1.0 -0.1998956623
N  N22  1  0.28480000  0.76050000  0.64040000  1.0 0.0254904097
N  N23  1  0.24130000  0.71680000  0.64550000  1.0 0.0111296606
N  N24  1  0.25160000  0.70400000  0.36230000  1.0 -0.0479161598
N  N25  1  0.29620000  0.74690000  0.35740000  1.0 -0.057608135
N  N26  1  0.56120000  0.07290000  0.49810000  1.0 -0.1998956623
N  N27  1  0.71520000  0.23950000  0.64040000  1.0 0.0241459964
N  N28  1  0.75870000  0.28320000  0.64550000  1.0 0.0111296606
N  N29  1  0.74840000  0.29600000  0.36230000  1.0 -0.0479161598
N  N30  1  0.70380000  0.25310000  0.35740000  1.0 -0.057608135
N  N31  1  0.07290000  0.43880000  0.49810000  1.0 -0.1998956623
N  N32  1  0.23950000  0.28480000  0.64040000  1.0 0.0241459964
N  N33  1  0.28320000  0.24130000  0.64550000  1.0 0.0111296606
N  N34  1  0.29600000  0.25160000  0.36230000  1.0 -0.0479161598
N  N35  1  0.25310000  0.29620000  0.35740000  1.0 -0.057608135
N  N36  1  0.92710000  0.56120000  0.49810000  1.0 -0.1998956623
N  N37  1  0.76050000  0.71520000  0.64040000  1.0 0.0254904097
N  N38  1  0.71680000  0.75870000  0.64550000  1.0 0.0111296606
N  N39  1  0.70400000  0.74840000  0.36230000  1.0 -0.0479161598
N  N40  1  0.74690000  0.70380000  0.35740000  1.0 -0.057608135
N  N41  1  0.06120000  0.42710000  0.49810000  1.0 -0.1998956623
N  N42  1  0.21520000  0.26050000  0.64040000  1.0 0.0241459964
N  N43  1  0.25870000  0.21680000  0.64550000  1.0 0.0111296606
N  N44  1  0.24840000  0.20400000  0.36230000  1.0 -0.0479161598
N  N45  1  0.20380000  0.24690000  0.35740000  1.0 -0.057608135
N  N46  1  0.93880000  0.57290000  0.49810000  1.0 -0.1998956623
N  N47  1  0.78480000  0.73950000  0.64040000  1.0 0.0254904097
N  N48  1  0.74130000  0.78320000  0.64550000  1.0 0.0111296606
N  N49  1  0.75160000  0.79600000  0.36230000  1.0 -0.0479161598
N  N50  1  0.79620000  0.75310000  0.35740000  1.0 -0.057608135
N  N51  1  0.42710000  0.93880000  0.49810000  1.0 -0.1998956623
N  N52  1  0.26050000  0.78480000  0.64040000  1.0 0.0254904097
N  N53  1  0.21680000  0.74130000  0.64550000  1.0 0.0111296606
N  N54  1  0.20400000  0.75160000  0.36230000  1.0 -0.0479161598
N  N55  1  0.24690000  0.79620000  0.35740000  1.0 -0.057608135
N  N56  1  0.57290000  0.06120000  0.49810000  1.0 -0.1998956623
N  N57  1  0.73950000  0.21520000  0.64040000  1.0 0.0254904097
N  N58  1  0.78320000  0.25870000  0.64550000  1.0 0.0111296606
N  N59  1  0.79600000  0.24840000  0.36230000  1.0 -0.0479161598
N  N60  1  0.75310000  0.20380000  0.35740000  1.0 -0.057608135
N  N61  1  0.06120000  0.57290000  0.50190000  1.0 -0.1998956623
N  N62  1  0.21520000  0.73950000  0.35960000  1.0 0.0254904097
N  N63  1  0.25870000  0.78320000  0.35450000  1.0 0.0111296606
N  N64  1  0.24840000  0.79600000  0.63770000  1.0 -0.0479161598
N  N65  1  0.20380000  0.75310000  0.64260000  1.0 -0.057608135
N  N66  1  0.93880000  0.42710000  0.50190000  1.0 -0.1998956623
N  N67  1  0.78480000  0.26050000  0.35960000  1.0 0.0254904097
N  N68  1  0.74130000  0.21680000  0.35450000  1.0 0.0111296606
N  N69  1  0.75160000  0.20400000  0.63770000  1.0 -0.0479161598
N  N70  1  0.79620000  0.24690000  0.64260000  1.0 -0.057608135
N  N71  1  0.42710000  0.06120000  0.50190000  1.0 -0.1998956623
N  N72  1  0.26050000  0.21520000  0.35960000  1.0 0.0241459964
N  N73  1  0.21680000  0.25870000  0.35450000  1.0 0.0111296606
N  N74  1  0.20400000  0.24840000  0.63770000  1.0 -0.0479161598
N  N75  1  0.24690000  0.20380000  0.64260000  1.0 -0.057608135
N  N76  1  0.57290000  0.93880000  0.50190000  1.0 -0.1998956623
N  N77  1  0.73950000  0.78480000  0.35960000  1.0 0.0254904097
N  N78  1  0.78320000  0.74130000  0.35450000  1.0 0.0111296606
N  N79  1  0.79600000  0.75160000  0.63770000  1.0 -0.0479161598
N  N80  1  0.75310000  0.79620000  0.64260000  1.0 -0.057608135
N  N81  1  0.26708000  0.18857000  0.02060000  1.0 -0.1909004999
N  N82  1  0.73292000  0.81143000  0.02060000  1.0 -0.1909004999
N  N83  1  0.18857000  0.73292000  0.02060000  1.0 -0.1909004999
N  N84  1  0.81143000  0.26708000  0.02060000  1.0 -0.1909004999
N  N85  1  0.26708000  0.81143000  0.97940000  1.0 -0.1909004999
N  N86  1  0.73292000  0.18857000  0.97940000  1.0 -0.1909004999
N  N87  1  0.18857000  0.26708000  0.97940000  1.0 -0.1909004999
N  N88  1  0.81143000  0.73292000  0.97940000  1.0 -0.1909004999
N  N89  1  0.23292000  0.31143000  0.97940000  1.0 -0.1909004999
N  N90  1  0.76708000  0.68857000  0.97940000  1.0 -0.1909004999
N  N91  1  0.31143000  0.76708000  0.97940000  1.0 -0.1909004999
N  N92  1  0.68857000  0.23292000  0.97940000  1.0 -0.1909004999
N  N93  1  0.23292000  0.68857000  0.02060000  1.0 -0.1909004999
N  N94  1  0.76708000  0.31143000  0.02060000  1.0 -0.1909004999
N  N95  1  0.31143000  0.23292000  0.02060000  1.0 -0.1909004999
N  N96  1  0.68857000  0.76708000  0.02060000  1.0 -0.1909004999
N  N97  1  0.06690000  0.06690000  0.00000000  1.0 -0.3181296038
N  N98  1  0.93310000  0.93310000  0.00000000  1.0 -0.3181296038
N  N99  1  0.06690000  0.93310000  0.00000000  1.0 -0.3181296038
N  N100  1  0.93310000  0.06690000  0.00000000  1.0 -0.3181296038
N  N101  1  0.43310000  0.43310000  0.00000000  1.0 -0.3181296038
N  N102  1  0.56690000  0.56690000  0.00000000  1.0 -0.3181296038
N  N103  1  0.43310000  0.56690000  0.00000000  1.0 -0.3181296038
N  N104  1  0.56690000  0.43310000  0.00000000  1.0 -0.3181296038
F  F1  1  0.50000000  0.00000000  0.21270000  1.0 -0.541967568
F  F2  1  0.00000000  0.50000000  0.21270000  1.0 -0.541967568
F  F3  1  0.50000000  0.00000000  0.78730000  1.0 -0.541967568
F  F4  1  0.00000000  0.50000000  0.78730000  1.0 -0.541967568
F  F5  1  0.44355000  0.05645000  0.00020000  1.0 -0.5241106274
F  F6  1  0.55645000  0.94355000  0.00020000  1.0 -0.5241106274
F  F7  1  0.05645000  0.55645000  0.00020000  1.0 -0.5241106274
F  F8  1  0.94355000  0.44355000  0.00020000  1.0 -0.5241106274
F  F9  1  0.44355000  0.94355000  0.99980000  1.0 -0.5241106274
F  F10  1  0.55645000  0.05645000  0.99980000  1.0 -0.5241106274
F  F11  1  0.05645000  0.44355000  0.99980000  1.0 -0.5241106274
F  F12  1  0.94355000  0.55645000  0.99980000  1.0 -0.5241106274
F  F13  1  0.08190000  0.98390000  0.50000000  1.0 0.0494527549
F  F14  1  0.91810000  0.01610000  0.50000000  1.0 0.0494527549
F  F15  1  0.98390000  0.91810000  0.50000000  1.0 0.0494527549
F  F16  1  0.01610000  0.08190000  0.50000000  1.0 0.0494527549
F  F17  1  0.08190000  0.01610000  0.50000000  1.0 0.0494527549
F  F18  1  0.91810000  0.98390000  0.50000000  1.0 0.0494527549
F  F19  1  0.98390000  0.08190000  0.50000000  1.0 0.0494527549
F  F20  1  0.01610000  0.91810000  0.50000000  1.0 0.0494527549
F  F21  1  0.41810000  0.51610000  0.50000000  1.0 0.0494527549
F  F22  1  0.58190000  0.48390000  0.50000000  1.0 0.0494527549
F  F23  1  0.51610000  0.58190000  0.50000000  1.0 0.0494527549
F  F24  1  0.48390000  0.41810000  0.50000000  1.0 0.0494527549
F  F25  1  0.41810000  0.48390000  0.50000000  1.0 0.0494527549
F  F26  1  0.58190000  0.51610000  0.50000000  1.0 0.0494527549
F  F27  1  0.51610000  0.41810000  0.50000000  1.0 0.0494527549
F  F28  1  0.48390000  0.58190000  0.50000000  1.0 0.0494527549
F  F29  1  0.00000000  0.00000000  0.28030000  1.0 -0.5507960441
F  F30  1  0.00000000  0.00000000  0.71970000  1.0 -0.5507960441
F  F31  1  0.50000000  0.50000000  0.71970000  1.0 -0.5507960441
F  F32  1  0.50000000  0.50000000  0.28030000  1.0 -0.5507960441
F  F33  1  0.05940000  0.94060000  0.50000000  1.0 0.0591999889
F  F34  1  0.94060000  0.05940000  0.50000000  1.0 0.0591999889
F  F35  1  0.94060000  0.94060000  0.50000000  1.0 0.0591999889
F  F36  1  0.05940000  0.05940000  0.50000000  1.0 0.0591999889
F  F37  1  0.44060000  0.55940000  0.50000000  1.0 0.0591999889
F  F38  1  0.55940000  0.44060000  0.50000000  1.0 0.0591999889
F  F39  1  0.55940000  0.55940000  0.50000000  1.0 0.0591999889
F  F40  1  0.44060000  0.44060000  0.50000000  1.0 0.0591999889
