# DDEC6 charges by PACMAN v1.1 (https://github.com/mtap-research/PACMAN-charge/)
data_DOFTOJ_ASR_pacman
_symmetry_space_group_name_H-M   'P 1'
_cell_length_a   19.07220000
_cell_length_b   19.07220000
_cell_length_c   19.07220000
_cell_angle_alpha   134.29400000
_cell_angle_beta   102.20000000
_cell_angle_gamma   95.18290000
_symmetry_Int_Tables_number   1
_chemical_formula_structural   ZnPH12PdC20(ClO2)2
_chemical_formula_sum   'Zn4 P4 H48 Pd4 C80 Cl8 O16'
_cell_volume   4564.21137435
_cell_formula_units_Z   4
loop_
 _symmetry_equiv_pos_site_id
 _symmetry_equiv_pos_as_xyz
  1  'x, y, z'
loop_
 _atom_site_type_symbol
 _atom_site_label
 _atom_site_symmetry_multiplicity
 _atom_site_fract_x
 _atom_site_fract_y
 _atom_site_fract_z
 _atom_site_occupancy
 _atom_site_charge
Zn  Zn1  1  0.53522000  0.45443000  0.91921000  1.0 0.9579789815
Zn  Zn2  1  0.96478000  0.88399000  0.91921000  1.0 0.9579789815
Zn  Zn3  1  0.46478000  0.54557000  0.08079000  1.0 0.9579789815
Zn  Zn4  1  0.03522000  0.11601000  0.08079000  1.0 0.9579789815
P  P1  1  0.55839000  0.05839000  0.00000000  1.0 0.2178150629
P  P2  1  0.94161000  0.94161000  0.50000000  1.0 0.2178150629
P  P3  1  0.44161000  0.94161000  0.00000000  1.0 0.2178150629
P  P4  1  0.05839000  0.05839000  0.50000000  1.0 0.2178150629
H  H1  1  0.60200000  0.11550000  0.90750000  1.0 0.0945491446
H  H2  1  0.89800000  0.80550000  0.51350000  1.0 0.0945491446
H  H3  1  0.79200000  0.88450000  0.48650000  1.0 0.0945491446
H  H4  1  0.70800000  0.19450000  0.09250000  1.0 0.0945491446
H  H5  1  0.39800000  0.88450000  0.09250000  1.0 0.0945491446
H  H6  1  0.10200000  0.19450000  0.48650000  1.0 0.0945491446
H  H7  1  0.20800000  0.11550000  0.51350000  1.0 0.0945491446
H  H8  1  0.29200000  0.80550000  0.90750000  1.0 0.0945491446
H  H9  1  0.58150000  0.23110000  0.90460000  1.0 0.1094280453
H  H10  1  0.91850000  0.82310000  0.64960000  1.0 0.1094280453
H  H11  1  0.67350000  0.76890000  0.35040000  1.0 0.1094280453
H  H12  1  0.82650000  0.17690000  0.09540000  1.0 0.1094280453
H  H13  1  0.41850000  0.76890000  0.09540000  1.0 0.1094280453
H  H14  1  0.08150000  0.17690000  0.35040000  1.0 0.1094280453
H  H15  1  0.32650000  0.23110000  0.64960000  1.0 0.1094280453
H  H16  1  0.17350000  0.82310000  0.90460000  1.0 0.1094280453
H  H17  1  0.47610000  0.33630000  0.10420000  1.0 0.1094280453
H  H18  1  0.02390000  0.12810000  0.86020000  1.0 0.1094280453
H  H19  1  0.76790000  0.66370000  0.13980000  1.0 0.1094280453
H  H20  1  0.73210000  0.87190000  0.89580000  1.0 0.1094280453
H  H21  1  0.52390000  0.66370000  0.89580000  1.0 0.1094280453
H  H22  1  0.97610000  0.87190000  0.13980000  1.0 0.1094280453
H  H23  1  0.23210000  0.33630000  0.86020000  1.0 0.1094280453
H  H24  1  0.26790000  0.12810000  0.10420000  1.0 0.1094280453
H  H25  1  0.49500000  0.22000000  0.10460000  1.0 0.1001127678
H  H26  1  0.00500000  0.10960000  0.72500000  1.0 0.1001127678
H  H27  1  0.88460000  0.78000000  0.27500000  1.0 0.1001127678
H  H28  1  0.61540000  0.89040000  0.89540000  1.0 0.1001127678
H  H29  1  0.50500000  0.78000000  0.89540000  1.0 0.1001127678
H  H30  1  0.99500000  0.89040000  0.27500000  1.0 0.1001127678
H  H31  1  0.11540000  0.22000000  0.72500000  1.0 0.1001127678
H  H32  1  0.38460000  0.10960000  0.10460000  1.0 0.1001127678
H  H33  1  0.66020000  0.23820000  0.21940000  1.0 0.1670132326
H  H34  1  0.83980000  0.05920000  0.57800000  1.0 0.1670132326
H  H35  1  0.98120000  0.76180000  0.42200000  1.0 0.1670132326
H  H36  1  0.51880000  0.94080000  0.78060000  1.0 0.1670132326
H  H37  1  0.33980000  0.76180000  0.78060000  1.0 0.1670132326
H  H38  1  0.16020000  0.94080000  0.42200000  1.0 0.1670132326
H  H39  1  0.01880000  0.23820000  0.57800000  1.0 0.1670132326
H  H40  1  0.48120000  0.05920000  0.21940000  1.0 0.1670132326
H  H41  1  0.66040000  0.30620000  0.37780000  1.0 0.1218635821
H  H42  1  0.83960000  0.21740000  0.64580000  1.0 0.1218635821
H  H43  1  0.07160000  0.69380000  0.35420000  1.0 0.1218635821
H  H44  1  0.42840000  0.78260000  0.62220000  1.0 0.1218635821
H  H45  1  0.33960000  0.69380000  0.62220000  1.0 0.1218635821
H  H46  1  0.16040000  0.78260000  0.35420000  1.0 0.1218635821
H  H47  1  0.92840000  0.30620000  0.64580000  1.0 0.1218635821
H  H48  1  0.57160000  0.21740000  0.37780000  1.0 0.1218635821
Pd  Pd1  1  0.45980000  0.90958000  0.86938000  1.0 0.0269900132
Pd  Pd2  1  0.04020000  0.90958000  0.44978000  1.0 0.0269900132
Pd  Pd3  1  0.95980000  0.09042000  0.55022000  1.0 0.0269900132
Pd  Pd4  1  0.54020000  0.09042000  0.13062000  1.0 0.0269900132
C  C1  1  0.54970000  0.15670000  0.00520000  1.0 -0.1031510926
C  C2  1  0.95030000  0.95550000  0.60700000  1.0 -0.1031510926
C  C3  1  0.84850000  0.84330000  0.39300000  1.0 -0.1031510926
C  C4  1  0.65150000  0.04450000  0.99480000  1.0 -0.1082631362
C  C5  1  0.45030000  0.84330000  0.99480000  1.0 -0.1082631362
C  C6  1  0.04970000  0.04450000  0.39300000  1.0 -0.1082631362
C  C7  1  0.15150000  0.15670000  0.60700000  1.0 -0.1082631362
C  C8  1  0.34850000  0.95550000  0.00520000  1.0 -0.1082631362
C  C9  1  0.57620000  0.15990000  0.94670000  1.0 -0.1293042833
C  C10  1  0.92380000  0.87050000  0.58370000  1.0 -0.1293042833
C  C11  1  0.78680000  0.84010000  0.41630000  1.0 -0.1293042833
C  C12  1  0.71320000  0.12950000  0.05330000  1.0 -0.1293042833
C  C13  1  0.42380000  0.84010000  0.05330000  1.0 -0.1293042833
C  C14  1  0.07620000  0.12950000  0.41630000  1.0 -0.1293042833
C  C15  1  0.21320000  0.15990000  0.58370000  1.0 -0.1293042833
C  C16  1  0.28680000  0.87050000  0.94670000  1.0 -0.1293042833
C  C17  1  0.56460000  0.22970000  0.94610000  1.0 -0.0892771902
C  C18  1  0.93540000  0.88150000  0.66510000  1.0 -0.0892771902
C  C19  1  0.71640000  0.77030000  0.33490000  1.0 -0.0892771902
C  C20  1  0.78360000  0.11850000  0.05390000  1.0 -0.0892771902
C  C21  1  0.43540000  0.77030000  0.05390000  1.0 -0.0892771902
C  C22  1  0.06460000  0.11850000  0.33490000  1.0 -0.0892771902
C  C23  1  0.28360000  0.22970000  0.66510000  1.0 -0.0892771902
C  C24  1  0.21640000  0.88150000  0.94610000  1.0 -0.0892771902
C  C25  1  0.52900000  0.29630000  0.00510000  1.0 -0.0235341939
C  C26  1  0.97100000  0.97610000  0.76730000  1.0 -0.0235341939
C  C27  1  0.70880000  0.70370000  0.23270000  1.0 -0.0235341939
C  C28  1  0.79120000  0.02390000  0.99490000  1.0 -0.0235341939
C  C29  1  0.47100000  0.70370000  0.99490000  1.0 -0.0235341939
C  C30  1  0.02900000  0.02390000  0.23270000  1.0 -0.0235341939
C  C31  1  0.29120000  0.29630000  0.76730000  1.0 -0.0235341939
C  C32  1  0.20880000  0.97610000  0.00510000  1.0 -0.0235341939
C  C33  1  0.50170000  0.29180000  0.06450000  1.0 -0.0892771902
C  C34  1  0.99830000  0.06280000  0.79010000  1.0 -0.0892771902
C  C35  1  0.77270000  0.70820000  0.20990000  1.0 -0.0892771902
C  C36  1  0.72730000  0.93720000  0.93550000  1.0 -0.0892771902
C  C37  1  0.49830000  0.70820000  0.93550000  1.0 -0.0892771902
C  C38  1  0.00170000  0.93720000  0.20990000  1.0 -0.0892771902
C  C39  1  0.22730000  0.29180000  0.79010000  1.0 -0.0892771902
C  C40  1  0.27270000  0.06280000  0.06450000  1.0 -0.0892771902
C  C41  1  0.51270000  0.22270000  0.06440000  1.0 -0.1372808712
C  C42  1  0.98730000  0.05170000  0.71000000  1.0 -0.1372808712
C  C43  1  0.84170000  0.77730000  0.29000000  1.0 -0.1372808712
C  C44  1  0.65830000  0.94830000  0.93560000  1.0 -0.1372808712
C  C45  1  0.48730000  0.77730000  0.93560000  1.0 -0.1372808712
C  C46  1  0.01270000  0.94830000  0.29000000  1.0 -0.1372808712
C  C47  1  0.15830000  0.22270000  0.71000000  1.0 -0.1372808712
C  C48  1  0.34170000  0.05170000  0.06440000  1.0 -0.1372808712
C  C49  1  0.51680000  0.37200000  0.00420000  1.0 0.5872470243
C  C50  1  0.98320000  0.98740000  0.85520000  1.0 0.5872470243
C  C51  1  0.63220000  0.62800000  0.14480000  1.0 0.5872470243
C  C52  1  0.86780000  0.01260000  0.99580000  1.0 0.5872470243
C  C53  1  0.48320000  0.62800000  0.99580000  1.0 0.5872470243
C  C54  1  0.01680000  0.01260000  0.14480000  1.0 0.5872470243
C  C55  1  0.36780000  0.37200000  0.85520000  1.0 0.5872470243
C  C56  1  0.13220000  0.98740000  0.00420000  1.0 0.5872470243
C  C57  1  0.56390000  0.11580000  0.12770000  1.0 -0.1082631362
C  C58  1  0.93610000  0.06380000  0.55190000  1.0 -0.1082631362
C  C59  1  0.01190000  0.88420000  0.44810000  1.0 -0.1082631362
C  C60  1  0.48810000  0.93620000  0.87230000  1.0 -0.1082631362
C  C61  1  0.43610000  0.88420000  0.87230000  1.0 -0.1082631362
C  C62  1  0.06390000  0.93620000  0.44810000  1.0 -0.1082631362
C  C63  1  0.98810000  0.11580000  0.55190000  1.0 -0.1082631362
C  C64  1  0.51190000  0.06380000  0.12770000  1.0 -0.1082631362
C  C65  1  0.62220000  0.20480000  0.22020000  1.0 -0.0235341939
C  C66  1  0.87780000  0.09800000  0.58260000  1.0 -0.0235341939
C  C67  1  0.01540000  0.79520000  0.41740000  1.0 -0.0235341939
C  C68  1  0.48460000  0.90200000  0.77980000  1.0 -0.0276822374
C  C69  1  0.37780000  0.79520000  0.77980000  1.0 -0.0235341939
C  C70  1  0.12220000  0.90200000  0.41740000  1.0 -0.0235341939
C  C71  1  0.98460000  0.20480000  0.58260000  1.0 -0.0235341939
C  C72  1  0.51540000  0.09800000  0.22020000  1.0 -0.0235341939
C  C73  1  0.62330000  0.24340000  0.31390000  1.0 -0.0836594161
C  C74  1  0.87670000  0.19060000  0.62010000  1.0 -0.0836594161
C  C75  1  0.07050000  0.75660000  0.37990000  1.0 -0.0836594161
C  C76  1  0.42950000  0.80940000  0.68610000  1.0 -0.0836594161
C  C77  1  0.37670000  0.75660000  0.68610000  1.0 -0.0836594161
C  C78  1  0.12330000  0.80940000  0.37990000  1.0 -0.0836594161
C  C79  1  0.92950000  0.24340000  0.62010000  1.0 -0.0836594161
C  C80  1  0.57050000  0.19060000  0.31390000  1.0 -0.0836594161
Cl  Cl1  1  0.64640000  0.24460000  0.25920000  1.0 -0.001967508
Cl  Cl2  1  0.85360000  0.11280000  0.59820000  1.0 -0.001967508
Cl  Cl3  1  0.01460000  0.75540000  0.40180000  1.0 -0.001967508
Cl  Cl4  1  0.48540000  0.88720000  0.74080000  1.0 0.0005747033
Cl  Cl5  1  0.35360000  0.75540000  0.74080000  1.0 -0.001967508
Cl  Cl6  1  0.14640000  0.88720000  0.40180000  1.0 -0.001967508
Cl  Cl7  1  0.98540000  0.24460000  0.59820000  1.0 -0.001967508
Cl  Cl8  1  0.51460000  0.11280000  0.25920000  1.0 -0.001967508
O  O1  1  0.54110000  0.37030000  0.94660000  1.0 -0.5608138489
O  O2  1  0.95890000  0.90550000  0.82920000  1.0 -0.5608138489
O  O3  1  0.57630000  0.62970000  0.17080000  1.0 -0.5608138489
O  O4  1  0.92370000  0.09450000  0.05340000  1.0 -0.5608138489
O  O5  1  0.45890000  0.62970000  0.05340000  1.0 -0.5608138489
O  O6  1  0.04110000  0.09450000  0.17080000  1.0 -0.5608138489
O  O7  1  0.42370000  0.37030000  0.82920000  1.0 -0.5608138489
O  O8  1  0.07630000  0.90550000  0.94660000  1.0 -0.5608138489
O  O9  1  0.48670000  0.43390000  0.06340000  1.0 -0.53757519
O  O10  1  0.01330000  0.07670000  0.94720000  1.0 -0.53757519
O  O11  1  0.62950000  0.56610000  0.05280000  1.0 -0.53757519
O  O12  1  0.87050000  0.92330000  0.93660000  1.0 -0.53757519
O  O13  1  0.51330000  0.56610000  0.93660000  1.0 -0.53757519
O  O14  1  0.98670000  0.92330000  0.05280000  1.0 -0.53757519
O  O15  1  0.37050000  0.43390000  0.94720000  1.0 -0.53757519
O  O16  1  0.12950000  0.07670000  0.06340000  1.0 -0.53757519
