# DDEC6 charges by PACMAN v1.1 (https://github.com/mtap-research/PACMAN-charge/)
data_DOJXOR_FSR_pacman
_symmetry_space_group_name_H-M   'P 1'
_cell_length_a   14.81670000
_cell_length_b   14.81670000
_cell_length_c   17.71390000
_cell_angle_alpha   80.06230000
_cell_angle_beta   99.93770000
_cell_angle_gamma   78.28560000
_symmetry_Int_Tables_number   1
_chemical_formula_structural   Cu2H38C60N6O11
_chemical_formula_sum   'Cu4 H76 C120 N12 O22'
_cell_volume   3662.75444493
_cell_formula_units_Z   2
loop_
 _symmetry_equiv_pos_site_id
 _symmetry_equiv_pos_as_xyz
  1  'x, y, z'
loop_
 _atom_site_type_symbol
 _atom_site_label
 _atom_site_symmetry_multiplicity
 _atom_site_fract_x
 _atom_site_fract_y
 _atom_site_fract_z
 _atom_site_occupancy
 _atom_site_charge
Cu  Cu1  1  0.74501000  0.74501000  0.25000000  1.0 0.6976227723
Cu  Cu2  1  0.25499000  0.25499000  0.75000000  1.0 0.6976227723
Cu  Cu3  1  0.50000000  0.50000000  0.00000000  1.0 0.6720100008
Cu  Cu4  1  0.50000000  0.50000000  0.50000000  1.0 0.6720100008
H  H1  1  0.59200000  0.66720000  0.25650000  1.0 0.3683188968
H  H2  1  0.66720000  0.59200000  0.24350000  1.0 0.3683188968
H  H3  1  0.40800000  0.33280000  0.74350000  1.0 0.3683188968
H  H4  1  0.33280000  0.40800000  0.75650000  1.0 0.3683188968
H  H5  1  0.52670000  0.65330000  0.78790000  1.0 0.1200530586
H  H6  1  0.65330000  0.52670000  0.71210000  1.0 0.1200530586
H  H7  1  0.47330000  0.34670000  0.21210000  1.0 0.1200530586
H  H8  1  0.34670000  0.47330000  0.28790000  1.0 0.1200530586
H  H9  1  0.56030000  0.74090000  0.68080000  1.0 0.1096503393
H  H10  1  0.74090000  0.56030000  0.81920000  1.0 0.1096503393
H  H11  1  0.43970000  0.25910000  0.31920000  1.0 0.1096503393
H  H12  1  0.25910000  0.43970000  0.18080000  1.0 0.1096503393
H  H13  1  0.59530000  0.93570000  0.80290000  1.0 0.1200530586
H  H14  1  0.93570000  0.59530000  0.69710000  1.0 0.1200530586
H  H15  1  0.40470000  0.06430000  0.19710000  1.0 0.1200530586
H  H16  1  0.06430000  0.40470000  0.30290000  1.0 0.1200530586
H  H17  1  0.56190000  0.84470000  0.90940000  1.0 0.1200530586
H  H18  1  0.84470000  0.56190000  0.59060000  1.0 0.1200530586
H  H19  1  0.43810000  0.15530000  0.09060000  1.0 0.1200530586
H  H20  1  0.15530000  0.43810000  0.40940000  1.0 0.1200530586
H  H21  1  0.72020000  0.68200000  0.41020000  1.0 0.1200530586
H  H22  1  0.68200000  0.72020000  0.08980000  1.0 0.1200530586
H  H23  1  0.27980000  0.31800000  0.58980000  1.0 0.1200530586
H  H24  1  0.31800000  0.27980000  0.91020000  1.0 0.1200530586
H  H25  1  0.68680000  0.74060000  0.51720000  1.0 0.1316432534
H  H26  1  0.74060000  0.68680000  0.98280000  1.0 0.1316432534
H  H27  1  0.31320000  0.25940000  0.48280000  1.0 0.1316432534
H  H28  1  0.25940000  0.31320000  0.01720000  1.0 0.1316432534
H  H29  1  0.65060000  0.99980000  0.38890000  1.0 0.1316432534
H  H30  1  0.99980000  0.65060000  0.11110000  1.0 0.1316432534
H  H31  1  0.34940000  0.00020000  0.61110000  1.0 0.1316432534
H  H32  1  0.00020000  0.34940000  0.88890000  1.0 0.1316432534
H  H33  1  0.68560000  0.93220000  0.28810000  1.0 0.1096503393
H  H34  1  0.93220000  0.68560000  0.21190000  1.0 0.1096503393
H  H35  1  0.31440000  0.06780000  0.71190000  1.0 0.1096503393
H  H36  1  0.06780000  0.31440000  0.78810000  1.0 0.1096503393
H  H37  1  0.53870000  0.34170000  0.63870000  1.0 0.1200530586
H  H38  1  0.34170000  0.53870000  0.86130000  1.0 0.1200530586
H  H39  1  0.46130000  0.65830000  0.36130000  1.0 0.1200530586
H  H40  1  0.65830000  0.46130000  0.13870000  1.0 0.1200530586
H  H41  1  0.57150000  0.18290000  0.66870000  1.0 0.1466073804
H  H42  1  0.18290000  0.57150000  0.83130000  1.0 0.1466073804
H  H43  1  0.42850000  0.81710000  0.33130000  1.0 0.1466073804
H  H44  1  0.81710000  0.42850000  0.16870000  1.0 0.1466073804
H  H45  1  0.58020000  0.18120000  0.44680000  1.0 0.1316432534
H  H46  1  0.18120000  0.58020000  0.05320000  1.0 0.1316432534
H  H47  1  0.41980000  0.81880000  0.55320000  1.0 0.1316432534
H  H48  1  0.81880000  0.41980000  0.94680000  1.0 0.1316432534
H  H49  1  0.53770000  0.34170000  0.42020000  1.0 0.1096503393
H  H50  1  0.34170000  0.53770000  0.07980000  1.0 0.1096503393
H  H51  1  0.46230000  0.65830000  0.57980000  1.0 0.1096503393
H  H52  1  0.65830000  0.46230000  0.92020000  1.0 0.1096503393
H  H53  1  0.64170000  0.80090000  0.60580000  1.0 0.1200530586
H  H54  1  0.80090000  0.64170000  0.89420000  1.0 0.1200530586
H  H55  1  0.35830000  0.19910000  0.39420000  1.0 0.1200530586
H  H56  1  0.19910000  0.35830000  0.10580000  1.0 0.1200530586
H  H57  1  0.56210000  0.03630000  0.68450000  1.0 0.1350482218
H  H58  1  0.03630000  0.56210000  0.81550000  1.0 0.1316432534
H  H59  1  0.43790000  0.96370000  0.31550000  1.0 0.1316432534
H  H60  1  0.96370000  0.43790000  0.18450000  1.0 0.1316432534
H  H61  1  0.39530000  0.93290000  0.05980000  1.0 0.0889222004
H  H62  1  0.93290000  0.39530000  0.44020000  1.0 0.0889222004
H  H63  1  0.60470000  0.06710000  0.94020000  1.0 0.0889222004
H  H64  1  0.06710000  0.60470000  0.55980000  1.0 0.0889222004
H  H65  1  0.64930000  0.97630000  0.06500000  1.0 0.0736922883
H  H66  1  0.97630000  0.64930000  0.43500000  1.0 0.0736922883
H  H67  1  0.35070000  0.02370000  0.93500000  1.0 0.0736922883
H  H68  1  0.02370000  0.35070000  0.56500000  1.0 0.0736922883
H  H69  1  0.64650000  0.03270000  0.98890000  1.0 0.0889222004
H  H70  1  0.03270000  0.64650000  0.51110000  1.0 0.0889222004
H  H71  1  0.35350000  0.96730000  0.01110000  1.0 0.0889222004
H  H72  1  0.96730000  0.35350000  0.48890000  1.0 0.0889222004
H  H73  1  0.49120000  0.88980000  0.10090000  1.0 0.0775475837
H  H74  1  0.88980000  0.49120000  0.39910000  1.0 0.0775475837
H  H75  1  0.50880000  0.11020000  0.89910000  1.0 0.0775475837
H  H76  1  0.11020000  0.50880000  0.60090000  1.0 0.0775475837
C  C1  1  0.52480000  0.67460000  0.92800000  1.0 0.5397716127
C  C2  1  0.67460000  0.52480000  0.57200000  1.0 0.5397716127
C  C3  1  0.47520000  0.32540000  0.07200000  1.0 0.5397716127
C  C4  1  0.32540000  0.47520000  0.42800000  1.0 0.5397716127
C  C5  1  0.54380000  0.73940000  0.85920000  1.0 0.0086119469
C  C6  1  0.73940000  0.54380000  0.64080000  1.0 0.0086119469
C  C7  1  0.45620000  0.26060000  0.14080000  1.0 0.0086119469
C  C8  1  0.26060000  0.45620000  0.35920000  1.0 0.0086119469
C  C9  1  0.54160000  0.71060000  0.79150000  1.0 -0.1103012152
C  C10  1  0.71060000  0.54160000  0.70850000  1.0 -0.1103012152
C  C11  1  0.45840000  0.28940000  0.20850000  1.0 -0.1103012152
C  C12  1  0.28940000  0.45840000  0.29150000  1.0 -0.1103012152
C  C13  1  0.56090000  0.76370000  0.72660000  1.0 -0.1530734114
C  C14  1  0.76370000  0.56090000  0.77340000  1.0 -0.1530734114
C  C15  1  0.43910000  0.23630000  0.27340000  1.0 -0.1530734114
C  C16  1  0.23630000  0.43910000  0.22660000  1.0 -0.1530734114
C  C17  1  0.58090000  0.84910000  0.72910000  1.0 0.0775475837
C  C18  1  0.84910000  0.58090000  0.77090000  1.0 0.0775475837
C  C19  1  0.41910000  0.15090000  0.27090000  1.0 0.0775475837
C  C20  1  0.15090000  0.41910000  0.22910000  1.0 0.0775475837
C  C21  1  0.58160000  0.87800000  0.79870000  1.0 -0.1895323271
C  C22  1  0.87800000  0.58160000  0.70130000  1.0 -0.1895323271
C  C23  1  0.41840000  0.12200000  0.20130000  1.0 -0.1895323271
C  C24  1  0.12200000  0.41840000  0.29870000  1.0 -0.1895323271
C  C25  1  0.56210000  0.82290000  0.86320000  1.0 -0.1688655838
C  C26  1  0.82290000  0.56210000  0.63680000  1.0 -0.1688655838
C  C27  1  0.43790000  0.17710000  0.13680000  1.0 -0.1688655838
C  C28  1  0.17710000  0.43790000  0.36320000  1.0 -0.1688655838
C  C29  1  0.70680000  0.74700000  0.40620000  1.0 0.0485702977
C  C30  1  0.74700000  0.70680000  0.09380000  1.0 0.0485702977
C  C31  1  0.29320000  0.25300000  0.59380000  1.0 0.0485702977
C  C32  1  0.25300000  0.29320000  0.90620000  1.0 0.0485702977
C  C33  1  0.68620000  0.78180000  0.47100000  1.0 -0.1895323271
C  C34  1  0.78180000  0.68620000  0.02900000  1.0 -0.1895323271
C  C35  1  0.31380000  0.21820000  0.52900000  1.0 -0.1895323271
C  C36  1  0.21820000  0.31380000  0.97100000  1.0 -0.1895323271
C  C37  1  0.66480000  0.87880000  0.46590000  1.0 0.0889222004
C  C38  1  0.87880000  0.66480000  0.03410000  1.0 0.0775475837
C  C39  1  0.33520000  0.12120000  0.53410000  1.0 0.0889222004
C  C40  1  0.12120000  0.33520000  0.96590000  1.0 0.0889222004
C  C41  1  0.66490000  0.93450000  0.39580000  1.0 -0.1688655838
C  C42  1  0.93450000  0.66490000  0.10420000  1.0 -0.1688655838
C  C43  1  0.33510000  0.06550000  0.60420000  1.0 -0.1688655838
C  C44  1  0.06550000  0.33510000  0.89580000  1.0 -0.1688655838
C  C45  1  0.68650000  0.89270000  0.33530000  1.0 0.0889222004
C  C46  1  0.89270000  0.68650000  0.16470000  1.0 0.0889222004
C  C47  1  0.31350000  0.10730000  0.66470000  1.0 0.0889222004
C  C48  1  0.10730000  0.31350000  0.83530000  1.0 0.0889222004
C  C49  1  0.54550000  0.30930000  0.59870000  1.0 0.0775475837
C  C50  1  0.30930000  0.54550000  0.90130000  1.0 0.0775475837
C  C51  1  0.45450000  0.69070000  0.40130000  1.0 0.0775475837
C  C52  1  0.69070000  0.45450000  0.09870000  1.0 0.0775475837
C  C53  1  0.56540000  0.21360000  0.61700000  1.0 -0.1807776727
C  C54  1  0.21360000  0.56540000  0.88300000  1.0 -0.1807776727
C  C55  1  0.43460000  0.78640000  0.38300000  1.0 -0.1807776727
C  C56  1  0.78640000  0.43460000  0.11700000  1.0 -0.1807776727
C  C57  1  0.57640000  0.16200000  0.56250000  1.0 0.0986391567
C  C58  1  0.16200000  0.57640000  0.93750000  1.0 0.0986391567
C  C59  1  0.42360000  0.83800000  0.43750000  1.0 0.0986391567
C  C60  1  0.83800000  0.42360000  0.06250000  1.0 0.0986391567
C  C61  1  0.56930000  0.21270000  0.48660000  1.0 -0.1895323271
C  C62  1  0.21270000  0.56930000  0.01340000  1.0 -0.1895323271
C  C63  1  0.43070000  0.78730000  0.51340000  1.0 -0.1895323271
C  C64  1  0.78730000  0.43070000  0.98660000  1.0 -0.1895323271
C  C65  1  0.54630000  0.30890000  0.47170000  1.0 0.0485702977
C  C66  1  0.30890000  0.54630000  0.02830000  1.0 0.0485702977
C  C67  1  0.45370000  0.69110000  0.52830000  1.0 0.0485702977
C  C68  1  0.69110000  0.45370000  0.97170000  1.0 0.0485702977
C  C69  1  0.63750000  0.92110000  0.53170000  1.0 0.1979427356
C  C70  1  0.92110000  0.63750000  0.96830000  1.0 0.1979427356
C  C71  1  0.36250000  0.07890000  0.46830000  1.0 0.1979427356
C  C72  1  0.07890000  0.36250000  0.03170000  1.0 0.1979427356
C  C73  1  0.62840000  0.86620000  0.59950000  1.0 -0.2190822251
C  C74  1  0.86620000  0.62840000  0.90050000  1.0 -0.2190822251
C  C75  1  0.37160000  0.13380000  0.40050000  1.0 -0.2190822251
C  C76  1  0.13380000  0.37160000  0.09950000  1.0 -0.2190822251
C  C77  1  0.59960000  0.90700000  0.65850000  1.0 0.1200530586
C  C78  1  0.90700000  0.59960000  0.84150000  1.0 0.1200530586
C  C79  1  0.40040000  0.09300000  0.34150000  1.0 0.1200530586
C  C80  1  0.09300000  0.40040000  0.15850000  1.0 0.1316432534
C  C81  1  0.58260000  0.00560000  0.64670000  1.0 -0.2190822251
C  C82  1  0.00560000  0.58260000  0.85330000  1.0 -0.2190822251
C  C83  1  0.41740000  0.99440000  0.35330000  1.0 -0.2190822251
C  C84  1  0.99440000  0.41740000  0.14670000  1.0 -0.2190822251
C  C85  1  0.59630000  0.05650000  0.57840000  1.0 0.1979427356
C  C86  1  0.05650000  0.59630000  0.92160000  1.0 0.1979427356
C  C87  1  0.40370000  0.94350000  0.42160000  1.0 0.1979427356
C  C88  1  0.94350000  0.40370000  0.07840000  1.0 0.1979427356
C  C89  1  0.56640000  0.86680000  0.15670000  1.0 0.2399089113
C  C90  1  0.86680000  0.56640000  0.34330000  1.0 0.2399089113
C  C91  1  0.43360000  0.13320000  0.84330000  1.0 0.2399089113
C  C92  1  0.13320000  0.43360000  0.65670000  1.0 0.2399089113
C  C93  1  0.53200000  0.93600000  0.07600000  1.0 0.0039217865
C  C94  1  0.93600000  0.53200000  0.42400000  1.0 0.0086119469
C  C95  1  0.46800000  0.06400000  0.92400000  1.0 0.0039217865
C  C96  1  0.06400000  0.46800000  0.57600000  1.0 0.0039217865
C  C97  1  0.43900000  0.95700000  0.03700000  1.0 -0.0732440278
C  C98  1  0.95700000  0.43900000  0.46300000  1.0 -0.0732440278
C  C99  1  0.56100000  0.04300000  0.96300000  1.0 -0.0732440278
C  C100  1  0.04300000  0.56100000  0.53700000  1.0 -0.0732440278
C  C101  1  0.58800000  0.98400000  0.03800000  1.0 -0.0032317551
C  C102  1  0.98400000  0.58800000  0.46200000  1.0 -0.0032317551
C  C103  1  0.41200000  0.01600000  0.96200000  1.0 -0.0032317551
C  C104  1  0.01600000  0.41200000  0.53800000  1.0 -0.0032317551
C  C105  1  0.66470000  0.90970000  0.12600000  1.0 0.2399089113
C  C106  1  0.90970000  0.66470000  0.37400000  1.0 0.2399089113
C  C107  1  0.33530000  0.09030000  0.87400000  1.0 0.2399089113
C  C108  1  0.09030000  0.33530000  0.62600000  1.0 0.2399089113
C  C109  1  0.58200000  0.95600000  0.05900000  1.0 -0.0090587235
C  C110  1  0.95600000  0.58200000  0.44100000  1.0 -0.0090587235
C  C111  1  0.41800000  0.04400000  0.94100000  1.0 -0.0090587235
C  C112  1  0.04400000  0.41800000  0.55900000  1.0 -0.0090587235
C  C113  1  0.58900000  0.01900000  0.99500000  1.0 -0.0815490521
C  C114  1  0.01900000  0.58900000  0.50500000  1.0 -0.0815490521
C  C115  1  0.41100000  0.98100000  0.00500000  1.0 -0.0815490521
C  C116  1  0.98100000  0.41100000  0.49500000  1.0 -0.0815490521
C  C117  1  0.49500000  0.93700000  0.06000000  1.0 -0.0032317551
C  C118  1  0.93700000  0.49500000  0.44000000  1.0 -0.0032317551
C  C119  1  0.50500000  0.06300000  0.94000000  1.0 -0.0032317551
C  C120  1  0.06300000  0.50500000  0.56000000  1.0 -0.0090587235
N  N1  1  0.62120000  0.01640000  0.52070000  1.0 -0.3183940835
N  N2  1  0.01640000  0.62120000  0.97930000  1.0 -0.3183940835
N  N3  1  0.37880000  0.98360000  0.47930000  1.0 -0.3183940835
N  N4  1  0.98360000  0.37880000  0.02070000  1.0 -0.3183940835
N  N5  1  0.70840000  0.80140000  0.33940000  1.0 -0.2130692005
N  N6  1  0.80140000  0.70840000  0.16060000  1.0 -0.2130692005
N  N7  1  0.29160000  0.19860000  0.66060000  1.0 -0.2130692005
N  N8  1  0.19860000  0.29160000  0.83940000  1.0 -0.2130692005
N  N9  1  0.53550000  0.35830000  0.52730000  1.0 -0.2190822251
N  N10  1  0.35830000  0.53550000  0.97270000  1.0 -0.2190822251
N  N11  1  0.46450000  0.64170000  0.47270000  1.0 -0.2190822251
N  N12  1  0.64170000  0.46450000  0.02730000  1.0 -0.2190822251
O  O1  1  0.50430000  0.60190000  0.91730000  1.0 -0.4794027098
O  O2  1  0.60190000  0.50430000  0.58270000  1.0 -0.4794027098
O  O3  1  0.49570000  0.39810000  0.08270000  1.0 -0.4794027098
O  O4  1  0.39810000  0.49570000  0.41730000  1.0 -0.4794027098
O  O5  1  0.53300000  0.70060000  0.99170000  1.0 -0.5370018072
O  O6  1  0.70060000  0.53300000  0.50830000  1.0 -0.5370018072
O  O7  1  0.46700000  0.29940000  0.00830000  1.0 -0.5370018072
O  O8  1  0.29940000  0.46700000  0.49170000  1.0 -0.5370018072
O  O9  1  0.65270000  0.84550000  0.17250000  1.0 -0.2520498969
O  O10  1  0.84550000  0.65270000  0.32750000  1.0 -0.2520498969
O  O11  1  0.34730000  0.15450000  0.82750000  1.0 -0.2520498969
O  O12  1  0.15450000  0.34730000  0.67250000  1.0 -0.2520498969
O  O13  1  0.51360000  0.83740000  0.20000000  1.0 -0.4714790769
O  O14  1  0.83740000  0.51360000  0.30000000  1.0 -0.4714790769
O  O15  1  0.48640000  0.16260000  0.80000000  1.0 -0.4714790769
O  O16  1  0.16260000  0.48640000  0.70000000  1.0 -0.4714790769
O  O17  1  0.64760000  0.64760000  0.25000000  1.0 -0.7374504246
O  O18  1  0.35240000  0.35240000  0.75000000  1.0 -0.7374504246
O  O19  1  0.74060000  0.92580000  0.14860000  1.0 -0.3639068491
O  O20  1  0.92580000  0.74060000  0.35140000  1.0 -0.3639068491
O  O21  1  0.25940000  0.07420000  0.85140000  1.0 -0.3639068491
O  O22  1  0.07420000  0.25940000  0.64860000  1.0 -0.3639068491
