# DDEC6 charges by PACMAN v1.1 (https://github.com/mtap-research/PACMAN-charge/)
data_DOKHUH_ion_pacman
_symmetry_space_group_name_H-M   'P 1'
_cell_length_a   11.78300000
_cell_length_b   11.78300000
_cell_length_c   15.39400000
_cell_angle_alpha   81.45760000
_cell_angle_beta   98.54240000
_cell_angle_gamma   75.94660000
_symmetry_Int_Tables_number   1
_chemical_formula_structural   Cd2H25C32N5O14
_chemical_formula_sum   'Cd4 H50 C64 N10 O28'
_cell_volume   2011.99479876
_cell_formula_units_Z   2
loop_
 _symmetry_equiv_pos_site_id
 _symmetry_equiv_pos_as_xyz
  1  'x, y, z'
loop_
 _atom_site_type_symbol
 _atom_site_label
 _atom_site_symmetry_multiplicity
 _atom_site_fract_x
 _atom_site_fract_y
 _atom_site_fract_z
 _atom_site_occupancy
 _atom_site_charge
Cd  Cd1  1  0.17931000  0.40223000  0.88349000  1.0 0.8882007801
Cd  Cd2  1  0.59777000  0.82069000  0.38349000  1.0 0.8882007801
Cd  Cd3  1  0.28099000  0.10701000  0.67285000  1.0 0.9138069057
Cd  Cd4  1  0.89299000  0.71901000  0.17285000  1.0 0.9138069057
H  H1  1  0.62900000  0.98200000  0.94840000  1.0 0.129730194
H  H2  1  0.01800000  0.37100000  0.44840000  1.0 0.129730194
H  H3  1  0.53440000  0.05480000  0.86350000  1.0 0.129730194
H  H4  1  0.94520000  0.46560000  0.36350000  1.0 0.129730194
H  H5  1  0.53620000  0.09960000  0.95450000  1.0 0.129730194
H  H6  1  0.90040000  0.46380000  0.45450000  1.0 0.129730194
H  H7  1  0.43250000  0.60050000  0.08180000  1.0 0.1405655571
H  H8  1  0.39950000  0.56750000  0.58180000  1.0 0.1405655571
H  H9  1  0.54060000  0.59300000  0.03250000  1.0 0.129730194
H  H10  1  0.40700000  0.45940000  0.53250000  1.0 0.129730194
H  H11  1  0.54660000  0.63260000  0.12550000  1.0 0.129730194
H  H12  1  0.36740000  0.45340000  0.62550000  1.0 0.129730194
H  H13  1  0.09230000  0.92270000  0.95270000  1.0 0.129730194
H  H14  1  0.07730000  0.90770000  0.45270000  1.0 0.129730194
H  H15  1  0.10550000  0.05070000  0.95860000  1.0 0.1206779318
H  H16  1  0.94930000  0.89450000  0.45860000  1.0 0.129730194
H  H17  1  0.10440000  0.00640000  0.86750000  1.0 0.129730194
H  H18  1  0.99360000  0.89560000  0.36750000  1.0 0.129730194
H  H19  1  0.00230000  0.22990000  0.90930000  1.0 0.1062514289
H  H20  1  0.77010000  0.99770000  0.40930000  1.0 0.1062514289
H  H21  1  0.80880000  0.22980000  0.91520000  1.0 0.1405655571
H  H22  1  0.77020000  0.19120000  0.41520000  1.0 0.1405655571
H  H23  1  0.72840000  0.57880000  0.89540000  1.0 0.148628717
H  H24  1  0.42120000  0.27160000  0.39540000  1.0 0.148628717
H  H25  1  0.91810000  0.57550000  0.89030000  1.0 0.129730194
H  H26  1  0.42450000  0.08190000  0.39030000  1.0 0.129730194
H  H27  1  0.63960000  0.26860000  0.00290000  1.0 0.1405655571
H  H28  1  0.73140000  0.36040000  0.50290000  1.0 0.1405655571
H  H29  1  0.44130000  0.27830000  0.99520000  1.0 0.0991364443
H  H30  1  0.72170000  0.55870000  0.49520000  1.0 0.0991364443
H  H31  1  0.34960000  0.54900000  0.79810000  1.0 0.129730194
H  H32  1  0.45100000  0.65040000  0.29810000  1.0 0.129730194
H  H33  1  0.54450000  0.55590000  0.80640000  1.0 0.1405655571
H  H34  1  0.44410000  0.45550000  0.30640000  1.0 0.1405655571
H  H35  1  0.47210000  0.25650000  0.72350000  1.0 0.1206779318
H  H36  1  0.74350000  0.52790000  0.22350000  1.0 0.1206779318
H  H37  1  0.65750000  0.27010000  0.72840000  1.0 0.129730194
H  H38  1  0.72990000  0.34250000  0.22840000  1.0 0.129730194
H  H39  1  0.71600000  0.97600000  0.61540000  1.0 0.129730194
H  H40  1  0.02400000  0.28400000  0.11540000  1.0 0.129730194
H  H41  1  0.52480000  0.97360000  0.61380000  1.0 0.1206779318
H  H42  1  0.02640000  0.47520000  0.11380000  1.0 0.1206779318
H  H43  1  0.82710000  0.29070000  0.68360000  1.0 0.129730194
H  H44  1  0.70930000  0.17290000  0.18360000  1.0 0.129730194
H  H45  1  0.02360000  0.28240000  0.68510000  1.0 0.129730194
H  H46  1  0.71760000  0.97640000  0.18510000  1.0 0.129730194
H  H47  1  0.09870000  0.94650000  0.67090000  1.0 0.1206779318
H  H48  1  0.05350000  0.90130000  0.17090000  1.0 0.1206779318
H  H49  1  0.90410000  0.94650000  0.66610000  1.0 0.1405655571
H  H50  1  0.05350000  0.09590000  0.16610000  1.0 0.1405655571
C  C1  1  0.28300000  0.13520000  0.88710000  1.0 0.59544613
C  C2  1  0.86480000  0.71700000  0.38710000  1.0 0.59544613
C  C3  1  0.33980000  0.00220000  0.93140000  1.0 -0.1425239738
C  C4  1  0.99780000  0.66020000  0.43140000  1.0 -0.1425239738
C  C5  1  0.46160000  0.95800000  0.95250000  1.0 0.1405655571
C  C6  1  0.04200000  0.53840000  0.45250000  1.0 0.1405655571
C  C7  1  0.54850000  0.03030000  0.92740000  1.0 -0.4318563438
C  C8  1  0.96970000  0.45150000  0.42740000  1.0 -0.4318563438
C  C9  1  0.51400000  0.83660000  0.99840000  1.0 -0.0927139467
C  C10  1  0.16340000  0.48600000  0.49840000  1.0 -0.0927139467
C  C11  1  0.65130000  0.78530000  0.02420000  1.0 0.5578234696
C  C12  1  0.21470000  0.34870000  0.52420000  1.0 0.5578234696
C  C13  1  0.44220000  0.76420000  0.02340000  1.0 0.1206779318
C  C14  1  0.23580000  0.55780000  0.52340000  1.0 0.1206779318
C  C15  1  0.49530000  0.63590000  0.07010000  1.0 -0.4189618028
C  C16  1  0.36410000  0.50470000  0.57010000  1.0 -0.4189618028
C  C17  1  0.31840000  0.81360000  0.00320000  1.0 -0.1130528099
C  C18  1  0.18640000  0.68160000  0.50320000  1.0 -0.1130528099
C  C19  1  0.23710000  0.74670000  0.04220000  1.0 0.5456766092
C  C20  1  0.25330000  0.76290000  0.54220000  1.0 0.5456766092
C  C21  1  0.26590000  0.93230000  0.95530000  1.0 0.1405655571
C  C22  1  0.06770000  0.73410000  0.45530000  1.0 0.1405655571
C  C23  1  0.12920000  0.98280000  0.93130000  1.0 -0.4318563438
C  C24  1  0.01720000  0.87080000  0.43130000  1.0 -0.4318563438
C  C25  1  0.94580000  0.30200000  0.90500000  1.0 0.0676243805
C  C26  1  0.69800000  0.05420000  0.40500000  1.0 0.0676243805
C  C27  1  0.82940000  0.30160000  0.90890000  1.0 -0.1882412008
C  C28  1  0.69840000  0.17060000  0.40890000  1.0 -0.1882412008
C  C29  1  0.74510000  0.40510000  0.90360000  1.0 0.0857323163
C  C30  1  0.59490000  0.25490000  0.40360000  1.0 0.0857323163
C  C31  1  0.78310000  0.50630000  0.89730000  1.0 -0.1484078613
C  C32  1  0.49370000  0.21690000  0.39730000  1.0 -0.1484078613
C  C33  1  0.89650000  0.50430000  0.89380000  1.0 0.0817757842
C  C34  1  0.49570000  0.10350000  0.39380000  1.0 0.0817757842
C  C35  1  0.61930000  0.40690000  0.90260000  1.0 0.1062514289
C  C36  1  0.59310000  0.38070000  0.40260000  1.0 0.1062514289
C  C37  1  0.58290000  0.32690000  0.96000000  1.0 -0.1984226427
C  C38  1  0.67310000  0.41710000  0.46000000  1.0 -0.1984226427
C  C39  1  0.46280000  0.33220000  0.95460000  1.0 0.0991364443
C  C40  1  0.66780000  0.53720000  0.45460000  1.0 0.0991364443
C  C41  1  0.40940000  0.49220000  0.83980000  1.0 0.0991364443
C  C42  1  0.50780000  0.59060000  0.33980000  1.0 0.0991364443
C  C43  1  0.52690000  0.49530000  0.84330000  1.0 -0.1425239738
C  C44  1  0.50470000  0.47310000  0.34330000  1.0 -0.1484078613
C  C45  1  0.52280000  0.19860000  0.70160000  1.0 0.0991364443
C  C46  1  0.80140000  0.47720000  0.20160000  1.0 0.0991364443
C  C47  1  0.63370000  0.20870000  0.70590000  1.0 -0.2066079772
C  C48  1  0.79130000  0.36630000  0.20590000  1.0 -0.2066079772
C  C49  1  0.71580000  0.11780000  0.67310000  1.0 0.1062514289
C  C50  1  0.88220000  0.28420000  0.17310000  1.0 0.1062514289
C  C51  1  0.66730000  0.03390000  0.63860000  1.0 -0.1698547101
C  C52  1  0.96610000  0.33270000  0.13860000  1.0 -0.1698547101
C  C53  1  0.55280000  0.03220000  0.63720000  1.0 0.0434337982
C  C54  1  0.96780000  0.44720000  0.13720000  1.0 0.0434337982
C  C55  1  0.83970000  0.11910000  0.67580000  1.0 0.0817757842
C  C56  1  0.88090000  0.16030000  0.17580000  1.0 0.0817757842
C  C57  1  0.88000000  0.21920000  0.68060000  1.0 -0.1829919836
C  C58  1  0.78080000  0.12000000  0.18060000  1.0 -0.1829919836
C  C59  1  0.99910000  0.21370000  0.68100000  1.0 0.0591664852
C  C60  1  0.78630000  0.00090000  0.18100000  1.0 0.0591664852
C  C61  1  0.04400000  0.01760000  0.67230000  1.0 0.0991364443
C  C62  1  0.98240000  0.95600000  0.17230000  1.0 0.0991364443
C  C63  1  0.92600000  0.01640000  0.67070000  1.0 -0.1829919836
C  C64  1  0.98360000  0.07400000  0.17070000  1.0 -0.1829919836
N  N1  1  0.98020000  0.40340000  0.89520000  1.0 -0.2517835792
N  N2  1  0.59660000  0.01980000  0.39520000  1.0 -0.2517835792
N  N3  1  0.37960000  0.40940000  0.89480000  1.0 -0.2661930567
N  N4  1  0.59060000  0.62040000  0.39480000  1.0 -0.2661930567
N  N5  1  0.47420000  0.12020000  0.67150000  1.0 -0.2517835792
N  N6  1  0.87980000  0.52580000  0.17150000  1.0 -0.2517835792
N  N7  1  0.08300000  0.11220000  0.67560000  1.0 -0.2517835792
N  N8  1  0.88780000  0.91700000  0.17560000  1.0 -0.2517835792
N  N9  1  0.44570000  0.26170000  0.17400000  1.0 0.6518693173
N  N10  1  0.73830000  0.55430000  0.67400000  1.0 0.6518693173
O  O1  1  0.29010000  0.16910000  0.80830000  1.0 -0.5438957608
O  O2  1  0.83090000  0.70990000  0.30830000  1.0 -0.5438957608
O  O3  1  0.24110000  0.20210000  0.93650000  1.0 -0.5438957608
O  O4  1  0.79790000  0.75890000  0.43650000  1.0 -0.5438957608
O  O5  1  0.70690000  0.76330000  0.96580000  1.0 -0.4976005948
O  O6  1  0.23670000  0.29310000  0.46580000  1.0 -0.4976005948
O  O7  1  0.69370000  0.78290000  0.10560000  1.0 -0.5147951639
O  O8  1  0.21710000  0.30630000  0.60560000  1.0 -0.5147951639
O  O9  1  0.18410000  0.68850000  0.99660000  1.0 -0.3821099124
O  O10  1  0.31150000  0.81590000  0.49660000  1.0 -0.3821099124
O  O11  1  0.22750000  0.75130000  0.12060000  1.0 -0.4704993463
O  O12  1  0.24870000  0.77250000  0.62060000  1.0 -0.4704993463
O  O13  1  0.19530000  0.44730000  0.03210000  1.0 -0.0795324875
O  O14  1  0.55270000  0.80470000  0.53210000  1.0 -0.0795324875
O  O15  1  0.11460000  0.60860000  0.85450000  1.0 -0.1984226427
O  O16  1  0.39140000  0.88540000  0.35450000  1.0 -0.1984226427
O  O17  1  0.15160000  0.43580000  0.73010000  1.0 -0.1628810338
O  O18  1  0.56420000  0.84840000  0.23010000  1.0 -0.1628810338
O  O19  1  0.25660000  0.05760000  0.53140000  1.0 -0.0302501584
O  O20  1  0.94240000  0.74340000  0.03140000  1.0 -0.0302501584
O  O21  1  0.34340000  0.90600000  0.72250000  1.0 -0.1882412008
O  O22  1  0.09400000  0.65660000  0.22250000  1.0 -0.1882412008
O  O23  1  0.48630000  0.15630000  0.16590000  1.0 -0.3914593852
O  O24  1  0.50640000  0.32900000  0.17830000  1.0 -0.3821099124
O  O25  1  0.33930000  0.28650000  0.18170000  1.0 -0.3525775469
O  O26  1  0.84370000  0.51370000  0.66590000  1.0 -0.3914593852
O  O27  1  0.67100000  0.49360000  0.67830000  1.0 -0.3821099124
O  O28  1  0.71350000  0.66070000  0.68170000  1.0 -0.3525775469
