# DDEC6 charges by PACMAN v1.1 (https://github.com/mtap-research/PACMAN-charge/)
data_DOKKEW_ASR_pacman
_symmetry_space_group_name_H-M   'P 1'
_cell_length_a   11.26760000
_cell_length_b   14.96870000
_cell_length_c   16.00690000
_cell_angle_alpha   108.09800000
_cell_angle_beta   95.83400000
_cell_angle_gamma   105.16600000
_symmetry_Int_Tables_number   1
_chemical_formula_structural   Cd3P2H52C68(N6O5)2
_chemical_formula_sum   'Cd3 P2 H52 C68 N12 O10'
_cell_volume   2427.07524749
_cell_formula_units_Z   1
loop_
 _symmetry_equiv_pos_site_id
 _symmetry_equiv_pos_as_xyz
  1  'x, y, z'
loop_
 _atom_site_type_symbol
 _atom_site_label
 _atom_site_symmetry_multiplicity
 _atom_site_fract_x
 _atom_site_fract_y
 _atom_site_fract_z
 _atom_site_occupancy
 _atom_site_charge
Cd  Cd1  1  0.80570000  0.67268000  0.79905000  1.0 0.8988703895
Cd  Cd2  1  0.19430000  0.32732000  0.20095000  1.0 0.8988703895
Cd  Cd3  1  0.00000000  0.00000000  0.00000000  1.0 0.7778979945
P  P1  1  0.91115000  0.38229000  0.15615000  1.0 0.8182457794
P  P2  1  0.08885000  0.61771000  0.84385000  1.0 0.8182457794
H  H1  1  0.91250000  0.77840000  0.02540000  1.0 0.127532974
H  H2  1  0.21550000  0.99530000  0.16920000  1.0 0.1192758386
H  H3  1  0.22050000  0.85340000  0.21100000  1.0 0.127532974
H  H4  1  0.19240000  0.67640000  0.14910000  1.0 0.127532974
H  H5  1  0.13380000  0.52010000  0.15940000  1.0 0.1192758386
H  H6  1  0.77090000  0.49780000  0.09550000  1.0 0.1097371421
H  H7  1  0.82860000  0.65450000  0.08630000  1.0 0.127532974
H  H8  1  0.65790000  0.37790000  0.17440000  1.0 0.1097371421
H  H9  1  0.46220000  0.26890000  0.10330000  1.0 0.127532974
H  H10  1  0.61590000  0.09310000  0.93860000  1.0 0.1045597005
H  H11  1  0.81210000  0.20380000  0.00850000  1.0 0.1097371421
H  H12  1  0.40620000  0.02400000  0.84480000  1.0 0.0683614124
H  H13  1  0.18400000  0.93260000  0.82930000  1.0 0.0683614124
H  H14  1  0.29190000  0.14290000  0.06480000  1.0 0.1192758386
H  H15  1  0.93940000  0.56370000  0.30680000  1.0 0.1097371421
H  H16  1  0.89680000  0.59620000  0.44980000  1.0 0.1192758386
H  H17  1  0.80460000  0.30660000  0.41170000  1.0 0.127532974
H  H18  1  0.84700000  0.27490000  0.26830000  1.0 0.1097371421
H  H19  1  0.72220000  0.33260000  0.53290000  1.0 0.1192758386
H  H20  1  0.69890000  0.42120000  0.68370000  1.0 0.127532974
H  H21  1  0.54690000  0.40040000  0.87300000  1.0 0.1192758386
H  H22  1  0.40960000  0.33040000  0.94960000  1.0 0.1192758386
H  H23  1  0.97530000  0.91790000  0.79190000  1.0 0.0911350432
H  H24  1  0.87220000  0.62050000  0.58980000  1.0 0.1097371421
H  H25  1  0.42850000  0.97540000  0.88770000  1.0 0.0793220937
H  H26  1  0.20590000  0.89710000  0.86860000  1.0 0.0793220937
H  H27  1  0.08750000  0.22160000  0.97460000  1.0 0.127532974
H  H28  1  0.78450000  0.00470000  0.83080000  1.0 0.1192758386
H  H29  1  0.77950000  0.14660000  0.78900000  1.0 0.127532974
H  H30  1  0.80760000  0.32360000  0.85090000  1.0 0.127532974
H  H31  1  0.86620000  0.47990000  0.84060000  1.0 0.1192758386
H  H32  1  0.22910000  0.50220000  0.90450000  1.0 0.1097371421
H  H33  1  0.17140000  0.34550000  0.91370000  1.0 0.127532974
H  H34  1  0.34210000  0.62210000  0.82560000  1.0 0.1097371421
H  H35  1  0.53780000  0.73110000  0.89670000  1.0 0.127532974
H  H36  1  0.38410000  0.90690000  0.06140000  1.0 0.1045597005
H  H37  1  0.18790000  0.79620000  0.99150000  1.0 0.1097371421
H  H38  1  0.59380000  0.97600000  0.15520000  1.0 0.0683614124
H  H39  1  0.81600000  0.06740000  0.17070000  1.0 0.0683614124
H  H40  1  0.70810000  0.85710000  0.93520000  1.0 0.1192758386
H  H41  1  0.06060000  0.43630000  0.69320000  1.0 0.1097371421
H  H42  1  0.10320000  0.40380000  0.55020000  1.0 0.1192758386
H  H43  1  0.19540000  0.69340000  0.58830000  1.0 0.127532974
H  H44  1  0.15300000  0.72510000  0.73170000  1.0 0.1097371421
H  H45  1  0.27780000  0.66740000  0.46710000  1.0 0.1192758386
H  H46  1  0.30110000  0.57880000  0.31630000  1.0 0.127532974
H  H47  1  0.45310000  0.59960000  0.12700000  1.0 0.1192758386
H  H48  1  0.59040000  0.66960000  0.05040000  1.0 0.1192758386
H  H49  1  0.02470000  0.08210000  0.20810000  1.0 0.0911350432
H  H50  1  0.12780000  0.37950000  0.41020000  1.0 0.1097371421
H  H51  1  0.57150000  0.02460000  0.11230000  1.0 0.0793220937
H  H52  1  0.79410000  0.10290000  0.13140000  1.0 0.0793220937
C  C1  1  0.98780000  0.81475000  0.06599000  1.0 0.1097371421
C  C2  1  0.15520000  0.93335000  0.14565000  1.0 -0.0669308123
C  C3  1  0.15879000  0.85566000  0.16923000  1.0 -0.1260072928
C  C4  1  0.01538000  0.68041000  0.11917000  1.0 0.1780056316
C  C5  1  0.10808000  0.64090000  0.13963000  1.0 -0.1913405847
C  C6  1  0.07268000  0.54756000  0.14574000  1.0 -0.0669308123
C  C7  1  0.94636000  0.49457000  0.13166000  1.0 -0.1608286839
C  C8  1  0.85527000  0.53417000  0.10766000  1.0 -0.0796510395
C  C9  1  0.88952000  0.62763000  0.10179000  1.0 -0.1728295502
C  C10  1  0.75596000  0.30332000  0.09745000  1.0 -0.15442038
C  C11  1  0.65000000  0.32100000  0.12626000  1.0 -0.0906850923
C  C12  1  0.53300000  0.25529000  0.08441000  1.0 -0.1608286839
C  C13  1  0.52000000  0.17025000  0.01539000  1.0 0.1192758386
C  C14  1  0.62430000  0.15070000  0.98610000  1.0 -0.2130294037
C  C15  1  0.74150000  0.21730000  0.02785000  1.0 -0.1223585101
C  C16  1  0.35820000  0.03300000  0.88890000  1.0 -0.0386689794
C  C17  1  0.23480000  0.98360000  0.88020000  1.0 -0.014090649
C  C18  1  0.29446000  0.09687000  0.01098000  1.0 -0.0906850923
C  C19  1  0.89497000  0.41610000  0.27174000  1.0 -0.1608286839
C  C20  1  0.91100000  0.51174000  0.32725000  1.0 -0.0796510395
C  C21  1  0.88540000  0.53160000  0.41301000  1.0 -0.2008836236
C  C22  1  0.84249000  0.45355000  0.44330000  1.0 0.164391141
C  C23  1  0.83010000  0.35816000  0.39026000  1.0 -0.2008836236
C  C24  1  0.85590000  0.33936000  0.30433000  1.0 -0.0906850923
C  C25  1  0.74940000  0.40077000  0.56235000  1.0 -0.1260072928
C  C26  1  0.73720000  0.45036000  0.64578000  1.0 -0.0254124426
C  C27  1  0.66796000  0.58806000  0.90112000  1.0 0.5330827642
C  C28  1  0.58163000  0.54304000  0.95332000  1.0 -0.0218226877
C  C29  1  0.52789000  0.44049000  0.92373000  1.0 -0.1223585101
C  C30  1  0.44624000  0.39859000  0.97010000  1.0 -0.1223585101
C  C31  1  0.93540000  0.85715000  0.79613000  1.0 0.4014095027
C  C32  1  0.83229000  0.56009000  0.59468000  1.0 0.1097371421
C  C33  1  0.37220000  0.00360000  0.91590000  1.0 -0.0612641565
C  C34  1  0.24990000  0.96110000  0.90700000  1.0 -0.014090649
C  C35  1  0.01220000  0.18525000  0.93401000  1.0 0.1097371421
C  C36  1  0.84480000  0.06665000  0.85435000  1.0 -0.0669308123
C  C37  1  0.84121000  0.14434000  0.83077000  1.0 -0.1260072928
C  C38  1  0.98462000  0.31959000  0.88083000  1.0 0.1780056316
C  C39  1  0.89192000  0.35910000  0.86037000  1.0 -0.1913405847
C  C40  1  0.92732000  0.45244000  0.85426000  1.0 -0.0612641565
C  C41  1  0.05364000  0.50543000  0.86834000  1.0 -0.1608286839
C  C42  1  0.14473000  0.46583000  0.89234000  1.0 -0.0796510395
C  C43  1  0.11048000  0.37237000  0.89821000  1.0 -0.1728295502
C  C44  1  0.24404000  0.69668000  0.90255000  1.0 -0.15442038
C  C45  1  0.35000000  0.67900000  0.87374000  1.0 -0.0906850923
C  C46  1  0.46700000  0.74471000  0.91559000  1.0 -0.1608286839
C  C47  1  0.48000000  0.82975000  0.98461000  1.0 0.1192758386
C  C48  1  0.37570000  0.84930000  0.01390000  1.0 -0.2130294037
C  C49  1  0.25850000  0.78270000  0.97215000  1.0 -0.1223585101
C  C50  1  0.64180000  0.96700000  0.11110000  1.0 -0.0386689794
C  C51  1  0.76520000  0.01640000  0.11980000  1.0 -0.014090649
C  C52  1  0.70554000  0.90313000  0.98902000  1.0 -0.0906850923
C  C53  1  0.10503000  0.58390000  0.72826000  1.0 -0.1608286839
C  C54  1  0.08900000  0.48826000  0.67275000  1.0 -0.0796510395
C  C55  1  0.11460000  0.46840000  0.58699000  1.0 -0.2008836236
C  C56  1  0.15751000  0.54645000  0.55670000  1.0 0.164391141
C  C57  1  0.16990000  0.64184000  0.60974000  1.0 -0.2008836236
C  C58  1  0.14410000  0.66064000  0.69567000  1.0 -0.0906850923
C  C59  1  0.25060000  0.59923000  0.43765000  1.0 -0.1260072928
C  C60  1  0.26280000  0.54964000  0.35422000  1.0 -0.0254124426
C  C61  1  0.33204000  0.41194000  0.09888000  1.0 0.5330827642
C  C62  1  0.41837000  0.45696000  0.04668000  1.0 -0.0218226877
C  C63  1  0.47211000  0.55951000  0.07627000  1.0 -0.1223585101
C  C64  1  0.55376000  0.60141000  0.02990000  1.0 -0.1223585101
C  C65  1  0.06460000  0.14285000  0.20387000  1.0 0.4014095027
C  C66  1  0.16771000  0.43991000  0.40532000  1.0 0.1097371421
C  C67  1  0.62780000  0.99640000  0.08410000  1.0 -0.0612641565
C  C68  1  0.75010000  0.03890000  0.09300000  1.0 -0.014090649
N  N1  1  0.04829000  0.90798000  0.08095000  1.0 -0.3188770305
N  N2  1  0.05148000  0.77900000  0.11853000  1.0 0.0053488217
N  N3  1  0.39810000  0.09948000  0.97634000  1.0 0.0152867991
N  N4  1  0.19734000  0.02267000  0.96093000  1.0 -0.2402580869
N  N5  1  0.81052000  0.47174000  0.52960000  1.0 -0.0021937081
N  N6  1  0.78998000  0.55012000  0.66617000  1.0 -0.3028900218
N  N7  1  0.95171000  0.09202000  0.91905000  1.0 -0.3188770305
N  N8  1  0.94852000  0.22100000  0.88147000  1.0 0.0053488217
N  N9  1  0.60190000  0.90052000  0.02366000  1.0 0.0152867991
N  N10  1  0.80266000  0.97733000  0.03907000  1.0 -0.2402580869
N  N11  1  0.18948000  0.52826000  0.47040000  1.0 -0.0021937081
N  N12  1  0.21002000  0.44988000  0.33383000  1.0 -0.3028900218
O  O1  1  0.72577000  0.67961000  0.93290000  1.0 -0.563960452
O  O2  1  0.67773000  0.53287000  0.82659000  1.0 -0.563960452
O  O3  1  0.91491000  0.78211000  0.72902000  1.0 -0.4875309062
O  O4  1  0.90563000  0.85651000  0.86988000  1.0 -0.505337317
O  O5  1  0.00643000  0.32971000  0.13429000  1.0 -0.6617797208
O  O6  1  0.27423000  0.32039000  0.06710000  1.0 -0.563960452
O  O7  1  0.32227000  0.46713000  0.17341000  1.0 -0.563960452
O  O8  1  0.08509000  0.21789000  0.27098000  1.0 -0.4875309062
O  O9  1  0.09437000  0.14349000  0.13012000  1.0 -0.505337317
O  O10  1  0.99357000  0.67029000  0.86571000  1.0 -0.6617797208
