# DDEC6 charges by PACMAN v1.1 (https://github.com/mtap-research/PACMAN-charge/)
data_DOMCUE_ASR_pacman
_symmetry_space_group_name_H-M   'P 1'
_cell_length_a   30.66930000
_cell_length_b   30.66930000
_cell_length_c   30.66930000
_cell_angle_alpha   125.84700000
_cell_angle_beta   125.84700000
_cell_angle_gamma   80.13950000
_symmetry_Int_Tables_number   1
_chemical_formula_structural   TbC22(Cl2O)6
_chemical_formula_sum   'Tb8 C176 Cl96 O48'
_cell_volume   18295.62415725
_cell_formula_units_Z   8
loop_
 _symmetry_equiv_pos_site_id
 _symmetry_equiv_pos_as_xyz
  1  'x, y, z'
loop_
 _atom_site_type_symbol
 _atom_site_label
 _atom_site_symmetry_multiplicity
 _atom_site_fract_x
 _atom_site_fract_y
 _atom_site_fract_z
 _atom_site_occupancy
 _atom_site_charge
Tb  Tb1  1  0.29069000  0.68014000  0.21109000  1.0 2.0840934752
Tb  Tb2  1  0.43014000  0.71905000  0.88945000  1.0 2.0859333514
Tb  Tb3  1  0.82960000  0.54069000  0.11055000  1.0 2.0859333514
Tb  Tb4  1  0.46905000  0.07960000  0.78891000  1.0 2.0840934752
Tb  Tb5  1  0.45931000  0.56986000  0.28891000  1.0 2.0859333514
Tb  Tb6  1  0.31986000  0.53095000  0.61055000  1.0 2.0840934752
Tb  Tb7  1  0.92040000  0.70931000  0.38945000  1.0 2.0859333514
Tb  Tb8  1  0.28095000  0.17040000  0.71109000  1.0 2.0840934752
C  C1  1  0.25170000  0.64740000  0.06670000  1.0 0.5881617604
C  C2  1  0.39740000  0.83070000  0.89570000  1.0 0.5881617604
C  C3  1  0.93500000  0.50170000  0.10430000  1.0 0.5881617604
C  C4  1  0.58070000  0.18500000  0.93330000  1.0 0.5881617604
C  C5  1  0.49830000  0.60260000  0.43330000  1.0 0.5881617604
C  C6  1  0.35260000  0.41930000  0.60430000  1.0 0.5881617604
C  C7  1  0.81500000  0.74830000  0.39570000  1.0 0.5881617604
C  C8  1  0.16930000  0.06500000  0.56670000  1.0 0.5881617604
C  C9  1  0.26080000  0.61290000  0.01310000  1.0 -0.0983141233
C  C10  1  0.36290000  0.84980000  0.85210000  1.0 -0.0983141233
C  C11  1  0.99770000  0.51080000  0.14790000  1.0 -0.0983141233
C  C12  1  0.59980000  0.24770000  0.98690000  1.0 -0.0983141233
C  C13  1  0.48920000  0.63710000  0.48690000  1.0 -0.0983141233
C  C14  1  0.38710000  0.40020000  0.64790000  1.0 -0.0983141233
C  C15  1  0.75230000  0.73920000  0.35210000  1.0 -0.0983141233
C  C16  1  0.15020000  0.00230000  0.51310000  1.0 -0.0983141233
C  C17  1  0.22546000  0.56036000  0.95370000  1.0 0.0310499517
C  C18  1  0.31036000  0.85666000  0.83490000  1.0 0.0310499517
C  C19  1  0.02176000  0.47546000  0.16510000  1.0 0.0310499517
C  C20  1  0.60666000  0.27176000  0.04630000  1.0 0.0310499517
C  C21  1  0.52454000  0.68964000  0.54630000  1.0 0.0310499517
C  C22  1  0.43964000  0.39334000  0.66510000  1.0 0.0310499517
C  C23  1  0.72824000  0.77454000  0.33490000  1.0 0.0435541167
C  C24  1  0.14334000  0.97824000  0.45370000  1.0 0.0310499517
C  C25  1  0.23390000  0.52900000  0.90610000  1.0 0.0502994531
C  C26  1  0.27900000  0.87290000  0.79510000  1.0 0.0502994531
C  C27  1  0.07780000  0.48390000  0.20490000  1.0 0.0502994531
C  C28  1  0.62290000  0.32780000  0.09390000  1.0 0.0502994531
C  C29  1  0.51610000  0.72100000  0.59390000  1.0 0.0502994531
C  C30  1  0.47100000  0.37710000  0.70490000  1.0 0.0502994531
C  C31  1  0.67220000  0.76610000  0.29510000  1.0 0.0502994531
C  C32  1  0.12710000  0.92220000  0.40610000  1.0 0.0588425047
C  C33  1  0.27866000  0.54836000  0.91390000  1.0 -0.0399879457
C  C34  1  0.29836000  0.88446000  0.76970000  1.0 -0.0399879457
C  C35  1  0.11476000  0.52866000  0.23030000  1.0 -0.0399879457
C  C36  1  0.63446000  0.36476000  0.08610000  1.0 -0.0399879457
C  C37  1  0.47134000  0.70164000  0.58610000  1.0 -0.0399879457
C  C38  1  0.45164000  0.36554000  0.73030000  1.0 -0.0399879457
C  C39  1  0.63524000  0.72134000  0.26970000  1.0 -0.0319675447
C  C40  1  0.11554000  0.88524000  0.41390000  1.0 -0.0399879457
C  C41  1  0.31265000  0.60165000  0.97180000  1.0 0.0502994531
C  C42  1  0.35165000  0.87985000  0.78900000  1.0 0.0502994531
C  C43  1  0.09085000  0.56265000  0.21100000  1.0 0.0502994531
C  C44  1  0.62985000  0.34085000  0.02820000  1.0 0.0502994531
C  C45  1  0.43735000  0.64835000  0.52820000  1.0 0.0502994531
C  C46  1  0.39835000  0.37015000  0.71100000  1.0 0.0502994531
C  C47  1  0.65915000  0.68735000  0.28900000  1.0 0.0502994531
C  C48  1  0.12015000  0.90915000  0.47180000  1.0 0.0502994531
C  C49  1  0.30360000  0.63260000  0.02060000  1.0 0.0588425047
C  C50  1  0.38260000  0.86200000  0.82900000  1.0 0.0588425047
C  C51  1  0.03300000  0.55360000  0.17100000  1.0 0.0588425047
C  C52  1  0.61200000  0.28300000  0.97940000  1.0 0.0588425047
C  C53  1  0.44640000  0.61740000  0.47940000  1.0 0.0588425047
C  C54  1  0.36740000  0.38800000  0.67100000  1.0 0.0588425047
C  C55  1  0.71700000  0.69640000  0.32900000  1.0 0.0588425047
C  C56  1  0.13800000  0.96700000  0.52060000  1.0 0.0588425047
C  C57  1  0.28873000  0.51263000  0.86250000  1.0 0.0310499517
C  C58  1  0.26263000  0.90013000  0.72390000  1.0 0.0310499517
C  C59  1  0.17623000  0.53873000  0.27610000  1.0 0.0310499517
C  C60  1  0.65013000  0.42623000  0.13750000  1.0 0.0310499517
C  C61  1  0.46127000  0.73737000  0.63750000  1.0 0.0310499517
C  C62  1  0.48737000  0.34987000  0.77610000  1.0 0.0310499517
C  C63  1  0.57377000  0.71127000  0.22390000  1.0 0.0310499517
C  C64  1  0.09987000  0.82377000  0.36250000  1.0 0.0310499517
C  C65  1  0.28680000  0.28100000  0.75560000  1.0 0.582810433
C  C66  1  0.03100000  0.77540000  0.49420000  1.0 0.582810433
C  C67  1  0.28120000  0.53680000  0.50580000  1.0 0.582810433
C  C68  1  0.52540000  0.53120000  0.24440000  1.0 0.582810433
C  C69  1  0.46320000  0.96900000  0.74440000  1.0 0.582810433
C  C70  1  0.71900000  0.47460000  0.00580000  1.0 0.582810433
C  C71  1  0.46880000  0.71320000  0.99420000  1.0 0.582810433
C  C72  1  0.22460000  0.71880000  0.25560000  1.0 0.582810433
C  C73  1  0.28884000  0.34134000  0.78350000  1.0 -0.0882865308
C  C74  1  0.09134000  0.80784000  0.55250000  1.0 -0.0882865308
C  C75  1  0.25534000  0.53884000  0.44750000  1.0 -0.0882865308
C  C76  1  0.55784000  0.50534000  0.21650000  1.0 -0.0882865308
C  C77  1  0.46116000  0.90866000  0.71650000  1.0 -0.0882865308
C  C78  1  0.65866000  0.44216000  0.94750000  1.0 -0.0882865308
C  C79  1  0.49466000  0.71116000  0.05250000  1.0 -0.0882865308
C  C80  1  0.19216000  0.74466000  0.28350000  1.0 -0.0882865308
C  C81  1  0.25777000  0.35657000  0.74140000  1.0 0.0310499517
C  C82  1  0.10657000  0.86517000  0.59880000  1.0 0.0310499517
C  C83  1  0.26637000  0.50777000  0.40120000  1.0 0.0310499517
C  C84  1  0.61517000  0.51637000  0.25860000  1.0 0.0310499517
C  C85  1  0.49223000  0.89343000  0.75860000  1.0 0.0310499517
C  C86  1  0.64343000  0.38483000  0.90120000  1.0 0.0310499517
C  C87  1  0.48363000  0.74223000  0.09880000  1.0 0.0310499517
C  C88  1  0.13483000  0.73363000  0.24140000  1.0 0.0310499517
C  C89  1  0.25735000  0.41045000  0.76590000  1.0 0.0588425047
C  C90  1  0.16045000  0.89455000  0.65310000  1.0 0.0588425047
C  C91  1  0.24145000  0.50735000  0.34690000  1.0 0.0588425047
C  C92  1  0.64455000  0.49145000  0.23410000  1.0 0.0588425047
C  C93  1  0.49265000  0.83955000  0.73410000  1.0 0.0588425047
C  C94  1  0.58955000  0.35545000  0.84690000  1.0 0.0588425047
C  C95  1  0.50855000  0.74265000  0.15310000  1.0 0.0588425047
C  C96  1  0.10545000  0.75855000  0.26590000  1.0 0.0588425047
C  C97  1  0.28839000  0.45439000  0.83660000  1.0 -0.0503046007
C  C98  1  0.20439000  0.86779000  0.66600000  1.0 -0.0503046007
C  C99  1  0.20179000  0.53839000  0.33400000  1.0 -0.0503046007
C  C100  1  0.61779000  0.45179000  0.16340000  1.0 -0.0503046007
C  C101  1  0.46161000  0.79561000  0.66340000  1.0 -0.0503046007
C  C102  1  0.54561000  0.38221000  0.83400000  1.0 -0.0503046007
C  C103  1  0.54821000  0.71161000  0.16600000  1.0 -0.0503046007
C  C104  1  0.13221000  0.79821000  0.33660000  1.0 -0.0503046007
C  C105  1  0.31915000  0.43815000  0.87840000  1.0 0.0502994531
C  C106  1  0.18815000  0.80975000  0.61900000  1.0 0.0502994531
C  C107  1  0.19075000  0.56915000  0.38100000  1.0 0.0502994531
C  C108  1  0.55975000  0.44075000  0.12160000  1.0 0.0502994531
C  C109  1  0.43085000  0.81185000  0.62160000  1.0 0.0502994531
C  C110  1  0.56185000  0.44025000  0.88100000  1.0 0.0502994531
C  C111  1  0.55925000  0.68085000  0.11900000  1.0 0.0588425047
C  C112  1  0.19025000  0.80925000  0.37840000  1.0 0.0502994531
C  C113  1  0.31964000  0.38254000  0.85150000  1.0 0.0588425047
C  C114  1  0.13254000  0.78104000  0.56290000  1.0 0.0588425047
C  C115  1  0.21814000  0.56964000  0.43710000  1.0 0.0502994531
C  C116  1  0.53104000  0.46814000  0.14850000  1.0 0.0588425047
C  C117  1  0.43036000  0.86746000  0.64850000  1.0 0.0588425047
C  C118  1  0.61746000  0.46896000  0.93710000  1.0 0.0588425047
C  C119  1  0.53186000  0.68036000  0.06290000  1.0 0.0502994531
C  C120  1  0.21896000  0.78186000  0.35150000  1.0 0.0502994531
C  C121  1  0.33340000  0.58980000  0.75660000  1.0 0.6709580062
C  C122  1  0.33980000  0.08320000  0.75640000  1.0 0.6709580062
C  C123  1  0.32680000  0.58340000  0.24360000  1.0 0.6709580062
C  C124  1  0.83320000  0.57680000  0.24340000  1.0 0.6709580062
C  C125  1  0.41660000  0.66020000  0.74340000  1.0 0.6709580062
C  C126  1  0.41020000  0.16680000  0.74360000  1.0 0.6709580062
C  C127  1  0.42320000  0.66666667  0.25640000  1.0 0.6709580062
C  C128  1  0.91680000  0.67320000  0.25660000  1.0 0.6709580062
C  C129  1  0.32202000  0.57142000  0.78600000  1.0 -0.0983141233
C  C130  1  0.32142000  0.03542000  0.74940000  1.0 -0.0983141233
C  C131  1  0.28602000  0.57202000  0.25060000  1.0 -0.0983141233
C  C132  1  0.78542000  0.53602000  0.21400000  1.0 -0.0983141233
C  C133  1  0.42798000  0.67858000  0.71400000  1.0 -0.0983141233
C  C134  1  0.42858000  0.21458000  0.75060000  1.0 -0.0983141233
C  C135  1  0.46398000  0.67798000  0.24940000  1.0 -0.0983141233
C  C136  1  0.96458000  0.71398000  0.28600000  1.0 -0.0983141233
C  C137  1  0.35726000  0.54516000  0.81230000  1.0 0.0666565014
C  C138  1  0.29516000  0.98286000  0.68790000  1.0 0.0666565014
C  C139  1  0.29496000  0.60726000  0.31210000  1.0 0.0666565014
C  C140  1  0.73286000  0.54496000  0.18770000  1.0 0.0666565014
C  C141  1  0.39274000  0.70484000  0.68770000  1.0 0.0666565014
C  C142  1  0.45484000  0.26714000  0.81210000  1.0 0.0666565014
C  C143  1  0.45504000  0.64274000  0.18790000  1.0 0.0666565014
C  C144  1  0.01714000  0.70504000  0.31230000  1.0 0.0666565014
C  C145  1  0.34870000  0.52810000  0.84000000  1.0 0.0588425047
C  C146  1  0.27810000  0.93810000  0.67940000  1.0 0.0588425047
C  C147  1  0.25870000  0.59870000  0.32060000  1.0 0.0588425047
C  C148  1  0.68810000  0.50870000  0.16000000  1.0 0.0588425047
C  C149  1  0.40130000  0.72190000  0.66000000  1.0 0.0588425047
C  C150  1  0.47190000  0.31190000  0.82060000  1.0 0.0588425047
C  C151  1  0.49130000  0.65130000  0.17940000  1.0 0.0588425047
C  C152  1  0.06190000  0.74130000  0.34000000  1.0 0.0588425047
C  C153  1  0.30134000  0.53444000  0.83890000  1.0 -0.0503046007
C  C154  1  0.28444000  0.94554000  0.73310000  1.0 -0.0503046007
C  C155  1  0.21244000  0.55134000  0.26690000  1.0 -0.0503046007
C  C156  1  0.69554000  0.46244000  0.16110000  1.0 -0.0503046007
C  C157  1  0.44866000  0.71556000  0.66110000  1.0 -0.0503046007
C  C158  1  0.46556000  0.30446000  0.76690000  1.0 -0.0503046007
C  C159  1  0.53756000  0.69866000  0.23310000  1.0 -0.0503046007
C  C160  1  0.05446000  0.78756000  0.33890000  1.0 -0.0503046007
C  C161  1  0.26553000  0.56183000  0.81150000  1.0 0.0435541167
C  C162  1  0.31183000  0.00033000  0.79630000  1.0 0.0435541167
C  C163  1  0.20403000  0.51553000  0.20370000  1.0 0.0435541167
C  C164  1  0.75033000  0.45403000  0.18850000  1.0 0.0502994531
C  C165  1  0.48447000  0.68817000  0.68850000  1.0 0.0435541167
C  C166  1  0.43817000  0.24967000  0.70370000  1.0 0.0435541167
C  C167  1  0.54597000  0.73447000  0.29630000  1.0 0.0502994531
C  C168  1  0.99967000  0.79597000  0.31150000  1.0 0.0502994531
C  C169  1  0.27588000  0.57918000  0.78530000  1.0 0.0310499517
C  C170  1  0.32918000  0.04388000  0.80330000  1.0 0.0310499517
C  C171  1  0.24058000  0.52588000  0.19670000  1.0 0.0310499517
C  C172  1  0.79388000  0.49058000  0.21470000  1.0 0.0310499517
C  C173  1  0.47412000  0.67082000  0.71470000  1.0 0.0310499517
C  C174  1  0.42082000  0.20612000  0.69670000  1.0 0.0310499517
C  C175  1  0.50942000  0.72412000  0.30330000  1.0 0.0310499517
C  C176  1  0.95612000  0.75942000  0.28530000  1.0 0.0310499517
Cl  Cl1  1  0.17005000  0.53605000  0.94218000  1.0 0.0025224226
Cl  Cl2  1  0.28605000  0.84387000  0.86600000  1.0 0.0025224226
Cl  Cl3  1  0.97787000  0.42005000  0.13400000  1.0 0.0025224226
Cl  Cl4  1  0.59387000  0.22787000  0.05782000  1.0 0.0025224226
Cl  Cl5  1  0.57995000  0.71395000  0.55782000  1.0 0.0025224226
Cl  Cl6  1  0.46395000  0.40613000  0.63400000  1.0 0.0025224226
Cl  Cl7  1  0.77213000  0.82995000  0.36600000  1.0 0.0025224226
Cl  Cl8  1  0.15613000  0.02213000  0.44218000  1.0 0.0025224226
Cl  Cl9  1  0.18609000  0.46532000  0.83155000  1.0 -0.0319675447
Cl  Cl10  1  0.21532000  0.88377000  0.77923000  1.0 -0.0319675447
Cl  Cl11  1  0.10454000  0.43609000  0.22077000  1.0 -0.0319675447
Cl  Cl12  1  0.63377000  0.35454000  0.16845000  1.0 -0.0319675447
Cl  Cl13  1  0.56391000  0.78468000  0.66845000  1.0 -0.0319675447
Cl  Cl14  1  0.53468000  0.36623000  0.72077000  1.0 -0.0319675447
Cl  Cl15  1  0.64546000  0.81391000  0.27923000  1.0 -0.0319675447
Cl  Cl16  1  0.11623000  0.89546000  0.33155000  1.0 -0.0319675447
Cl  Cl17  1  0.36908000  0.62805000  0.98753000  1.0 -0.0503046007
Cl  Cl18  1  0.37805000  0.89052000  0.75897000  1.0 -0.0503046007
Cl  Cl19  1  0.13155000  0.61908000  0.24103000  1.0 -0.0503046007
Cl  Cl20  1  0.64052000  0.38155000  0.01247000  1.0 -0.0503046007
Cl  Cl21  1  0.38092000  0.62195000  0.51247000  1.0 -0.0503046007
Cl  Cl22  1  0.37195000  0.35948000  0.74103000  1.0 -0.0503046007
Cl  Cl23  1  0.61845000  0.63092000  0.25897000  1.0 -0.0503046007
Cl  Cl24  1  0.10948000  0.86845000  0.48753000  1.0 -0.0503046007
Cl  Cl25  1  0.34855000  0.69795000  0.09434000  1.0 -0.0399879457
Cl  Cl26  1  0.44795000  0.85361000  0.84940000  1.0 -0.0399879457
Cl  Cl27  1  0.00421000  0.59855000  0.15060000  1.0 -0.0399879457
Cl  Cl28  1  0.60361000  0.25421000  0.90566000  1.0 -0.0399879457
Cl  Cl29  1  0.40145000  0.55205000  0.40566000  1.0 -0.0399879457
Cl  Cl30  1  0.30205000  0.39639000  0.65060000  1.0 -0.0399879457
Cl  Cl31  1  0.74579000  0.65145000  0.34940000  1.0 -0.0399879457
Cl  Cl32  1  0.14639000  0.99579000  0.59434000  1.0 -0.0399879457
Cl  Cl33  1  0.21788000  0.30372000  0.65406000  1.0 0.0103771181
Cl  Cl34  1  0.05372000  0.89966000  0.58584000  1.0 0.0103771181
Cl  Cl35  1  0.31382000  0.46788000  0.41416000  1.0 0.0179685684
Cl  Cl36  1  0.64966000  0.56382000  0.34594000  1.0 0.0103771181
Cl  Cl37  1  0.53212000  0.94628000  0.84594000  1.0 0.0103771181
Cl  Cl38  1  0.69628000  0.35034000  0.91416000  1.0 0.0103771181
Cl  Cl39  1  0.43618000  0.78212000  0.08584000  1.0 0.0103771181
Cl  Cl40  1  0.10034000  0.68618000  0.15406000  1.0 0.0103771181
Cl  Cl41  1  0.21346000  0.42513000  0.70897000  1.0 -0.0399879457
Cl  Cl42  1  0.17513000  0.96616000  0.71167000  1.0 -0.0399879457
Cl  Cl43  1  0.25449000  0.46346000  0.28833000  1.0 -0.0399879457
Cl  Cl44  1  0.71616000  0.50449000  0.29103000  1.0 -0.0399879457
Cl  Cl45  1  0.53654000  0.82487000  0.79103000  1.0 -0.0399879457
Cl  Cl46  1  0.57487000  0.28384000  0.78833000  1.0 -0.0399879457
Cl  Cl47  1  0.49551000  0.78654000  0.21167000  1.0 -0.0399879457
Cl  Cl48  1  0.03384000  0.74551000  0.20897000  1.0 -0.0399879457
Cl  Cl49  1  0.36086000  0.48870000  0.96532000  1.0 -0.0563826835
Cl  Cl50  1  0.23870000  0.77338000  0.62784000  1.0 -0.0563826835
Cl  Cl51  1  0.14554000  0.61086000  0.37216000  1.0 -0.0563826835
Cl  Cl52  1  0.52338000  0.39554000  0.03468000  1.0 -0.0563826835
Cl  Cl53  1  0.38914000  0.76130000  0.53468000  1.0 -0.0563826835
Cl  Cl54  1  0.51130000  0.47662000  0.87216000  1.0 -0.0563826835
Cl  Cl55  1  0.60446000  0.63914000  0.12784000  1.0 -0.0563826835
Cl  Cl56  1  0.22662000  0.85446000  0.46532000  1.0 -0.0563826835
Cl  Cl57  1  0.36117000  0.36625000  0.90736000  1.0 -0.0319675447
Cl  Cl58  1  0.11625000  0.70889000  0.50508000  1.0 -0.0319675447
Cl  Cl59  1  0.20381000  0.61117000  0.49492000  1.0 -0.0319675447
Cl  Cl60  1  0.45889000  0.45381000  0.09264000  1.0 -0.0319675447
Cl  Cl61  1  0.38883000  0.88375000  0.59264000  1.0 -0.0319675447
Cl  Cl62  1  0.63375000  0.54111000  0.99492000  1.0 -0.0319675447
Cl  Cl63  1  0.54619000  0.63883000  0.00508000  1.0 -0.0319675447
Cl  Cl64  1  0.29111000  0.79619000  0.40736000  1.0 -0.0319675447
Cl  Cl65  1  0.41389000  0.53325000  0.81092000  1.0 -0.0399879457
Cl  Cl66  1  0.28325000  0.97233000  0.61936000  1.0 -0.0399879457
Cl  Cl67  1  0.35297000  0.66389000  0.38064000  1.0 -0.0399879457
Cl  Cl68  1  0.72233000  0.60297000  0.18908000  1.0 -0.0399879457
Cl  Cl69  1  0.33611000  0.71675000  0.68908000  1.0 -0.0399879457
Cl  Cl70  1  0.46675000  0.27767000  0.88064000  1.0 -0.0399879457
Cl  Cl71  1  0.39703000  0.58611000  0.11936000  1.0 -0.0319675447
Cl  Cl72  1  0.02767000  0.64703000  0.31092000  1.0 -0.0399879457
Cl  Cl73  1  0.39686000  0.50221000  0.87975000  1.0 -0.0503046007
Cl  Cl74  1  0.25221000  0.87246000  0.60535000  1.0 -0.0503046007
Cl  Cl75  1  0.26711000  0.64686000  0.39465000  1.0 -0.0563826835
Cl  Cl76  1  0.62246000  0.51711000  0.12025000  1.0 -0.0563826835
Cl  Cl77  1  0.35314000  0.74779000  0.62025000  1.0 -0.0563826835
Cl  Cl78  1  0.49779000  0.37754000  0.89465000  1.0 -0.0503046007
Cl  Cl79  1  0.48289000  0.60314000  0.10535000  1.0 -0.0563826835
Cl  Cl80  1  0.12754000  0.73289000  0.37975000  1.0 -0.0563826835
Cl  Cl81  1  0.20609000  0.56942000  0.80623000  1.0 -0.0208289865
Cl  Cl82  1  0.31942000  0.01319000  0.86333000  1.0 -0.0208289865
Cl  Cl83  1  0.14986000  0.45609000  0.13667000  1.0 -0.0208289865
Cl  Cl84  1  0.76319000  0.39986000  0.19377000  1.0 -0.0208289865
Cl  Cl85  1  0.54391000  0.68058000  0.69377000  1.0 -0.0208289865
Cl  Cl86  1  0.43058000  0.23681000  0.63667000  1.0 -0.0208289865
Cl  Cl87  1  0.60014000  0.79391000  0.36333000  1.0 -0.0208289865
Cl  Cl88  1  0.98681000  0.85014000  0.30623000  1.0 -0.0208289865
Cl  Cl89  1  0.23214000  0.61085000  0.75091000  1.0 -0.0031157404
Cl  Cl90  1  0.36085000  0.10994000  0.87871000  1.0 -0.0031157404
Cl  Cl91  1  0.23123000  0.48214000  0.12129000  1.0 -0.0031157404
Cl  Cl92  1  0.85994000  0.48123000  0.24909000  1.0 -0.0031157404
Cl  Cl93  1  0.51786000  0.63915000  0.74909000  1.0 -0.0031157404
Cl  Cl94  1  0.38915000  0.14006000  0.62129000  1.0 -0.0031157404
Cl  Cl95  1  0.51877000  0.76786000  0.37871000  1.0 -0.0031157404
Cl  Cl96  1  0.89006000  0.76877000  0.25091000  1.0 -0.0031157404
O  O1  1  0.27525000  0.64015000  0.11090000  1.0 -0.7166573765
O  O2  1  0.39015000  0.77925000  0.86490000  1.0 -0.7118364251
O  O3  1  0.91435000  0.52525000  0.13510000  1.0 -0.7118364251
O  O4  1  0.52925000  0.16435000  0.88910000  1.0 -0.7118364251
O  O5  1  0.47475000  0.60985000  0.38910000  1.0 -0.7118364251
O  O6  1  0.35985000  0.47075000  0.63510000  1.0 -0.7118364251
O  O7  1  0.83565000  0.72475000  0.36490000  1.0 -0.7118364251
O  O8  1  0.22075000  0.08565000  0.61090000  1.0 -0.7118364251
O  O9  1  0.22116000  0.67806000  0.06050000  1.0 -0.4659894681
O  O10  1  0.42806000  0.86756000  0.95690000  1.0 -0.4659894681
O  O11  1  0.91066000  0.47116000  0.04310000  1.0 -0.4659894681
O  O12  1  0.61756000  0.16066000  0.93950000  1.0 -0.4659894681
O  O13  1  0.52884000  0.57194000  0.43950000  1.0 -0.4659894681
O  O14  1  0.32194000  0.38244000  0.54310000  1.0 -0.4659894681
O  O15  1  0.83934000  0.77884000  0.45690000  1.0 -0.4659894681
O  O16  1  0.13244000  0.08934000  0.56050000  1.0 -0.4647603096
O  O17  1  0.32743000  0.26363000  0.75900000  1.0 -0.613122365
O  O18  1  0.01363000  0.75463000  0.43620000  1.0 -0.613122365
O  O19  1  0.31843000  0.57743000  0.56380000  1.0 -0.613122365
O  O20  1  0.50463000  0.56843000  0.24100000  1.0 -0.613122365
O  O21  1  0.42257000  0.98637000  0.74100000  1.0 -0.613122365
O  O22  1  0.73637000  0.49537000  0.06380000  1.0 -0.613122365
O  O23  1  0.43157000  0.67257000  0.93620000  1.0 -0.613122365
O  O24  1  0.24537000  0.68157000  0.25900000  1.0 -0.613122365
O  O25  1  0.24559000  0.25149000  0.73290000  1.0 -0.6525967421
O  O26  1  0.00149000  0.76859000  0.50590000  1.0 -0.6525967421
O  O27  1  0.26269000  0.49559000  0.49410000  1.0 -0.6525967421
O  O28  1  0.51859000  0.51269000  0.26710000  1.0 -0.6525967421
O  O29  1  0.50441000  0.99851000  0.76710000  1.0 -0.6525967421
O  O30  1  0.74851000  0.48141000  0.99410000  1.0 -0.6525967421
O  O31  1  0.48731000  0.75441000  0.00590000  1.0 -0.6525967421
O  O32  1  0.23141000  0.73731000  0.23290000  1.0 -0.6525967421
O  O33  1  0.31634000  0.55394000  0.69700000  1.0 -0.6553508403
O  O34  1  0.30394000  0.10694000  0.73760000  1.0 -0.6553508403
O  O35  1  0.36934000  0.56634000  0.26240000  1.0 -0.6553508403
O  O36  1  0.85694000  0.61934000  0.30300000  1.0 -0.6525967421
O  O37  1  0.43366000  0.69606000  0.80300000  1.0 -0.6553508403
O  O38  1  0.44606000  0.14306000  0.76240000  1.0 -0.6553508403
O  O39  1  0.38066000  0.68366000  0.23760000  1.0 -0.6553508403
O  O40  1  0.89306000  0.63066000  0.19700000  1.0 -0.6525967421
O  O41  1  0.35828000  0.63964000  0.79424000  1.0 -0.6732962065
O  O42  1  0.38964000  0.09540000  0.78136000  1.0 -0.6732962065
O  O43  1  0.31404000  0.60828000  0.21864000  1.0 -0.6732962065
O  O44  1  0.84540000  0.56404000  0.20576000  1.0 -0.6732962065
O  O45  1  0.39172000  0.61036000  0.70576000  1.0 -0.6732962065
O  O46  1  0.36036000  0.15460000  0.71864000  1.0 -0.6732962065
O  O47  1  0.43596000  0.64172000  0.28136000  1.0 -0.6765111448
O  O48  1  0.90460000  0.68596000  0.29424000  1.0 -0.6732962065
