# DDEC6 charges by PACMAN v1.1 (https://github.com/mtap-research/PACMAN-charge/)
data_DOMDAL_ASR_pacman
_symmetry_space_group_name_H-M   'P 1'
_cell_length_a   30.82910000
_cell_length_b   30.82910000
_cell_length_c   30.82910000
_cell_angle_alpha   124.96800000
_cell_angle_beta   124.96800000
_cell_angle_gamma   81.59140000
_symmetry_Int_Tables_number   1
_chemical_formula_structural   TbHC22(Cl2O)6
_chemical_formula_sum   'Tb8 H8 C176 Cl96 O48'
_cell_volume   18938.28690233
_cell_formula_units_Z   8
loop_
 _symmetry_equiv_pos_site_id
 _symmetry_equiv_pos_as_xyz
  1  'x, y, z'
loop_
 _atom_site_type_symbol
 _atom_site_label
 _atom_site_symmetry_multiplicity
 _atom_site_fract_x
 _atom_site_fract_y
 _atom_site_fract_z
 _atom_site_occupancy
 _atom_site_charge
Tb  Tb1  1  0.29303000  0.67463000  0.20934000  1.0 1.989061691
Tb  Tb2  1  0.42463000  0.71529000  0.88160000  1.0 1.989061691
Tb  Tb3  1  0.83369000  0.54303000  0.11840000  1.0 1.989061691
Tb  Tb4  1  0.46529000  0.08369000  0.79066000  1.0 1.989061691
Tb  Tb5  1  0.45697000  0.57537000  0.29066000  1.0 1.989061691
Tb  Tb6  1  0.32537000  0.53471000  0.61840000  1.0 1.989061691
Tb  Tb7  1  0.91631000  0.70697000  0.38160000  1.0 1.989061691
Tb  Tb8  1  0.28471000  0.16631000  0.70934000  1.0 1.989061691
H  H1  1  0.24580000  0.49720000  0.82700000  1.0 0.073065357
H  H2  1  0.24720000  0.92020000  0.75140000  1.0 0.073065357
H  H3  1  0.16880000  0.49580000  0.24860000  1.0 0.073065357
H  H4  1  0.67020000  0.41880000  0.17300000  1.0 0.073065357
H  H5  1  0.50420000  0.75280000  0.67300000  1.0 0.073065357
H  H6  1  0.50280000  0.32980000  0.74860000  1.0 0.073065357
H  H7  1  0.58120000  0.75420000  0.25140000  1.0 0.073065357
H  H8  1  0.07980000  0.83120000  0.32700000  1.0 0.073065357
C  C1  1  0.27040000  0.60510000  0.02150000  1.0 -0.1229314468
C  C2  1  0.35510000  0.83360000  0.83470000  1.0 -0.1229314468
C  C3  1  0.99890000  0.52040000  0.16530000  1.0 -0.1229314468
C  C4  1  0.58360000  0.24890000  0.97850000  1.0 -0.1229314468
C  C5  1  0.47960000  0.64490000  0.47850000  1.0 -0.1229314468
C  C6  1  0.39490000  0.41640000  0.66530000  1.0 -0.1229314468
C  C7  1  0.75110000  0.72960000  0.33470000  1.0 -0.1229314468
C  C8  1  0.16640000  0.00110000  0.52150000  1.0 -0.1229314468
C  C9  1  0.23150000  0.55560000  0.96090000  1.0 0.0511288011
C  C10  1  0.30560000  0.84470000  0.82410000  1.0 0.0511288011
C  C11  1  0.02060000  0.48150000  0.17590000  1.0 0.0511288011
C  C12  1  0.59470000  0.27060000  0.03910000  1.0 0.0511288011
C  C13  1  0.51850000  0.69440000  0.53910000  1.0 0.0511288011
C  C14  1  0.44440000  0.40530000  0.67590000  1.0 0.0511288011
C  C15  1  0.72940000  0.76850000  0.32410000  1.0 0.0511288011
C  C16  1  0.15530000  0.97940000  0.46090000  1.0 0.0511288011
C  C17  1  0.23670000  0.52570000  0.91100000  1.0 0.0303413432
C  C18  1  0.27570000  0.86470000  0.78900000  1.0 0.0303413432
C  C19  1  0.07570000  0.48670000  0.21100000  1.0 0.0303413432
C  C20  1  0.61470000  0.32570000  0.08900000  1.0 0.0303413432
C  C21  1  0.51330000  0.72430000  0.58900000  1.0 0.0303413432
C  C22  1  0.47430000  0.38530000  0.71100000  1.0 0.0303413432
C  C23  1  0.67430000  0.76330000  0.28900000  1.0 0.0303413432
C  C24  1  0.13530000  0.92430000  0.41100000  1.0 0.0303413432
C  C25  1  0.27890000  0.54340000  0.91610000  1.0 -0.027087263
C  C26  1  0.29340000  0.87730000  0.76450000  1.0 -0.027087263
C  C27  1  0.11280000  0.52890000  0.23550000  1.0 -0.027087263
C  C28  1  0.62730000  0.36280000  0.08390000  1.0 -0.027087263
C  C29  1  0.47110000  0.70660000  0.58390000  1.0 -0.027087263
C  C30  1  0.45660000  0.37270000  0.73550000  1.0 -0.027087263
C  C31  1  0.63720000  0.72110000  0.26450000  1.0 -0.027087263
C  C32  1  0.12270000  0.88720000  0.41610000  1.0 -0.027087263
C  C33  1  0.31430000  0.59430000  0.97380000  1.0 0.0388453803
C  C34  1  0.34430000  0.87050000  0.78000000  1.0 0.0388453803
C  C35  1  0.09050000  0.56430000  0.22000000  1.0 0.0388453803
C  C36  1  0.62050000  0.34050000  0.02620000  1.0 0.0388453803
C  C37  1  0.43570000  0.65570000  0.52620000  1.0 0.0388453803
C  C38  1  0.40570000  0.37950000  0.72000000  1.0 0.0388453803
C  C39  1  0.65950000  0.68570000  0.28000000  1.0 0.0303413432
C  C40  1  0.12950000  0.90950000  0.47380000  1.0 0.0388453803
C  C41  1  0.30990000  0.62570000  0.02600000  1.0 0.0837143354
C  C42  1  0.37570000  0.84970000  0.81580000  1.0 0.0837143354
C  C43  1  0.03390000  0.55990000  0.18420000  1.0 0.0837143354
C  C44  1  0.59970000  0.28390000  0.97400000  1.0 0.0837143354
C  C45  1  0.44010000  0.62430000  0.47400000  1.0 0.0837143354
C  C46  1  0.37430000  0.40030000  0.68420000  1.0 0.0837143354
C  C47  1  0.71610000  0.69010000  0.31580000  1.0 0.0837143354
C  C48  1  0.15030000  0.96610000  0.52600000  1.0 0.0837143354
C  C49  1  0.28520000  0.50790000  0.86210000  1.0 -0.0706866195
C  C50  1  0.25790000  0.89580000  0.72270000  1.0 -0.0706866195
C  C51  1  0.17310000  0.53520000  0.27730000  1.0 -0.0706866195
C  C52  1  0.64580000  0.42310000  0.13790000  1.0 -0.0706866195
C  C53  1  0.46480000  0.74210000  0.63790000  1.0 -0.0706866195
C  C54  1  0.49210000  0.35420000  0.77730000  1.0 -0.0706866195
C  C55  1  0.57690000  0.71480000  0.22270000  1.0 -0.0706866195
C  C56  1  0.10420000  0.82690000  0.36210000  1.0 -0.0706866195
C  C57  1  0.29040000  0.27710000  0.75970000  1.0 0.5685128124
C  C58  1  0.02710000  0.76740000  0.48670000  1.0 0.5685128124
C  C59  1  0.28070000  0.54040000  0.51330000  1.0 0.5685128124
C  C60  1  0.51740000  0.53070000  0.24030000  1.0 0.5685128124
C  C61  1  0.45960000  0.97290000  0.74030000  1.0 0.5685128124
C  C62  1  0.72290000  0.48260000  0.01330000  1.0 0.5685128124
C  C63  1  0.46930000  0.70960000  0.98670000  1.0 0.5685128124
C  C64  1  0.23260000  0.71930000  0.25970000  1.0 0.5685128124
C  C65  1  0.28950000  0.33840000  0.78650000  1.0 -0.0770976626
C  C66  1  0.08840000  0.80190000  0.54890000  1.0 -0.0770976626
C  C67  1  0.25300000  0.53950000  0.45110000  1.0 -0.0770976626
C  C68  1  0.55190000  0.50300000  0.21350000  1.0 -0.0770976626
C  C69  1  0.46050000  0.91160000  0.71350000  1.0 -0.0770976626
C  C70  1  0.66160000  0.44810000  0.95110000  1.0 -0.0770976626
C  C71  1  0.49700000  0.71050000  0.04890000  1.0 -0.0770976626
C  C72  1  0.19810000  0.74700000  0.28650000  1.0 -0.0770976626
C  C73  1  0.25730000  0.35220000  0.74470000  1.0 0.0303413432
C  C74  1  0.10220000  0.85750000  0.59490000  1.0 0.0388453803
C  C75  1  0.26260000  0.50730000  0.40510000  1.0 0.0388453803
C  C76  1  0.60750000  0.51260000  0.25530000  1.0 0.0303413432
C  C77  1  0.49270000  0.89780000  0.75530000  1.0 0.0388453803
C  C78  1  0.64780000  0.39250000  0.90510000  1.0 0.0303413432
C  C79  1  0.48740000  0.74270000  0.09490000  1.0 0.0388453803
C  C80  1  0.14250000  0.73740000  0.24470000  1.0 0.0388453803
C  C81  1  0.25680000  0.40680000  0.77000000  1.0 0.0511288011
C  C82  1  0.15680000  0.88680000  0.65000000  1.0 0.0511288011
C  C83  1  0.23680000  0.50680000  0.35000000  1.0 0.0511288011
C  C84  1  0.63680000  0.48680000  0.23000000  1.0 0.0511288011
C  C85  1  0.49320000  0.84320000  0.73000000  1.0 0.0511288011
C  C86  1  0.59320000  0.36320000  0.85000000  1.0 0.0511288011
C  C87  1  0.51320000  0.74320000  0.15000000  1.0 0.0511288011
C  C88  1  0.11320000  0.76320000  0.27000000  1.0 0.0511288011
C  C89  1  0.28693000  0.45023000  0.83750000  1.0 -0.0415948574
C  C90  1  0.20023000  0.86273000  0.66330000  1.0 -0.0415948574
C  C91  1  0.19943000  0.53693000  0.33670000  1.0 -0.0415948574
C  C92  1  0.61273000  0.44943000  0.16250000  1.0 -0.0415948574
C  C93  1  0.46307000  0.79977000  0.66250000  1.0 -0.0415948574
C  C94  1  0.54977000  0.38727000  0.83670000  1.0 -0.0415948574
C  C95  1  0.55057000  0.71307000  0.16330000  1.0 -0.0415948574
C  C96  1  0.13727000  0.80057000  0.33750000  1.0 -0.0415948574
C  C97  1  0.31890000  0.43570000  0.88040000  1.0 0.0511288011
C  C98  1  0.18570000  0.80530000  0.61680000  1.0 0.0511288011
C  C99  1  0.18850000  0.56890000  0.38320000  1.0 0.0511288011
C  C100  1  0.55530000  0.43850000  0.11960000  1.0 0.0511288011
C  C101  1  0.43110000  0.81430000  0.61960000  1.0 0.0511288011
C  C102  1  0.56430000  0.44470000  0.88320000  1.0 0.0511288011
C  C103  1  0.56150000  0.68110000  0.11680000  1.0 0.0511288011
C  C104  1  0.19470000  0.81150000  0.38040000  1.0 0.0511288011
C  C105  1  0.31980000  0.38050000  0.85510000  1.0 0.0580696037
C  C106  1  0.13050000  0.77540000  0.56070000  1.0 0.0580696037
C  C107  1  0.21470000  0.56980000  0.43930000  1.0 0.0580696037
C  C108  1  0.52540000  0.46470000  0.14490000  1.0 0.0580696037
C  C109  1  0.43020000  0.86950000  0.64490000  1.0 0.0580696037
C  C110  1  0.61950000  0.47460000  0.93930000  1.0 0.0580696037
C  C111  1  0.53530000  0.68020000  0.06070000  1.0 0.0580696037
C  C112  1  0.22460000  0.78530000  0.35510000  1.0 0.0580696037
C  C113  1  0.33560000  0.58660000  0.75920000  1.0 0.6747109519
C  C114  1  0.33660000  0.07740000  0.75100000  1.0 0.6747109519
C  C115  1  0.32640000  0.58560000  0.24900000  1.0 0.6747109519
C  C116  1  0.82740000  0.57640000  0.24080000  1.0 0.6751091109
C  C117  1  0.41440000  0.66340000  0.74080000  1.0 0.6751091109
C  C118  1  0.41340000  0.17260000  0.74900000  1.0 0.6747109519
C  C119  1  0.42360000  0.66440000  0.25100000  1.0 0.6747109519
C  C120  1  0.92260000  0.67360000  0.25920000  1.0 0.6747109519
C  C121  1  0.32340000  0.56700000  0.78640000  1.0 -0.1271304897
C  C122  1  0.31700000  0.03060000  0.74360000  1.0 -0.1271304897
C  C123  1  0.28700000  0.57340000  0.25640000  1.0 -0.1271304897
C  C124  1  0.78060000  0.53700000  0.21360000  1.0 -0.1271304897
C  C125  1  0.42660000  0.68300000  0.71360000  1.0 -0.1271304897
C  C126  1  0.43300000  0.21940000  0.75640000  1.0 -0.1271304897
C  C127  1  0.46300000  0.67660000  0.24360000  1.0 -0.1271304897
C  C128  1  0.96940000  0.71300000  0.28640000  1.0 -0.1271304897
C  C129  1  0.35740000  0.54360000  0.81500000  1.0 0.073065357
C  C130  1  0.29360000  0.97860000  0.68620000  1.0 0.073065357
C  C131  1  0.29240000  0.60740000  0.31380000  1.0 0.073065357
C  C132  1  0.72860000  0.54240000  0.18500000  1.0 0.073065357
C  C133  1  0.39260000  0.70640000  0.68500000  1.0 0.073065357
C  C134  1  0.45640000  0.27140000  0.81380000  1.0 0.073065357
C  C135  1  0.45760000  0.64260000  0.18620000  1.0 0.073065357
C  C136  1  0.02140000  0.70760000  0.31500000  1.0 0.073065357
C  C137  1  0.34700000  0.52690000  0.84230000  1.0 0.0511288011
C  C138  1  0.27690000  0.93460000  0.67990000  1.0 0.0511288011
C  C139  1  0.25470000  0.59700000  0.32010000  1.0 0.0511288011
C  C140  1  0.68460000  0.50470000  0.15770000  1.0 0.0511288011
C  C141  1  0.40300000  0.72310000  0.65770000  1.0 0.0511288011
C  C142  1  0.47310000  0.31540000  0.82010000  1.0 0.0511288011
C  C143  1  0.49530000  0.65300000  0.17990000  1.0 0.0511288011
C  C144  1  0.06540000  0.74530000  0.34230000  1.0 0.0511288011
C  C145  1  0.30060000  0.53130000  0.83990000  1.0 -0.0415948574
C  C146  1  0.28130000  0.94140000  0.73070000  1.0 -0.0415948574
C  C147  1  0.21070000  0.55060000  0.26930000  1.0 -0.0415948574
C  C148  1  0.69140000  0.46070000  0.16010000  1.0 -0.0415948574
C  C149  1  0.44940000  0.71870000  0.66010000  1.0 -0.0415948574
C  C150  1  0.46870000  0.30860000  0.76930000  1.0 -0.0415948574
C  C151  1  0.53930000  0.69940000  0.23070000  1.0 -0.0415948574
C  C152  1  0.05860000  0.78930000  0.33990000  1.0 -0.0415948574
C  C153  1  0.26650000  0.55610000  0.81260000  1.0 0.0388453803
C  C154  1  0.30610000  0.99350000  0.78960000  1.0 0.0388453803
C  C155  1  0.20390000  0.51650000  0.21040000  1.0 0.0388453803
C  C156  1  0.74350000  0.45390000  0.18740000  1.0 0.0388453803
C  C157  1  0.48350000  0.69390000  0.68740000  1.0 0.0388453803
C  C158  1  0.44390000  0.25650000  0.71040000  1.0 0.0388453803
C  C159  1  0.54610000  0.73350000  0.28960000  1.0 0.0388453803
C  C160  1  0.00650000  0.79610000  0.31260000  1.0 0.0388453803
C  C161  1  0.27840000  0.57340000  0.78500000  1.0 0.0388453803
C  C162  1  0.32340000  0.03840000  0.79500000  1.0 0.0388453803
C  C163  1  0.24340000  0.52840000  0.20500000  1.0 0.0388453803
C  C164  1  0.78840000  0.49340000  0.21500000  1.0 0.0388453803
C  C165  1  0.47160000  0.67660000  0.71500000  1.0 0.0388453803
C  C166  1  0.42660000  0.21160000  0.70500000  1.0 0.0388453803
C  C167  1  0.50660000  0.72160000  0.29500000  1.0 0.0388453803
C  C168  1  0.96160000  0.75660000  0.28500000  1.0 0.0388453803
C  C169  1  0.26730000  0.62830000  0.06760000  1.0 0.3681494968
C  C170  1  0.37830000  0.81070000  0.86100000  1.0 0.3681494968
C  C171  1  0.94970000  0.51730000  0.13900000  1.0 0.3681494968
C  C172  1  0.56070000  0.19970000  0.93240000  1.0 0.3681494968
C  C173  1  0.48270000  0.62170000  0.43240000  1.0 0.3681494968
C  C174  1  0.37170000  0.43930000  0.63900000  1.0 0.3681494968
C  C175  1  0.80030000  0.73270000  0.36100000  1.0 0.3681494968
C  C176  1  0.18930000  0.05030000  0.56760000  1.0 0.3681494968
Cl  Cl1  1  0.17766000  0.53265000  0.95349000  1.0 -0.027087263
Cl  Cl2  1  0.28265000  0.82916000  0.85499000  1.0 -0.027087263
Cl  Cl3  1  0.97417000  0.42766000  0.14501000  1.0 -0.0212259977
Cl  Cl4  1  0.57916000  0.22417000  0.04651000  1.0 -0.027087263
Cl  Cl5  1  0.57234000  0.71735000  0.54651000  1.0 -0.027087263
Cl  Cl6  1  0.46735000  0.42084000  0.64501000  1.0 -0.0212259977
Cl  Cl7  1  0.77583000  0.82234000  0.35499000  1.0 -0.027087263
Cl  Cl8  1  0.17084000  0.02583000  0.45349000  1.0 -0.027087263
Cl  Cl9  1  0.18675000  0.46517000  0.84008000  1.0 -0.0212259977
Cl  Cl10  1  0.21517000  0.87509000  0.77842000  1.0 -0.0212259977
Cl  Cl11  1  0.09667000  0.43675000  0.22158000  1.0 -0.0212259977
Cl  Cl12  1  0.62509000  0.34667000  0.15992000  1.0 -0.0212259977
Cl  Cl13  1  0.56325000  0.78483000  0.65992000  1.0 -0.0212259977
Cl  Cl14  1  0.53483000  0.37491000  0.72158000  1.0 -0.0212259977
Cl  Cl15  1  0.65333000  0.81325000  0.27842000  1.0 -0.0212259977
Cl  Cl16  1  0.12491000  0.90333000  0.34008000  1.0 -0.0212259977
Cl  Cl17  1  0.36999000  0.62209000  0.98664000  1.0 -0.0923061295
Cl  Cl18  1  0.37209000  0.88545000  0.75210000  1.0 -0.0923061295
Cl  Cl19  1  0.13335000  0.61999000  0.24790000  1.0 -0.0923061295
Cl  Cl20  1  0.63545000  0.38335000  0.01336000  1.0 -0.0923061295
Cl  Cl21  1  0.38001000  0.62791000  0.51336000  1.0 -0.0923061295
Cl  Cl22  1  0.37791000  0.36455000  0.74790000  1.0 -0.0923061295
Cl  Cl23  1  0.61665000  0.63001000  0.25210000  1.0 -0.0923061295
Cl  Cl24  1  0.11455000  0.86665000  0.48664000  1.0 -0.0923061295
Cl  Cl25  1  0.35693000  0.68831000  0.09722000  1.0 -0.0415948574
Cl  Cl26  1  0.43831000  0.84109000  0.83138000  1.0 -0.0415948574
Cl  Cl27  1  0.00971000  0.60693000  0.16862000  1.0 -0.0415948574
Cl  Cl28  1  0.59109000  0.25971000  0.90278000  1.0 -0.0415948574
Cl  Cl29  1  0.39307000  0.56169000  0.40278000  1.0 -0.0415948574
Cl  Cl30  1  0.31169000  0.40891000  0.66862000  1.0 -0.0415948574
Cl  Cl31  1  0.74029000  0.64307000  0.33138000  1.0 -0.0415948574
Cl  Cl32  1  0.15891000  0.99029000  0.59722000  1.0 -0.0415948574
Cl  Cl33  1  0.22020000  0.30153000  0.66081000  1.0 0.0073403687
Cl  Cl34  1  0.05153000  0.89072000  0.58133000  1.0 0.004277813
Cl  Cl35  1  0.30939000  0.47020000  0.41867000  1.0 0.004277813
Cl  Cl36  1  0.64072000  0.55939000  0.33919000  1.0 0.004277813
Cl  Cl37  1  0.52980000  0.94847000  0.83919000  1.0 0.004277813
Cl  Cl38  1  0.69847000  0.35928000  0.91867000  1.0 0.0073403687
Cl  Cl39  1  0.44061000  0.77980000  0.08133000  1.0 0.0073403687
Cl  Cl40  1  0.10928000  0.69061000  0.16081000  1.0 0.004277813
Cl  Cl41  1  0.21350000  0.41933000  0.71209000  1.0 -0.0574786855
Cl  Cl42  1  0.16933000  0.95724000  0.70583000  1.0 -0.0574786855
Cl  Cl43  1  0.25141000  0.46350000  0.29417000  1.0 -0.0574786855
Cl  Cl44  1  0.70724000  0.50141000  0.28791000  1.0 -0.0574786855
Cl  Cl45  1  0.53650000  0.83067000  0.78791000  1.0 -0.0574786855
Cl  Cl46  1  0.58067000  0.29276000  0.79417000  1.0 -0.0574786855
Cl  Cl47  1  0.49859000  0.78650000  0.20583000  1.0 -0.0574786855
Cl  Cl48  1  0.04276000  0.74859000  0.21209000  1.0 -0.0574786855
Cl  Cl49  1  0.35938000  0.48358000  0.96418000  1.0 -0.0462512736
Cl  Cl50  1  0.23358000  0.76940000  0.62420000  1.0 -0.0462512736
Cl  Cl51  1  0.14520000  0.60938000  0.37580000  1.0 -0.0462512736
Cl  Cl52  1  0.51940000  0.39520000  0.03582000  1.0 -0.0462512736
Cl  Cl53  1  0.39062000  0.76642000  0.53582000  1.0 -0.0462512736
Cl  Cl54  1  0.51642000  0.48060000  0.87580000  1.0 -0.0462512736
Cl  Cl55  1  0.60480000  0.64062000  0.12420000  1.0 -0.0415948574
Cl  Cl56  1  0.23060000  0.85480000  0.46418000  1.0 -0.0462512736
Cl  Cl57  1  0.35970000  0.36379000  0.90847000  1.0 -0.0415948574
Cl  Cl58  1  0.11379000  0.70532000  0.50409000  1.0 -0.0415948574
Cl  Cl59  1  0.20123000  0.60970000  0.49591000  1.0 -0.0415948574
Cl  Cl60  1  0.45532000  0.45123000  0.09153000  1.0 -0.0462512736
Cl  Cl61  1  0.39030000  0.88621000  0.59153000  1.0 -0.0415948574
Cl  Cl62  1  0.63621000  0.54468000  0.99591000  1.0 -0.0415948574
Cl  Cl63  1  0.54877000  0.64030000  0.00409000  1.0 -0.0462512736
Cl  Cl64  1  0.29468000  0.79877000  0.40847000  1.0 -0.0462512736
Cl  Cl65  1  0.41594000  0.53672000  0.81908000  1.0 -0.0415948574
Cl  Cl66  1  0.28672000  0.96764000  0.62078000  1.0 -0.0415948574
Cl  Cl67  1  0.34686000  0.66594000  0.37922000  1.0 -0.0462512736
Cl  Cl68  1  0.71764000  0.59686000  0.18092000  1.0 -0.0462512736
Cl  Cl69  1  0.33406000  0.71328000  0.68092000  1.0 -0.0415948574
Cl  Cl70  1  0.46328000  0.28236000  0.87922000  1.0 -0.0415948574
Cl  Cl71  1  0.40314000  0.58406000  0.12078000  1.0 -0.0462512736
Cl  Cl72  1  0.03236000  0.65314000  0.31908000  1.0 -0.0415948574
Cl  Cl73  1  0.39561000  0.50205000  0.88258000  1.0 -0.0574786855
Cl  Cl74  1  0.25205000  0.86947000  0.60644000  1.0 -0.0574786855
Cl  Cl75  1  0.26303000  0.64561000  0.39356000  1.0 -0.0574786855
Cl  Cl76  1  0.61947000  0.51303000  0.11742000  1.0 -0.0574786855
Cl  Cl77  1  0.35439000  0.74795000  0.61742000  1.0 -0.0574786855
Cl  Cl78  1  0.49795000  0.38053000  0.89356000  1.0 -0.0574786855
Cl  Cl79  1  0.48697000  0.60439000  0.10644000  1.0 -0.0574786855
Cl  Cl80  1  0.13053000  0.73697000  0.38258000  1.0 -0.0574786855
Cl  Cl81  1  0.20620000  0.56355000  0.80541000  1.0 -0.0415948574
Cl  Cl82  1  0.31355000  0.00814000  0.85735000  1.0 -0.0415948574
Cl  Cl83  1  0.15079000  0.45620000  0.14265000  1.0 -0.0415948574
Cl  Cl84  1  0.75814000  0.40079000  0.19459000  1.0 -0.0415948574
Cl  Cl85  1  0.54380000  0.68645000  0.69459000  1.0 -0.0415948574
Cl  Cl86  1  0.43645000  0.24186000  0.64265000  1.0 -0.0415948574
Cl  Cl87  1  0.59921000  0.79380000  0.35735000  1.0 -0.0415948574
Cl  Cl88  1  0.99186000  0.84921000  0.30541000  1.0 -0.0415948574
Cl  Cl89  1  0.23295000  0.60322000  0.74931000  1.0 -0.027087263
Cl  Cl90  1  0.35322000  0.10391000  0.87027000  1.0 -0.027087263
Cl  Cl91  1  0.23364000  0.48295000  0.12973000  1.0 -0.027087263
Cl  Cl92  1  0.85391000  0.48364000  0.25069000  1.0 -0.0212259977
Cl  Cl93  1  0.51705000  0.64678000  0.75069000  1.0 -0.027087263
Cl  Cl94  1  0.39678000  0.14609000  0.62973000  1.0 -0.027087263
Cl  Cl95  1  0.51636000  0.76705000  0.37027000  1.0 -0.027087263
Cl  Cl96  1  0.89609000  0.76636000  0.24931000  1.0 -0.027087263
O  O1  1  0.27870000  0.62730000  0.10760000  1.0 -0.4116755413
O  O2  1  0.37730000  0.76970000  0.84860000  1.0 -0.4116755413
O  O3  1  0.92110000  0.52870000  0.15140000  1.0 -0.4154326989
O  O4  1  0.51970000  0.17110000  0.89240000  1.0 -0.4116755413
O  O5  1  0.47130000  0.62270000  0.39240000  1.0 -0.4116755413
O  O6  1  0.37270000  0.48030000  0.65140000  1.0 -0.4116755413
O  O7  1  0.82890000  0.72130000  0.34860000  1.0 -0.4116755413
O  O8  1  0.23030000  0.07890000  0.60760000  1.0 -0.4116755413
O  O9  1  0.25230000  0.67050000  0.08040000  1.0 -0.3167027755
O  O10  1  0.42050000  0.84010000  0.91820000  1.0 -0.3143858287
O  O11  1  0.92190000  0.50230000  0.08180000  1.0 -0.3167027755
O  O12  1  0.59010000  0.17190000  0.91960000  1.0 -0.3143858287
O  O13  1  0.49770000  0.57950000  0.41960000  1.0 -0.3143858287
O  O14  1  0.32950000  0.40990000  0.58180000  1.0 -0.3143858287
O  O15  1  0.82810000  0.74770000  0.41820000  1.0 -0.3143858287
O  O16  1  0.15990000  0.07810000  0.58040000  1.0 -0.3143858287
O  O17  1  0.33054000  0.26404000  0.76170000  1.0 -0.5885626151
O  O18  1  0.01404000  0.75234000  0.43350000  1.0 -0.5885626151
O  O19  1  0.31884000  0.58054000  0.56650000  1.0 -0.5885626151
O  O20  1  0.50234000  0.56884000  0.23830000  1.0 -0.5885626151
O  O21  1  0.41946000  0.98596000  0.73830000  1.0 -0.5885626151
O  O22  1  0.73596000  0.49766000  0.06650000  1.0 -0.5885626151
O  O23  1  0.43116000  0.66946000  0.93350000  1.0 -0.5885626151
O  O24  1  0.24766000  0.68116000  0.26170000  1.0 -0.5885626151
O  O25  1  0.25200000  0.24630000  0.73730000  1.0 -0.625997606
O  O26  1  0.99630000  0.75900000  0.49430000  1.0 -0.625997606
O  O27  1  0.26470000  0.50200000  0.50570000  1.0 -0.625997606
O  O28  1  0.50900000  0.51470000  0.26270000  1.0 -0.625997606
O  O29  1  0.49800000  0.00370000  0.76270000  1.0 -0.625997606
O  O30  1  0.75370000  0.49100000  0.00570000  1.0 -0.6248902453
O  O31  1  0.48530000  0.74800000  0.99430000  1.0 -0.625997606
O  O32  1  0.24100000  0.73530000  0.23730000  1.0 -0.625997606
O  O33  1  0.31858000  0.55048000  0.70050000  1.0 -0.6383210643
O  O34  1  0.30048000  0.09998000  0.73190000  1.0 -0.6383210643
O  O35  1  0.36808000  0.56858000  0.26810000  1.0 -0.6383210643
O  O36  1  0.84998000  0.61808000  0.29950000  1.0 -0.6383210643
O  O37  1  0.43142000  0.69952000  0.79950000  1.0 -0.6383210643
O  O38  1  0.44952000  0.15002000  0.76810000  1.0 -0.6383210643
O  O39  1  0.38192000  0.68142000  0.23190000  1.0 -0.6383210643
O  O40  1  0.90002000  0.63192000  0.20050000  1.0 -0.6383210643
O  O41  1  0.35970000  0.63610000  0.79440000  1.0 -0.6958781404
O  O42  1  0.38610000  0.09170000  0.77640000  1.0 -0.6958781404
O  O43  1  0.31530000  0.60970000  0.22360000  1.0 -0.6958781404
O  O44  1  0.84170000  0.56530000  0.20560000  1.0 -0.6958781404
O  O45  1  0.39030000  0.61390000  0.70560000  1.0 -0.6958781404
O  O46  1  0.36390000  0.15830000  0.72360000  1.0 -0.6958781404
O  O47  1  0.43470000  0.64030000  0.27640000  1.0 -0.6958781404
O  O48  1  0.90830000  0.68470000  0.29440000  1.0 -0.6958781404
