# DDEC6 charges by PACMAN v1.1 (https://github.com/mtap-research/PACMAN-charge/)
data_DOMFUI_ASR_pacman
_symmetry_space_group_name_H-M   'P 1'
_cell_length_a   23.98920000
_cell_length_b   23.98920000
_cell_length_c   11.47910000
_cell_angle_alpha   76.34600000
_cell_angle_beta   103.65400000
_cell_angle_gamma   86.26710000
_symmetry_Int_Tables_number   1
_chemical_formula_structural   Na4Sm2Zn2H48C97(N3O7)3
_chemical_formula_sum   'Na8 Sm4 Zn4 H96 C194 N18 O42'
_cell_volume   6186.62369724
_cell_formula_units_Z   2
loop_
 _symmetry_equiv_pos_site_id
 _symmetry_equiv_pos_as_xyz
  1  'x, y, z'
loop_
 _atom_site_type_symbol
 _atom_site_label
 _atom_site_symmetry_multiplicity
 _atom_site_fract_x
 _atom_site_fract_y
 _atom_site_fract_z
 _atom_site_occupancy
 _atom_site_charge
Na  Na1  1  0.32811000  0.82657000  0.01054000  1.0 0.8875845928
Na  Na2  1  0.82657000  0.32811000  0.98946000  1.0 0.8875845928
Na  Na3  1  0.67189000  0.17343000  0.98946000  1.0 0.8875845928
Na  Na4  1  0.17343000  0.67189000  0.01054000  1.0 0.8875845928
Na  Na5  1  0.67572000  0.32428000  0.99629000  1.0 0.8875845928
Na  Na6  1  0.32428000  0.67572000  0.00371000  1.0 0.8875845928
Na  Na7  1  0.23190000  0.76810000  0.50548000  1.0 0.8980437775
Na  Na8  1  0.76810000  0.23190000  0.49452000  1.0 0.8980437775
Sm  Sm1  1  0.79462000  0.20538000  0.21113000  1.0 1.9651408453
Sm  Sm2  1  0.20538000  0.79462000  0.78887000  1.0 1.9634392519
Sm  Sm3  1  0.73729000  0.26271000  0.76615000  1.0 1.9827822108
Sm  Sm4  1  0.26271000  0.73729000  0.23385000  1.0 1.9827822108
Zn  Zn1  1  0.29912000  0.22574000  0.29333000  1.0 0.6915026862
Zn  Zn2  1  0.22574000  0.29912000  0.70667000  1.0 0.6915026862
Zn  Zn3  1  0.70088000  0.77426000  0.70667000  1.0 0.6915026862
Zn  Zn4  1  0.77426000  0.70088000  0.29333000  1.0 0.6915026862
H  H1  1  0.32930000  0.93450000  0.14560000  1.0 0.1111747833
H  H2  1  0.93450000  0.32930000  0.85440000  1.0 0.1111747833
H  H3  1  0.67070000  0.06550000  0.85440000  1.0 0.1111747833
H  H4  1  0.06550000  0.67070000  0.14560000  1.0 0.1111747833
H  H5  1  0.47800000  0.33100000  0.27100000  1.0 0.1269754604
H  H6  1  0.33100000  0.47800000  0.72900000  1.0 0.1269754604
H  H7  1  0.52200000  0.66900000  0.72900000  1.0 0.1269754604
H  H8  1  0.66900000  0.52200000  0.27100000  1.0 0.1269754604
H  H9  1  0.19300000  0.04780000  0.28930000  1.0 0.1269754604
H  H10  1  0.04780000  0.19300000  0.71070000  1.0 0.1269754604
H  H11  1  0.80700000  0.95220000  0.71070000  1.0 0.1269754604
H  H12  1  0.95220000  0.80700000  0.28930000  1.0 0.1269754604
H  H13  1  0.19350000  0.40510000  0.36360000  1.0 0.1193265512
H  H14  1  0.40510000  0.19350000  0.63640000  1.0 0.1193265512
H  H15  1  0.80650000  0.59490000  0.63640000  1.0 0.1193265512
H  H16  1  0.59490000  0.80650000  0.36360000  1.0 0.1193265512
H  H17  1  0.11700000  0.12580000  0.27400000  1.0 0.1269754604
H  H18  1  0.12580000  0.11700000  0.72600000  1.0 0.1269754604
H  H19  1  0.88300000  0.87420000  0.72600000  1.0 0.1269754604
H  H20  1  0.87420000  0.88300000  0.27400000  1.0 0.1269754604
H  H21  1  0.12220000  0.33640000  0.36040000  1.0 0.1269754604
H  H22  1  0.33640000  0.12220000  0.63960000  1.0 0.1269754604
H  H23  1  0.87780000  0.66360000  0.63960000  1.0 0.1269754604
H  H24  1  0.66360000  0.87780000  0.36040000  1.0 0.1269754604
H  H25  1  0.64170000  0.19210000  0.45150000  1.0 0.1193265512
H  H26  1  0.19210000  0.64170000  0.54850000  1.0 0.1193265512
H  H27  1  0.35830000  0.80790000  0.54850000  1.0 0.1193265512
H  H28  1  0.80790000  0.35830000  0.45150000  1.0 0.1193265512
H  H29  1  0.33480000  0.02840000  0.16620000  1.0 0.1193265512
H  H30  1  0.02840000  0.33480000  0.83380000  1.0 0.1193265512
H  H31  1  0.66520000  0.97160000  0.83380000  1.0 0.1193265512
H  H32  1  0.97160000  0.66520000  0.16620000  1.0 0.1193265512
H  H33  1  0.40460000  0.40680000  0.27430000  1.0 0.1269754604
H  H34  1  0.40680000  0.40460000  0.72570000  1.0 0.1269754604
H  H35  1  0.59540000  0.59320000  0.72570000  1.0 0.1269754604
H  H36  1  0.59320000  0.59540000  0.27430000  1.0 0.1269754604
H  H37  1  0.00180000  0.17420000  0.44400000  1.0 0.1193265512
H  H38  1  0.17420000  0.00180000  0.55600000  1.0 0.1193265512
H  H39  1  0.99820000  0.82580000  0.55600000  1.0 0.1193265512
H  H40  1  0.82580000  0.99820000  0.44400000  1.0 0.1193265512
H  H41  1  0.42450000  0.02930000  0.37540000  1.0 0.1269754604
H  H42  1  0.02930000  0.42450000  0.62460000  1.0 0.1269754604
H  H43  1  0.57550000  0.97070000  0.62460000  1.0 0.1269754604
H  H44  1  0.97070000  0.57550000  0.37540000  1.0 0.1269754604
H  H45  1  0.10000000  0.17500000  0.46780000  1.0 0.1111747833
H  H46  1  0.17500000  0.10000000  0.53220000  1.0 0.1111747833
H  H47  1  0.90000000  0.82500000  0.53220000  1.0 0.1111747833
H  H48  1  0.82500000  0.90000000  0.46780000  1.0 0.1111747833
H  H49  1  0.27720000  0.89060000  0.46300000  1.0 0.1193265512
H  H50  1  0.89060000  0.27720000  0.53700000  1.0 0.1193265512
H  H51  1  0.72280000  0.10940000  0.53700000  1.0 0.1193265512
H  H52  1  0.10940000  0.72280000  0.46300000  1.0 0.1193265512
H  H53  1  0.57420000  0.23560000  0.08140000  1.0 0.0984878544
H  H54  1  0.23560000  0.57420000  0.91860000  1.0 0.0984878544
H  H55  1  0.42580000  0.76440000  0.91860000  1.0 0.0984878544
H  H56  1  0.76440000  0.42580000  0.08140000  1.0 0.0984878544
H  H57  1  0.49410000  0.10070000  0.36420000  1.0 0.1269754604
H  H58  1  0.10070000  0.49410000  0.63580000  1.0 0.1269754604
H  H59  1  0.50590000  0.89930000  0.63580000  1.0 0.1269754604
H  H60  1  0.89930000  0.50590000  0.36420000  1.0 0.1269754604
H  H61  1  0.06820000  0.29640000  0.14180000  1.0 0.1193265512
H  H62  1  0.29640000  0.06820000  0.85820000  1.0 0.1193265512
H  H63  1  0.93180000  0.70360000  0.85820000  1.0 0.1193265512
H  H64  1  0.70360000  0.93180000  0.14180000  1.0 0.1193265512
H  H65  1  0.48270000  0.23430000  0.11110000  1.0 0.1193265512
H  H66  1  0.23430000  0.48270000  0.88890000  1.0 0.1193265512
H  H67  1  0.51730000  0.76570000  0.88890000  1.0 0.1193265512
H  H68  1  0.76570000  0.51730000  0.11110000  1.0 0.1193265512
H  H69  1  0.54930000  0.19430000  0.47930000  1.0 0.1193265512
H  H70  1  0.19430000  0.54930000  0.52070000  1.0 0.1193265512
H  H71  1  0.45070000  0.80570000  0.52070000  1.0 0.1193265512
H  H72  1  0.80570000  0.45070000  0.47930000  1.0 0.1193265512
H  H73  1  0.96970000  0.29450000  0.11870000  1.0 0.1111747833
H  H74  1  0.29450000  0.96970000  0.88130000  1.0 0.1111747833
H  H75  1  0.03030000  0.70550000  0.88130000  1.0 0.1111747833
H  H76  1  0.70550000  0.03030000  0.11870000  1.0 0.1111747833
H  H77  1  0.28380000  0.98460000  0.48440000  1.0 0.1193265512
H  H78  1  0.98460000  0.28380000  0.51560000  1.0 0.1193265512
H  H79  1  0.71620000  0.01540000  0.51560000  1.0 0.1193265512
H  H80  1  0.01540000  0.71620000  0.48440000  1.0 0.1193265512
H  H81  1  0.28920000  0.52660000  0.45850000  1.0 0.1111747833
H  H82  1  0.52660000  0.28920000  0.54150000  1.0 0.1111747833
H  H83  1  0.71080000  0.47340000  0.54150000  1.0 0.1111747833
H  H84  1  0.47340000  0.71080000  0.45850000  1.0 0.1111747833
H  H85  1  0.29600000  0.42760000  0.47900000  1.0 0.1193265512
H  H86  1  0.42760000  0.29600000  0.52100000  1.0 0.1193265512
H  H87  1  0.70400000  0.57240000  0.52100000  1.0 0.1193265512
H  H88  1  0.57240000  0.70400000  0.47900000  1.0 0.1193265512
H  H89  1  0.29690000  0.45450000  0.12070000  1.0 0.1193265512
H  H90  1  0.45450000  0.29690000  0.87930000  1.0 0.1193265512
H  H91  1  0.70310000  0.54550000  0.87930000  1.0 0.1193265512
H  H92  1  0.54550000  0.70310000  0.12070000  1.0 0.1193265512
H  H93  1  0.28840000  0.55360000  0.09930000  1.0 0.0984878544
H  H94  1  0.55360000  0.28840000  0.90070000  1.0 0.0984878544
H  H95  1  0.71160000  0.44640000  0.90070000  1.0 0.0984878544
H  H96  1  0.44640000  0.71160000  0.09930000  1.0 0.0984878544
C  C1  1  0.67711000  0.21475000  0.24370000  1.0 0.6072076816
C  C2  1  0.21475000  0.67711000  0.75630000  1.0 0.6072076816
C  C3  1  0.32289000  0.78525000  0.75630000  1.0 0.6072076816
C  C4  1  0.78525000  0.32289000  0.24370000  1.0 0.6072076816
C  C5  1  0.29310000  0.84562000  0.28190000  1.0 0.6197850664
C  C6  1  0.84562000  0.29310000  0.71810000  1.0 0.6197850664
C  C7  1  0.70690000  0.15438000  0.71810000  1.0 0.6197850664
C  C8  1  0.15438000  0.70690000  0.28190000  1.0 0.6197850664
C  C9  1  0.61790000  0.21462000  0.26420000  1.0 -0.0497822993
C  C10  1  0.21462000  0.61790000  0.73580000  1.0 -0.0497822993
C  C11  1  0.38210000  0.78538000  0.73580000  1.0 -0.0497822993
C  C12  1  0.78538000  0.38210000  0.26420000  1.0 -0.0497822993
C  C13  1  0.30125000  0.90375000  0.30050000  1.0 -0.0497822993
C  C14  1  0.90375000  0.30125000  0.69950000  1.0 -0.0497822993
C  C15  1  0.69875000  0.09625000  0.69950000  1.0 -0.0497822993
C  C16  1  0.09625000  0.69875000  0.30050000  1.0 -0.0497822993
C  C17  1  0.42199000  0.16493000  0.33260000  1.0 0.1867637172
C  C18  1  0.16493000  0.42199000  0.66740000  1.0 0.1867637172
C  C19  1  0.57801000  0.83507000  0.66740000  1.0 0.1867637172
C  C20  1  0.83507000  0.57801000  0.33260000  1.0 0.1867637172
C  C21  1  0.27996000  0.61324000  0.26090000  1.0 0.5924793739
C  C22  1  0.61324000  0.27996000  0.73910000  1.0 0.5924793739
C  C23  1  0.72004000  0.38676000  0.73910000  1.0 0.5924793739
C  C24  1  0.38676000  0.72004000  0.26090000  1.0 0.5924793739
C  C25  1  0.97595000  0.23165000  0.27600000  1.0 -0.0287167657
C  C26  1  0.23165000  0.97595000  0.72400000  1.0 -0.0287167657
C  C27  1  0.02405000  0.76835000  0.72400000  1.0 -0.0287167657
C  C28  1  0.76835000  0.02405000  0.27600000  1.0 -0.0287167657
C  C29  1  0.34955000  0.33983000  0.29980000  1.0 0.1809875229
C  C30  1  0.33983000  0.34955000  0.70020000  1.0 0.1809875229
C  C31  1  0.65045000  0.66017000  0.70020000  1.0 0.1809875229
C  C32  1  0.66017000  0.65045000  0.29980000  1.0 0.1809875229
C  C33  1  0.91273000  0.22691000  0.25610000  1.0 0.5980527658
C  C34  1  0.22691000  0.91273000  0.74390000  1.0 0.5980527658
C  C35  1  0.08727000  0.77309000  0.74390000  1.0 0.5980527658
C  C36  1  0.77309000  0.08727000  0.25610000  1.0 0.5980527658
C  C37  1  0.28633000  0.54981000  0.27700000  1.0 -0.0431454409
C  C38  1  0.54981000  0.28633000  0.72300000  1.0 -0.0431454409
C  C39  1  0.71367000  0.45019000  0.72300000  1.0 -0.0431454409
C  C40  1  0.45019000  0.71367000  0.27700000  1.0 -0.0431454409
C  C41  1  0.41626000  0.27160000  0.29850000  1.0 0.1711409499
C  C42  1  0.27160000  0.41626000  0.70150000  1.0 0.1711409499
C  C43  1  0.58374000  0.72840000  0.70150000  1.0 0.1711409499
C  C44  1  0.72840000  0.58374000  0.29850000  1.0 0.1711409499
C  C45  1  0.50578000  0.21564000  0.29750000  1.0 0.0984878544
C  C46  1  0.21564000  0.50578000  0.70250000  1.0 0.0984878544
C  C47  1  0.49422000  0.78436000  0.70250000  1.0 0.0984878544
C  C48  1  0.78436000  0.49422000  0.29750000  1.0 0.0984878544
C  C49  1  0.18638000  0.27842000  0.33010000  1.0 0.1867637172
C  C50  1  0.27842000  0.18638000  0.66990000  1.0 0.1867637172
C  C51  1  0.81362000  0.72158000  0.66990000  1.0 0.1867637172
C  C52  1  0.72158000  0.81362000  0.33010000  1.0 0.1867637172
C  C53  1  0.18576000  0.17716000  0.31160000  1.0 0.1711409499
C  C54  1  0.17716000  0.18576000  0.68840000  1.0 0.1711409499
C  C55  1  0.81424000  0.82284000  0.68840000  1.0 0.1711409499
C  C56  1  0.82284000  0.81424000  0.31160000  1.0 0.1711409499
C  C57  1  0.29543000  0.43039000  0.30210000  1.0 0.0984878544
C  C58  1  0.43039000  0.29543000  0.69790000  1.0 0.0984878544
C  C59  1  0.70457000  0.56961000  0.69790000  1.0 0.0984878544
C  C60  1  0.56961000  0.70457000  0.30210000  1.0 0.0984878544
C  C61  1  0.31928000  0.94484000  0.21360000  1.0 -0.098128185
C  C62  1  0.94484000  0.31928000  0.78640000  1.0 -0.098128185
C  C63  1  0.68072000  0.05516000  0.78640000  1.0 -0.098128185
C  C64  1  0.05516000  0.68072000  0.21360000  1.0 -0.098128185
C  C65  1  0.25313000  0.10857000  0.32060000  1.0 0.1809875229
C  C66  1  0.10857000  0.25313000  0.67940000  1.0 0.1809875229
C  C67  1  0.74687000  0.89143000  0.67940000  1.0 0.1809875229
C  C68  1  0.89143000  0.74687000  0.32060000  1.0 0.1809875229
C  C69  1  0.09498000  0.23372000  0.30440000  1.0 0.0984878544
C  C70  1  0.23372000  0.09498000  0.69560000  1.0 0.0984878544
C  C71  1  0.90502000  0.76628000  0.69560000  1.0 0.0984878544
C  C72  1  0.76628000  0.90502000  0.30440000  1.0 0.0984878544
C  C73  1  0.30805000  0.01685000  0.32590000  1.0 0.0901923065
C  C74  1  0.01685000  0.30805000  0.67410000  1.0 0.0901923065
C  C75  1  0.69195000  0.98315000  0.67410000  1.0 0.0901923065
C  C76  1  0.98315000  0.69195000  0.32590000  1.0 0.0901923065
C  C77  1  0.44536000  0.21758000  0.31170000  1.0 -0.08192163
C  C78  1  0.21758000  0.44536000  0.68830000  1.0 -0.08192163
C  C79  1  0.55464000  0.78242000  0.68830000  1.0 -0.08192163
C  C80  1  0.78242000  0.55464000  0.31170000  1.0 -0.08192163
C  C81  1  0.44042000  0.32574000  0.28140000  1.0 -0.1898831002
C  C82  1  0.32574000  0.44042000  0.71860000  1.0 -0.1898831002
C  C83  1  0.55958000  0.67426000  0.71860000  1.0 -0.1898831002
C  C84  1  0.67426000  0.55958000  0.28140000  1.0 -0.1898831002
C  C85  1  0.24985000  0.34045000  0.33140000  1.0 0.1809875229
C  C86  1  0.34045000  0.24985000  0.66860000  1.0 0.1809875229
C  C87  1  0.75015000  0.65955000  0.66860000  1.0 0.1809875229
C  C88  1  0.65955000  0.75015000  0.33140000  1.0 0.1809875229
C  C89  1  0.29864000  0.36700000  0.31280000  1.0 -0.08192163
C  C90  1  0.36700000  0.29864000  0.68720000  1.0 -0.08192163
C  C91  1  0.70136000  0.63300000  0.68720000  1.0 -0.08192163
C  C92  1  0.63300000  0.70136000  0.31280000  1.0 -0.08192163
C  C93  1  0.19864000  0.08568000  0.29760000  1.0 -0.1898831002
C  C94  1  0.08568000  0.19864000  0.70240000  1.0 -0.1898831002
C  C95  1  0.80136000  0.91432000  0.70240000  1.0 -0.1898831002
C  C96  1  0.91432000  0.80136000  0.29760000  1.0 -0.1898831002
C  C97  1  0.35975000  0.10185000  0.34140000  1.0 0.1867637172
C  C98  1  0.10185000  0.35975000  0.65860000  1.0 0.1867637172
C  C99  1  0.64025000  0.89815000  0.65860000  1.0 0.1867637172
C  C100  1  0.89815000  0.64025000  0.34140000  1.0 0.1867637172
C  C101  1  0.19864000  0.36746000  0.35160000  1.0 -0.1898831002
C  C102  1  0.36746000  0.19864000  0.64840000  1.0 -0.1898831002
C  C103  1  0.80136000  0.63254000  0.64840000  1.0 -0.1898831002
C  C104  1  0.63254000  0.80136000  0.35160000  1.0 -0.1898831002
C  C105  1  0.15735000  0.12795000  0.29020000  1.0 -0.1898831002
C  C106  1  0.12795000  0.15735000  0.70980000  1.0 -0.1898831002
C  C107  1  0.84265000  0.87205000  0.70980000  1.0 -0.1898831002
C  C108  1  0.87205000  0.84265000  0.29020000  1.0 -0.1898831002
C  C109  1  0.30701000  0.07795000  0.33140000  1.0 -0.0690171852
C  C110  1  0.07795000  0.30701000  0.66860000  1.0 -0.0690171852
C  C111  1  0.69299000  0.92205000  0.66860000  1.0 -0.0690171852
C  C112  1  0.92205000  0.69299000  0.33140000  1.0 -0.0690171852
C  C113  1  0.16008000  0.33022000  0.35020000  1.0 -0.1898831002
C  C114  1  0.33022000  0.16008000  0.64980000  1.0 -0.1898831002
C  C115  1  0.83992000  0.66978000  0.64980000  1.0 -0.1898831002
C  C116  1  0.66978000  0.83992000  0.35020000  1.0 -0.1898831002
C  C117  1  0.60930000  0.20178000  0.38110000  1.0 -0.0879110288
C  C118  1  0.20178000  0.60930000  0.61890000  1.0 -0.0879110288
C  C119  1  0.39070000  0.79822000  0.61890000  1.0 -0.0879110288
C  C120  1  0.79822000  0.39070000  0.38110000  1.0 -0.0879110288
C  C121  1  0.32261000  0.00073000  0.22600000  1.0 -0.1500542636
C  C122  1  0.00073000  0.32261000  0.77400000  1.0 -0.1500542636
C  C123  1  0.67739000  0.99927000  0.77400000  1.0 -0.1500542636
C  C124  1  0.99927000  0.67739000  0.22600000  1.0 -0.1500542636
C  C125  1  0.40041000  0.36707000  0.28280000  1.0 -0.1898831002
C  C126  1  0.36707000  0.40041000  0.71720000  1.0 -0.1898831002
C  C127  1  0.59959000  0.63293000  0.71720000  1.0 -0.1898831002
C  C128  1  0.63293000  0.59959000  0.28280000  1.0 -0.1898831002
C  C129  1  0.01527000  0.19821000  0.38050000  1.0 -0.098128185
C  C130  1  0.19821000  0.01527000  0.61950000  1.0 -0.098128185
C  C131  1  0.98473000  0.80179000  0.61950000  1.0 -0.098128185
C  C132  1  0.80179000  0.98473000  0.38050000  1.0 -0.098128185
C  C133  1  0.15850000  0.22992000  0.31600000  1.0 -0.0690171852
C  C134  1  0.22992000  0.15850000  0.68400000  1.0 -0.0690171852
C  C135  1  0.84150000  0.77008000  0.68400000  1.0 -0.0690171852
C  C136  1  0.77008000  0.84150000  0.31600000  1.0 -0.0690171852
C  C137  1  0.41596000  0.06996000  0.36110000  1.0 -0.1977119635
C  C138  1  0.06996000  0.41596000  0.63890000  1.0 -0.1977119635
C  C139  1  0.58404000  0.93004000  0.63890000  1.0 -0.1977119635
C  C140  1  0.93004000  0.58404000  0.36110000  1.0 -0.1977119635
C  C141  1  0.07375000  0.19879000  0.39490000  1.0 -0.1500542636
C  C142  1  0.19879000  0.07375000  0.60510000  1.0 -0.1500542636
C  C143  1  0.92625000  0.80121000  0.60510000  1.0 -0.1500542636
C  C144  1  0.80121000  0.92625000  0.39490000  1.0 -0.1500542636
C  C145  1  0.28846000  0.91858000  0.40220000  1.0 -0.098128185
C  C146  1  0.91858000  0.28846000  0.59780000  1.0 -0.098128185
C  C147  1  0.71154000  0.08142000  0.59780000  1.0 -0.098128185
C  C148  1  0.08142000  0.71154000  0.40220000  1.0 -0.098128185
C  C149  1  0.56944000  0.22694000  0.16340000  1.0 -0.1166688636
C  C150  1  0.22694000  0.56944000  0.83660000  1.0 -0.1166688636
C  C151  1  0.43056000  0.77306000  0.83660000  1.0 -0.1166688636
C  C152  1  0.77306000  0.43056000  0.16340000  1.0 -0.1166688636
C  C153  1  0.45373000  0.10879000  0.35520000  1.0 -0.1977119635
C  C154  1  0.10879000  0.45373000  0.64480000  1.0 -0.1977119635
C  C155  1  0.54627000  0.89121000  0.64480000  1.0 -0.1977119635
C  C156  1  0.89121000  0.54627000  0.35520000  1.0 -0.1977119635
C  C157  1  0.05502000  0.27034000  0.20260000  1.0 -0.1500542636
C  C158  1  0.27034000  0.05502000  0.79740000  1.0 -0.1500542636
C  C159  1  0.94498000  0.72966000  0.79740000  1.0 -0.1500542636
C  C160  1  0.72966000  0.94498000  0.20260000  1.0 -0.1500542636
C  C161  1  0.51508000  0.22666000  0.18140000  1.0 -0.1409771582
C  C162  1  0.22666000  0.51508000  0.81860000  1.0 -0.1409771582
C  C163  1  0.48492000  0.77334000  0.81860000  1.0 -0.1409771582
C  C164  1  0.77334000  0.48492000  0.18140000  1.0 -0.1409771582
C  C165  1  0.55422000  0.20272000  0.39750000  1.0 -0.1409771582
C  C166  1  0.20272000  0.55422000  0.60250000  1.0 -0.1409771582
C  C167  1  0.44578000  0.79728000  0.60250000  1.0 -0.1409771582
C  C168  1  0.79728000  0.44578000  0.39750000  1.0 -0.1409771582
C  C169  1  0.99635000  0.26917000  0.18890000  1.0 -0.098128185
C  C170  1  0.26917000  0.99635000  0.81110000  1.0 -0.098128185
C  C171  1  0.00365000  0.73083000  0.81110000  1.0 -0.098128185
C  C172  1  0.73083000  0.00365000  0.18890000  1.0 -0.098128185
C  C173  1  0.29222000  0.97474000  0.41430000  1.0 -0.1500542636
C  C174  1  0.97474000  0.29222000  0.58570000  1.0 -0.1500542636
C  C175  1  0.70778000  0.02526000  0.58570000  1.0 -0.1500542636
C  C176  1  0.02526000  0.70778000  0.41430000  1.0 -0.1500542636
C  C177  1  0.28973000  0.51221000  0.38840000  1.0 -0.0879110288
C  C178  1  0.51221000  0.28973000  0.61160000  1.0 -0.0879110288
C  C179  1  0.71027000  0.48779000  0.61160000  1.0 -0.0879110288
C  C180  1  0.48779000  0.71027000  0.38840000  1.0 -0.0879110288
C  C181  1  0.29397000  0.45303000  0.40060000  1.0 -0.1409771582
C  C182  1  0.45303000  0.29397000  0.59940000  1.0 -0.1409771582
C  C183  1  0.70603000  0.54697000  0.59940000  1.0 -0.1409771582
C  C184  1  0.54697000  0.70603000  0.40060000  1.0 -0.1409771582
C  C185  1  0.29435000  0.46895000  0.18970000  1.0 -0.1500542636
C  C186  1  0.46895000  0.29435000  0.81030000  1.0 -0.1500542636
C  C187  1  0.70565000  0.53105000  0.81030000  1.0 -0.1500542636
C  C188  1  0.53105000  0.70565000  0.18970000  1.0 -0.1500542636
C  C189  1  0.26440000  0.26440000  0.00000000  1.0 0.6271825094
C  C190  1  0.73560000  0.73560000  0.00000000  1.0 0.6271825094
C  C191  1  0.28952000  0.52798000  0.17700000  1.0 -0.1166688636
C  C192  1  0.52798000  0.28952000  0.82300000  1.0 -0.1166688636
C  C193  1  0.71048000  0.47202000  0.82300000  1.0 -0.1166688636
C  C194  1  0.47202000  0.71048000  0.17700000  1.0 -0.1166688636
N  N1  1  0.36020000  0.28190000  0.30770000  1.0 -0.3962754051
N  N2  1  0.28190000  0.36020000  0.69230000  1.0 -0.3962754051
N  N3  1  0.63980000  0.71810000  0.69230000  1.0 -0.3962754051
N  N4  1  0.71810000  0.63980000  0.30770000  1.0 -0.3962754051
N  N5  1  0.24414000  0.16432000  0.32700000  1.0 -0.3893255035
N  N6  1  0.16432000  0.24414000  0.67300000  1.0 -0.3893255035
N  N7  1  0.75586000  0.83568000  0.67300000  1.0 -0.3893255035
N  N8  1  0.83568000  0.75586000  0.32700000  1.0 -0.3893255035
N  N9  1  0.24167000  0.28525000  0.32390000  1.0 -0.3829361204
N  N10  1  0.28525000  0.24167000  0.67610000  1.0 -0.3829361204
N  N11  1  0.75833000  0.71475000  0.67610000  1.0 -0.3829361204
N  N12  1  0.71475000  0.75833000  0.32390000  1.0 -0.3829361204
N  N13  1  0.36520000  0.15928000  0.32820000  1.0 -0.3829361204
N  N14  1  0.15928000  0.36520000  0.67180000  1.0 -0.3829361204
N  N15  1  0.63480000  0.84072000  0.67180000  1.0 -0.3829361204
N  N16  1  0.84072000  0.63480000  0.32820000  1.0 -0.3829361204
N  N17  1  0.81375000  0.18625000  0.98600000  1.0 0.7331683893
N  N18  1  0.18625000  0.81375000  0.01400000  1.0 0.7331683893
O  O1  1  0.68277000  0.23279000  0.13370000  1.0 -0.7483495068
O  O2  1  0.23279000  0.68277000  0.86630000  1.0 -0.7483495068
O  O3  1  0.31723000  0.76721000  0.86630000  1.0 -0.7483495068
O  O4  1  0.76721000  0.31723000  0.13370000  1.0 -0.7483495068
O  O5  1  0.72045000  0.19645000  0.33430000  1.0 -0.6746217649
O  O6  1  0.19645000  0.72045000  0.66570000  1.0 -0.6746217649
O  O7  1  0.27955000  0.80355000  0.66570000  1.0 -0.6746217649
O  O8  1  0.80355000  0.27955000  0.33430000  1.0 -0.6746217649
O  O9  1  0.30418000  0.83234000  0.18680000  1.0 -0.7213322263
O  O10  1  0.83234000  0.30418000  0.81320000  1.0 -0.7213322263
O  O11  1  0.69582000  0.16766000  0.81320000  1.0 -0.7213322263
O  O12  1  0.16766000  0.69582000  0.18680000  1.0 -0.7213322263
O  O13  1  0.81736000  0.18264000  0.87960000  1.0 -0.4287408631
O  O14  1  0.18264000  0.81736000  0.12040000  1.0 -0.4287408631
O  O15  1  0.27434000  0.80920000  0.35760000  1.0 -0.7133204083
O  O16  1  0.80920000  0.27434000  0.64240000  1.0 -0.7133204083
O  O17  1  0.72566000  0.19080000  0.64240000  1.0 -0.7133204083
O  O18  1  0.19080000  0.72566000  0.35760000  1.0 -0.7133204083
O  O19  1  0.27113000  0.64719000  0.15230000  1.0 -0.7560293417
O  O20  1  0.64719000  0.27113000  0.84770000  1.0 -0.7560293417
O  O21  1  0.72887000  0.35281000  0.84770000  1.0 -0.7560293417
O  O22  1  0.35281000  0.72887000  0.15230000  1.0 -0.7560293417
O  O23  1  0.28246000  0.63334000  0.35350000  1.0 -0.58791611
O  O24  1  0.63334000  0.28246000  0.64650000  1.0 -0.58791611
O  O25  1  0.71754000  0.36666000  0.64650000  1.0 -0.58791611
O  O26  1  0.36666000  0.71754000  0.35350000  1.0 -0.58791611
O  O27  1  0.84397000  0.15603000  0.08920000  1.0 -0.4159191738
O  O28  1  0.15603000  0.84397000  0.91080000  1.0 -0.4159191738
O  O29  1  0.77337000  0.22663000  0.98920000  1.0 -0.7855443697
O  O30  1  0.22663000  0.77337000  0.01080000  1.0 -0.7855443697
O  O31  1  0.89642000  0.18790000  0.33230000  1.0 -0.6131345968
O  O32  1  0.18790000  0.89642000  0.66770000  1.0 -0.6131345968
O  O33  1  0.10358000  0.81210000  0.66770000  1.0 -0.6131345968
O  O34  1  0.81210000  0.10358000  0.33230000  1.0 -0.6131345968
O  O35  1  0.87720000  0.25960000  0.16350000  1.0 -0.6930507164
O  O36  1  0.25960000  0.87720000  0.83650000  1.0 -0.6930507164
O  O37  1  0.12280000  0.74040000  0.83650000  1.0 -0.6930507164
O  O38  1  0.74040000  0.12280000  0.16350000  1.0 -0.6930507164
O  O39  1  0.27036000  0.24116000  0.10250000  1.0 -0.3601922433
O  O40  1  0.24116000  0.27036000  0.89750000  1.0 -0.3601922433
O  O41  1  0.72964000  0.75884000  0.89750000  1.0 -0.3601922433
O  O42  1  0.75884000  0.72964000  0.10250000  1.0 -0.3601922433
