# DDEC6 charges by PACMAN v1.1 (https://github.com/mtap-research/PACMAN-charge/)
data_DOMGET_ASR_pacman
_symmetry_space_group_name_H-M   'P 1'
_cell_length_a   23.92820000
_cell_length_b   23.92820000
_cell_length_c   11.49240000
_cell_angle_alpha   76.63350000
_cell_angle_beta   103.36600000
_cell_angle_gamma   86.44430000
_symmetry_Int_Tables_number   1
_chemical_formula_structural   Na4Dy2Zn2H48C97(N3O7)3
_chemical_formula_sum   'Na8 Dy4 Zn4 H96 C194 N18 O42'
_cell_volume   6181.91317681
_cell_formula_units_Z   2
loop_
 _symmetry_equiv_pos_site_id
 _symmetry_equiv_pos_as_xyz
  1  'x, y, z'
loop_
 _atom_site_type_symbol
 _atom_site_label
 _atom_site_symmetry_multiplicity
 _atom_site_fract_x
 _atom_site_fract_y
 _atom_site_fract_z
 _atom_site_occupancy
 _atom_site_charge
Na  Na1  1  0.17612000  0.82388000  0.99269000  1.0 0.882034531
Na  Na2  1  0.82388000  0.17612000  0.00731000  1.0 0.882034531
Na  Na3  1  0.17066000  0.67472000  0.98739000  1.0 0.882034531
Na  Na4  1  0.67472000  0.17066000  0.01261000  1.0 0.882034531
Na  Na5  1  0.82934000  0.32528000  0.01261000  1.0 0.882034531
Na  Na6  1  0.32528000  0.82934000  0.98739000  1.0 0.882034531
Na  Na7  1  0.73326000  0.26674000  0.50883000  1.0 0.8926599431
Na  Na8  1  0.26674000  0.73326000  0.49117000  1.0 0.8926599431
Dy  Dy1  1  0.70769000  0.29231000  0.79491000  1.0 1.9534247327
Dy  Dy2  1  0.29231000  0.70769000  0.20509000  1.0 1.9534247327
Dy  Dy3  1  0.76283000  0.23717000  0.23206000  1.0 1.9534247327
Dy  Dy4  1  0.23717000  0.76283000  0.76794000  1.0 1.9534247327
Zn  Zn1  1  0.20236000  0.27484000  0.70473000  1.0 0.6869692016
Zn  Zn2  1  0.27484000  0.20236000  0.29527000  1.0 0.6869692016
Zn  Zn3  1  0.79764000  0.72516000  0.29527000  1.0 0.6869692016
Zn  Zn4  1  0.72516000  0.79764000  0.70473000  1.0 0.6869692016
H  H1  1  0.09770000  0.09210000  0.72780000  1.0 0.1266430151
H  H2  1  0.09210000  0.09770000  0.27220000  1.0 0.1266430151
H  H3  1  0.90230000  0.90790000  0.27220000  1.0 0.1266430151
H  H4  1  0.90790000  0.90230000  0.72780000  1.0 0.1266430151
H  H5  1  0.02260000  0.16880000  0.72790000  1.0 0.1266430151
H  H6  1  0.16880000  0.02260000  0.27210000  1.0 0.1266430151
H  H7  1  0.97740000  0.83120000  0.27210000  1.0 0.1266430151
H  H8  1  0.83120000  0.97740000  0.72790000  1.0 0.1266430151
H  H9  1  0.38430000  0.37690000  0.71590000  1.0 0.1266430151
H  H10  1  0.37690000  0.38430000  0.28410000  1.0 0.1266430151
H  H11  1  0.61570000  0.62310000  0.28410000  1.0 0.1266430151
H  H12  1  0.62310000  0.61570000  0.71590000  1.0 0.1266430151
H  H13  1  0.50380000  0.32940000  0.56450000  1.0 0.118468275
H  H14  1  0.32940000  0.50380000  0.43550000  1.0 0.118468275
H  H15  1  0.49620000  0.67060000  0.43550000  1.0 0.118468275
H  H16  1  0.67060000  0.49620000  0.56450000  1.0 0.118468275
H  H17  1  0.85870000  0.30750000  0.55110000  1.0 0.118468275
H  H18  1  0.30750000  0.85870000  0.44890000  1.0 0.118468275
H  H19  1  0.14130000  0.69250000  0.44890000  1.0 0.118468275
H  H20  1  0.69250000  0.14130000  0.55110000  1.0 0.118468275
H  H21  1  0.17080000  0.56660000  0.85120000  1.0 0.1113416973
H  H22  1  0.56660000  0.17080000  0.14880000  1.0 0.1113416973
H  H23  1  0.82920000  0.43340000  0.14880000  1.0 0.1113416973
H  H24  1  0.43340000  0.82920000  0.85120000  1.0 0.1113416973
H  H25  1  0.30890000  0.45450000  0.70390000  1.0 0.1266430151
H  H26  1  0.45450000  0.30890000  0.29610000  1.0 0.1266430151
H  H27  1  0.69110000  0.54550000  0.29610000  1.0 0.1266430151
H  H28  1  0.54550000  0.69110000  0.70390000  1.0 0.1266430151
H  H29  1  0.30700000  0.09540000  0.63050000  1.0 0.1266430151
H  H30  1  0.09540000  0.30700000  0.36950000  1.0 0.1266430151
H  H31  1  0.69300000  0.90460000  0.36950000  1.0 0.1266430151
H  H32  1  0.90460000  0.69300000  0.63050000  1.0 0.1266430151
H  H33  1  0.40410000  0.32910000  0.53670000  1.0 0.1113416973
H  H34  1  0.32910000  0.40410000  0.46330000  1.0 0.1113416973
H  H35  1  0.59590000  0.67090000  0.46330000  1.0 0.1113416973
H  H36  1  0.67090000  0.59590000  0.53670000  1.0 0.1113416973
H  H37  1  0.37890000  0.16530000  0.63250000  1.0 0.1266430151
H  H38  1  0.16530000  0.37890000  0.36750000  1.0 0.1266430151
H  H39  1  0.62110000  0.83470000  0.36750000  1.0 0.1266430151
H  H40  1  0.83470000  0.62110000  0.63250000  1.0 0.1266430151
H  H41  1  0.53110000  0.20230000  0.87740000  1.0 0.1113416973
H  H42  1  0.20230000  0.53110000  0.12260000  1.0 0.1113416973
H  H43  1  0.46890000  0.79770000  0.12260000  1.0 0.1113416973
H  H44  1  0.79770000  0.46890000  0.87740000  1.0 0.1113416973
H  H45  1  0.22300000  0.61140000  0.53520000  1.0 0.118468275
H  H46  1  0.61140000  0.22300000  0.46480000  1.0 0.118468275
H  H47  1  0.77700000  0.38860000  0.46480000  1.0 0.118468275
H  H48  1  0.38860000  0.77700000  0.53520000  1.0 0.118468275
H  H49  1  0.95160000  0.30700000  0.52160000  1.0 0.118468275
H  H50  1  0.30700000  0.95160000  0.47840000  1.0 0.118468275
H  H51  1  0.04840000  0.69300000  0.47840000  1.0 0.118468275
H  H52  1  0.69300000  0.04840000  0.52160000  1.0 0.118468275
H  H53  1  0.16530000  0.47310000  0.82950000  1.0 0.118468275
H  H54  1  0.47310000  0.16530000  0.17050000  1.0 0.118468275
H  H55  1  0.83470000  0.52690000  0.17050000  1.0 0.118468275
H  H56  1  0.52690000  0.83470000  0.82950000  1.0 0.118468275
H  H57  1  0.07670000  0.47110000  0.62050000  1.0 0.1266430151
H  H58  1  0.47110000  0.07670000  0.37950000  1.0 0.1266430151
H  H59  1  0.92330000  0.52890000  0.37950000  1.0 0.1266430151
H  H60  1  0.52890000  0.92330000  0.62050000  1.0 0.1266430151
H  H61  1  0.21900000  0.51700000  0.51470000  1.0 0.118468275
H  H62  1  0.51700000  0.21900000  0.48530000  1.0 0.118468275
H  H63  1  0.78100000  0.48300000  0.48530000  1.0 0.118468275
H  H64  1  0.48300000  0.78100000  0.51470000  1.0 0.118468275
H  H65  1  0.20960000  0.97220000  0.53970000  1.0 0.1113416973
H  H66  1  0.97220000  0.20960000  0.46030000  1.0 0.1113416973
H  H67  1  0.79040000  0.02780000  0.46030000  1.0 0.1113416973
H  H68  1  0.02780000  0.79040000  0.53970000  1.0 0.1113416973
H  H69  1  0.43150000  0.20050000  0.84800000  1.0 0.118468275
H  H70  1  0.20050000  0.43150000  0.15200000  1.0 0.118468275
H  H71  1  0.56850000  0.79950000  0.15200000  1.0 0.118468275
H  H72  1  0.79950000  0.56850000  0.84800000  1.0 0.118468275
H  H73  1  0.00690000  0.39970000  0.63470000  1.0 0.1266430151
H  H74  1  0.39970000  0.00690000  0.36530000  1.0 0.1266430151
H  H75  1  0.99310000  0.60030000  0.36530000  1.0 0.1266430151
H  H76  1  0.60030000  0.99310000  0.63470000  1.0 0.1266430151
H  H77  1  0.20390000  0.07210000  0.51850000  1.0 0.1113416973
H  H78  1  0.07210000  0.20390000  0.48150000  1.0 0.1113416973
H  H79  1  0.79610000  0.92790000  0.48150000  1.0 0.1113416973
H  H80  1  0.92790000  0.79610000  0.51850000  1.0 0.1113416973
H  H81  1  0.92580000  0.26260000  0.91810000  1.0 0.0994468203
H  H82  1  0.26260000  0.92580000  0.08190000  1.0 0.0994468203
H  H83  1  0.07420000  0.73740000  0.08190000  1.0 0.0994468203
H  H84  1  0.73740000  0.07420000  0.91810000  1.0 0.0994468203
H  H85  1  0.21170000  0.94670000  0.89840000  1.0 0.0994468203
H  H86  1  0.94670000  0.21170000  0.10160000  1.0 0.0994468203
H  H87  1  0.78830000  0.05330000  0.10160000  1.0 0.0994468203
H  H88  1  0.05330000  0.78830000  0.89840000  1.0 0.0994468203
H  H89  1  0.01830000  0.26390000  0.88790000  1.0 0.118468275
H  H90  1  0.26390000  0.01830000  0.11210000  1.0 0.118468275
H  H91  1  0.98170000  0.73610000  0.11210000  1.0 0.118468275
H  H92  1  0.73610000  0.98170000  0.88790000  1.0 0.118468275
H  H93  1  0.20870000  0.04570000  0.87830000  1.0 0.118468275
H  H94  1  0.04570000  0.20870000  0.12170000  1.0 0.118468275
H  H95  1  0.79130000  0.95430000  0.12170000  1.0 0.118468275
H  H96  1  0.95430000  0.79130000  0.87830000  1.0 0.118468275
C  C1  1  0.88284000  0.28444000  0.73710000  1.0 -0.0461829272
C  C2  1  0.28444000  0.88284000  0.26290000  1.0 -0.0461829272
C  C3  1  0.11716000  0.71556000  0.26290000  1.0 -0.0461829272
C  C4  1  0.71556000  0.11716000  0.73710000  1.0 -0.0461829272
C  C5  1  0.22045000  0.88559000  0.73830000  1.0 0.5929810363
C  C6  1  0.88559000  0.22045000  0.26170000  1.0 0.5929810363
C  C7  1  0.77955000  0.11441000  0.26170000  1.0 0.5929810363
C  C8  1  0.11441000  0.77955000  0.73830000  1.0 0.5929810363
C  C9  1  0.24806000  0.39320000  0.67470000  1.0 0.1803871277
C  C10  1  0.39320000  0.24806000  0.32530000  1.0 0.1803871277
C  C11  1  0.75194000  0.60680000  0.32530000  1.0 0.1803871277
C  C12  1  0.60680000  0.75194000  0.67470000  1.0 0.1803871277
C  C13  1  0.15195000  0.16021000  0.69950000  1.0 0.1803871277
C  C14  1  0.16021000  0.15195000  0.30050000  1.0 0.1803871277
C  C15  1  0.84805000  0.83979000  0.30050000  1.0 0.1803871277
C  C16  1  0.83979000  0.84805000  0.69950000  1.0 0.1803871277
C  C17  1  0.82373000  0.28375000  0.75880000  1.0 0.6120792735
C  C18  1  0.28375000  0.82373000  0.24120000  1.0 0.6120792735
C  C19  1  0.17627000  0.71625000  0.24120000  1.0 0.6120792735
C  C20  1  0.71625000  0.17627000  0.75880000  1.0 0.6120792735
C  C21  1  0.59053000  0.27161000  0.74660000  1.0 0.5985234934
C  C22  1  0.27161000  0.59053000  0.25340000  1.0 0.5985234934
C  C23  1  0.40947000  0.72839000  0.25340000  1.0 0.5985234934
C  C24  1  0.72839000  0.40947000  0.74660000  1.0 0.5985234934
C  C25  1  0.52694000  0.26764000  0.72540000  1.0 -0.0275500868
C  C26  1  0.26764000  0.52694000  0.27460000  1.0 -0.0275500868
C  C27  1  0.47306000  0.73236000  0.27460000  1.0 -0.0275500868
C  C28  1  0.73236000  0.47306000  0.72540000  1.0 -0.0275500868
C  C29  1  0.07888000  0.33530000  0.66480000  1.0 0.188493486
C  C30  1  0.33530000  0.07888000  0.33520000  1.0 0.188493486
C  C31  1  0.92112000  0.66470000  0.33520000  1.0 0.188493486
C  C32  1  0.66470000  0.92112000  0.66480000  1.0 0.188493486
C  C33  1  0.34324000  0.27132000  0.68040000  1.0 -0.0637049996
C  C34  1  0.27132000  0.34324000  0.31960000  1.0 -0.0637049996
C  C35  1  0.65676000  0.72868000  0.31960000  1.0 -0.0637049996
C  C36  1  0.72868000  0.65676000  0.68040000  1.0 -0.0637049996
C  C37  1  0.31593000  0.32431000  0.68470000  1.0 0.1738311979
C  C38  1  0.32431000  0.31593000  0.31530000  1.0 0.1738311979
C  C39  1  0.68407000  0.67569000  0.31530000  1.0 0.1738311979
C  C40  1  0.67569000  0.68407000  0.68470000  1.0 0.1738311979
C  C41  1  0.20623000  0.06907000  0.69710000  1.0 0.0994468203
C  C42  1  0.06907000  0.20623000  0.30290000  1.0 0.0994468203
C  C43  1  0.79377000  0.93093000  0.30290000  1.0 0.0994468203
C  C44  1  0.93093000  0.79377000  0.69710000  1.0 0.0994468203
C  C45  1  0.10146000  0.13206000  0.71790000  1.0 -0.1972565581
C  C46  1  0.13206000  0.10146000  0.28210000  1.0 -0.1972565581
C  C47  1  0.89854000  0.86794000  0.28210000  1.0 -0.1972565581
C  C48  1  0.86794000  0.89854000  0.71790000  1.0 -0.1972565581
C  C49  1  0.05561000  0.28245000  0.68700000  1.0 -0.073569572
C  C50  1  0.28245000  0.05561000  0.31300000  1.0 -0.073569572
C  C51  1  0.94439000  0.71755000  0.31300000  1.0 -0.073569572
C  C52  1  0.71755000  0.94439000  0.68700000  1.0 -0.073569572
C  C53  1  0.31529000  0.22217000  0.66640000  1.0 0.188493486
C  C54  1  0.22217000  0.31529000  0.33360000  1.0 0.188493486
C  C55  1  0.68471000  0.77783000  0.33360000  1.0 0.188493486
C  C56  1  0.77783000  0.68471000  0.66640000  1.0 0.188493486
C  C57  1  0.20669000  0.65665000  0.71850000  1.0 0.617840867
C  C58  1  0.65665000  0.20669000  0.28150000  1.0 0.617840867
C  C59  1  0.79331000  0.34335000  0.28150000  1.0 0.617840867
C  C60  1  0.34335000  0.79331000  0.71850000  1.0 0.617840867
C  C61  1  0.19417000  0.42291000  0.66520000  1.0 -0.073569572
C  C62  1  0.42291000  0.19417000  0.33480000  1.0 -0.073569572
C  C63  1  0.80583000  0.57709000  0.33480000  1.0 -0.073569572
C  C64  1  0.57709000  0.80583000  0.66520000  1.0 -0.073569572
C  C65  1  0.19977000  0.59769000  0.69860000  1.0 -0.0377168041
C  C66  1  0.59769000  0.19977000  0.30140000  1.0 -0.0377168041
C  C67  1  0.80023000  0.40231000  0.30140000  1.0 -0.0377168041
C  C68  1  0.40231000  0.80023000  0.69860000  1.0 -0.0377168041
C  C69  1  0.99499000  0.28387000  0.70210000  1.0 0.0926486622
C  C70  1  0.28387000  0.99499000  0.29790000  1.0 0.0926486622
C  C71  1  0.00501000  0.71613000  0.29790000  1.0 0.0926486622
C  C72  1  0.71613000  0.00501000  0.70210000  1.0 0.0926486622
C  C73  1  0.25112000  0.16026000  0.66520000  1.0 0.188493486
C  C74  1  0.16026000  0.25112000  0.33480000  1.0 0.188493486
C  C75  1  0.74888000  0.83974000  0.33480000  1.0 0.188493486
C  C76  1  0.83974000  0.74888000  0.66520000  1.0 0.188493486
C  C77  1  0.20279000  0.13295000  0.68500000  1.0 -0.0756921661
C  C78  1  0.13295000  0.20279000  0.31500000  1.0 -0.0756921661
C  C79  1  0.79721000  0.86705000  0.31500000  1.0 -0.0756921661
C  C80  1  0.86705000  0.79721000  0.68500000  1.0 -0.0756921661
C  C81  1  0.08519000  0.22783000  0.70190000  1.0 0.1738311979
C  C82  1  0.22783000  0.08519000  0.29810000  1.0 0.1738311979
C  C83  1  0.91481000  0.77217000  0.29810000  1.0 0.1738311979
C  C84  1  0.77217000  0.91481000  0.70190000  1.0 0.1738311979
C  C85  1  0.21440000  0.94946000  0.72160000  1.0 -0.0377168041
C  C86  1  0.94946000  0.21440000  0.27840000  1.0 -0.0377168041
C  C87  1  0.78560000  0.05054000  0.27840000  1.0 -0.0377168041
C  C88  1  0.05054000  0.78560000  0.72160000  1.0 -0.0377168041
C  C89  1  0.14163000  0.39877000  0.65600000  1.0 0.188493486
C  C90  1  0.39877000  0.14163000  0.34400000  1.0 0.188493486
C  C91  1  0.85837000  0.60123000  0.34400000  1.0 0.188493486
C  C92  1  0.60123000  0.85837000  0.65600000  1.0 0.188493486
C  C93  1  0.06047000  0.17405000  0.71840000  1.0 -0.1919687342
C  C94  1  0.17405000  0.06047000  0.28160000  1.0 -0.1919687342
C  C95  1  0.93953000  0.82595000  0.28160000  1.0 -0.1919687342
C  C96  1  0.82595000  0.93953000  0.71840000  1.0 -0.1919687342
C  C97  1  0.40695000  0.26741000  0.69310000  1.0 0.0926486622
C  C98  1  0.26741000  0.40695000  0.30690000  1.0 0.0926486622
C  C99  1  0.59305000  0.73259000  0.30690000  1.0 0.0926486622
C  C100  1  0.73259000  0.59305000  0.69310000  1.0 0.0926486622
C  C101  1  0.34397000  0.37435000  0.70230000  1.0 -0.1919687342
C  C102  1  0.37435000  0.34397000  0.29770000  1.0 -0.1919687342
C  C103  1  0.65603000  0.62565000  0.29770000  1.0 -0.1919687342
C  C104  1  0.62565000  0.65603000  0.70230000  1.0 -0.1919687342
C  C105  1  0.19308000  0.48470000  0.67110000  1.0 0.0926486622
C  C106  1  0.48470000  0.19308000  0.32890000  1.0 0.0926486622
C  C107  1  0.80692000  0.51530000  0.32890000  1.0 0.0926486622
C  C108  1  0.51530000  0.80692000  0.67110000  1.0 0.0926486622
C  C109  1  0.48926000  0.30400000  0.62400000  1.0 -0.1007374585
C  C110  1  0.30400000  0.48926000  0.37600000  1.0 -0.1007374585
C  C111  1  0.51074000  0.69600000  0.37600000  1.0 -0.1007374585
C  C112  1  0.69600000  0.51074000  0.62400000  1.0 -0.1007374585
C  C113  1  0.89113000  0.29785000  0.62080000  1.0 -0.0906286281
C  C114  1  0.29785000  0.89113000  0.37920000  1.0 -0.0906286281
C  C115  1  0.10887000  0.70215000  0.37920000  1.0 -0.0906286281
C  C116  1  0.70215000  0.10887000  0.62080000  1.0 -0.0906286281
C  C117  1  0.18131000  0.55639000  0.78330000  1.0 -0.1007374585
C  C118  1  0.55639000  0.18131000  0.21670000  1.0 -0.1007374585
C  C119  1  0.81869000  0.44361000  0.21670000  1.0 -0.1007374585
C  C120  1  0.44361000  0.81869000  0.78330000  1.0 -0.1007374585
C  C121  1  0.30307000  0.41653000  0.69600000  1.0 -0.1837947261
C  C122  1  0.41653000  0.30307000  0.30400000  1.0 -0.1837947261
C  C123  1  0.69693000  0.58347000  0.30400000  1.0 -0.1837947261
C  C124  1  0.58347000  0.69693000  0.69600000  1.0 -0.1837947261
C  C125  1  0.30210000  0.13302000  0.64320000  1.0 -0.1919687342
C  C126  1  0.13302000  0.30210000  0.35680000  1.0 -0.1919687342
C  C127  1  0.69790000  0.86698000  0.35680000  1.0 -0.1919687342
C  C128  1  0.86698000  0.69790000  0.64320000  1.0 -0.1919687342
C  C129  1  0.42966000  0.30380000  0.60770000  1.0 -0.1495671916
C  C130  1  0.30380000  0.42966000  0.39230000  1.0 -0.1495671916
C  C131  1  0.57034000  0.69620000  0.39230000  1.0 -0.1495671916
C  C132  1  0.69620000  0.57034000  0.60770000  1.0 -0.1495671916
C  C133  1  0.34116000  0.17106000  0.64430000  1.0 -0.1919687342
C  C134  1  0.17106000  0.34116000  0.35570000  1.0 -0.1919687342
C  C135  1  0.65884000  0.82894000  0.35570000  1.0 -0.1919687342
C  C136  1  0.82894000  0.65884000  0.64430000  1.0 -0.1919687342
C  C137  1  0.50521000  0.22863000  0.80860000  1.0 -0.1061106627
C  C138  1  0.22863000  0.50521000  0.19140000  1.0 -0.1061106627
C  C139  1  0.49479000  0.77137000  0.19140000  1.0 -0.1061106627
C  C140  1  0.77137000  0.49479000  0.80860000  1.0 -0.1061106627
C  C141  1  0.21241000  0.58299000  0.59640000  1.0 -0.1007374585
C  C142  1  0.58299000  0.21241000  0.40360000  1.0 -0.1007374585
C  C143  1  0.78759000  0.41701000  0.40360000  1.0 -0.1007374585
C  C144  1  0.41701000  0.78759000  0.59640000  1.0 -0.1007374585
C  C145  1  0.94673000  0.29753000  0.60330000  1.0 -0.1418544282
C  C146  1  0.29753000  0.94673000  0.39670000  1.0 -0.1418544282
C  C147  1  0.05327000  0.70247000  0.39670000  1.0 -0.1418544282
C  C148  1  0.70247000  0.05327000  0.60330000  1.0 -0.1418544282
C  C149  1  0.17798000  0.50074000  0.77050000  1.0 -0.1495671916
C  C150  1  0.50074000  0.17798000  0.22950000  1.0 -0.1495671916
C  C151  1  0.82202000  0.49926000  0.22950000  1.0 -0.1495671916
C  C152  1  0.49926000  0.82202000  0.77050000  1.0 -0.1495671916
C  C153  1  0.08528000  0.43036000  0.63590000  1.0 -0.1972565581
C  C154  1  0.43036000  0.08528000  0.36410000  1.0 -0.1972565581
C  C155  1  0.91472000  0.56964000  0.36410000  1.0 -0.1972565581
C  C156  1  0.56964000  0.91472000  0.63590000  1.0 -0.1972565581
C  C157  1  0.20954000  0.52682000  0.58390000  1.0 -0.1495671916
C  C158  1  0.52682000  0.20954000  0.41610000  1.0 -0.1495671916
C  C159  1  0.79046000  0.47318000  0.41610000  1.0 -0.1495671916
C  C160  1  0.47318000  0.79046000  0.58390000  1.0 -0.1495671916
C  C161  1  0.21007000  0.98693000  0.60990000  1.0 -0.0906286281
C  C162  1  0.98693000  0.21007000  0.39010000  1.0 -0.0906286281
C  C163  1  0.78993000  0.01307000  0.39010000  1.0 -0.0906286281
C  C164  1  0.01307000  0.78993000  0.60990000  1.0 -0.0906286281
C  C165  1  0.44578000  0.22804000  0.79170000  1.0 -0.1495671916
C  C166  1  0.22804000  0.44578000  0.20830000  1.0 -0.1495671916
C  C167  1  0.55422000  0.77196000  0.20830000  1.0 -0.1495671916
C  C168  1  0.77196000  0.55422000  0.79170000  1.0 -0.1495671916
C  C169  1  0.04713000  0.39159000  0.64280000  1.0 -0.1919687342
C  C170  1  0.39159000  0.04713000  0.35720000  1.0 -0.1919687342
C  C171  1  0.95287000  0.60841000  0.35720000  1.0 -0.1919687342
C  C172  1  0.60841000  0.95287000  0.64280000  1.0 -0.1919687342
C  C173  1  0.20634000  0.04678000  0.59690000  1.0 -0.1418544282
C  C174  1  0.04678000  0.20634000  0.40310000  1.0 -0.1418544282
C  C175  1  0.79366000  0.95322000  0.40310000  1.0 -0.1418544282
C  C176  1  0.95322000  0.79366000  0.59690000  1.0 -0.1418544282
C  C177  1  0.93074000  0.27168000  0.83640000  1.0 -0.1184115154
C  C178  1  0.27168000  0.93074000  0.16360000  1.0 -0.1184115154
C  C179  1  0.06926000  0.72832000  0.16360000  1.0 -0.1184115154
C  C180  1  0.72832000  0.06926000  0.83640000  1.0 -0.1184115154
C  C181  1  0.23520000  0.23520000  0.00000000  1.0 0.6491516936
C  C182  1  0.76480000  0.76480000  0.00000000  1.0 0.6491516936
C  C183  1  0.21164000  0.97184000  0.82130000  1.0 -0.1184115154
C  C184  1  0.97184000  0.21164000  0.17870000  1.0 -0.1184115154
C  C185  1  0.78836000  0.02816000  0.17870000  1.0 -0.1184115154
C  C186  1  0.02816000  0.78836000  0.82130000  1.0 -0.1184115154
C  C187  1  0.98598000  0.27206000  0.81820000  1.0 -0.1495671916
C  C188  1  0.27206000  0.98598000  0.18180000  1.0 -0.1495671916
C  C189  1  0.01402000  0.72794000  0.18180000  1.0 -0.1495671916
C  C190  1  0.72794000  0.01402000  0.81820000  1.0 -0.1495671916
C  C191  1  0.20883000  0.03099000  0.80830000  1.0 -0.1495671916
C  C192  1  0.03099000  0.20883000  0.19170000  1.0 -0.1495671916
C  C193  1  0.79117000  0.96901000  0.19170000  1.0 -0.1495671916
C  C194  1  0.96901000  0.79117000  0.80830000  1.0 -0.1495671916
N  N1  1  0.25750000  0.33676000  0.66990000  1.0 -0.3909846139
N  N2  1  0.33676000  0.25750000  0.33010000  1.0 -0.3909846139
N  N3  1  0.74250000  0.66324000  0.33010000  1.0 -0.3909846139
N  N4  1  0.66324000  0.74250000  0.66990000  1.0 -0.3909846139
N  N5  1  0.25984000  0.21536000  0.67290000  1.0 -0.381503467
N  N6  1  0.21536000  0.25984000  0.32710000  1.0 -0.381503467
N  N7  1  0.74016000  0.78464000  0.32710000  1.0 -0.381503467
N  N8  1  0.78464000  0.74016000  0.67290000  1.0 -0.381503467
N  N9  1  0.13586000  0.34122000  0.66930000  1.0 -0.381503467
N  N10  1  0.34122000  0.13586000  0.33070000  1.0 -0.381503467
N  N11  1  0.86414000  0.65878000  0.33070000  1.0 -0.381503467
N  N12  1  0.65878000  0.86414000  0.66930000  1.0 -0.381503467
N  N13  1  0.14120000  0.21822000  0.69150000  1.0 -0.3991544437
N  N14  1  0.21822000  0.14120000  0.30850000  1.0 -0.3991544437
N  N15  1  0.85880000  0.78178000  0.30850000  1.0 -0.3991544437
N  N16  1  0.78178000  0.85880000  0.69150000  1.0 -0.3991544437
N  N17  1  0.68915000  0.31085000  0.01710000  1.0 0.7337246346
N  N18  1  0.31085000  0.68915000  0.98290000  1.0 0.7337246346
O  O1  1  0.22515000  0.69351000  0.64150000  1.0 -0.7186097693
O  O2  1  0.69351000  0.22515000  0.35850000  1.0 -0.7186097693
O  O3  1  0.77485000  0.30649000  0.35850000  1.0 -0.7186097693
O  O4  1  0.30649000  0.77485000  0.64150000  1.0 -0.7186097693
O  O5  1  0.77977000  0.30229000  0.66900000  1.0 -0.6812888128
O  O6  1  0.30229000  0.77977000  0.33100000  1.0 -0.6812888128
O  O7  1  0.22023000  0.69771000  0.33100000  1.0 -0.6812888128
O  O8  1  0.69771000  0.22023000  0.66900000  1.0 -0.6812888128
O  O9  1  0.72932000  0.27068000  0.01300000  1.0 -0.7798659694
O  O10  1  0.27068000  0.72932000  0.98700000  1.0 -0.7798659694
O  O11  1  0.81836000  0.26530000  0.86810000  1.0 -0.7408170295
O  O12  1  0.26530000  0.81836000  0.13190000  1.0 -0.7408170295
O  O13  1  0.18164000  0.73470000  0.13190000  1.0 -0.7408170295
O  O14  1  0.73470000  0.18164000  0.86810000  1.0 -0.7408170295
O  O15  1  0.21797000  0.86491000  0.64660000  1.0 -0.5793330115
O  O16  1  0.86491000  0.21797000  0.35340000  1.0 -0.5793330115
O  O17  1  0.78203000  0.13509000  0.35340000  1.0 -0.5793330115
O  O18  1  0.13509000  0.78203000  0.64660000  1.0 -0.5793330115
O  O19  1  0.60835000  0.30995000  0.67250000  1.0 -0.6040735286
O  O20  1  0.30995000  0.60835000  0.32750000  1.0 -0.6040735286
O  O21  1  0.39165000  0.69005000  0.32750000  1.0 -0.6040735286
O  O22  1  0.69005000  0.39165000  0.67250000  1.0 -0.6040735286
O  O23  1  0.22861000  0.85263000  0.84630000  1.0 -0.7501370055
O  O24  1  0.85263000  0.22861000  0.15370000  1.0 -0.7501370055
O  O25  1  0.77139000  0.14737000  0.15370000  1.0 -0.7501370055
O  O26  1  0.14737000  0.77139000  0.84630000  1.0 -0.7501370055
O  O27  1  0.68495000  0.31505000  0.12160000  1.0 -0.423428182
O  O28  1  0.31505000  0.68495000  0.87840000  1.0 -0.423428182
O  O29  1  0.19570000  0.66874000  0.81220000  1.0 -0.6901390446
O  O30  1  0.66874000  0.19570000  0.18780000  1.0 -0.6901390446
O  O31  1  0.80430000  0.33126000  0.18780000  1.0 -0.6901390446
O  O32  1  0.33126000  0.80430000  0.81220000  1.0 -0.6901390446
O  O33  1  0.65855000  0.34145000  0.91190000  1.0 -0.4459255678
O  O34  1  0.34145000  0.65855000  0.08810000  1.0 -0.4459255678
O  O35  1  0.62558000  0.23880000  0.84020000  1.0 -0.7039742859
O  O36  1  0.23880000  0.62558000  0.15980000  1.0 -0.7039742859
O  O37  1  0.37442000  0.76120000  0.15980000  1.0 -0.7039742859
O  O38  1  0.76120000  0.37442000  0.84020000  1.0 -0.7051235032
O  O39  1  0.23061000  0.25745000  0.89670000  1.0 -0.3696172428
O  O40  1  0.25745000  0.23061000  0.10330000  1.0 -0.3696172428
O  O41  1  0.76939000  0.74255000  0.10330000  1.0 -0.3696172428
O  O42  1  0.74255000  0.76939000  0.89670000  1.0 -0.3696172428
