# DDEC6 charges by PACMAN v1.1 (https://github.com/mtap-research/PACMAN-charge/)
data_DOMGAP_ASR_pacman
_symmetry_space_group_name_H-M   'P 1'
_cell_length_a   23.93900000
_cell_length_b   23.93900000
_cell_length_c   11.51060000
_cell_angle_alpha   76.43000000
_cell_angle_beta   103.57000000
_cell_angle_gamma   86.85010000
_symmetry_Int_Tables_number   1
_chemical_formula_structural   Na4Gd2Zn2H48C97N9O23
_chemical_formula_sum   'Na8 Gd4 Zn4 H96 C194 N18 O46'
_cell_volume   6190.91460688
_cell_formula_units_Z   2
loop_
 _symmetry_equiv_pos_site_id
 _symmetry_equiv_pos_as_xyz
  1  'x, y, z'
loop_
 _atom_site_type_symbol
 _atom_site_label
 _atom_site_symmetry_multiplicity
 _atom_site_fract_x
 _atom_site_fract_y
 _atom_site_fract_z
 _atom_site_occupancy
 _atom_site_charge
Na  Na1  1  0.32963000  0.82597000  0.01239000  1.0 0.8794872206
Na  Na2  1  0.82597000  0.32963000  0.98761000  1.0 0.8794872206
Na  Na3  1  0.67037000  0.17403000  0.98761000  1.0 0.8794872206
Na  Na4  1  0.17403000  0.67037000  0.01239000  1.0 0.8794872206
Na  Na5  1  0.23424000  0.76576000  0.50883000  1.0 0.8895780287
Na  Na6  1  0.76576000  0.23424000  0.49117000  1.0 0.8895780287
Na  Na7  1  0.67558000  0.32442000  0.99281000  1.0 0.8794872206
Na  Na8  1  0.32442000  0.67558000  0.00719000  1.0 0.8794872206
Gd  Gd1  1  0.79232000  0.20768000  0.20684000  1.0 1.9100348793
Gd  Gd2  1  0.20768000  0.79232000  0.79316000  1.0 1.9100348793
Gd  Gd3  1  0.73695000  0.26305000  0.76756000  1.0 1.9160368285
Gd  Gd4  1  0.26305000  0.73695000  0.23244000  1.0 1.9160368285
Zn  Zn1  1  0.29762000  0.22554000  0.29359000  1.0 0.6452808819
Zn  Zn2  1  0.22554000  0.29762000  0.70641000  1.0 0.6452808819
Zn  Zn3  1  0.70238000  0.77446000  0.70641000  1.0 0.6452808819
Zn  Zn4  1  0.77446000  0.70238000  0.29359000  1.0 0.6452808819
H  H1  1  0.64100000  0.19240000  0.44880000  1.0 0.1195013359
H  H2  1  0.19240000  0.64100000  0.55120000  1.0 0.1195013359
H  H3  1  0.35900000  0.80760000  0.55120000  1.0 0.1195013359
H  H4  1  0.80760000  0.35900000  0.44880000  1.0 0.1195013359
H  H5  1  0.99720000  0.17020000  0.43630000  1.0 0.1195013359
H  H6  1  0.17020000  0.99720000  0.56370000  1.0 0.1195013359
H  H7  1  0.00280000  0.82980000  0.56370000  1.0 0.1195013359
H  H8  1  0.82980000  0.00280000  0.43630000  1.0 0.1195013359
H  H9  1  0.32860000  0.93420000  0.14750000  1.0 0.1102138762
H  H10  1  0.93420000  0.32860000  0.85250000  1.0 0.1102138762
H  H11  1  0.67140000  0.06580000  0.85250000  1.0 0.1102138762
H  H12  1  0.06580000  0.67140000  0.14750000  1.0 0.1102138762
H  H13  1  0.47780000  0.33180000  0.27420000  1.0 0.1278053024
H  H14  1  0.33180000  0.47780000  0.72580000  1.0 0.1278053024
H  H15  1  0.52220000  0.66820000  0.72580000  1.0 0.1278053024
H  H16  1  0.66820000  0.52220000  0.27420000  1.0 0.1278053024
H  H17  1  0.27620000  0.88920000  0.46290000  1.0 0.1195013359
H  H18  1  0.88920000  0.27620000  0.53710000  1.0 0.1195013359
H  H19  1  0.72380000  0.11080000  0.53710000  1.0 0.1195013359
H  H20  1  0.11080000  0.72380000  0.46290000  1.0 0.1195013359
H  H21  1  0.54790000  0.19350000  0.47790000  1.0 0.1195013359
H  H22  1  0.19350000  0.54790000  0.52210000  1.0 0.1195013359
H  H23  1  0.45210000  0.80650000  0.52210000  1.0 0.1195013359
H  H24  1  0.80650000  0.45210000  0.47790000  1.0 0.1195013359
H  H25  1  0.19370000  0.40410000  0.36960000  1.0 0.1195013359
H  H26  1  0.40410000  0.19370000  0.63040000  1.0 0.1195013359
H  H27  1  0.80630000  0.59590000  0.63040000  1.0 0.1195013359
H  H28  1  0.59590000  0.80630000  0.36960000  1.0 0.1195013359
H  H29  1  0.33470000  0.02810000  0.17050000  1.0 0.1195013359
H  H30  1  0.02810000  0.33470000  0.82950000  1.0 0.1195013359
H  H31  1  0.66530000  0.97190000  0.82950000  1.0 0.1195013359
H  H32  1  0.97190000  0.66530000  0.17050000  1.0 0.1195013359
H  H33  1  0.19090000  0.04530000  0.29660000  1.0 0.1278053024
H  H34  1  0.04530000  0.19090000  0.70340000  1.0 0.1278053024
H  H35  1  0.80910000  0.95470000  0.70340000  1.0 0.1278053024
H  H36  1  0.95470000  0.80910000  0.29660000  1.0 0.1278053024
H  H37  1  0.40310000  0.40810000  0.27430000  1.0 0.1278053024
H  H38  1  0.40810000  0.40310000  0.72570000  1.0 0.1278053024
H  H39  1  0.59690000  0.59190000  0.72570000  1.0 0.1278053024
H  H40  1  0.59190000  0.59690000  0.27430000  1.0 0.1278053024
H  H41  1  0.12160000  0.33380000  0.36700000  1.0 0.1278053024
H  H42  1  0.33380000  0.12160000  0.63300000  1.0 0.1278053024
H  H43  1  0.87840000  0.66620000  0.63300000  1.0 0.1278053024
H  H44  1  0.66620000  0.87840000  0.36700000  1.0 0.1278053024
H  H45  1  0.96970000  0.29830000  0.12390000  1.0 0.1102138762
H  H46  1  0.29830000  0.96970000  0.87610000  1.0 0.1102138762
H  H47  1  0.03030000  0.70170000  0.87610000  1.0 0.1102138762
H  H48  1  0.70170000  0.03030000  0.12390000  1.0 0.1102138762
H  H49  1  0.11540000  0.12280000  0.28330000  1.0 0.1278053024
H  H50  1  0.12280000  0.11540000  0.71670000  1.0 0.1278053024
H  H51  1  0.88460000  0.87720000  0.71670000  1.0 0.1278053024
H  H52  1  0.87720000  0.88460000  0.28330000  1.0 0.1278053024
H  H53  1  0.42230000  0.02970000  0.37600000  1.0 0.1195013359
H  H54  1  0.02970000  0.42230000  0.62400000  1.0 0.1195013359
H  H55  1  0.57770000  0.97030000  0.62400000  1.0 0.1195013359
H  H56  1  0.97030000  0.57770000  0.37600000  1.0 0.1195013359
H  H57  1  0.28100000  0.98340000  0.48440000  1.0 0.1195013359
H  H58  1  0.98340000  0.28100000  0.51560000  1.0 0.1195013359
H  H59  1  0.71900000  0.01660000  0.51560000  1.0 0.1195013359
H  H60  1  0.01660000  0.71900000  0.48440000  1.0 0.1195013359
H  H61  1  0.09650000  0.16990000  0.46270000  1.0 0.1102138762
H  H62  1  0.16990000  0.09650000  0.53730000  1.0 0.1102138762
H  H63  1  0.90350000  0.83010000  0.53730000  1.0 0.1102138762
H  H64  1  0.83010000  0.90350000  0.46270000  1.0 0.1102138762
H  H65  1  0.29090000  0.52690000  0.45970000  1.0 0.1195013359
H  H66  1  0.52690000  0.29090000  0.54030000  1.0 0.1195013359
H  H67  1  0.70910000  0.47310000  0.54030000  1.0 0.1195013359
H  H68  1  0.47310000  0.70910000  0.45970000  1.0 0.1195013359
H  H69  1  0.57330000  0.23670000  0.08170000  1.0 0.0987070985
H  H70  1  0.23670000  0.57330000  0.91830000  1.0 0.0987070985
H  H71  1  0.42670000  0.76330000  0.91830000  1.0 0.0987070985
H  H72  1  0.76330000  0.42670000  0.08170000  1.0 0.0987070985
H  H73  1  0.06930000  0.29890000  0.15170000  1.0 0.1195013359
H  H74  1  0.29890000  0.06930000  0.84830000  1.0 0.1195013359
H  H75  1  0.93070000  0.70110000  0.84830000  1.0 0.1195013359
H  H76  1  0.70110000  0.93070000  0.15170000  1.0 0.1195013359
H  H77  1  0.48080000  0.23740000  0.11150000  1.0 0.1195013359
H  H78  1  0.23740000  0.48080000  0.88850000  1.0 0.1195013359
H  H79  1  0.51920000  0.76260000  0.88850000  1.0 0.1195013359
H  H80  1  0.76260000  0.51920000  0.11150000  1.0 0.1195013359
H  H81  1  0.49280000  0.10160000  0.36390000  1.0 0.1278053024
H  H82  1  0.10160000  0.49280000  0.63610000  1.0 0.1278053024
H  H83  1  0.50720000  0.89840000  0.63610000  1.0 0.1278053024
H  H84  1  0.89840000  0.50720000  0.36390000  1.0 0.1278053024
H  H85  1  0.29580000  0.42740000  0.47980000  1.0 0.1195013359
H  H86  1  0.42740000  0.29580000  0.52020000  1.0 0.1195013359
H  H87  1  0.70420000  0.57260000  0.52020000  1.0 0.1195013359
H  H88  1  0.57260000  0.70420000  0.47980000  1.0 0.1195013359
H  H89  1  0.28770000  0.55330000  0.10080000  1.0 0.0987070985
H  H90  1  0.55330000  0.28770000  0.89920000  1.0 0.0987070985
H  H91  1  0.71230000  0.44670000  0.89920000  1.0 0.0987070985
H  H92  1  0.44670000  0.71230000  0.10080000  1.0 0.0987070985
H  H93  1  0.29220000  0.45360000  0.12230000  1.0 0.1195013359
H  H94  1  0.45360000  0.29220000  0.87770000  1.0 0.1195013359
H  H95  1  0.70780000  0.54640000  0.87770000  1.0 0.1195013359
H  H96  1  0.54640000  0.70780000  0.12230000  1.0 0.1195013359
C  C1  1  0.67554000  0.21622000  0.24050000  1.0 0.60833387
C  C2  1  0.21622000  0.67554000  0.75950000  1.0 0.60833387
C  C3  1  0.32446000  0.78378000  0.75950000  1.0 0.60833387
C  C4  1  0.78378000  0.32446000  0.24050000  1.0 0.60833387
C  C5  1  0.61628000  0.21632000  0.26220000  1.0 -0.0426992093
C  C6  1  0.21632000  0.61628000  0.73780000  1.0 -0.0426992093
C  C7  1  0.38372000  0.78368000  0.73780000  1.0 -0.0426992093
C  C8  1  0.78368000  0.38372000  0.26220000  1.0 -0.0426992093
C  C9  1  0.27946000  0.61382000  0.26140000  1.0 0.5912368737
C  C10  1  0.61382000  0.27946000  0.73860000  1.0 0.5912368737
C  C11  1  0.72054000  0.38618000  0.73860000  1.0 0.5912368737
C  C12  1  0.38618000  0.72054000  0.26140000  1.0 0.5912368737
C  C13  1  0.29373000  0.84397000  0.28190000  1.0 0.6161832354
C  C14  1  0.84397000  0.29373000  0.71810000  1.0 0.6161832354
C  C15  1  0.70627000  0.15603000  0.71810000  1.0 0.6161832354
C  C16  1  0.15603000  0.70627000  0.28190000  1.0 0.6161832354
C  C17  1  0.91006000  0.22884000  0.25440000  1.0 0.5954165302
C  C18  1  0.22884000  0.91006000  0.74560000  1.0 0.5954165302
C  C19  1  0.08994000  0.77116000  0.74560000  1.0 0.5954165302
C  C20  1  0.77116000  0.08994000  0.25440000  1.0 0.5954165302
C  C21  1  0.28563000  0.54973000  0.27770000  1.0 -0.0309651334
C  C22  1  0.54973000  0.28563000  0.72230000  1.0 -0.0309651334
C  C23  1  0.71437000  0.45027000  0.72230000  1.0 -0.0309651334
C  C24  1  0.45027000  0.71437000  0.27770000  1.0 -0.0309651334
C  C25  1  0.30067000  0.90299000  0.30110000  1.0 -0.0426992093
C  C26  1  0.90299000  0.30067000  0.69890000  1.0 -0.0426992093
C  C27  1  0.69933000  0.09701000  0.69890000  1.0 -0.0426992093
C  C28  1  0.09701000  0.69933000  0.30110000  1.0 -0.0426992093
C  C29  1  0.18434000  0.17552000  0.31460000  1.0 0.1673330856
C  C30  1  0.17552000  0.18434000  0.68540000  1.0 0.1673330856
C  C31  1  0.81566000  0.82448000  0.68540000  1.0 0.1673330856
C  C32  1  0.82448000  0.81566000  0.31460000  1.0 0.1673330856
C  C33  1  0.97378000  0.23260000  0.27570000  1.0 -0.0309651334
C  C34  1  0.23260000  0.97378000  0.72430000  1.0 -0.0309651334
C  C35  1  0.02622000  0.76740000  0.72430000  1.0 -0.0309651334
C  C36  1  0.76740000  0.02622000  0.27570000  1.0 -0.0309651334
C  C37  1  0.44423000  0.21831000  0.31280000  1.0 -0.0808992245
C  C38  1  0.21831000  0.44423000  0.68720000  1.0 -0.0808992245
C  C39  1  0.55577000  0.78169000  0.68720000  1.0 -0.0808992245
C  C40  1  0.78169000  0.55577000  0.31280000  1.0 -0.0808992245
C  C41  1  0.25164000  0.10720000  0.32350000  1.0 0.1814151373
C  C42  1  0.10720000  0.25164000  0.67650000  1.0 0.1814151373
C  C43  1  0.74836000  0.89280000  0.67650000  1.0 0.1814151373
C  C44  1  0.89280000  0.74836000  0.32350000  1.0 0.1814151373
C  C45  1  0.29790000  0.36676000  0.31510000  1.0 -0.0808992245
C  C46  1  0.36676000  0.29790000  0.68490000  1.0 -0.0808992245
C  C47  1  0.70210000  0.63324000  0.68490000  1.0 -0.0808992245
C  C48  1  0.63324000  0.70210000  0.31510000  1.0 -0.0808992245
C  C49  1  0.42063000  0.16563000  0.33380000  1.0 0.1862315714
C  C50  1  0.16563000  0.42063000  0.66620000  1.0 0.1862315714
C  C51  1  0.57937000  0.83437000  0.66620000  1.0 0.1862315714
C  C52  1  0.83437000  0.57937000  0.33380000  1.0 0.1862315714
C  C53  1  0.24941000  0.33931000  0.33440000  1.0 0.1814151373
C  C54  1  0.33931000  0.24941000  0.66560000  1.0 0.1814151373
C  C55  1  0.75059000  0.66069000  0.66560000  1.0 0.1814151373
C  C56  1  0.66069000  0.75059000  0.33440000  1.0 0.1814151373
C  C57  1  0.30547000  0.07749000  0.33390000  1.0 -0.0808992245
C  C58  1  0.07749000  0.30547000  0.66610000  1.0 -0.0808992245
C  C59  1  0.69453000  0.92251000  0.66610000  1.0 -0.0808992245
C  C60  1  0.92251000  0.69453000  0.33390000  1.0 -0.0808992245
C  C61  1  0.29418000  0.43060000  0.30350000  1.0 0.0987070985
C  C62  1  0.43060000  0.29418000  0.69650000  1.0 0.0987070985
C  C63  1  0.70582000  0.56940000  0.69650000  1.0 0.0987070985
C  C64  1  0.56940000  0.70582000  0.30350000  1.0 0.0987070985
C  C65  1  0.50469000  0.21691000  0.29780000  1.0 0.0987070985
C  C66  1  0.21691000  0.50469000  0.70220000  1.0 0.0987070985
C  C67  1  0.49531000  0.78309000  0.70220000  1.0 0.0987070985
C  C68  1  0.78309000  0.49531000  0.29780000  1.0 0.0987070985
C  C69  1  0.60846000  0.20244000  0.37930000  1.0 -0.0912028522
C  C70  1  0.20244000  0.60846000  0.62070000  1.0 -0.0912028522
C  C71  1  0.39154000  0.79756000  0.62070000  1.0 -0.0912028522
C  C72  1  0.79756000  0.39154000  0.37930000  1.0 -0.0912028522
C  C73  1  0.41487000  0.27265000  0.29920000  1.0 0.1673330856
C  C74  1  0.27265000  0.41487000  0.70080000  1.0 0.1673330856
C  C75  1  0.58513000  0.72735000  0.70080000  1.0 0.1673330856
C  C76  1  0.72735000  0.58513000  0.29920000  1.0 0.1673330856
C  C77  1  0.34867000  0.33995000  0.30120000  1.0 0.1673330856
C  C78  1  0.33995000  0.34867000  0.69880000  1.0 0.1673330856
C  C79  1  0.65133000  0.66005000  0.69880000  1.0 0.1673330856
C  C80  1  0.66005000  0.65133000  0.30120000  1.0 0.1673330856
C  C81  1  0.01165000  0.19573000  0.37680000  1.0 -0.0997079819
C  C82  1  0.19573000  0.01165000  0.62320000  1.0 -0.0997079819
C  C83  1  0.98835000  0.80427000  0.62320000  1.0 -0.0997079819
C  C84  1  0.80427000  0.98835000  0.37680000  1.0 -0.0997079819
C  C85  1  0.15714000  0.22812000  0.31960000  1.0 -0.0808992245
C  C86  1  0.22812000  0.15714000  0.68040000  1.0 -0.0808992245
C  C87  1  0.84286000  0.77188000  0.68040000  1.0 -0.0808992245
C  C88  1  0.77188000  0.84286000  0.31960000  1.0 -0.0808992245
C  C89  1  0.09351000  0.23225000  0.30710000  1.0 0.0987070985
C  C90  1  0.23225000  0.09351000  0.69290000  1.0 0.0987070985
C  C91  1  0.90649000  0.76775000  0.69290000  1.0 0.0987070985
C  C92  1  0.76775000  0.90649000  0.30710000  1.0 0.0987070985
C  C93  1  0.31858000  0.94420000  0.21560000  1.0 -0.0997079819
C  C94  1  0.94420000  0.31858000  0.78440000  1.0 -0.0997079819
C  C95  1  0.68142000  0.05580000  0.78440000  1.0 -0.0997079819
C  C96  1  0.05580000  0.68142000  0.21560000  1.0 -0.0997079819
C  C97  1  0.35802000  0.10206000  0.34290000  1.0 0.1862315714
C  C98  1  0.10206000  0.35802000  0.65710000  1.0 0.1862315714
C  C99  1  0.64198000  0.89794000  0.65710000  1.0 0.1862315714
C  C100  1  0.89794000  0.64198000  0.34290000  1.0 0.1862315714
C  C101  1  0.43988000  0.32654000  0.28330000  1.0 -0.1899766117
C  C102  1  0.32654000  0.43988000  0.71670000  1.0 -0.1899766117
C  C103  1  0.56012000  0.67346000  0.71670000  1.0 -0.1899766117
C  C104  1  0.67346000  0.56012000  0.28330000  1.0 -0.1899766117
C  C105  1  0.28733000  0.91765000  0.40240000  1.0 -0.0997079819
C  C106  1  0.91765000  0.28733000  0.59760000  1.0 -0.0997079819
C  C107  1  0.71267000  0.08235000  0.59760000  1.0 -0.0997079819
C  C108  1  0.08235000  0.71267000  0.40240000  1.0 -0.0997079819
C  C109  1  0.55280000  0.20302000  0.39620000  1.0 -0.142294512
C  C110  1  0.20302000  0.55280000  0.60380000  1.0 -0.142294512
C  C111  1  0.44720000  0.79698000  0.60380000  1.0 -0.142294512
C  C112  1  0.79698000  0.44720000  0.39620000  1.0 -0.142294512
C  C113  1  0.18531000  0.27711000  0.33380000  1.0 0.1814151373
C  C114  1  0.27711000  0.18531000  0.66620000  1.0 0.1814151373
C  C115  1  0.81469000  0.72289000  0.66620000  1.0 0.1814151373
C  C116  1  0.72289000  0.81469000  0.33380000  1.0 0.1814151373
C  C117  1  0.19842000  0.36654000  0.35670000  1.0 -0.1899766117
C  C118  1  0.36654000  0.19842000  0.64330000  1.0 -0.1899766117
C  C119  1  0.80158000  0.63346000  0.64330000  1.0 -0.1899766117
C  C120  1  0.63346000  0.80158000  0.35670000  1.0 -0.1899766117
C  C121  1  0.30652000  0.01598000  0.32750000  1.0 0.0932123057
C  C122  1  0.01598000  0.30652000  0.67250000  1.0 0.0932123057
C  C123  1  0.69348000  0.98402000  0.67250000  1.0 0.0932123057
C  C124  1  0.98402000  0.69348000  0.32750000  1.0 0.0932123057
C  C125  1  0.32185000  0.00021000  0.22910000  1.0 -0.151060623
C  C126  1  0.00021000  0.32185000  0.77090000  1.0 -0.151060623
C  C127  1  0.67815000  0.99979000  0.77090000  1.0 -0.151060623
C  C128  1  0.99979000  0.67815000  0.22910000  1.0 -0.151060623
C  C129  1  0.19673000  0.08335000  0.30360000  1.0 -0.1836574235
C  C130  1  0.08335000  0.19673000  0.69640000  1.0 -0.1836574235
C  C131  1  0.80327000  0.91665000  0.69640000  1.0 -0.1836574235
C  C132  1  0.91665000  0.80327000  0.30360000  1.0 -0.1836574235
C  C133  1  0.39924000  0.36808000  0.28370000  1.0 -0.1899766117
C  C134  1  0.36808000  0.39924000  0.71630000  1.0 -0.1899766117
C  C135  1  0.60076000  0.63192000  0.71630000  1.0 -0.1899766117
C  C136  1  0.63192000  0.60076000  0.28370000  1.0 -0.1899766117
C  C137  1  0.15931000  0.32821000  0.35560000  1.0 -0.1899766117
C  C138  1  0.32821000  0.15931000  0.64440000  1.0 -0.1899766117
C  C139  1  0.84069000  0.67179000  0.64440000  1.0 -0.1899766117
C  C140  1  0.67179000  0.84069000  0.35560000  1.0 -0.1899766117
C  C141  1  0.99557000  0.27157000  0.19230000  1.0 -0.0997079819
C  C142  1  0.27157000  0.99557000  0.80770000  1.0 -0.0997079819
C  C143  1  0.00443000  0.72843000  0.80770000  1.0 -0.0997079819
C  C144  1  0.72843000  0.00443000  0.19230000  1.0 -0.0997079819
C  C145  1  0.15576000  0.12548000  0.29700000  1.0 -0.1899766117
C  C146  1  0.12548000  0.15576000  0.70300000  1.0 -0.1899766117
C  C147  1  0.84424000  0.87452000  0.70300000  1.0 -0.1899766117
C  C148  1  0.87452000  0.84424000  0.29700000  1.0 -0.1899766117
C  C149  1  0.41408000  0.07034000  0.36190000  1.0 -0.1978261181
C  C150  1  0.07034000  0.41408000  0.63810000  1.0 -0.1978261181
C  C151  1  0.58592000  0.92966000  0.63810000  1.0 -0.1978261181
C  C152  1  0.92966000  0.58592000  0.36190000  1.0 -0.1978261181
C  C153  1  0.29026000  0.97374000  0.41510000  1.0 -0.151060623
C  C154  1  0.97374000  0.29026000  0.58490000  1.0 -0.151060623
C  C155  1  0.70974000  0.02626000  0.58490000  1.0 -0.151060623
C  C156  1  0.02626000  0.70974000  0.41510000  1.0 -0.151060623
C  C157  1  0.07090000  0.19564000  0.39230000  1.0 -0.151060623
C  C158  1  0.19564000  0.07090000  0.60770000  1.0 -0.151060623
C  C159  1  0.92910000  0.80436000  0.60770000  1.0 -0.151060623
C  C160  1  0.80436000  0.92910000  0.39230000  1.0 -0.151060623
C  C161  1  0.29011000  0.51237000  0.38940000  1.0 -0.0912028522
C  C162  1  0.51237000  0.29011000  0.61060000  1.0 -0.0912028522
C  C163  1  0.70989000  0.48763000  0.61060000  1.0 -0.0912028522
C  C164  1  0.48763000  0.70989000  0.38940000  1.0 -0.0912028522
C  C165  1  0.56848000  0.22846000  0.16330000  1.0 -0.1182872661
C  C166  1  0.22846000  0.56848000  0.83670000  1.0 -0.1182872661
C  C167  1  0.43152000  0.77154000  0.83670000  1.0 -0.1182872661
C  C168  1  0.77154000  0.43152000  0.16330000  1.0 -0.1182872661
C  C169  1  0.05487000  0.27169000  0.20850000  1.0 -0.151060623
C  C170  1  0.27169000  0.05487000  0.79150000  1.0 -0.151060623
C  C171  1  0.94513000  0.72831000  0.79150000  1.0 -0.151060623
C  C172  1  0.72831000  0.94513000  0.20850000  1.0 -0.151060623
C  C173  1  0.51324000  0.22880000  0.18120000  1.0 -0.142294512
C  C174  1  0.22880000  0.51324000  0.81880000  1.0 -0.142294512
C  C175  1  0.48676000  0.77120000  0.81880000  1.0 -0.142294512
C  C176  1  0.77120000  0.48676000  0.18120000  1.0 -0.142294512
C  C177  1  0.45247000  0.10947000  0.35560000  1.0 -0.1899766117
C  C178  1  0.10947000  0.45247000  0.64440000  1.0 -0.1899766117
C  C179  1  0.54753000  0.89053000  0.64440000  1.0 -0.1899766117
C  C180  1  0.89053000  0.54753000  0.35560000  1.0 -0.1899766117
C  C181  1  0.29371000  0.45289000  0.40160000  1.0 -0.142294512
C  C182  1  0.45289000  0.29371000  0.59840000  1.0 -0.142294512
C  C183  1  0.70629000  0.54711000  0.59840000  1.0 -0.142294512
C  C184  1  0.54711000  0.70629000  0.40160000  1.0 -0.142294512
C  C185  1  0.28824000  0.52792000  0.17820000  1.0 -0.1182872661
C  C186  1  0.52792000  0.28824000  0.82180000  1.0 -0.1182872661
C  C187  1  0.71176000  0.47208000  0.82180000  1.0 -0.1182872661
C  C188  1  0.47208000  0.71176000  0.17820000  1.0 -0.1182872661
C  C189  1  0.29163000  0.46843000  0.19180000  1.0 -0.151060623
C  C190  1  0.46843000  0.29163000  0.80820000  1.0 -0.151060623
C  C191  1  0.70837000  0.53157000  0.80820000  1.0 -0.151060623
C  C192  1  0.53157000  0.70837000  0.19180000  1.0 -0.151060623
C  C193  1  0.26286000  0.26286000  0.00000000  1.0 0.4057295165
C  C194  1  0.73714000  0.73714000  0.00000000  1.0 0.4057295165
N  N1  1  0.24262000  0.16342000  0.32840000  1.0 -0.4142506876
N  N2  1  0.16342000  0.24262000  0.67160000  1.0 -0.4142506876
N  N3  1  0.75738000  0.83658000  0.67160000  1.0 -0.4142506876
N  N4  1  0.83658000  0.75738000  0.32840000  1.0 -0.4142506876
N  N5  1  0.36370000  0.15962000  0.32920000  1.0 -0.4003881671
N  N6  1  0.15962000  0.36370000  0.67080000  1.0 -0.4003881671
N  N7  1  0.63630000  0.84038000  0.67080000  1.0 -0.4003881671
N  N8  1  0.84038000  0.63630000  0.32920000  1.0 -0.4003881671
N  N9  1  0.24069000  0.28425000  0.32610000  1.0 -0.4003881671
N  N10  1  0.28425000  0.24069000  0.67390000  1.0 -0.4003881671
N  N11  1  0.75931000  0.71575000  0.67390000  1.0 -0.4003881671
N  N12  1  0.71575000  0.75931000  0.32610000  1.0 -0.4003881671
N  N13  1  0.35921000  0.28213000  0.30890000  1.0 -0.4198633552
N  N14  1  0.28213000  0.35921000  0.69110000  1.0 -0.4198633552
N  N15  1  0.64079000  0.71787000  0.69110000  1.0 -0.4198633552
N  N16  1  0.71787000  0.64079000  0.30890000  1.0 -0.4198633552
N  N17  1  0.81145000  0.18855000  0.98450000  1.0 0.7291644059
N  N18  1  0.18855000  0.81145000  0.01550000  1.0 0.7291644059
O  O1  1  0.71913000  0.19817000  0.33098000  1.0 -0.6755043425
O  O2  1  0.19817000  0.71913000  0.66902000  1.0 -0.6755043425
O  O3  1  0.28087000  0.80183000  0.66902000  1.0 -0.6755043425
O  O4  1  0.80183000  0.28087000  0.33098000  1.0 -0.6755043425
O  O5  1  0.68103000  0.23451000  0.13141000  1.0 -0.7342854895
O  O6  1  0.23451000  0.68103000  0.86859000  1.0 -0.7342854895
O  O7  1  0.31897000  0.76549000  0.86859000  1.0 -0.7342854895
O  O8  1  0.76549000  0.31897000  0.13141000  1.0 -0.7342854895
O  O9  1  0.77120000  0.22880000  0.98780000  1.0 -0.7702064671
O  O10  1  0.22880000  0.77120000  0.01220000  1.0 -0.7702064671
O  O11  1  0.28220000  0.63412000  0.35343000  1.0 -0.5803293743
O  O12  1  0.63412000  0.28220000  0.64657000  1.0 -0.5803293743
O  O13  1  0.71780000  0.36588000  0.64657000  1.0 -0.5803293743
O  O14  1  0.36588000  0.71780000  0.35343000  1.0 -0.5803293743
O  O15  1  0.81530000  0.18470000  0.87960000  1.0 -0.4198633552
O  O16  1  0.18470000  0.81530000  0.12040000  1.0 -0.4198633552
O  O17  1  0.27586000  0.80702000  0.35885000  1.0 -0.7045927205
O  O18  1  0.80702000  0.27586000  0.64115000  1.0 -0.7045927205
O  O19  1  0.72414000  0.19298000  0.64115000  1.0 -0.7045927205
O  O20  1  0.19298000  0.72414000  0.35885000  1.0 -0.7045927205
O  O21  1  0.84184000  0.15816000  0.08810000  1.0 -0.4198633552
O  O22  1  0.15816000  0.84184000  0.91190000  1.0 -0.4198633552
O  O23  1  0.87551000  0.26171000  0.16088000  1.0 -0.6914025106
O  O24  1  0.26171000  0.87551000  0.83912000  1.0 -0.6914025106
O  O25  1  0.12449000  0.73829000  0.83912000  1.0 -0.6914025106
O  O26  1  0.73829000  0.12449000  0.16088000  1.0 -0.6914025106
O  O27  1  0.30473000  0.83195000  0.18803000  1.0 -0.6914025106
O  O28  1  0.83195000  0.30473000  0.81197000  1.0 -0.6914025106
O  O29  1  0.69527000  0.16805000  0.81197000  1.0 -0.6914025106
O  O30  1  0.16805000  0.69527000  0.18803000  1.0 -0.6914025106
O  O31  1  0.27105000  0.64669000  0.15318000  1.0 -0.7445506611
O  O32  1  0.64669000  0.27105000  0.84682000  1.0 -0.7445506611
O  O33  1  0.72895000  0.35331000  0.84682000  1.0 -0.7445506611
O  O34  1  0.35331000  0.72895000  0.15318000  1.0 -0.7445506611
O  O35  1  0.89258000  0.19072000  0.32978000  1.0 -0.6004517832
O  O36  1  0.19072000  0.89258000  0.67022000  1.0 -0.6004517832
O  O37  1  0.10742000  0.80928000  0.67022000  1.0 -0.6004517832
O  O38  1  0.80928000  0.10742000  0.32978000  1.0 -0.6004517832
O  O39  1  0.26163000  0.25417000  0.10300000  1.0 -0.0513782509
O  O40  1  0.25417000  0.26163000  0.89700000  1.0 -0.0513782509
O  O41  1  0.73837000  0.74583000  0.89700000  1.0 -0.0513782509
O  O42  1  0.74583000  0.73837000  0.10300000  1.0 -0.0513782509
O  O43  1  0.28090000  0.23570000  0.10220000  1.0 -0.0513782509
O  O44  1  0.23570000  0.28090000  0.89780000  1.0 -0.0513782509
O  O45  1  0.71910000  0.76430000  0.89780000  1.0 -0.0513782509
O  O46  1  0.76430000  0.71910000  0.10220000  1.0 -0.0513782509
