# DDEC6 charges by PACMAN v1.1 (https://github.com/mtap-research/PACMAN-charge/)
data_DOMKEX_ASR_pacman
_symmetry_space_group_name_H-M   'P 1'
_cell_length_a   6.40590000
_cell_length_b   16.35020000
_cell_length_c   17.81960000
_cell_angle_alpha   98.10900000
_cell_angle_beta   94.05600000
_cell_angle_gamma   95.65100000
_symmetry_Int_Tables_number   1
_chemical_formula_structural   Na4H21C28N2O9
_chemical_formula_sum   'Na8 H42 C56 N4 O18'
_cell_volume   1831.94869858
_cell_formula_units_Z   2
loop_
 _symmetry_equiv_pos_site_id
 _symmetry_equiv_pos_as_xyz
  1  'x, y, z'
loop_
 _atom_site_type_symbol
 _atom_site_label
 _atom_site_symmetry_multiplicity
 _atom_site_fract_x
 _atom_site_fract_y
 _atom_site_fract_z
 _atom_site_occupancy
 _atom_site_charge
Na  Na1  1  0.57075000  0.39640000  0.51929000  1.0 0.8522662444
Na  Na2  1  0.42925000  0.60360000  0.48071000  1.0 0.8522662444
Na  Na3  1  0.87431000  0.50879000  0.41351000  1.0 0.8522662444
Na  Na4  1  0.12569000  0.49121000  0.58649000  1.0 0.8522662444
Na  Na5  1  0.84960000  0.41205000  0.72859000  1.0 0.8635243995
Na  Na6  1  0.15040000  0.58795000  0.27141000  1.0 0.8635243995
Na  Na7  1  0.27340000  0.31100000  0.64102000  1.0 0.8323844595
Na  Na8  1  0.72660000  0.68900000  0.35898000  1.0 0.8323844595
H  H1  1  0.69210000  0.27980000  0.61210000  1.0 0.3925515634
H  H2  1  0.30790000  0.72020000  0.38790000  1.0 0.3925515634
H  H3  1  0.54560000  0.22710000  0.54660000  1.0 0.411476068
H  H4  1  0.45440000  0.77290000  0.45340000  1.0 0.411476068
H  H5  1  0.07570000  0.97370000  0.94270000  1.0 0.2712761385
H  H6  1  0.92430000  0.02630000  0.05730000  1.0 0.2712761385
H  H7  1  0.55340000  0.32700000  0.33830000  1.0 0.1284872142
H  H8  1  0.44660000  0.67300000  0.66170000  1.0 0.1284872142
H  H9  1  0.91590000  0.29070000  0.18680000  1.0 0.1205843968
H  H10  1  0.08410000  0.70930000  0.81320000  1.0 0.1205843968
H  H11  1  0.00050000  0.40980000  0.27730000  1.0 0.1205843968
H  H12  1  0.99950000  0.59020000  0.72270000  1.0 0.1205843968
H  H13  1  0.47130000  0.20940000  0.24720000  1.0 0.1205843968
H  H14  1  0.52870000  0.79060000  0.75280000  1.0 0.1205843968
H  H15  1  0.14150000  0.84660000  0.73900000  1.0 0.1284872142
H  H16  1  0.85850000  0.15340000  0.26100000  1.0 0.1284872142
H  H17  1  0.42130000  0.96590000  0.76420000  1.0 0.1410888152
H  H18  1  0.57870000  0.03410000  0.23580000  1.0 0.1410888152
H  H19  1  0.64030000  0.21270000  0.99040000  1.0 0.1284872142
H  H20  1  0.35970000  0.78730000  0.00960000  1.0 0.1284872142
H  H21  1  0.49800000  0.26350000  0.11160000  1.0 0.1205843968
H  H22  1  0.50200000  0.73650000  0.88840000  1.0 0.1205843968
H  H23  1  0.84420000  0.23440000  0.43330000  1.0 0.1410888152
H  H24  1  0.15580000  0.76560000  0.56670000  1.0 0.1410888152
H  H25  1  0.07530000  0.21590000  0.46150000  1.0 0.149052005
H  H26  1  0.92470000  0.78410000  0.53850000  1.0 0.149052005
H  H27  1  0.03790000  0.25370000  0.38410000  1.0 0.149052005
H  H28  1  0.96210000  0.74630000  0.61590000  1.0 0.149052005
H  H29  1  0.32290000  0.51550000  0.85620000  1.0 0.1565320862
H  H30  1  0.67710000  0.48450000  0.14380000  1.0 0.1565320862
H  H31  1  0.38200000  0.57930000  0.79870000  1.0 0.1410888152
H  H32  1  0.61800000  0.42070000  0.20130000  1.0 0.1410888152
H  H33  1  0.56010000  0.53040000  0.83420000  1.0 0.1410888152
H  H34  1  0.43990000  0.46960000  0.16580000  1.0 0.1410888152
H  H35  1  0.80420000  0.03230000  0.86780000  1.0 0.1205843968
H  H36  1  0.19580000  0.96770000  0.13220000  1.0 0.1205843968
H  H37  1  0.02640000  0.09260000  0.78830000  1.0 0.1121337337
H  H38  1  0.97360000  0.90740000  0.21170000  1.0 0.1121337337
H  H39  1  0.61300000  0.25820000  0.75640000  1.0 0.1121337337
H  H40  1  0.38700000  0.74180000  0.24360000  1.0 0.1121337337
H  H41  1  0.39010000  0.19590000  0.83380000  1.0 0.1284872142
H  H42  1  0.60990000  0.80410000  0.16620000  1.0 0.1284872142
C  C1  1  0.34370000  0.45905000  0.37258000  1.0 0.5971796138
C  C2  1  0.65630000  0.54095000  0.62742000  1.0 0.5971796138
C  C3  1  0.28690000  0.38064000  0.31548000  1.0 -0.0377083647
C  C4  1  0.71310000  0.61936000  0.68452000  1.0 -0.0377083647
C  C5  1  0.03600000  0.34001000  0.47952000  1.0 0.7269820792
C  C6  1  0.96400000  0.65999000  0.52048000  1.0 0.7269820792
C  C7  1  0.42490000  0.32026000  0.30693000  1.0 -0.1155073422
C  C8  1  0.57510000  0.67974000  0.69307000  1.0 -0.1155073422
C  C9  1  0.04690000  0.29840000  0.21680000  1.0 -0.1429461318
C  C10  1  0.95310000  0.70160000  0.78320000  1.0 -0.1429461318
C  C11  1  0.18700000  0.23890000  0.20640000  1.0 0.0875762289
C  C12  1  0.81300000  0.76110000  0.79360000  1.0 0.0875762289
C  C13  1  0.29820000  0.99520000  0.87190000  1.0 0.1820128558
C  C14  1  0.70180000  0.00480000  0.12810000  1.0 0.1820128558
C  C15  1  0.09680000  0.36930000  0.27090000  1.0 -0.128567964
C  C16  1  0.90320000  0.63070000  0.72910000  1.0 -0.128567964
C  C17  1  0.36400000  0.45690000  0.74890000  1.0 0.7185796423
C  C18  1  0.63600000  0.54310000  0.25110000  1.0 0.7185796423
C  C19  1  0.38950000  0.11370000  0.97700000  1.0 0.1878228111
C  C20  1  0.61050000  0.88630000  0.02300000  1.0 0.1878228111
C  C21  1  0.41810000  0.06870000  0.90630000  1.0 -0.0641155692
C  C22  1  0.58190000  0.93130000  0.09370000  1.0 -0.0650990012
C  C23  1  0.04580000  0.88770000  0.84840000  1.0 0.1727661563
C  C24  1  0.95420000  0.11230000  0.15160000  1.0 0.1727661563
C  C25  1  0.13380000  0.16570000  0.14510000  1.0 -0.0795833545
C  C26  1  0.86620000  0.83430000  0.85490000  1.0 -0.0795833545
C  C27  1  0.37560000  0.25030000  0.25280000  1.0 -0.1461201796
C  C28  1  0.62440000  0.74970000  0.74720000  1.0 -0.1461201796
C  C29  1  0.16500000  0.88630000  0.78400000  1.0 -0.1903251884
C  C30  1  0.83500000  0.11370000  0.21600000  1.0 -0.1903251884
C  C31  1  0.26430000  0.15720000  0.08470000  1.0 0.1820128558
C  C32  1  0.73570000  0.84280000  0.91530000  1.0 0.1820128558
C  C33  1  0.57240000  0.10770000  0.85850000  1.0 0.0875762289
C  C34  1  0.42760000  0.89230000  0.14150000  1.0 0.0875762289
C  C35  1  0.31910000  0.95180000  0.79770000  1.0 -0.1821848529
C  C36  1  0.68090000  0.04820000  0.20230000  1.0 -0.1821848529
C  C37  1  0.98030000  0.21870000  0.70930000  1.0 0.5797022802
C  C38  1  0.01970000  0.78130000  0.29070000  1.0 0.5797022802
C  C39  1  0.84010000  0.17990000  0.76230000  1.0 -0.031251021
C  C40  1  0.15990000  0.82010000  0.23770000  1.0 -0.031251021
C  C41  1  0.52110000  0.18780000  0.01090000  1.0 -0.1903251884
C  C42  1  0.47890000  0.81220000  0.98910000  1.0 -0.1903251884
C  C43  1  0.44440000  0.21530000  0.07680000  1.0 -0.1903251884
C  C44  1  0.55560000  0.78470000  0.92320000  1.0 -0.1903251884
C  C45  1  0.99470000  0.25350000  0.43580000  1.0 -0.5901801961
C  C46  1  0.00530000  0.74650000  0.56420000  1.0 -0.5901801961
C  C47  1  0.41140000  0.52670000  0.81540000  1.0 -0.5901801961
C  C48  1  0.58860000  0.47330000  0.18460000  1.0 -0.5901801961
C  C49  1  0.76370000  0.07780000  0.84460000  1.0 -0.1461201796
C  C50  1  0.23630000  0.92220000  0.15540000  1.0 -0.1461201796
C  C51  1  0.89590000  0.11370000  0.79710000  1.0 -0.0970924648
C  C52  1  0.10410000  0.88630000  0.20290000  1.0 -0.0970924648
C  C53  1  0.65160000  0.21130000  0.77790000  1.0 -0.1065305176
C  C54  1  0.34840000  0.78870000  0.22210000  1.0 -0.1065305176
C  C55  1  0.52020000  0.17450000  0.82470000  1.0 -0.128567964
C  C56  1  0.47980000  0.82550000  0.17530000  1.0 -0.128567964
N  N1  1  0.13330000  0.95369000  0.90141000  1.0 -0.2743022221
N  N2  1  0.86670000  0.04631000  0.09859000  1.0 -0.2743022221
N  N3  1  0.23460000  0.09506000  0.02316000  1.0 -0.4400270658
N  N4  1  0.76540000  0.90494000  0.97684000  1.0 -0.4400270658
O  O1  1  0.21930000  0.51455000  0.37420000  1.0 -0.7285394745
O  O2  1  0.78070000  0.48545000  0.62580000  1.0 -0.7285394745
O  O3  1  0.51230000  0.46547000  0.41404000  1.0 -0.6993313508
O  O4  1  0.48770000  0.53453000  0.58596000  1.0 -0.6993313508
O  O5  1  0.90610000  0.39056000  0.46913000  1.0 -0.7285394745
O  O6  1  0.09390000  0.60944000  0.53087000  1.0 -0.7285394745
O  O7  1  0.20110000  0.35814000  0.52434000  1.0 -0.7488913166
O  O8  1  0.79890000  0.64186000  0.47566000  1.0 -0.7488913166
O  O9  1  0.19560000  0.45561000  0.70761000  1.0 -0.7488913166
O  O10  1  0.80440000  0.54439000  0.29239000  1.0 -0.7488913166
O  O11  1  0.49100000  0.40385000  0.73876000  1.0 -0.7073984074
O  O12  1  0.50900000  0.59615000  0.26124000  1.0 -0.7073984074
O  O13  1  0.92020000  0.27910000  0.67965000  1.0 -0.7073984074
O  O14  1  0.07980000  0.72090000  0.32035000  1.0 -0.7073984074
O  O15  1  0.14850000  0.18940000  0.69730000  1.0 -0.5901801961
O  O16  1  0.85150000  0.81060000  0.30270000  1.0 -0.5901801961
O  O17  1  0.57820000  0.27503000  0.57860000  1.0 -0.8264627235
O  O18  1  0.42180000  0.72497000  0.42140000  1.0 -0.8264627235
