# DDEC6 charges by PACMAN v1.1 (https://github.com/mtap-research/PACMAN-charge/)
data_DOPNUU_ASR_pacman
_symmetry_space_group_name_H-M   'P 1'
_cell_length_a   11.06510000
_cell_length_b   14.34310000
_cell_length_c   17.62390000
_cell_angle_alpha   90.00000000
_cell_angle_beta   96.97300000
_cell_angle_gamma   90.00000000
_symmetry_Int_Tables_number   1
_chemical_formula_structural   Cd7H28C34(NCl)12
_chemical_formula_sum   'Cd14 H56 C68 N24 Cl24'
_cell_volume   2776.36255852
_cell_formula_units_Z   2
loop_
 _symmetry_equiv_pos_site_id
 _symmetry_equiv_pos_as_xyz
  1  'x, y, z'
loop_
 _atom_site_type_symbol
 _atom_site_label
 _atom_site_symmetry_multiplicity
 _atom_site_fract_x
 _atom_site_fract_y
 _atom_site_fract_z
 _atom_site_occupancy
 _atom_site_charge
Cd  Cd1  1  0.84787000  0.04948000  0.53169000  1.0 0.4141345688
Cd  Cd2  1  0.93720000  0.00020000  0.54260000  1.0 0.2662537389
Cd  Cd3  1  0.59300000  0.05490000  0.51270000  1.0 0.3376035609
Cd  Cd4  1  0.15213000  0.95052000  0.46831000  1.0 0.4141345688
Cd  Cd5  1  0.06280000  0.99980000  0.45740000  1.0 0.2662537389
Cd  Cd6  1  0.40700000  0.94510000  0.48730000  1.0 0.3376035609
Cd  Cd7  1  0.50000000  0.00000000  0.50000000  1.0 0.2997899496
Cd  Cd8  1  0.15213000  0.54948000  0.96831000  1.0 0.4141345688
Cd  Cd9  1  0.06280000  0.50020000  0.95740000  1.0 0.2588746243
Cd  Cd10  1  0.40700000  0.55490000  0.98730000  1.0 0.3376035609
Cd  Cd11  1  0.84787000  0.45052000  0.03169000  1.0 0.4141345688
Cd  Cd12  1  0.93720000  0.49980000  0.04260000  1.0 0.2588746243
Cd  Cd13  1  0.59300000  0.44510000  0.01270000  1.0 0.3376035609
Cd  Cd14  1  0.50000000  0.50000000  0.00000000  1.0 0.2997899496
H  H1  1  0.51910000  0.88630000  0.32870000  1.0 0.1104204614
H  H2  1  0.87080000  0.95300000  0.34650000  1.0 0.0898771205
H  H3  1  0.52030000  0.89110000  0.19810000  1.0 0.1104204614
H  H4  1  0.52140000  0.81410000  0.08060000  1.0 0.1104204614
H  H5  1  0.88390000  0.78130000  0.12360000  1.0 0.1008185319
H  H6  1  0.88440000  0.85080000  0.24290000  1.0 0.1187974012
H  H7  1  0.51270000  0.89430000  0.68080000  1.0 0.1104204614
H  H8  1  0.86780000  0.94160000  0.71190000  1.0 0.1008185319
H  H9  1  0.51520000  0.88290000  0.80790000  1.0 0.1104204614
H  H10  1  0.51980000  0.81130000  0.92830000  1.0 0.1008185319
H  H11  1  0.88070000  0.77060000  0.93660000  1.0 0.1104204614
H  H12  1  0.87910000  0.83940000  0.81560000  1.0 0.1187974012
H  H13  1  0.77000000  0.68870000  0.02460000  1.0 0.1008185319
H  H14  1  0.62500000  0.69280000  0.01390000  1.0 0.0898771205
H  H15  1  0.48090000  0.11370000  0.67130000  1.0 0.1104204614
H  H16  1  0.12920000  0.04700000  0.65350000  1.0 0.0898771205
H  H17  1  0.47970000  0.10890000  0.80190000  1.0 0.1104204614
H  H18  1  0.47860000  0.18590000  0.91940000  1.0 0.1104204614
H  H19  1  0.11610000  0.21870000  0.87640000  1.0 0.1008185319
H  H20  1  0.11560000  0.14920000  0.75710000  1.0 0.1187974012
H  H21  1  0.48730000  0.10570000  0.31920000  1.0 0.1104204614
H  H22  1  0.13220000  0.05840000  0.28810000  1.0 0.1008185319
H  H23  1  0.48480000  0.11710000  0.19210000  1.0 0.1104204614
H  H24  1  0.48020000  0.18870000  0.07170000  1.0 0.1008185319
H  H25  1  0.11930000  0.22940000  0.06340000  1.0 0.1104204614
H  H26  1  0.12090000  0.16060000  0.18440000  1.0 0.1187974012
H  H27  1  0.23000000  0.31130000  0.97540000  1.0 0.1008185319
H  H28  1  0.37500000  0.30720000  0.98610000  1.0 0.0898771205
H  H29  1  0.48090000  0.38630000  0.17130000  1.0 0.1104204614
H  H30  1  0.12920000  0.45300000  0.15350000  1.0 0.0898771205
H  H31  1  0.47970000  0.39110000  0.30190000  1.0 0.1104204614
H  H32  1  0.47860000  0.31410000  0.41940000  1.0 0.1104204614
H  H33  1  0.11610000  0.28130000  0.37640000  1.0 0.1008185319
H  H34  1  0.11560000  0.35080000  0.25710000  1.0 0.1187974012
H  H35  1  0.48730000  0.39430000  0.81920000  1.0 0.1104204614
H  H36  1  0.13220000  0.44160000  0.78810000  1.0 0.1008185319
H  H37  1  0.48480000  0.38290000  0.69210000  1.0 0.1104204614
H  H38  1  0.48020000  0.31130000  0.57170000  1.0 0.1008185319
H  H39  1  0.11930000  0.27060000  0.56340000  1.0 0.1104204614
H  H40  1  0.12090000  0.33940000  0.68440000  1.0 0.1187974012
H  H41  1  0.23000000  0.18870000  0.47540000  1.0 0.1008185319
H  H42  1  0.37500000  0.19280000  0.48610000  1.0 0.0898771205
H  H43  1  0.51910000  0.61370000  0.82870000  1.0 0.1104204614
H  H44  1  0.87080000  0.54700000  0.84650000  1.0 0.0898771205
H  H45  1  0.52030000  0.60890000  0.69810000  1.0 0.1104204614
H  H46  1  0.52140000  0.68590000  0.58060000  1.0 0.1104204614
H  H47  1  0.88390000  0.71870000  0.62360000  1.0 0.1008185319
H  H48  1  0.88440000  0.64920000  0.74290000  1.0 0.1187974012
H  H49  1  0.51270000  0.60570000  0.18080000  1.0 0.1104204614
H  H50  1  0.86780000  0.55840000  0.21190000  1.0 0.1008185319
H  H51  1  0.51520000  0.61710000  0.30790000  1.0 0.1104204614
H  H52  1  0.51980000  0.68870000  0.42830000  1.0 0.1008185319
H  H53  1  0.88070000  0.72940000  0.43660000  1.0 0.1104204614
H  H54  1  0.87910000  0.66060000  0.31560000  1.0 0.1187974012
H  H55  1  0.77000000  0.81130000  0.52460000  1.0 0.1008185319
H  H56  1  0.62500000  0.80720000  0.51390000  1.0 0.0898771205
C  C1  1  0.59780000  0.90860000  0.34770000  1.0 -0.0553079999
C  C2  1  0.78950000  0.94490000  0.35740000  1.0 -0.1126732647
C  C3  1  0.70100000  0.87300000  0.23240000  1.0 0.170608844
C  C4  1  0.59380000  0.86610000  0.18390000  1.0 -0.1949425197
C  C5  1  0.59540000  0.82160000  0.11340000  1.0 -0.1737057573
C  C6  1  0.70270000  0.78840000  0.09080000  1.0 0.1187974012
C  C7  1  0.80910000  0.80150000  0.13940000  1.0 -0.1503824654
C  C8  1  0.81030000  0.84300000  0.21020000  1.0 -0.1805329404
C  C9  1  0.59260000  0.91280000  0.67280000  1.0 0.0020229483
C  C10  1  0.78520000  0.93870000  0.68980000  1.0 0.0721527816
C  C11  1  0.69850000  0.86690000  0.80120000  1.0 0.1502235227
C  C12  1  0.58940000  0.85970000  0.83380000  1.0 -0.2142589658
C  C13  1  0.59300000  0.81760000  0.90560000  1.0 -0.1503824654
C  C14  1  0.70150000  0.78480000  0.94420000  1.0 0.1187974012
C  C15  1  0.80630000  0.79320000  0.91050000  1.0 -0.1406451694
C  C16  1  0.80580000  0.83430000  0.83840000  1.0 -0.1805329404
C  C17  1  0.69950000  0.73160000  0.01860000  1.0 -0.3450995988
C  C18  1  0.40220000  0.09140000  0.65230000  1.0 -0.052031253
C  C19  1  0.21050000  0.05510000  0.64260000  1.0 -0.1126732647
C  C20  1  0.29900000  0.12700000  0.76760000  1.0 0.170608844
C  C21  1  0.40620000  0.13390000  0.81610000  1.0 -0.1955318756
C  C22  1  0.40460000  0.17840000  0.88660000  1.0 -0.1737057573
C  C23  1  0.29730000  0.21160000  0.90920000  1.0 0.1187974012
C  C24  1  0.19090000  0.19850000  0.86060000  1.0 -0.1503824654
C  C25  1  0.18970000  0.15700000  0.78980000  1.0 -0.1805329404
C  C26  1  0.40740000  0.08720000  0.32720000  1.0 0.0020229483
C  C27  1  0.21480000  0.06130000  0.31020000  1.0 0.0721527816
C  C28  1  0.30150000  0.13310000  0.19880000  1.0 0.1502235227
C  C29  1  0.41060000  0.14030000  0.16620000  1.0 -0.2142589658
C  C30  1  0.40700000  0.18240000  0.09440000  1.0 -0.1503824654
C  C31  1  0.29850000  0.21520000  0.05580000  1.0 0.1187974012
C  C32  1  0.19370000  0.20680000  0.08950000  1.0 -0.1406451694
C  C33  1  0.19420000  0.16570000  0.16160000  1.0 -0.1805329404
C  C34  1  0.30050000  0.26840000  0.98140000  1.0 -0.3450995988
C  C35  1  0.40220000  0.40860000  0.15230000  1.0 -0.052031253
C  C36  1  0.21050000  0.44490000  0.14260000  1.0 -0.1126732647
C  C37  1  0.29900000  0.37300000  0.26760000  1.0 0.170608844
C  C38  1  0.40620000  0.36610000  0.31610000  1.0 -0.1955318756
C  C39  1  0.40460000  0.32160000  0.38660000  1.0 -0.1737057573
C  C40  1  0.29730000  0.28840000  0.40920000  1.0 0.1187974012
C  C41  1  0.19090000  0.30150000  0.36060000  1.0 -0.1503824654
C  C42  1  0.18970000  0.34300000  0.28980000  1.0 -0.1805329404
C  C43  1  0.40740000  0.41280000  0.82720000  1.0 0.0020229483
C  C44  1  0.21480000  0.43870000  0.81020000  1.0 0.0721527816
C  C45  1  0.30150000  0.36690000  0.69880000  1.0 0.1502235227
C  C46  1  0.41060000  0.35970000  0.66620000  1.0 -0.2142589658
C  C47  1  0.40700000  0.31760000  0.59440000  1.0 -0.1503824654
C  C48  1  0.29850000  0.28480000  0.55580000  1.0 0.1187974012
C  C49  1  0.19370000  0.29320000  0.58950000  1.0 -0.1406451694
C  C50  1  0.19420000  0.33430000  0.66160000  1.0 -0.1805329404
C  C51  1  0.30050000  0.23160000  0.48140000  1.0 -0.3450995988
C  C52  1  0.59780000  0.59140000  0.84770000  1.0 -0.0553079999
C  C53  1  0.78950000  0.55510000  0.85740000  1.0 -0.1126732647
C  C54  1  0.70100000  0.62700000  0.73240000  1.0 0.170608844
C  C55  1  0.59380000  0.63390000  0.68390000  1.0 -0.1955318756
C  C56  1  0.59540000  0.67840000  0.61340000  1.0 -0.1737057573
C  C57  1  0.70270000  0.71160000  0.59080000  1.0 0.1187974012
C  C58  1  0.80910000  0.69850000  0.63940000  1.0 -0.1503824654
C  C59  1  0.81030000  0.65700000  0.71020000  1.0 -0.1805329404
C  C60  1  0.59260000  0.58720000  0.17280000  1.0 0.0020229483
C  C61  1  0.78520000  0.56130000  0.18980000  1.0 0.0721527816
C  C62  1  0.69850000  0.63310000  0.30120000  1.0 0.1502235227
C  C63  1  0.58940000  0.64030000  0.33380000  1.0 -0.2142589658
C  C64  1  0.59300000  0.68240000  0.40560000  1.0 -0.1503824654
C  C65  1  0.70150000  0.71520000  0.44420000  1.0 0.1187974012
C  C66  1  0.80630000  0.70680000  0.41050000  1.0 -0.1406451694
C  C67  1  0.80580000  0.66570000  0.33840000  1.0 -0.1805329404
C  C68  1  0.69950000  0.76840000  0.51860000  1.0 -0.3450995988
N  N1  1  0.62770000  0.94400000  0.41530000  1.0 -0.1949425197
N  N2  1  0.74900000  0.96750000  0.42200000  1.0 -0.052031253
N  N3  1  0.69680000  0.90820000  0.30830000  1.0 -0.052031253
N  N4  1  0.62260000  0.94940000  0.60970000  1.0 -0.2236083008
N  N5  1  0.74530000  0.96720000  0.62050000  1.0 -0.2851847119
N  N6  1  0.69360000  0.90500000  0.72520000  1.0 -0.052031253
N  N7  1  0.37230000  0.05600000  0.58470000  1.0 -0.1949425197
N  N8  1  0.25100000  0.03250000  0.57800000  1.0 -0.052031253
N  N9  1  0.30320000  0.09180000  0.69170000  1.0 -0.052031253
N  N10  1  0.37740000  0.05060000  0.39030000  1.0 -0.2255759246
N  N11  1  0.25470000  0.03280000  0.37950000  1.0 -0.2828800784
N  N12  1  0.30640000  0.09500000  0.27480000  1.0 -0.052031253
N  N13  1  0.37230000  0.44400000  0.08470000  1.0 -0.1949425197
N  N14  1  0.25100000  0.46750000  0.07800000  1.0 -0.052031253
N  N15  1  0.30320000  0.40820000  0.19170000  1.0 -0.052031253
N  N16  1  0.37740000  0.44940000  0.89030000  1.0 -0.2255759246
N  N17  1  0.25470000  0.46720000  0.87950000  1.0 -0.2828800784
N  N18  1  0.30640000  0.40500000  0.77480000  1.0 -0.052031253
N  N19  1  0.62770000  0.55600000  0.91530000  1.0 -0.1949425197
N  N20  1  0.74900000  0.53250000  0.92200000  1.0 -0.052031253
N  N21  1  0.69680000  0.59180000  0.80830000  1.0 -0.052031253
N  N22  1  0.62260000  0.55060000  0.10970000  1.0 -0.2255759246
N  N23  1  0.74530000  0.53280000  0.12050000  1.0 -0.2828800784
N  N24  1  0.69360000  0.59500000  0.22520000  1.0 -0.052031253
Cl  Cl1  1  0.99695000  0.10188000  0.44053000  1.0 -0.052031253
Cl  Cl2  1  0.92348000  0.15604000  0.64355000  1.0 -0.5121365271
Cl  Cl3  1  0.35880000  0.85040000  0.49774000  1.0 -0.1158835597
Cl  Cl4  1  0.71400000  0.04600000  0.42600000  1.0 0.2313115255
Cl  Cl5  1  0.92400000  0.14900000  0.45030000  1.0 -0.0327131299
Cl  Cl6  1  0.48000000  0.83800000  0.59700000  1.0 -0.0416489157
Cl  Cl7  1  0.00305000  0.89812000  0.55947000  1.0 -0.052031253
Cl  Cl8  1  0.07652000  0.84396000  0.35645000  1.0 -0.5121365271
Cl  Cl9  1  0.64120000  0.14960000  0.50226000  1.0 -0.1158835597
Cl  Cl10  1  0.28600000  0.95400000  0.57400000  1.0 0.2313115255
Cl  Cl11  1  0.07600000  0.85100000  0.54970000  1.0 -0.0327131299
Cl  Cl12  1  0.52000000  0.16200000  0.40300000  1.0 -0.0416489157
Cl  Cl13  1  0.00305000  0.60188000  0.05947000  1.0 -0.052031253
Cl  Cl14  1  0.07652000  0.65604000  0.85645000  1.0 -0.5121365271
Cl  Cl15  1  0.64120000  0.35040000  0.00226000  1.0 -0.1158835597
Cl  Cl16  1  0.28600000  0.54600000  0.07400000  1.0 0.2313115255
Cl  Cl17  1  0.07600000  0.64900000  0.04970000  1.0 -0.0327131299
Cl  Cl18  1  0.52000000  0.33800000  0.90300000  1.0 -0.0416489157
Cl  Cl19  1  0.99695000  0.39812000  0.94053000  1.0 -0.052031253
Cl  Cl20  1  0.92348000  0.34396000  0.14355000  1.0 -0.5121365271
Cl  Cl21  1  0.35880000  0.64960000  0.99774000  1.0 -0.1158835597
Cl  Cl22  1  0.71400000  0.45400000  0.92600000  1.0 0.2313115255
Cl  Cl23  1  0.92400000  0.35100000  0.95030000  1.0 -0.0327131299
Cl  Cl24  1  0.48000000  0.66200000  0.09700000  1.0 -0.0416489157
