# DDEC6 charges by PACMAN v1.1 (https://github.com/mtap-research/PACMAN-charge/)
data_DOQNIJ_FSR_pacman
_symmetry_space_group_name_H-M   'P 1'
_cell_length_a   11.07580000
_cell_length_b   11.68330000
_cell_length_c   15.13710000
_cell_angle_alpha   82.01000000
_cell_angle_beta   85.64400000
_cell_angle_gamma   84.84800000
_symmetry_Int_Tables_number   1
_chemical_formula_structural   Cd2H32C33(NO7)2
_chemical_formula_sum   'Cd4 H64 C66 N4 O28'
_cell_volume   1927.91315009
_cell_formula_units_Z   2
loop_
 _symmetry_equiv_pos_site_id
 _symmetry_equiv_pos_as_xyz
  1  'x, y, z'
loop_
 _atom_site_type_symbol
 _atom_site_label
 _atom_site_symmetry_multiplicity
 _atom_site_fract_x
 _atom_site_fract_y
 _atom_site_fract_z
 _atom_site_occupancy
 _atom_site_charge
Cd  Cd1  1  0.34523000  0.88137000  0.74336000  1.0 1.0133772417
Cd  Cd2  1  0.15436000  0.23335000  0.16706000  1.0 0.8778034672
Cd  Cd3  1  0.65477000  0.11863000  0.25664000  1.0 1.0133772417
Cd  Cd4  1  0.84564000  0.76665000  0.83294000  1.0 0.8778034672
H  H1  1  0.54927000  0.80888000  0.63112000  1.0 0.4094993099
H  H2  1  0.57320000  0.74763000  0.72238000  1.0 0.4094993099
H  H3  1  0.18879000  0.99626000  0.86510000  1.0 0.3326161429
H  H4  1  0.19422000  0.07593000  0.78498000  1.0 0.3596440031
H  H5  1  0.30748000  0.10888000  0.05604000  1.0 0.3172371312
H  H6  1  0.38461000  0.15111000  0.10952000  1.0 0.3523299023
H  H7  1  0.92769000  0.27758000  0.26660000  1.0 0.3944081589
H  H8  1  0.00978000  0.35776000  0.29281000  1.0 0.3841630145
H  H9  1  0.29397000  0.56432000  0.99078000  1.0 0.1202293329
H  H10  1  0.48183000  0.50163000  0.21132000  1.0 0.1202293329
H  H11  1  0.58706000  0.66238000  0.16248000  1.0 0.1202293329
H  H12  1  0.54693000  0.77443000  0.02823000  1.0 0.1098228203
H  H13  1  0.20373000  0.01041000  0.44917000  1.0 0.1202293329
H  H14  1  0.04801000  0.72673000  0.56695000  1.0 0.1026919819
H  H15  1  0.93380000  0.73208000  0.44500000  1.0 0.1098228203
H  H16  1  0.95475000  0.87588000  0.32449000  1.0 0.1202293329
H  H17  1  0.41724000  0.27073000  0.58504000  1.0 0.1280899718
H  H18  1  0.45474000  0.31402000  0.67142000  1.0 0.1202293329
H  H19  1  0.61751000  0.26430000  0.56154000  1.0 0.1098228203
H  H20  1  0.59915000  0.13481000  0.59970000  1.0 0.1202293329
H  H21  1  0.62824000  0.07472000  0.76006000  1.0 0.1360518708
H  H22  1  0.74841000  0.08400000  0.87387000  1.0 0.1202293329
H  H23  1  0.86581000  0.37895000  0.74445000  1.0 0.1280899718
H  H24  1  0.73763000  0.36827000  0.63417000  1.0 0.1202293329
H  H25  1  0.02923000  0.06341000  0.05740000  1.0 0.0875684395
H  H26  1  0.91356000  0.05880000  0.94111000  1.0 0.1098228203
H  H27  1  0.93278000  0.40103000  0.87897000  1.0 0.1202293329
H  H28  1  0.04679000  0.39578000  0.00030000  1.0 0.1098228203
H  H29  1  0.91875000  0.15208000  0.10418000  1.0 0.1202293329
H  H30  1  0.79893000  0.14740000  0.99109000  1.0 0.1098228203
H  H31  1  0.04148000  0.31815000  0.82700000  1.0 0.1202293329
H  H32  1  0.15954000  0.30956000  0.94573000  1.0 0.1098228203
H  H33  1  0.45073000  0.19112000  0.36888000  1.0 0.4094993099
H  H34  1  0.42680000  0.25237000  0.27762000  1.0 0.4094993099
H  H35  1  0.81121000  0.00374000  0.13490000  1.0 0.3326161429
H  H36  1  0.80578000  0.92407000  0.21502000  1.0 0.3596440031
H  H37  1  0.69252000  0.89112000  0.94396000  1.0 0.3172371312
H  H38  1  0.61539000  0.84889000  0.89048000  1.0 0.3523299023
H  H39  1  0.07231000  0.72242000  0.73340000  1.0 0.3944081589
H  H40  1  0.99022000  0.64224000  0.70719000  1.0 0.3841630145
H  H41  1  0.70603000  0.43568000  0.00922000  1.0 0.1202293329
H  H42  1  0.51817000  0.49837000  0.78868000  1.0 0.1202293329
H  H43  1  0.41294000  0.33762000  0.83752000  1.0 0.1202293329
H  H44  1  0.45307000  0.22557000  0.97177000  1.0 0.1098228203
H  H45  1  0.79627000  0.98959000  0.55083000  1.0 0.1202293329
H  H46  1  0.95199000  0.27327000  0.43305000  1.0 0.1026919819
H  H47  1  0.06620000  0.26792000  0.55500000  1.0 0.1098228203
H  H48  1  0.04525000  0.12412000  0.67551000  1.0 0.1202293329
H  H49  1  0.58276000  0.72927000  0.41496000  1.0 0.1280899718
H  H50  1  0.54526000  0.68598000  0.32858000  1.0 0.1202293329
H  H51  1  0.38249000  0.73570000  0.43846000  1.0 0.1098228203
H  H52  1  0.40085000  0.86519000  0.40030000  1.0 0.1202293329
H  H53  1  0.37176000  0.92528000  0.23994000  1.0 0.1360518708
H  H54  1  0.25159000  0.91600000  0.12613000  1.0 0.1202293329
H  H55  1  0.13419000  0.62105000  0.25555000  1.0 0.1280899718
H  H56  1  0.26237000  0.63173000  0.36583000  1.0 0.1202293329
H  H57  1  0.97077000  0.93659000  0.94260000  1.0 0.0875684395
H  H58  1  0.08644000  0.94120000  0.05889000  1.0 0.1098228203
H  H59  1  0.06722000  0.59897000  0.12103000  1.0 0.1202293329
H  H60  1  0.95321000  0.60422000  0.99970000  1.0 0.1098228203
H  H61  1  0.08125000  0.84792000  0.89582000  1.0 0.1202293329
H  H62  1  0.20107000  0.85260000  0.00891000  1.0 0.1098228203
H  H63  1  0.95852000  0.68185000  0.17300000  1.0 0.1202293329
H  H64  1  0.84046000  0.69044000  0.05427000  1.0 0.1098228203
C  C1  1  0.39210000  0.75000000  0.90632000  1.0 0.5420331284
C  C2  1  0.30110000  0.41780000  0.13910000  1.0 0.5420331284
C  C3  1  0.41730000  0.68050000  0.99477000  1.0 -0.028205117
C  C4  1  0.35260000  0.58460000  0.02531000  1.0 -0.1313477234
C  C5  1  0.37490000  0.51890000  0.10664000  1.0 -0.028205117
C  C6  1  0.46470000  0.54710000  0.15760000  1.0 -0.0998342047
C  C7  1  0.52800000  0.64260000  0.12810000  1.0 -0.0998342047
C  C8  1  0.50420000  0.70950000  0.04733000  1.0 -0.1313477234
C  C9  1  0.09840000  0.05130000  0.29721000  1.0 0.5457661375
C  C10  1  0.21260000  0.86710000  0.59946000  1.0 0.5457661375
C  C11  1  0.08160000  0.95830000  0.37473000  1.0 -0.028205117
C  C12  1  0.14950000  0.95430000  0.44820000  1.0 -0.1313477234
C  C13  1  0.13820000  0.86810000  0.52048000  1.0 -0.028205117
C  C14  1  0.05660000  0.78480000  0.51875000  1.0 -0.121866338
C  C15  1  0.98830000  0.78800000  0.44580000  1.0 -0.0998342047
C  C16  1  0.00070000  0.87420000  0.37367000  1.0 -0.0998342047
C  C17  1  0.38880000  0.15450000  0.69670000  1.0 0.6338419243
C  C18  1  0.45850000  0.24700000  0.63970000  1.0 -0.3517458216
C  C19  1  0.59130000  0.21350000  0.61440000  1.0 -0.0942119658
C  C20  1  0.67580000  0.13690000  0.75760000  1.0 0.0522226541
C  C21  1  0.74880000  0.14180000  0.82500000  1.0 -0.209539272
C  C22  1  0.82360000  0.23120000  0.82247000  1.0 0.0668082162
C  C23  1  0.81770000  0.31680000  0.74890000  1.0 -0.2034493238
C  C24  1  0.74130000  0.31010000  0.68280000  1.0 0.0295686293
C  C25  1  0.90460000  0.23230000  0.89521000  1.0 0.0522226541
C  C26  1  0.00930000  0.13220000  0.02080000  1.0 -0.001939761
C  C27  1  0.93910000  0.12910000  0.95160000  1.0 -0.0828759895
C  C28  1  0.94960000  0.33080000  0.91470000  1.0 -0.0734376256
C  C29  1  0.02030000  0.32700000  0.98740000  1.0 0.0295686293
C  C30  1  0.94530000  0.18490000  0.04730000  1.0 0.0415592975
C  C31  1  0.87160000  0.18260000  0.97980000  1.0 -0.0734376256
C  C32  1  0.01510000  0.28230000  0.88300000  1.0 -0.0942119658
C  C33  1  0.08490000  0.27770000  0.95510000  1.0 0.0022215917
C  C34  1  0.60790000  0.25000000  0.09368000  1.0 0.5420331284
C  C35  1  0.69890000  0.58220000  0.86090000  1.0 0.5420331284
C  C36  1  0.58270000  0.31950000  0.00523000  1.0 -0.028205117
C  C37  1  0.64740000  0.41540000  0.97469000  1.0 -0.1313477234
C  C38  1  0.62510000  0.48110000  0.89336000  1.0 -0.028205117
C  C39  1  0.53530000  0.45290000  0.84240000  1.0 -0.0998342047
C  C40  1  0.47200000  0.35740000  0.87190000  1.0 -0.0998342047
C  C41  1  0.49580000  0.29050000  0.95267000  1.0 -0.1313477234
C  C42  1  0.90160000  0.94870000  0.70279000  1.0 0.5457661375
C  C43  1  0.78740000  0.13290000  0.40054000  1.0 0.5457661375
C  C44  1  0.91840000  0.04170000  0.62527000  1.0 -0.028205117
C  C45  1  0.85050000  0.04570000  0.55180000  1.0 -0.1313477234
C  C46  1  0.86180000  0.13190000  0.47952000  1.0 -0.028205117
C  C47  1  0.94340000  0.21520000  0.48125000  1.0 -0.121866338
C  C48  1  0.01170000  0.21200000  0.55420000  1.0 -0.0998342047
C  C49  1  0.99930000  0.12580000  0.62633000  1.0 -0.0998342047
C  C50  1  0.61120000  0.84550000  0.30330000  1.0 0.6338419243
C  C51  1  0.54150000  0.75300000  0.36030000  1.0 -0.3517458216
C  C52  1  0.40870000  0.78650000  0.38560000  1.0 -0.0942119658
C  C53  1  0.32420000  0.86310000  0.24240000  1.0 0.0522226541
C  C54  1  0.25120000  0.85820000  0.17500000  1.0 -0.209539272
C  C55  1  0.17640000  0.76880000  0.17753000  1.0 0.0668082162
C  C56  1  0.18230000  0.68320000  0.25110000  1.0 -0.2034493238
C  C57  1  0.25870000  0.68990000  0.31720000  1.0 0.0295686293
C  C58  1  0.09540000  0.76770000  0.10479000  1.0 0.0522226541
C  C59  1  0.99070000  0.86780000  0.97920000  1.0 -0.001939761
C  C60  1  0.06090000  0.87090000  0.04840000  1.0 -0.0828759895
C  C61  1  0.05040000  0.66920000  0.08530000  1.0 -0.0734376256
C  C62  1  0.97970000  0.67300000  0.01260000  1.0 0.0295686293
C  C63  1  0.05470000  0.81510000  0.95270000  1.0 0.0415592975
C  C64  1  0.12840000  0.81740000  0.02020000  1.0 -0.0734376256
C  C65  1  0.98490000  0.71770000  0.11700000  1.0 -0.0942119658
C  C66  1  0.91510000  0.72230000  0.04490000  1.0 0.0022215917
N  N1  1  0.67180000  0.22090000  0.68736000  1.0 0.0812451019
N  N2  1  0.05100000  0.22970000  0.03864000  1.0 -0.1113729217
N  N3  1  0.32820000  0.77910000  0.31264000  1.0 0.0812451019
N  N4  1  0.94900000  0.77030000  0.96136000  1.0 -0.1113729217
O  O1  1  0.32150000  0.71730000  0.85680000  1.0 -0.526035376
O  O2  1  0.44308000  0.84419000  0.88316000  1.0 -0.567733653
O  O3  1  0.21120000  0.40620000  0.09600000  1.0 -0.5603896157
O  O4  1  0.32740000  0.34810000  0.20559000  1.0 -0.549990885
O  O5  1  0.17340000  0.12480000  0.30250000  1.0 -0.549990885
O  O6  1  0.04093000  0.05327000  0.22849000  1.0 -0.5603896157
O  O7  1  0.29360000  0.93690000  0.59416000  1.0 -0.5441024975
O  O8  1  0.19380000  0.79800000  0.66859000  1.0 -0.5441024975
O  O9  1  0.43735000  0.05414000  0.71229000  1.0 -0.5888387636
O  O10  1  0.28210000  0.18710000  0.72250000  1.0 -0.620078154
O  O11  1  0.50420000  0.77090000  0.68440000  1.0 -0.7301119641
O  O12  1  0.18760000  0.99820000  0.80390000  1.0 -0.7118291334
O  O13  1  0.31540000  0.11725000  0.11273000  1.0 -0.7014448122
O  O14  1  0.98990000  0.32710000  0.23984000  1.0 -0.7301119641
O  O15  1  0.67850000  0.28270000  0.14320000  1.0 -0.526035376
O  O16  1  0.55692000  0.15581000  0.11684000  1.0 -0.567733653
O  O17  1  0.78880000  0.59380000  0.90400000  1.0 -0.5603896157
O  O18  1  0.67260000  0.65190000  0.79441000  1.0 -0.549990885
O  O19  1  0.82660000  0.87520000  0.69750000  1.0 -0.549990885
O  O20  1  0.95907000  0.94673000  0.77151000  1.0 -0.5603896157
O  O21  1  0.70640000  0.06310000  0.40584000  1.0 -0.5441024975
O  O22  1  0.80620000  0.20200000  0.33141000  1.0 -0.5441024975
O  O23  1  0.56265000  0.94586000  0.28771000  1.0 -0.5888387636
O  O24  1  0.71790000  0.81290000  0.27750000  1.0 -0.620078154
O  O25  1  0.49580000  0.22910000  0.31560000  1.0 -0.7301119641
O  O26  1  0.81240000  0.00180000  0.19610000  1.0 -0.7118291334
O  O27  1  0.68460000  0.88275000  0.88727000  1.0 -0.7014448122
O  O28  1  0.01010000  0.67290000  0.76016000  1.0 -0.7301119641
