# DDEC6 charges by PACMAN v1.1 (https://github.com/mtap-research/PACMAN-charge/)
data_DORFAS_FSR_pacman
_symmetry_space_group_name_H-M   'P 1'
_cell_length_a   12.87080000
_cell_length_b   12.87080000
_cell_length_c   17.24330000
_cell_angle_alpha   90.00000000
_cell_angle_beta   90.00000000
_cell_angle_gamma   120.00000000
_symmetry_Int_Tables_number   1
_chemical_formula_structural   InH28(C5O2)4
_chemical_formula_sum   'In3 H84 C60 O24'
_cell_volume   2473.78584135
_cell_formula_units_Z   3
loop_
 _symmetry_equiv_pos_site_id
 _symmetry_equiv_pos_as_xyz
  1  'x, y, z'
loop_
 _atom_site_type_symbol
 _atom_site_label
 _atom_site_symmetry_multiplicity
 _atom_site_fract_x
 _atom_site_fract_y
 _atom_site_fract_z
 _atom_site_occupancy
 _atom_site_charge
In  In1  1  0.62470000  0.62470000  0.00000000  1.0 1.2981741654
In  In2  1  0.37530000  0.00000000  0.33333333  1.0 1.2981741654
In  In3  1  0.00000000  0.37530000  0.66666667  1.0 1.2981741654
H  H1  1  0.44800000  0.02690000  0.06960000  1.0 0.1184665613
H  H2  1  0.97310000  0.42110000  0.40293000  1.0 0.1184665613
H  H3  1  0.57890000  0.55200000  0.73627000  1.0 0.1184665613
H  H4  1  0.02690000  0.44800000  0.93040000  1.0 0.1184665613
H  H5  1  0.42110000  0.97310000  0.59707000  1.0 0.1184665613
H  H6  1  0.55200000  0.57890000  0.26373000  1.0 0.1184665613
H  H7  1  0.64760000  0.16020000  0.08200000  1.0 0.1120242694
H  H8  1  0.83980000  0.48740000  0.41533000  1.0 0.1120242694
H  H9  1  0.51260000  0.35240000  0.74867000  1.0 0.1120242694
H  H10  1  0.16020000  0.64760000  0.91800000  1.0 0.1120242694
H  H11  1  0.48740000  0.83980000  0.58467000  1.0 0.1120242694
H  H12  1  0.35240000  0.51260000  0.25133000  1.0 0.1120242694
H  H13  1  0.66690000  0.08030000  0.14320000  1.0 0.1120242694
H  H14  1  0.91970000  0.58660000  0.47653000  1.0 0.1120242694
H  H15  1  0.41340000  0.33310000  0.80987000  1.0 0.1120242694
H  H16  1  0.08030000  0.66690000  0.85680000  1.0 0.1120242694
H  H17  1  0.58660000  0.91970000  0.52347000  1.0 0.1120242694
H  H18  1  0.33310000  0.41340000  0.19013000  1.0 0.1120242694
H  H19  1  0.72050000  0.00950000  0.04960000  1.0 0.1184665613
H  H20  1  0.99050000  0.71100000  0.38293000  1.0 0.1184665613
H  H21  1  0.28900000  0.27950000  0.71627000  1.0 0.1184665613
H  H22  1  0.00950000  0.72050000  0.95040000  1.0 0.1184665613
H  H23  1  0.71100000  0.99050000  0.61707000  1.0 0.1184665613
H  H24  1  0.27950000  0.28900000  0.28373000  1.0 0.1184665613
H  H25  1  0.68120000  0.07340000  0.98820000  1.0 0.1120242694
H  H26  1  0.92660000  0.60780000  0.32153000  1.0 0.1120242694
H  H27  1  0.39220000  0.31880000  0.65487000  1.0 0.1120242694
H  H28  1  0.07340000  0.68120000  0.01180000  1.0 0.1120242694
H  H29  1  0.60780000  0.92660000  0.67847000  1.0 0.1120242694
H  H30  1  0.31880000  0.39220000  0.34513000  1.0 0.1120242694
H  H31  1  0.53970000  0.92260000  0.89530000  1.0 0.1407815079
H  H32  1  0.07740000  0.61710000  0.22863000  1.0 0.1407815079
H  H33  1  0.38290000  0.46030000  0.56197000  1.0 0.1407815079
H  H34  1  0.92260000  0.53970000  0.10470000  1.0 0.1407815079
H  H35  1  0.61710000  0.07740000  0.77137000  1.0 0.1407815079
H  H36  1  0.46030000  0.38290000  0.43803000  1.0 0.1407815079
H  H37  1  0.46820000  0.97090000  0.94200000  1.0 0.1296068953
H  H38  1  0.02910000  0.49730000  0.27533000  1.0 0.1296068953
H  H39  1  0.50270000  0.53180000  0.60867000  1.0 0.1296068953
H  H40  1  0.97090000  0.46820000  0.05800000  1.0 0.1296068953
H  H41  1  0.49730000  0.02910000  0.72467000  1.0 0.1296068953
H  H42  1  0.53180000  0.50270000  0.39133000  1.0 0.1296068953
H  H43  1  0.41320000  0.83260000  0.92960000  1.0 0.1296068953
H  H44  1  0.16740000  0.58060000  0.26293000  1.0 0.1296068953
H  H45  1  0.41940000  0.58680000  0.59627000  1.0 0.1296068953
H  H46  1  0.83260000  0.41320000  0.07040000  1.0 0.1296068953
H  H47  1  0.58060000  0.16740000  0.73707000  1.0 0.1296068953
H  H48  1  0.58680000  0.41940000  0.40373000  1.0 0.1296068953
H  H49  1  0.27640000  0.77770000  0.11240000  1.0 0.1477513307
H  H50  1  0.22230000  0.49870000  0.44573000  1.0 0.1477513307
H  H51  1  0.50130000  0.72360000  0.77907000  1.0 0.1477513307
H  H52  1  0.77770000  0.27640000  0.88760000  1.0 0.1477513307
H  H53  1  0.49870000  0.22230000  0.55427000  1.0 0.1477513307
H  H54  1  0.72360000  0.50130000  0.22093000  1.0 0.1477513307
H  H55  1  0.30760000  0.71480000  0.04590000  1.0 0.1477513307
H  H56  1  0.28520000  0.59280000  0.37923000  1.0 0.1477513307
H  H57  1  0.40720000  0.69240000  0.71257000  1.0 0.1477513307
H  H58  1  0.71480000  0.30760000  0.95410000  1.0 0.1477513307
H  H59  1  0.59280000  0.28520000  0.62077000  1.0 0.1477513307
H  H60  1  0.69240000  0.40720000  0.28743000  1.0 0.1477513307
H  H61  1  0.29900000  0.82970000  0.02800000  1.0 0.1184665613
H  H62  1  0.17030000  0.46930000  0.36133000  1.0 0.1184665613
H  H63  1  0.53070000  0.70100000  0.69467000  1.0 0.1184665613
H  H64  1  0.82970000  0.29900000  0.97200000  1.0 0.1184665613
H  H65  1  0.46930000  0.17030000  0.63867000  1.0 0.1184665613
H  H66  1  0.70100000  0.53070000  0.30533000  1.0 0.1184665613
H  H67  1  0.57700000  0.86050000  0.16190000  1.0 0.1407815079
H  H68  1  0.13950000  0.71650000  0.49523000  1.0 0.1407815079
H  H69  1  0.28350000  0.42300000  0.82857000  1.0 0.1407815079
H  H70  1  0.86050000  0.57700000  0.83810000  1.0 0.1407815079
H  H71  1  0.71650000  0.13950000  0.50477000  1.0 0.1407815079
H  H72  1  0.42300000  0.28350000  0.17143000  1.0 0.1407815079
H  H73  1  0.47570000  0.73490000  0.13270000  1.0 0.1407815079
H  H74  1  0.26510000  0.74080000  0.46603000  1.0 0.1407815079
H  H75  1  0.25920000  0.52430000  0.79937000  1.0 0.1407815079
H  H76  1  0.73490000  0.47570000  0.86730000  1.0 0.1407815079
H  H77  1  0.74080000  0.26510000  0.53397000  1.0 0.1407815079
H  H78  1  0.52430000  0.25920000  0.20063000  1.0 0.1407815079
H  H79  1  0.44640000  0.80580000  0.19450000  1.0 0.1477513307
H  H80  1  0.19420000  0.64060000  0.52783000  1.0 0.1477513307
H  H81  1  0.35940000  0.55360000  0.86117000  1.0 0.1477513307
H  H82  1  0.80580000  0.44640000  0.80550000  1.0 0.1477513307
H  H83  1  0.64060000  0.19420000  0.47217000  1.0 0.1477513307
H  H84  1  0.55360000  0.35940000  0.13883000  1.0 0.1477513307
C  C1  1  0.54460000  0.89960000  0.01240000  1.0 0.0555165586
C  C2  1  0.10040000  0.64500000  0.34573000  1.0 0.0555165586
C  C3  1  0.35500000  0.45540000  0.67907000  1.0 0.0555165586
C  C4  1  0.89960000  0.54460000  0.98760000  1.0 0.0555165586
C  C5  1  0.64500000  0.10040000  0.65427000  1.0 0.0555165586
C  C6  1  0.45540000  0.35500000  0.32093000  1.0 0.0555165586
C  C7  1  0.46310000  0.87380000  0.08510000  1.0 0.2195433008
C  C8  1  0.12620000  0.58930000  0.41843000  1.0 0.2195433008
C  C9  1  0.41070000  0.53690000  0.75177000  1.0 0.2195433008
C  C10  1  0.87380000  0.46310000  0.91490000  1.0 0.2195433008
C  C11  1  0.58930000  0.12620000  0.58157000  1.0 0.2195433008
C  C12  1  0.53690000  0.41070000  0.24823000  1.0 0.2195433008
C  C13  1  0.48870000  0.00130000  0.10650000  1.0 -0.1568044993
C  C14  1  0.99870000  0.48740000  0.43983000  1.0 -0.1568044993
C  C15  1  0.51260000  0.51130000  0.77317000  1.0 -0.1568044993
C  C16  1  0.00130000  0.48870000  0.89350000  1.0 -0.1568044993
C  C17  1  0.48740000  0.99870000  0.56017000  1.0 -0.1568044993
C  C18  1  0.51130000  0.51260000  0.22683000  1.0 -0.1568044993
C  C19  1  0.62540000  0.07860000  0.09580000  1.0 -0.1483596437
C  C20  1  0.92140000  0.54680000  0.42913000  1.0 -0.1483596437
C  C21  1  0.45320000  0.37460000  0.76247000  1.0 -0.1483596437
C  C22  1  0.07860000  0.62540000  0.90420000  1.0 -0.1483596437
C  C23  1  0.54680000  0.92140000  0.57087000  1.0 -0.1483596437
C  C24  1  0.37460000  0.45320000  0.23753000  1.0 -0.1483596437
C  C25  1  0.65510000  0.02160000  0.03340000  1.0 -0.1892035452
C  C26  1  0.97840000  0.63350000  0.36673000  1.0 -0.1892035452
C  C27  1  0.36650000  0.34490000  0.70007000  1.0 -0.1892035452
C  C28  1  0.02160000  0.65510000  0.96660000  1.0 -0.1892035452
C  C29  1  0.63350000  0.97840000  0.63327000  1.0 -0.1892035452
C  C30  1  0.34490000  0.36650000  0.29993000  1.0 -0.1892035452
C  C31  1  0.48610000  0.90710000  0.93800000  1.0 -0.4317447715
C  C32  1  0.09290000  0.57900000  0.27133000  1.0 -0.4317447715
C  C33  1  0.42100000  0.51390000  0.60467000  1.0 -0.4317447715
C  C34  1  0.90710000  0.48610000  0.06200000  1.0 -0.4317447715
C  C35  1  0.57900000  0.09290000  0.72867000  1.0 -0.4317447715
C  C36  1  0.51390000  0.42100000  0.39533000  1.0 -0.4317447715
C  C37  1  0.32230000  0.79060000  0.06590000  1.0 -0.4631022983
C  C38  1  0.20940000  0.53170000  0.39923000  1.0 -0.4631022983
C  C39  1  0.46830000  0.67770000  0.73257000  1.0 -0.4631022983
C  C40  1  0.79060000  0.32230000  0.93410000  1.0 -0.4631022983
C  C41  1  0.53170000  0.20940000  0.60077000  1.0 -0.4631022983
C  C42  1  0.67770000  0.46830000  0.26743000  1.0 -0.4631022983
C  C43  1  0.49330000  0.81320000  0.14940000  1.0 -0.4678776585
C  C44  1  0.18680000  0.68010000  0.48273000  1.0 -0.4678776585
C  C45  1  0.31990000  0.50670000  0.81607000  1.0 -0.4678776585
C  C46  1  0.81320000  0.49330000  0.85060000  1.0 -0.4678776585
C  C47  1  0.68010000  0.18680000  0.51727000  1.0 -0.4678776585
C  C48  1  0.50670000  0.31990000  0.18393000  1.0 -0.4678776585
C  C49  1  0.57460000  0.79950000  0.00130000  1.0 0.5155672458
C  C50  1  0.20050000  0.77510000  0.33463000  1.0 0.5155672458
C  C51  1  0.22490000  0.42540000  0.66797000  1.0 0.5155672458
C  C52  1  0.79950000  0.57460000  0.99870000  1.0 0.5155672458
C  C53  1  0.77510000  0.20050000  0.66537000  1.0 0.5155672458
C  C54  1  0.42540000  0.22490000  0.33203000  1.0 0.5155672458
C  C55  1  0.44600000  0.00450000  0.18930000  1.0 0.5561921425
C  C56  1  0.99550000  0.44150000  0.52263000  1.0 0.5561921425
C  C57  1  0.55850000  0.55400000  0.85597000  1.0 0.5561921425
C  C58  1  0.00450000  0.44600000  0.81070000  1.0 0.5561921425
C  C59  1  0.44150000  0.99550000  0.47737000  1.0 0.5561921425
C  C60  1  0.55400000  0.55850000  0.14403000  1.0 0.5561921425
O  O1  1  0.68080000  0.81950000  0.01050000  1.0 -0.4678776585
O  O2  1  0.18050000  0.86130000  0.34383000  1.0 -0.4678776585
O  O3  1  0.13870000  0.31920000  0.67717000  1.0 -0.4678776585
O  O4  1  0.81950000  0.68080000  0.98950000  1.0 -0.4678776585
O  O5  1  0.86130000  0.18050000  0.65617000  1.0 -0.4678776585
O  O6  1  0.31920000  0.13870000  0.32283000  1.0 -0.4678776585
O  O7  1  0.49230000  0.69640000  0.98490000  1.0 -0.495969869
O  O8  1  0.30360000  0.79590000  0.31823000  1.0 -0.495969869
O  O9  1  0.20410000  0.50770000  0.65157000  1.0 -0.495969869
O  O10  1  0.69640000  0.49230000  0.01510000  1.0 -0.495969869
O  O11  1  0.79590000  0.30360000  0.68177000  1.0 -0.495969869
O  O12  1  0.50770000  0.20410000  0.34843000  1.0 -0.495969869
O  O13  1  0.34020000  0.98370000  0.19950000  1.0 -0.5082857582
O  O14  1  0.01630000  0.35650000  0.53283000  1.0 -0.5082857582
O  O15  1  0.64350000  0.65980000  0.86617000  1.0 -0.5082857582
O  O16  1  0.98370000  0.34020000  0.80050000  1.0 -0.5082857582
O  O17  1  0.35650000  0.01630000  0.46717000  1.0 -0.5082857582
O  O18  1  0.65980000  0.64350000  0.13383000  1.0 -0.5082857582
O  O19  1  0.51350000  0.02400000  0.24560000  1.0 -0.4829654269
O  O20  1  0.97600000  0.48950000  0.57893000  1.0 -0.4829654269
O  O21  1  0.51050000  0.48650000  0.91227000  1.0 -0.4829654269
O  O22  1  0.02400000  0.51350000  0.75440000  1.0 -0.4829654269
O  O23  1  0.48950000  0.97600000  0.42107000  1.0 -0.4829654269
O  O24  1  0.48650000  0.51050000  0.08773000  1.0 -0.4829654269
