# DDEC6 charges by PACMAN v1.1 (https://github.com/mtap-research/PACMAN-charge/)
data_DOTTEM_ASR_pacman
_symmetry_space_group_name_H-M   'P 1'
_cell_length_a   6.74440000
_cell_length_b   12.16460000
_cell_length_c   17.41000000
_cell_angle_alpha   90.00000000
_cell_angle_beta   90.00000000
_cell_angle_gamma   90.00000000
_symmetry_Int_Tables_number   1
_chemical_formula_structural   GaH5C8O5
_chemical_formula_sum   'Ga4 H20 C32 O20'
_cell_volume   1428.36738066
_cell_formula_units_Z   4
loop_
 _symmetry_equiv_pos_site_id
 _symmetry_equiv_pos_as_xyz
  1  'x, y, z'
loop_
 _atom_site_type_symbol
 _atom_site_label
 _atom_site_symmetry_multiplicity
 _atom_site_fract_x
 _atom_site_fract_y
 _atom_site_fract_z
 _atom_site_occupancy
 _atom_site_charge
Ga  Ga1  1  0.00000000  0.00000000  0.00000000  1.0 1.3531417414
Ga  Ga2  1  0.00000000  0.50000000  0.50000000  1.0 1.3531417414
Ga  Ga3  1  0.50000000  0.00000000  0.00000000  1.0 1.3531417414
Ga  Ga4  1  0.50000000  0.50000000  0.50000000  1.0 1.3531417414
H  H1  1  0.75000000  0.11400000  0.01800000  1.0 0.3744583889
H  H2  1  0.25000000  0.61400000  0.48200000  1.0 0.3744583889
H  H3  1  0.25000000  0.88600000  0.98200000  1.0 0.3744583889
H  H4  1  0.75000000  0.38600000  0.51800000  1.0 0.3755928143
H  H5  1  0.04760000  0.68180000  0.29650000  1.0 0.1188729382
H  H6  1  0.95240000  0.18180000  0.20350000  1.0 0.1188729382
H  H7  1  0.54760000  0.31820000  0.70350000  1.0 0.1188729382
H  H8  1  0.45240000  0.81820000  0.79650000  1.0 0.1188729382
H  H9  1  0.95240000  0.31820000  0.70350000  1.0 0.1188729382
H  H10  1  0.04760000  0.81820000  0.79650000  1.0 0.1188729382
H  H11  1  0.45240000  0.68180000  0.29650000  1.0 0.1188729382
H  H12  1  0.54760000  0.18180000  0.20350000  1.0 0.1188729382
H  H13  1  0.04750000  0.78020000  0.18280000  1.0 0.1188729382
H  H14  1  0.95250000  0.28020000  0.31720000  1.0 0.1188729382
H  H15  1  0.54750000  0.21980000  0.81720000  1.0 0.1188729382
H  H16  1  0.45250000  0.71980000  0.68280000  1.0 0.1188729382
H  H17  1  0.95250000  0.21980000  0.81720000  1.0 0.1188729382
H  H18  1  0.04750000  0.71980000  0.68280000  1.0 0.1188729382
H  H19  1  0.45250000  0.78020000  0.18280000  1.0 0.1188729382
H  H20  1  0.54750000  0.28020000  0.31720000  1.0 0.1188729382
C  C1  1  0.75000000  0.61120000  0.38288000  1.0 0.5941993459
C  C2  1  0.25000000  0.11120000  0.11712000  1.0 0.5941993459
C  C3  1  0.25000000  0.38880000  0.61712000  1.0 0.5941993459
C  C4  1  0.75000000  0.88880000  0.88288000  1.0 0.5941993459
C  C5  1  0.75000000  0.67240000  0.30796000  1.0 -0.0276375934
C  C6  1  0.25000000  0.17240000  0.19204000  1.0 -0.0276375934
C  C7  1  0.25000000  0.32760000  0.69204000  1.0 -0.0276375934
C  C8  1  0.75000000  0.82760000  0.80796000  1.0 -0.0276375934
C  C9  1  0.92810000  0.70170000  0.27375000  1.0 -0.1108332751
C  C10  1  0.07190000  0.20170000  0.22625000  1.0 -0.1108332751
C  C11  1  0.42810000  0.29830000  0.72625000  1.0 -0.1108332751
C  C12  1  0.57190000  0.79830000  0.77375000  1.0 -0.1108332751
C  C13  1  0.07190000  0.29830000  0.72625000  1.0 -0.1108332751
C  C14  1  0.92810000  0.79830000  0.77375000  1.0 -0.1108332751
C  C15  1  0.57190000  0.70170000  0.27375000  1.0 -0.1108332751
C  C16  1  0.42810000  0.20170000  0.22625000  1.0 -0.1108332751
C  C17  1  0.92800000  0.76060000  0.20571000  1.0 -0.1108332751
C  C18  1  0.07200000  0.26060000  0.29429000  1.0 -0.1108332751
C  C19  1  0.42800000  0.23940000  0.79429000  1.0 -0.1108332751
C  C20  1  0.57200000  0.73940000  0.70571000  1.0 -0.1108332751
C  C21  1  0.07200000  0.23940000  0.79429000  1.0 -0.1108332751
C  C22  1  0.92800000  0.73940000  0.70571000  1.0 -0.1108332751
C  C23  1  0.57200000  0.76060000  0.20571000  1.0 -0.1108332751
C  C24  1  0.42800000  0.26060000  0.29429000  1.0 -0.1108332751
C  C25  1  0.75000000  0.79030000  0.17169000  1.0 -0.0276375934
C  C26  1  0.25000000  0.29030000  0.32831000  1.0 -0.0276375934
C  C27  1  0.25000000  0.20970000  0.82831000  1.0 -0.0276375934
C  C28  1  0.75000000  0.70970000  0.67169000  1.0 -0.0276375934
C  C29  1  0.75000000  0.86000000  0.10046000  1.0 0.5941993459
C  C30  1  0.25000000  0.36000000  0.39954000  1.0 0.5941993459
C  C31  1  0.25000000  0.14000000  0.89954000  1.0 0.5941993459
C  C32  1  0.75000000  0.64000000  0.60046000  1.0 0.5941993459
O  O1  1  0.75000000  0.07130000  0.00563000  1.0 -0.6771232919
O  O2  1  0.25000000  0.57130000  0.49437000  1.0 -0.6771232919
O  O3  1  0.25000000  0.92870000  0.99437000  1.0 -0.6771232919
O  O4  1  0.75000000  0.42870000  0.50563000  1.0 -0.6771232919
O  O5  1  0.91692000  0.88610000  0.07387000  1.0 -0.5540106506
O  O6  1  0.08308000  0.38610000  0.42613000  1.0 -0.5540106506
O  O7  1  0.41692000  0.11390000  0.92613000  1.0 -0.5540106506
O  O8  1  0.58308000  0.61390000  0.57387000  1.0 -0.5540106506
O  O9  1  0.08308000  0.11390000  0.92613000  1.0 -0.5540106506
O  O10  1  0.91692000  0.61390000  0.57387000  1.0 -0.5540106506
O  O11  1  0.58308000  0.88610000  0.07387000  1.0 -0.5540106506
O  O12  1  0.41692000  0.38610000  0.42613000  1.0 -0.5540106506
O  O13  1  0.91680000  0.58881000  0.41090000  1.0 -0.5540106506
O  O14  1  0.08320000  0.08881000  0.08910000  1.0 -0.5540106506
O  O15  1  0.41680000  0.41119000  0.58910000  1.0 -0.5540106506
O  O16  1  0.58320000  0.91119000  0.91090000  1.0 -0.5540106506
O  O17  1  0.08320000  0.41119000  0.58910000  1.0 -0.5540106506
O  O18  1  0.91680000  0.91119000  0.91090000  1.0 -0.5540106506
O  O19  1  0.58320000  0.58881000  0.41090000  1.0 -0.5540106506
O  O20  1  0.41680000  0.08881000  0.08910000  1.0 -0.5540106506
