# DDEC6 charges by PACMAN v1.1 (https://github.com/mtap-research/PACMAN-charge/)
data_DOYBUQ01_FSR_pacman
_symmetry_space_group_name_H-M   'P 1'
_cell_length_a   16.32200000
_cell_length_b   16.22250000
_cell_length_c   10.19740000
_cell_angle_alpha   72.27120000
_cell_angle_beta   71.20970000
_cell_angle_gamma   36.51920000
_symmetry_Int_Tables_number   1
_chemical_formula_structural   FeH4Pt(C4N3)2
_chemical_formula_sum   'Fe4 H16 Pt4 C32 N24'
_cell_volume   1516.17222781
_cell_formula_units_Z   4
loop_
 _symmetry_equiv_pos_site_id
 _symmetry_equiv_pos_as_xyz
  1  'x, y, z'
loop_
 _atom_site_type_symbol
 _atom_site_label
 _atom_site_symmetry_multiplicity
 _atom_site_fract_x
 _atom_site_fract_y
 _atom_site_fract_z
 _atom_site_occupancy
 _atom_site_charge
Fe  Fe1  1  0.50000000  0.50000000  0.00000000  1.0 0.8582718592
Fe  Fe2  1  0.00000000  0.00000000  0.50000000  1.0 0.8582718592
Fe  Fe3  1  0.25000000  0.25000000  0.25000000  1.0 0.8460208695
Fe  Fe4  1  0.75000000  0.75000000  0.75000000  1.0 0.8460208695
H  H1  1  0.52900000  0.47100000  0.69100000  1.0 0.1210509187
H  H2  1  0.47100000  0.52900000  0.30900000  1.0 0.1210509187
H  H3  1  0.30900000  0.69100000  0.47100000  1.0 0.1210509187
H  H4  1  0.69100000  0.30900000  0.52900000  1.0 0.1210509187
H  H5  1  0.79670000  0.20330000  0.95930000  1.0 0.1210509187
H  H6  1  0.20330000  0.79670000  0.04070000  1.0 0.1210509187
H  H7  1  0.04070000  0.95930000  0.20330000  1.0 0.1210509187
H  H8  1  0.95930000  0.04070000  0.79670000  1.0 0.1210509187
H  H9  1  0.30120000  0.22540000  0.93520000  1.0 0.1259436734
H  H10  1  0.22540000  0.30120000  0.53820000  1.0 0.1259436734
H  H11  1  0.53820000  0.93520000  0.22540000  1.0 0.1259436734
H  H12  1  0.93520000  0.53820000  0.30120000  1.0 0.1259436734
H  H13  1  0.69880000  0.77460000  0.06480000  1.0 0.1259436734
H  H14  1  0.77460000  0.69880000  0.46180000  1.0 0.1259436734
H  H15  1  0.46180000  0.06480000  0.77460000  1.0 0.1259436734
H  H16  1  0.06480000  0.46180000  0.69880000  1.0 0.1259436734
Pt  Pt1  1  0.10547000  0.64447000  0.89453000  1.0 0.1210509187
Pt  Pt2  1  0.64447000  0.10547000  0.35553000  1.0 0.1210509187
Pt  Pt3  1  0.35553000  0.89453000  0.64447000  1.0 0.1210509187
Pt  Pt4  1  0.89453000  0.35553000  0.10547000  1.0 0.1210509187
C  C1  1  0.25300000  0.59420000  0.93880000  1.0 0.0561731156
C  C2  1  0.59420000  0.25300000  0.21400000  1.0 0.0561731156
C  C3  1  0.21400000  0.93880000  0.59420000  1.0 0.0561731156
C  C4  1  0.93880000  0.21400000  0.25300000  1.0 0.0561731156
C  C5  1  0.74700000  0.40580000  0.06120000  1.0 0.0561731156
C  C6  1  0.40580000  0.74700000  0.78600000  1.0 0.0561731156
C  C7  1  0.78600000  0.06120000  0.40580000  1.0 0.0561731156
C  C8  1  0.06120000  0.78600000  0.74700000  1.0 0.0561731156
C  C9  1  0.15640000  0.49620000  0.03460000  1.0 0.0522330008
C  C10  1  0.49620000  0.15640000  0.31280000  1.0 0.0522330008
C  C11  1  0.31280000  0.03460000  0.49620000  1.0 0.0522330008
C  C12  1  0.03460000  0.31280000  0.15640000  1.0 0.0522330008
C  C13  1  0.84360000  0.50380000  0.96540000  1.0 0.0522330008
C  C14  1  0.50380000  0.84360000  0.68720000  1.0 0.0522330008
C  C15  1  0.68720000  0.96540000  0.50380000  1.0 0.0522330008
C  C16  1  0.96540000  0.68720000  0.84360000  1.0 0.0522330008
C  C17  1  0.61780000  0.38220000  0.71660000  1.0 0.0224884102
C  C18  1  0.38220000  0.61780000  0.28340000  1.0 0.0224884102
C  C19  1  0.28340000  0.71660000  0.38220000  1.0 0.0224884102
C  C20  1  0.71660000  0.28340000  0.61780000  1.0 0.0224884102
C  C21  1  0.77140000  0.22860000  0.87040000  1.0 0.0224884102
C  C22  1  0.22860000  0.77140000  0.12960000  1.0 0.0224884102
C  C23  1  0.12960000  0.87040000  0.22860000  1.0 0.0224884102
C  C24  1  0.87040000  0.12960000  0.77140000  1.0 0.0224884102
C  C25  1  0.38330000  0.13190000  0.96470000  1.0 0.0271088603
C  C26  1  0.13190000  0.38330000  0.52010000  1.0 0.0271088603
C  C27  1  0.52010000  0.96470000  0.13190000  1.0 0.0271088603
C  C28  1  0.96470000  0.52010000  0.38330000  1.0 0.0271088603
C  C29  1  0.61670000  0.86810000  0.03530000  1.0 0.0271088603
C  C30  1  0.86810000  0.61670000  0.47990000  1.0 0.0271088603
C  C31  1  0.47990000  0.03530000  0.86810000  1.0 0.0271088603
C  C32  1  0.03530000  0.47990000  0.61670000  1.0 0.0271088603
N  N1  1  0.34280000  0.55960000  0.95980000  1.0 -0.3612169777
N  N2  1  0.55960000  0.34280000  0.13780000  1.0 -0.3612169777
N  N3  1  0.13780000  0.95980000  0.55960000  1.0 -0.3612169777
N  N4  1  0.95980000  0.13780000  0.34280000  1.0 -0.3612169777
N  N5  1  0.65720000  0.44040000  0.04020000  1.0 -0.3612169777
N  N6  1  0.44040000  0.65720000  0.86220000  1.0 -0.3612169777
N  N7  1  0.86220000  0.04020000  0.44040000  1.0 -0.3612169777
N  N8  1  0.04020000  0.86220000  0.65720000  1.0 -0.3612169777
N  N9  1  0.19120000  0.40600000  0.10820000  1.0 -0.3612169777
N  N10  1  0.40600000  0.19120000  0.29460000  1.0 -0.3612169777
N  N11  1  0.29460000  0.10820000  0.40600000  1.0 -0.3612169777
N  N12  1  0.10820000  0.29460000  0.19120000  1.0 -0.3612169777
N  N13  1  0.80880000  0.59400000  0.89180000  1.0 -0.3612169777
N  N14  1  0.59400000  0.80880000  0.70540000  1.0 -0.3612169777
N  N15  1  0.70540000  0.89180000  0.59400000  1.0 -0.3612169777
N  N16  1  0.89180000  0.70540000  0.80880000  1.0 -0.3612169777
N  N17  1  0.64160000  0.35840000  0.84580000  1.0 -0.169162665
N  N18  1  0.35840000  0.64160000  0.15420000  1.0 -0.169162665
N  N19  1  0.15420000  0.84580000  0.35840000  1.0 -0.169162665
N  N20  1  0.84580000  0.15420000  0.64160000  1.0 -0.169162665
N  N21  1  0.40010000  0.09990000  0.09990000  1.0 -0.169162665
N  N22  1  0.09990000  0.40010000  0.40010000  1.0 -0.169162665
N  N23  1  0.59990000  0.90010000  0.90010000  1.0 -0.169162665
N  N24  1  0.90010000  0.59990000  0.59990000  1.0 -0.169162665
