# DDEC6 charges by PACMAN v1.1 (https://github.com/mtap-research/PACMAN-charge/)
data_DOYLEI_ASR_pacman
_symmetry_space_group_name_H-M   'P 1'
_cell_length_a   7.71500000
_cell_length_b   9.77400000
_cell_length_c   13.91800000
_cell_angle_alpha   93.18000000
_cell_angle_beta   90.41000000
_cell_angle_gamma   90.43000000
_symmetry_Int_Tables_number   1
_chemical_formula_structural   CdNiH12(C4N3)2
_chemical_formula_sum   'Cd2 Ni2 H24 C16 N12'
_cell_volume   1047.83072682
_cell_formula_units_Z   2
loop_
 _symmetry_equiv_pos_site_id
 _symmetry_equiv_pos_as_xyz
  1  'x, y, z'
loop_
 _atom_site_type_symbol
 _atom_site_label
 _atom_site_symmetry_multiplicity
 _atom_site_fract_x
 _atom_site_fract_y
 _atom_site_fract_z
 _atom_site_occupancy
 _atom_site_charge
Cd  Cd1  1  0.50349000  0.09521000  0.26437000  1.0 0.881967494
Cd  Cd2  1  0.49651000  0.90479000  0.73563000  1.0 0.881967494
Ni  Ni1  1  0.00000000  0.00000000  0.00000000  1.0 0.1221171038
Ni  Ni2  1  0.00000000  0.00000000  0.50000000  1.0 0.1221171038
H  H1  1  0.35318000  0.33969000  0.21227000  1.0 0.2710010128
H  H2  1  0.64682000  0.66031000  0.78773000  1.0 0.2710010128
H  H3  1  0.57520000  0.34559000  0.18517000  1.0 0.2710010128
H  H4  1  0.42480000  0.65441000  0.81483000  1.0 0.2710010128
H  H5  1  0.64085000  0.40157000  0.34882000  1.0 0.0985473883
H  H6  1  0.35915000  0.59843000  0.65118000  1.0 0.0985473883
H  H7  1  0.41925000  0.39414000  0.37672000  1.0 0.0782554203
H  H8  1  0.58075000  0.60586000  0.62328000  1.0 0.0782554203
H  H9  1  0.36448000  0.58276000  0.27122000  1.0 0.0909143877
H  H10  1  0.63552000  0.41724000  0.72878000  1.0 0.0909143877
H  H11  1  0.58711000  0.59126000  0.24600000  1.0 0.0909143877
H  H12  1  0.41289000  0.40874000  0.75400000  1.0 0.0909143877
H  H13  1  0.65423000  0.66014000  0.40661000  1.0 0.0985473883
H  H14  1  0.34577000  0.33986000  0.59339000  1.0 0.0985473883
H  H15  1  0.44022000  0.62985000  0.44289000  1.0 0.0985473883
H  H16  1  0.55978000  0.37015000  0.55711000  1.0 0.0985473883
H  H17  1  0.52635000  0.87627000  0.43165000  1.0 0.0909143877
H  H18  1  0.47365000  0.12373000  0.56835000  1.0 0.0909143877
H  H19  1  0.33636000  0.82416000  0.36898000  1.0 0.0656474175
H  H20  1  0.66364000  0.17584000  0.63102000  1.0 0.0656474175
H  H21  1  0.48741000  0.80682000  0.22314000  1.0 0.2555910738
H  H22  1  0.51259000  0.19318000  0.77686000  1.0 0.2501941216
H  H23  1  0.68437000  0.84533000  0.28331000  1.0 0.2501941216
H  H24  1  0.31563000  0.15467000  0.71669000  1.0 0.2501941216
C  C1  1  0.17300000  0.02900000  0.09230000  1.0 0.050897002
C  C2  1  0.82700000  0.97100000  0.90770000  1.0 0.050897002
C  C3  1  0.17300000  0.07300000  0.42590000  1.0 0.0385910838
C  C4  1  0.82700000  0.92700000  0.57410000  1.0 0.0385910838
C  C5  1  0.83100000  0.08300000  0.42860000  1.0 0.0385910838
C  C6  1  0.16900000  0.91700000  0.57140000  1.0 0.0385910838
C  C7  1  0.83100000  0.04300000  0.09150000  1.0 0.050897002
C  C8  1  0.16900000  0.95700000  0.90850000  1.0 0.050897002
C  C9  1  0.51300000  0.41800000  0.32040000  1.0 -0.004606245
C  C10  1  0.48700000  0.58200000  0.67960000  1.0 -0.004606245
C  C11  1  0.49400000  0.56800000  0.29900000  1.0 -0.1813507138
C  C12  1  0.50600000  0.43200000  0.70100000  1.0 -0.1813507138
C  C13  1  0.52200000  0.66400000  0.38560000  1.0 -0.2074384151
C  C14  1  0.47800000  0.33600000  0.61440000  1.0 -0.2074384151
C  C15  1  0.48000000  0.81400000  0.37100000  1.0 0.0262957455
C  C16  1  0.52000000  0.18600000  0.62900000  1.0 0.0262957455
N  N1  1  0.27900000  0.04800000  0.14790000  1.0 -0.3810930076
N  N2  1  0.72100000  0.95200000  0.85210000  1.0 -0.3810930076
N  N3  1  0.28300000  0.11500000  0.37990000  1.0 -0.3810930076
N  N4  1  0.71700000  0.88500000  0.62010000  1.0 -0.3810930076
N  N5  1  0.72400000  0.13000000  0.38400000  1.0 -0.3810930076
N  N6  1  0.27600000  0.87000000  0.61600000  1.0 -0.3810930076
N  N7  1  0.72600000  0.06900000  0.14720000  1.0 -0.3810930076
N  N8  1  0.27400000  0.93100000  0.85280000  1.0 -0.38586857
N  N9  1  0.48500000  0.32210000  0.23860000  1.0 -0.5411321132
N  N10  1  0.51500000  0.67790000  0.76140000  1.0 -0.5411321132
N  N11  1  0.53900000  0.86400000  0.28610000  1.0 -0.5054461269
N  N12  1  0.46100000  0.13600000  0.71390000  1.0 -0.5054461269
