# DDEC6 charges by PACMAN v1.1 (https://github.com/mtap-research/PACMAN-charge/)
data_DOYWOF_ASR_pacman
_symmetry_space_group_name_H-M   'P 1'
_cell_length_a   10.40400000
_cell_length_b   19.48100000
_cell_length_c   18.63250000
_cell_angle_alpha   90.00000000
_cell_angle_beta   94.78700000
_cell_angle_gamma   90.00000000
_symmetry_Int_Tables_number   1
_chemical_formula_structural   CoH19C29S3N5
_chemical_formula_sum   'Co4 H76 C116 S12 N20'
_cell_volume   3763.26822860
_cell_formula_units_Z   4
loop_
 _symmetry_equiv_pos_site_id
 _symmetry_equiv_pos_as_xyz
  1  'x, y, z'
loop_
 _atom_site_type_symbol
 _atom_site_label
 _atom_site_symmetry_multiplicity
 _atom_site_fract_x
 _atom_site_fract_y
 _atom_site_fract_z
 _atom_site_occupancy
 _atom_site_charge
Co  Co1  1  0.44017000  0.42231000  0.28158000  1.0 0.6463785587
Co  Co2  1  0.05983000  0.92231000  0.71842000  1.0 0.6463785587
Co  Co3  1  0.55983000  0.57769000  0.71842000  1.0 0.6463785587
Co  Co4  1  0.94017000  0.07769000  0.28158000  1.0 0.6463785587
H  H1  1  0.46770000  0.56910000  0.22280000  1.0 0.0986698014
H  H2  1  0.03230000  0.06910000  0.77720000  1.0 0.0986698014
H  H3  1  0.53230000  0.43090000  0.77720000  1.0 0.0986698014
H  H4  1  0.96770000  0.93090000  0.22280000  1.0 0.0986698014
H  H5  1  0.50610000  0.67950000  0.25870000  1.0 0.1295122546
H  H6  1  0.99390000  0.17950000  0.74130000  1.0 0.1295122546
H  H7  1  0.49390000  0.32050000  0.74130000  1.0 0.1295122546
H  H8  1  0.00610000  0.82050000  0.25870000  1.0 0.1295122546
H  H9  1  0.50960000  0.61520000  0.46240000  1.0 0.120622641
H  H10  1  0.99040000  0.11520000  0.53760000  1.0 0.120622641
H  H11  1  0.49040000  0.38480000  0.53760000  1.0 0.120622641
H  H12  1  0.00960000  0.88480000  0.46240000  1.0 0.120622641
H  H13  1  0.45840000  0.50770000  0.42090000  1.0 0.0986698014
H  H14  1  0.04160000  0.00770000  0.57910000  1.0 0.0986698014
H  H15  1  0.54160000  0.49230000  0.57910000  1.0 0.0986698014
H  H16  1  0.95840000  0.99230000  0.42090000  1.0 0.0986698014
H  H17  1  0.36240000  0.76590000  0.29490000  1.0 0.1083615127
H  H18  1  0.13760000  0.26590000  0.70510000  1.0 0.1083615127
H  H19  1  0.63760000  0.23410000  0.70510000  1.0 0.1083615127
H  H20  1  0.86240000  0.73410000  0.29490000  1.0 0.1083615127
H  H21  1  0.28340000  0.86130000  0.24920000  1.0 0.1083615127
H  H22  1  0.21660000  0.36130000  0.75080000  1.0 0.1083615127
H  H23  1  0.71660000  0.13870000  0.75080000  1.0 0.1083615127
H  H24  1  0.78340000  0.63870000  0.24920000  1.0 0.1083615127
H  H25  1  0.35010000  0.96660000  0.27510000  1.0 0.0986698014
H  H26  1  0.14990000  0.46660000  0.72490000  1.0 0.0986698014
H  H27  1  0.64990000  0.03340000  0.72490000  1.0 0.0986698014
H  H28  1  0.85010000  0.53340000  0.27510000  1.0 0.0986698014
H  H29  1  0.50140000  0.00150000  0.35290000  1.0 0.1083615127
H  H30  1  0.99860000  0.50150000  0.64710000  1.0 0.1083615127
H  H31  1  0.49860000  0.99850000  0.64710000  1.0 0.1083615127
H  H32  1  0.00140000  0.49850000  0.35290000  1.0 0.1083615127
H  H33  1  0.62420000  0.94360000  0.42990000  1.0 0.1083615127
H  H34  1  0.87580000  0.44360000  0.57010000  1.0 0.1083615127
H  H35  1  0.37580000  0.05640000  0.57010000  1.0 0.1083615127
H  H36  1  0.12420000  0.55640000  0.42990000  1.0 0.1083615127
H  H37  1  0.68050000  0.70730000  0.47820000  1.0 0.120622641
H  H38  1  0.81950000  0.20730000  0.52180000  1.0 0.120622641
H  H39  1  0.31950000  0.29270000  0.52180000  1.0 0.120622641
H  H40  1  0.18050000  0.79270000  0.47820000  1.0 0.120622641
H  H41  1  0.86920000  0.76000000  0.52460000  1.0 0.120622641
H  H42  1  0.63080000  0.26000000  0.47540000  1.0 0.120622641
H  H43  1  0.13080000  0.24000000  0.47540000  1.0 0.120622641
H  H44  1  0.36920000  0.74000000  0.52460000  1.0 0.120622641
H  H45  1  0.01050000  0.80180000  0.61390000  1.0 0.1083615127
H  H46  1  0.48950000  0.30180000  0.38610000  1.0 0.1083615127
H  H47  1  0.98950000  0.19820000  0.38610000  1.0 0.1083615127
H  H48  1  0.51050000  0.69820000  0.61390000  1.0 0.1083615127
H  H49  1  0.79380000  0.96050000  0.63830000  1.0 0.0986698014
H  H50  1  0.70620000  0.46050000  0.36170000  1.0 0.0986698014
H  H51  1  0.20620000  0.03950000  0.36170000  1.0 0.0986698014
H  H52  1  0.29380000  0.53950000  0.63830000  1.0 0.0986698014
H  H53  1  0.64920000  0.92630000  0.54730000  1.0 0.1295122546
H  H54  1  0.85080000  0.42630000  0.45270000  1.0 0.1295122546
H  H55  1  0.35080000  0.07370000  0.45270000  1.0 0.1295122546
H  H56  1  0.14920000  0.57370000  0.54730000  1.0 0.1295122546
H  H57  1  0.37440000  0.40690000  0.11800000  1.0 0.0986698014
H  H58  1  0.12560000  0.90690000  0.88200000  1.0 0.0986698014
H  H59  1  0.62560000  0.59310000  0.88200000  1.0 0.0986698014
H  H60  1  0.87440000  0.09310000  0.11800000  1.0 0.0986698014
H  H61  1  0.22130000  0.43440000  0.02750000  1.0 0.120622641
H  H62  1  0.27870000  0.93440000  0.97250000  1.0 0.120622641
H  H63  1  0.77870000  0.56560000  0.97250000  1.0 0.120622641
H  H64  1  0.72130000  0.06560000  0.02750000  1.0 0.120622641
H  H65  1  0.03990000  0.54390000  0.16850000  1.0 0.120622641
H  H66  1  0.46010000  0.04390000  0.83150000  1.0 0.120622641
H  H67  1  0.96010000  0.45610000  0.83150000  1.0 0.120622641
H  H68  1  0.53990000  0.95610000  0.16850000  1.0 0.120622641
H  H69  1  0.19350000  0.51110000  0.25590000  1.0 0.0986698014
H  H70  1  0.30650000  0.01110000  0.74410000  1.0 0.0986698014
H  H71  1  0.80650000  0.48890000  0.74410000  1.0 0.0986698014
H  H72  1  0.69350000  0.98890000  0.25590000  1.0 0.0986698014
H  H73  1  0.95100000  0.54600000  0.04380000  1.0 0.1083615127
H  H74  1  0.54900000  0.04600000  0.95620000  1.0 0.1083615127
H  H75  1  0.04900000  0.45400000  0.95620000  1.0 0.1083615127
H  H76  1  0.45100000  0.95400000  0.04380000  1.0 0.1083615127
C  C1  1  0.47460000  0.57870000  0.27190000  1.0 0.0698538051
C  C2  1  0.02540000  0.07870000  0.72810000  1.0 0.0698538051
C  C3  1  0.52540000  0.42130000  0.72810000  1.0 0.0698538051
C  C4  1  0.97460000  0.92130000  0.27190000  1.0 0.0698538051
C  C5  1  0.49830000  0.64520000  0.29290000  1.0 -0.180180211
C  C6  1  0.00170000  0.14520000  0.70710000  1.0 -0.180180211
C  C7  1  0.50170000  0.35480000  0.70710000  1.0 -0.180180211
C  C8  1  0.99830000  0.85480000  0.29290000  1.0 -0.180180211
C  C9  1  0.51070000  0.66080000  0.36590000  1.0 0.120622641
C  C10  1  0.98930000  0.16080000  0.63410000  1.0 0.120622641
C  C11  1  0.48930000  0.33920000  0.63410000  1.0 0.120622641
C  C12  1  0.01070000  0.83920000  0.36590000  1.0 0.120622641
C  C13  1  0.49870000  0.60730000  0.41300000  1.0 -0.180180211
C  C14  1  0.00130000  0.10730000  0.58700000  1.0 -0.180180211
C  C15  1  0.50130000  0.39270000  0.58700000  1.0 -0.180180211
C  C16  1  0.99870000  0.89270000  0.41300000  1.0 -0.180180211
C  C17  1  0.47080000  0.54240000  0.38780000  1.0 0.0698538051
C  C18  1  0.02920000  0.04240000  0.61220000  1.0 0.0698538051
C  C19  1  0.52920000  0.45760000  0.61220000  1.0 0.0698538051
C  C20  1  0.97080000  0.95760000  0.38780000  1.0 0.0698538051
C  C21  1  0.54630000  0.72960000  0.39370000  1.0 0.0047750575
C  C22  1  0.95370000  0.22960000  0.60630000  1.0 0.0047750575
C  C23  1  0.45370000  0.27040000  0.60630000  1.0 0.0047750575
C  C24  1  0.04630000  0.77040000  0.39370000  1.0 0.0047750575
C  C25  1  0.50180000  0.79420000  0.36740000  1.0 0.0226605037
C  C26  1  0.99820000  0.29420000  0.63260000  1.0 0.0226605037
C  C27  1  0.49820000  0.20580000  0.63260000  1.0 0.0226605037
C  C28  1  0.00180000  0.70580000  0.36740000  1.0 0.0226605037
C  C29  1  0.40180000  0.80560000  0.31370000  1.0 -0.1422093245
C  C30  1  0.09820000  0.30560000  0.68630000  1.0 -0.1422093245
C  C31  1  0.59820000  0.19440000  0.68630000  1.0 -0.1422093245
C  C32  1  0.90180000  0.69440000  0.31370000  1.0 -0.1422093245
C  C33  1  0.35200000  0.86550000  0.28430000  1.0 -0.1079221781
C  C34  1  0.14800000  0.36550000  0.71570000  1.0 -0.1079221781
C  C35  1  0.64800000  0.13450000  0.71570000  1.0 -0.1079221781
C  C36  1  0.85200000  0.63450000  0.28430000  1.0 -0.1079221781
C  C37  1  0.39340000  0.93200000  0.30160000  1.0 -0.1079221781
C  C38  1  0.10660000  0.43200000  0.69840000  1.0 -0.1079221781
C  C39  1  0.60660000  0.06800000  0.69840000  1.0 -0.1079221781
C  C40  1  0.89340000  0.56800000  0.30160000  1.0 -0.1079221781
C  C41  1  0.48830000  0.95430000  0.35180000  1.0 -0.1011922126
C  C42  1  0.01170000  0.45430000  0.64820000  1.0 -0.1011922126
C  C43  1  0.51170000  0.04570000  0.64820000  1.0 -0.1011922126
C  C44  1  0.98830000  0.54570000  0.35180000  1.0 -0.1011922126
C  C45  1  0.56650000  0.91760000  0.40030000  1.0 -0.1266250046
C  C46  1  0.93350000  0.41760000  0.59970000  1.0 -0.1266250046
C  C47  1  0.43350000  0.08240000  0.59970000  1.0 -0.1266250046
C  C48  1  0.06650000  0.58240000  0.40030000  1.0 -0.1266250046
C  C49  1  0.57250000  0.84710000  0.41210000  1.0 0.0299500977
C  C50  1  0.92750000  0.34710000  0.58790000  1.0 0.0299500977
C  C51  1  0.42750000  0.15290000  0.58790000  1.0 0.0299500977
C  C52  1  0.07250000  0.65290000  0.41210000  1.0 0.0299500977
C  C53  1  0.65280000  0.81180000  0.46500000  1.0 0.0047750575
C  C54  1  0.84720000  0.31180000  0.53500000  1.0 0.0047750575
C  C55  1  0.34720000  0.18820000  0.53500000  1.0 0.0047750575
C  C56  1  0.15280000  0.68820000  0.46500000  1.0 0.0047750575
C  C57  1  0.63650000  0.74170000  0.45160000  1.0 -0.2298782649
C  C58  1  0.86350000  0.24170000  0.54840000  1.0 -0.2298782649
C  C59  1  0.36350000  0.25830000  0.54840000  1.0 -0.2298782649
C  C60  1  0.13650000  0.75830000  0.45160000  1.0 -0.2298782649
C  C61  1  0.74100000  0.83860000  0.52330000  1.0 0.1083615127
C  C62  1  0.75900000  0.33860000  0.47670000  1.0 0.1083615127
C  C63  1  0.25900000  0.16140000  0.47670000  1.0 0.1083615127
C  C64  1  0.24100000  0.66140000  0.52330000  1.0 0.1083615127
C  C65  1  0.85210000  0.80170000  0.54620000  1.0 -0.180180211
C  C66  1  0.64790000  0.30170000  0.45380000  1.0 -0.180180211
C  C67  1  0.14790000  0.19830000  0.45380000  1.0 -0.180180211
C  C68  1  0.35210000  0.69830000  0.54620000  1.0 -0.180180211
C  C69  1  0.93640000  0.82700000  0.60070000  1.0 0.0698538051
C  C70  1  0.56360000  0.32700000  0.39930000  1.0 0.0698538051
C  C71  1  0.06360000  0.17300000  0.39930000  1.0 0.0698538051
C  C72  1  0.43640000  0.67300000  0.60070000  1.0 0.0698538051
C  C73  1  0.81020000  0.91990000  0.61440000  1.0 0.0698538051
C  C74  1  0.68980000  0.41990000  0.38560000  1.0 0.0698538051
C  C75  1  0.18980000  0.08010000  0.38560000  1.0 0.0698538051
C  C76  1  0.31020000  0.58010000  0.61440000  1.0 0.0698538051
C  C77  1  0.72170000  0.89960000  0.55980000  1.0 -0.1907897214
C  C78  1  0.77830000  0.39960000  0.44020000  1.0 -0.1907897214
C  C79  1  0.27830000  0.10040000  0.44020000  1.0 -0.1907897214
C  C80  1  0.22170000  0.60040000  0.55980000  1.0 -0.1907897214
C  C81  1  0.23560000  0.40500000  0.39930000  1.0 0.2605353859
C  C82  1  0.26440000  0.90500000  0.60070000  1.0 0.2605353859
C  C83  1  0.76440000  0.59500000  0.60070000  1.0 0.2605353859
C  C84  1  0.73560000  0.09500000  0.39930000  1.0 0.2605353859
C  C85  1  0.30500000  0.43410000  0.12860000  1.0 0.0647924063
C  C86  1  0.19500000  0.93410000  0.87140000  1.0 0.0647924063
C  C87  1  0.69500000  0.56590000  0.87140000  1.0 0.0647924063
C  C88  1  0.80500000  0.06590000  0.12860000  1.0 0.0647924063
C  C89  1  0.21360000  0.45100000  0.07380000  1.0 -0.180180211
C  C90  1  0.28640000  0.95100000  0.92620000  1.0 -0.180180211
C  C91  1  0.78640000  0.54900000  0.92620000  1.0 -0.180180211
C  C92  1  0.71360000  0.04900000  0.07380000  1.0 -0.180180211
C  C93  1  0.11070000  0.49240000  0.08710000  1.0 0.1514226576
C  C94  1  0.38930000  0.99240000  0.91290000  1.0 0.1514226576
C  C95  1  0.88930000  0.50760000  0.91290000  1.0 0.1514226576
C  C96  1  0.61070000  0.00760000  0.08710000  1.0 0.1514226576
C  C97  1  0.10640000  0.51510000  0.15690000  1.0 -0.1907897214
C  C98  1  0.39360000  0.01510000  0.84310000  1.0 -0.1907897214
C  C99  1  0.89360000  0.48490000  0.84310000  1.0 -0.1907897214
C  C100  1  0.60640000  0.98490000  0.15690000  1.0 -0.1907897214
C  C101  1  0.19940000  0.49540000  0.20920000  1.0 0.0698538051
C  C102  1  0.30060000  0.99540000  0.79080000  1.0 0.0698538051
C  C103  1  0.80060000  0.50460000  0.79080000  1.0 0.0698538051
C  C104  1  0.69940000  0.00460000  0.20920000  1.0 0.0698538051
C  C105  1  0.00840000  0.51230000  0.03150000  1.0 -0.1224707546
C  C106  1  0.49160000  0.01230000  0.96850000  1.0 -0.1224707546
C  C107  1  0.99160000  0.48770000  0.96850000  1.0 -0.1224707546
C  C108  1  0.50840000  0.98770000  0.03150000  1.0 -0.1224707546
C  C109  1  0.65460000  0.43890000  0.17170000  1.0 0.0986698014
C  C110  1  0.84540000  0.93890000  0.82830000  1.0 0.1083615127
C  C111  1  0.34540000  0.56110000  0.82830000  1.0 0.1083615127
C  C112  1  0.15460000  0.06110000  0.17170000  1.0 0.0986698014
C  C113  1  0.64210000  0.47140000  0.17430000  1.0 0.040305614
C  C114  1  0.85790000  0.97140000  0.82570000  1.0 0.040305614
C  C115  1  0.35790000  0.52860000  0.82570000  1.0 0.040305614
C  C116  1  0.14210000  0.02860000  0.17430000  1.0 0.040305614
S  S1  1  0.14997000  0.40342000  0.46811000  1.0 -0.3404525476
S  S2  1  0.35003000  0.90342000  0.53189000  1.0 -0.3404525476
S  S3  1  0.85003000  0.59658000  0.53189000  1.0 -0.3404525476
S  S4  1  0.64997000  0.09658000  0.46811000  1.0 -0.3404525476
S  S5  1  0.76180000  0.46010000  0.11400000  1.0 -0.0449473369
S  S6  1  0.73820000  0.96010000  0.88600000  1.0 -0.047719303
S  S7  1  0.23820000  0.53990000  0.88600000  1.0 -0.047719303
S  S8  1  0.26180000  0.03990000  0.11400000  1.0 -0.0449473369
S  S9  1  0.71070000  0.51920000  0.12000000  1.0 -0.1011922126
S  S10  1  0.78930000  0.01920000  0.88000000  1.0 -0.1079221781
S  S11  1  0.28930000  0.48080000  0.88000000  1.0 -0.1011922126
S  S12  1  0.21070000  0.98080000  0.12000000  1.0 -0.1011922126
N  N1  1  0.46060000  0.52668000  0.31760000  1.0 -0.2424549064
N  N2  1  0.03940000  0.02668000  0.68240000  1.0 -0.2424549064
N  N3  1  0.53940000  0.47332000  0.68240000  1.0 -0.2424549064
N  N4  1  0.96060000  0.97332000  0.31760000  1.0 -0.2424549064
N  N5  1  0.29830000  0.45490000  0.19620000  1.0 -0.2502312991
N  N6  1  0.20170000  0.95490000  0.80380000  1.0 -0.2502312991
N  N7  1  0.70170000  0.54510000  0.80380000  1.0 -0.2502312991
N  N8  1  0.79830000  0.04510000  0.19620000  1.0 -0.2502312991
N  N9  1  0.58700000  0.43660000  0.21260000  1.0 -0.2642957004
N  N10  1  0.91300000  0.93660000  0.78740000  1.0 -0.2663667532
N  N11  1  0.41300000  0.56340000  0.78740000  1.0 -0.2663667532
N  N12  1  0.08700000  0.06340000  0.21260000  1.0 -0.2642957004
N  N13  1  0.29610000  0.40710000  0.35070000  1.0 -0.4810366589
N  N14  1  0.20390000  0.90710000  0.64930000  1.0 -0.4810366589
N  N15  1  0.70390000  0.59290000  0.64930000  1.0 -0.4810366589
N  N16  1  0.79610000  0.09290000  0.35070000  1.0 -0.4810366589
N  N17  1  0.91790000  0.88599000  0.63590000  1.0 -0.2424549064
N  N18  1  0.58210000  0.38599000  0.36410000  1.0 -0.2424549064
N  N19  1  0.08210000  0.11401000  0.36410000  1.0 -0.2424549064
N  N20  1  0.41790000  0.61401000  0.63590000  1.0 -0.2424549064
