# DDEC6 charges by PACMAN v1.1 (https://github.com/mtap-research/PACMAN-charge/)
data_DUCZEJ_FSR_pacman
_symmetry_space_group_name_H-M   'P 1'
_cell_length_a   24.22240000
_cell_length_b   24.22240000
_cell_length_c   7.82910000
_cell_angle_alpha   90.00000000
_cell_angle_beta   90.00000000
_cell_angle_gamma   90.00000000
_symmetry_Int_Tables_number   1
_chemical_formula_structural   Ti2C13O12
_chemical_formula_sum   'Ti16 C104 O96'
_cell_volume   4593.52604939
_cell_formula_units_Z   8
loop_
 _symmetry_equiv_pos_site_id
 _symmetry_equiv_pos_as_xyz
  1  'x, y, z'
loop_
 _atom_site_type_symbol
 _atom_site_label
 _atom_site_symmetry_multiplicity
 _atom_site_fract_x
 _atom_site_fract_y
 _atom_site_fract_z
 _atom_site_occupancy
 _atom_site_charge
Ti  Ti1  1  0.63040000  0.63040000  0.50000000  1.0 1.9442254553
Ti  Ti2  1  0.36960000  0.36960000  0.50000000  1.0 1.9442254553
Ti  Ti3  1  0.63040000  0.36960000  0.50000000  1.0 1.9442254553
Ti  Ti4  1  0.36960000  0.63040000  0.50000000  1.0 1.9442254553
Ti  Ti5  1  0.86960000  0.86960000  0.50000000  1.0 1.9442254553
Ti  Ti6  1  0.13040000  0.13040000  0.50000000  1.0 1.9454500583
Ti  Ti7  1  0.86960000  0.13040000  0.50000000  1.0 1.9442254553
Ti  Ti8  1  0.13040000  0.86960000  0.50000000  1.0 1.9442254553
Ti  Ti9  1  0.68270000  0.50000000  0.50000000  1.0 1.9773403612
Ti  Ti10  1  0.31730000  0.50000000  0.50000000  1.0 1.9773403612
Ti  Ti11  1  0.50000000  0.31730000  0.50000000  1.0 1.9773403612
Ti  Ti12  1  0.50000000  0.68270000  0.50000000  1.0 1.9773403612
Ti  Ti13  1  0.81730000  0.00000000  0.50000000  1.0 1.9773403612
Ti  Ti14  1  0.18270000  0.00000000  0.50000000  1.0 1.9773403612
Ti  Ti15  1  0.00000000  0.18270000  0.50000000  1.0 1.9773403612
Ti  Ti16  1  0.00000000  0.81730000  0.50000000  1.0 1.9773403612
C  C1  1  0.67300000  0.42800000  0.80200000  1.0 0.6984750089
C  C2  1  0.69800000  0.41100000  0.97700000  1.0 0.042252945
C  C3  1  0.60700000  0.74900000  0.42300000  1.0 0.6865010876
C  C4  1  0.61800000  0.81200000  0.40900000  1.0 -0.0872229756
C  C5  1  0.57900000  0.85100000  0.35500000  1.0 0.12859838
C  C6  1  0.32700000  0.57200000  0.80200000  1.0 0.6984750089
C  C7  1  0.30200000  0.58900000  0.97700000  1.0 0.042252945
C  C8  1  0.39300000  0.25100000  0.42300000  1.0 0.6865010876
C  C9  1  0.38200000  0.18800000  0.40900000  1.0 -0.0872229756
C  C10  1  0.42100000  0.14900000  0.35500000  1.0 0.12859838
C  C11  1  0.42800000  0.32700000  0.80200000  1.0 0.6984750089
C  C12  1  0.41100000  0.30200000  0.97700000  1.0 0.042252945
C  C13  1  0.74900000  0.39300000  0.42300000  1.0 0.6865010876
C  C14  1  0.81200000  0.38200000  0.40900000  1.0 -0.0872229756
C  C15  1  0.85100000  0.42100000  0.35500000  1.0 0.12859838
C  C16  1  0.57200000  0.67300000  0.80200000  1.0 0.6984750089
C  C17  1  0.58900000  0.69800000  0.97700000  1.0 0.042252945
C  C18  1  0.25100000  0.60700000  0.42300000  1.0 0.6865010876
C  C19  1  0.18800000  0.61800000  0.40900000  1.0 -0.0872229756
C  C20  1  0.14900000  0.57900000  0.35500000  1.0 0.12859838
C  C21  1  0.67300000  0.57200000  0.19800000  1.0 0.6984750089
C  C22  1  0.69800000  0.58900000  0.02300000  1.0 0.042252945
C  C23  1  0.60700000  0.25100000  0.57700000  1.0 0.6865010876
C  C24  1  0.61800000  0.18800000  0.59100000  1.0 -0.0872229756
C  C25  1  0.57900000  0.14900000  0.64500000  1.0 0.12859838
C  C26  1  0.32700000  0.42800000  0.19800000  1.0 0.6984750089
C  C27  1  0.30200000  0.41100000  0.02300000  1.0 0.042252945
C  C28  1  0.39300000  0.74900000  0.57700000  1.0 0.6865010876
C  C29  1  0.38200000  0.81200000  0.59100000  1.0 -0.0872229756
C  C30  1  0.42100000  0.85100000  0.64500000  1.0 0.12859838
C  C31  1  0.42800000  0.67300000  0.19800000  1.0 0.6984750089
C  C32  1  0.41100000  0.69800000  0.02300000  1.0 0.042252945
C  C33  1  0.74900000  0.60700000  0.57700000  1.0 0.6865010876
C  C34  1  0.81200000  0.61800000  0.59100000  1.0 -0.0872229756
C  C35  1  0.85100000  0.57900000  0.64500000  1.0 0.12859838
C  C36  1  0.57200000  0.32700000  0.19800000  1.0 0.6984750089
C  C37  1  0.58900000  0.30200000  0.02300000  1.0 0.042252945
C  C38  1  0.25100000  0.39300000  0.57700000  1.0 0.6865010876
C  C39  1  0.18800000  0.38200000  0.59100000  1.0 -0.0872229756
C  C40  1  0.14900000  0.42100000  0.64500000  1.0 0.12859838
C  C41  1  0.82700000  0.07200000  0.19800000  1.0 0.6984750089
C  C42  1  0.80200000  0.08900000  0.02300000  1.0 0.042252945
C  C43  1  0.89300000  0.75100000  0.57700000  1.0 0.6865010876
C  C44  1  0.88200000  0.68800000  0.59100000  1.0 -0.0872229756
C  C45  1  0.92100000  0.64900000  0.64500000  1.0 0.12859838
C  C46  1  0.17300000  0.92800000  0.19800000  1.0 0.6984750089
C  C47  1  0.19800000  0.91100000  0.02300000  1.0 0.042252945
C  C48  1  0.10700000  0.24900000  0.57700000  1.0 0.6865010876
C  C49  1  0.11800000  0.31200000  0.59100000  1.0 -0.0872229756
C  C50  1  0.07900000  0.35100000  0.64500000  1.0 0.12859838
C  C51  1  0.07200000  0.17300000  0.19800000  1.0 0.6984750089
C  C52  1  0.08900000  0.19800000  0.02300000  1.0 0.042252945
C  C53  1  0.75100000  0.10700000  0.57700000  1.0 0.6865010876
C  C54  1  0.68800000  0.11800000  0.59100000  1.0 -0.0872229756
C  C55  1  0.64900000  0.07900000  0.64500000  1.0 0.12859838
C  C56  1  0.92800000  0.82700000  0.19800000  1.0 0.6984750089
C  C57  1  0.91100000  0.80200000  0.02300000  1.0 0.042252945
C  C58  1  0.24900000  0.89300000  0.57700000  1.0 0.6865010876
C  C59  1  0.31200000  0.88200000  0.59100000  1.0 -0.0872229756
C  C60  1  0.35100000  0.92100000  0.64500000  1.0 0.12859838
C  C61  1  0.82700000  0.92800000  0.80200000  1.0 0.6984750089
C  C62  1  0.80200000  0.91100000  0.97700000  1.0 0.042252945
C  C63  1  0.89300000  0.24900000  0.42300000  1.0 0.6865010876
C  C64  1  0.88200000  0.31200000  0.40900000  1.0 -0.0872229756
C  C65  1  0.92100000  0.35100000  0.35500000  1.0 0.12859838
C  C66  1  0.17300000  0.07200000  0.80200000  1.0 0.6984750089
C  C67  1  0.19800000  0.08900000  0.97700000  1.0 0.042252945
C  C68  1  0.10700000  0.75100000  0.42300000  1.0 0.6865010876
C  C69  1  0.11800000  0.68800000  0.40900000  1.0 -0.0872229756
C  C70  1  0.07900000  0.64900000  0.35500000  1.0 0.12859838
C  C71  1  0.07200000  0.82700000  0.80200000  1.0 0.6984750089
C  C72  1  0.08900000  0.80200000  0.97700000  1.0 0.042252945
C  C73  1  0.75100000  0.89300000  0.42300000  1.0 0.6865010876
C  C74  1  0.68800000  0.88200000  0.40900000  1.0 -0.0872229756
C  C75  1  0.64900000  0.92100000  0.35500000  1.0 0.12859838
C  C76  1  0.92800000  0.17300000  0.80200000  1.0 0.6984750089
C  C77  1  0.91100000  0.19800000  0.97700000  1.0 0.042252945
C  C78  1  0.24900000  0.10700000  0.42300000  1.0 0.6865010876
C  C79  1  0.31200000  0.11800000  0.40900000  1.0 -0.0872229756
C  C80  1  0.35100000  0.07900000  0.35500000  1.0 0.12859838
C  C81  1  0.67400000  0.82600000  0.40700000  1.0 0.042252945
C  C82  1  0.59500000  0.90500000  0.31800000  1.0 -0.09667713
C  C83  1  0.55000000  0.95000000  0.30000000  1.0 0.5832586345
C  C84  1  0.32600000  0.17400000  0.40700000  1.0 0.042252945
C  C85  1  0.40500000  0.09500000  0.31800000  1.0 -0.09667713
C  C86  1  0.45000000  0.05000000  0.30000000  1.0 0.5832586345
C  C87  1  0.82600000  0.32600000  0.40700000  1.0 0.042252945
C  C88  1  0.90500000  0.40500000  0.31800000  1.0 -0.09667713
C  C89  1  0.95000000  0.45000000  0.30000000  1.0 0.5832586345
C  C90  1  0.17400000  0.67400000  0.40700000  1.0 0.042252945
C  C91  1  0.09500000  0.59500000  0.31800000  1.0 -0.09667713
C  C92  1  0.05000000  0.55000000  0.30000000  1.0 0.5832586345
C  C93  1  0.67400000  0.17400000  0.59300000  1.0 0.042252945
C  C94  1  0.59500000  0.09500000  0.68200000  1.0 -0.09667713
C  C95  1  0.55000000  0.05000000  0.70000000  1.0 0.5832586345
C  C96  1  0.32600000  0.82600000  0.59300000  1.0 0.042252945
C  C97  1  0.40500000  0.90500000  0.68200000  1.0 -0.09667713
C  C98  1  0.45000000  0.95000000  0.70000000  1.0 0.5832586345
C  C99  1  0.82600000  0.67400000  0.59300000  1.0 0.042252945
C  C100  1  0.90500000  0.59500000  0.68200000  1.0 -0.09667713
C  C101  1  0.95000000  0.55000000  0.70000000  1.0 0.5832586345
C  C102  1  0.17400000  0.32600000  0.59300000  1.0 0.042252945
C  C103  1  0.09500000  0.40500000  0.68200000  1.0 -0.09667713
C  C104  1  0.05000000  0.45000000  0.70000000  1.0 0.5832586345
O  O1  1  0.63070000  0.55440000  0.55200000  1.0 -0.9341376368
O  O2  1  0.67900000  0.47650000  0.74400000  1.0 -0.5698059313
O  O3  1  0.64900000  0.38600000  0.73900000  1.0 -0.5698059313
O  O4  1  0.55450000  0.73840000  0.42100000  1.0 -0.6104929465
O  O5  1  0.64070000  0.70860000  0.43500000  1.0 -0.583816437
O  O6  1  0.50420000  0.92990000  0.26000000  1.0 -0.4254633876
O  O7  1  0.36930000  0.44560000  0.55200000  1.0 -0.9350600931
O  O8  1  0.32100000  0.52350000  0.74400000  1.0 -0.5698059313
O  O9  1  0.35100000  0.61400000  0.73900000  1.0 -0.5698059313
O  O10  1  0.44550000  0.26160000  0.42100000  1.0 -0.6104929465
O  O11  1  0.35930000  0.29140000  0.43500000  1.0 -0.583816437
O  O12  1  0.49580000  0.07010000  0.26000000  1.0 -0.4241314027
O  O13  1  0.55440000  0.36930000  0.55200000  1.0 -0.9350600931
O  O14  1  0.47650000  0.32100000  0.74400000  1.0 -0.5698059313
O  O15  1  0.38600000  0.35100000  0.73900000  1.0 -0.5698059313
O  O16  1  0.73840000  0.44550000  0.42100000  1.0 -0.6104929465
O  O17  1  0.70860000  0.35930000  0.43500000  1.0 -0.583816437
O  O18  1  0.92990000  0.49580000  0.26000000  1.0 -0.4254633876
O  O19  1  0.44560000  0.63070000  0.55200000  1.0 -0.9350600931
O  O20  1  0.52350000  0.67900000  0.74400000  1.0 -0.5698059313
O  O21  1  0.61400000  0.64900000  0.73900000  1.0 -0.5698059313
O  O22  1  0.26160000  0.55450000  0.42100000  1.0 -0.6104929465
O  O23  1  0.29140000  0.64070000  0.43500000  1.0 -0.583816437
O  O24  1  0.07010000  0.50420000  0.26000000  1.0 -0.4254633876
O  O25  1  0.63070000  0.44560000  0.44800000  1.0 -0.9350600931
O  O26  1  0.67900000  0.52350000  0.25600000  1.0 -0.5698059313
O  O27  1  0.64900000  0.61400000  0.26100000  1.0 -0.5698059313
O  O28  1  0.55450000  0.26160000  0.57900000  1.0 -0.6104929465
O  O29  1  0.64070000  0.29140000  0.56500000  1.0 -0.583816437
O  O30  1  0.50420000  0.07010000  0.74000000  1.0 -0.4241314027
O  O31  1  0.36930000  0.55440000  0.44800000  1.0 -0.9350600931
O  O32  1  0.32100000  0.47650000  0.25600000  1.0 -0.5698059313
O  O33  1  0.35100000  0.38600000  0.26100000  1.0 -0.5698059313
O  O34  1  0.44550000  0.73840000  0.57900000  1.0 -0.6104929465
O  O35  1  0.35930000  0.70860000  0.56500000  1.0 -0.583816437
O  O36  1  0.49580000  0.92990000  0.74000000  1.0 -0.4254633876
O  O37  1  0.55440000  0.63070000  0.44800000  1.0 -0.9350600931
O  O38  1  0.47650000  0.67900000  0.25600000  1.0 -0.5698059313
O  O39  1  0.38600000  0.64900000  0.26100000  1.0 -0.5698059313
O  O40  1  0.73840000  0.55450000  0.57900000  1.0 -0.6104929465
O  O41  1  0.70860000  0.64070000  0.56500000  1.0 -0.583816437
O  O42  1  0.92990000  0.50420000  0.74000000  1.0 -0.4254633876
O  O43  1  0.44560000  0.36930000  0.44800000  1.0 -0.9350600931
O  O44  1  0.52350000  0.32100000  0.25600000  1.0 -0.5698059313
O  O45  1  0.61400000  0.35100000  0.26100000  1.0 -0.5698059313
O  O46  1  0.26160000  0.44550000  0.57900000  1.0 -0.6104929465
O  O47  1  0.29140000  0.35930000  0.56500000  1.0 -0.583816437
O  O48  1  0.07010000  0.49580000  0.74000000  1.0 -0.4254633876
O  O49  1  0.86930000  0.94560000  0.44800000  1.0 -0.9341376368
O  O50  1  0.82100000  0.02350000  0.25600000  1.0 -0.5698059313
O  O51  1  0.85100000  0.11400000  0.26100000  1.0 -0.5698059313
O  O52  1  0.94550000  0.76160000  0.57900000  1.0 -0.6104929465
O  O53  1  0.85930000  0.79140000  0.56500000  1.0 -0.583816437
O  O54  1  0.99580000  0.57010000  0.74000000  1.0 -0.4254633876
O  O55  1  0.13070000  0.05440000  0.44800000  1.0 -0.9350600931
O  O56  1  0.17900000  0.97650000  0.25600000  1.0 -0.5698059313
O  O57  1  0.14900000  0.88600000  0.26100000  1.0 -0.5698059313
O  O58  1  0.05450000  0.23840000  0.57900000  1.0 -0.6104929465
O  O59  1  0.14070000  0.20860000  0.56500000  1.0 -0.583816437
O  O60  1  0.00420000  0.42990000  0.74000000  1.0 -0.4254633876
O  O61  1  0.94560000  0.13070000  0.44800000  1.0 -0.9350600931
O  O62  1  0.02350000  0.17900000  0.25600000  1.0 -0.5698059313
O  O63  1  0.11400000  0.14900000  0.26100000  1.0 -0.5698059313
O  O64  1  0.76160000  0.05450000  0.57900000  1.0 -0.6104929465
O  O65  1  0.79140000  0.14070000  0.56500000  1.0 -0.583816437
O  O66  1  0.57010000  0.00420000  0.74000000  1.0 -0.4254633876
O  O67  1  0.05440000  0.86930000  0.44800000  1.0 -0.9350600931
O  O68  1  0.97650000  0.82100000  0.25600000  1.0 -0.5698059313
O  O69  1  0.88600000  0.85100000  0.26100000  1.0 -0.5698059313
O  O70  1  0.23840000  0.94550000  0.57900000  1.0 -0.6104929465
O  O71  1  0.20860000  0.85930000  0.56500000  1.0 -0.583816437
O  O72  1  0.42990000  0.99580000  0.74000000  1.0 -0.4241314027
O  O73  1  0.86930000  0.05440000  0.55200000  1.0 -0.9341376368
O  O74  1  0.82100000  0.97650000  0.74400000  1.0 -0.5698059313
O  O75  1  0.85100000  0.88600000  0.73900000  1.0 -0.5698059313
O  O76  1  0.94550000  0.23840000  0.42100000  1.0 -0.6104929465
O  O77  1  0.85930000  0.20860000  0.43500000  1.0 -0.583816437
O  O78  1  0.99580000  0.42990000  0.26000000  1.0 -0.4254633876
O  O79  1  0.13070000  0.94560000  0.55200000  1.0 -0.9350600931
O  O80  1  0.17900000  0.02350000  0.74400000  1.0 -0.5698059313
O  O81  1  0.14900000  0.11400000  0.73900000  1.0 -0.5698059313
O  O82  1  0.05450000  0.76160000  0.42100000  1.0 -0.6104929465
O  O83  1  0.14070000  0.79140000  0.43500000  1.0 -0.583816437
O  O84  1  0.00420000  0.57010000  0.26000000  1.0 -0.4254633876
O  O85  1  0.94560000  0.86930000  0.55200000  1.0 -0.9341376368
O  O86  1  0.02350000  0.82100000  0.74400000  1.0 -0.5698059313
O  O87  1  0.11400000  0.85100000  0.73900000  1.0 -0.5698059313
O  O88  1  0.76160000  0.94550000  0.42100000  1.0 -0.6104929465
O  O89  1  0.79140000  0.85930000  0.43500000  1.0 -0.583816437
O  O90  1  0.57010000  0.99580000  0.26000000  1.0 -0.4254633876
O  O91  1  0.05440000  0.13070000  0.55200000  1.0 -0.9350600931
O  O92  1  0.97650000  0.17900000  0.74400000  1.0 -0.5698059313
O  O93  1  0.88600000  0.14900000  0.73900000  1.0 -0.5698059313
O  O94  1  0.23840000  0.05450000  0.42100000  1.0 -0.6104929465
O  O95  1  0.20860000  0.14070000  0.43500000  1.0 -0.583816437
O  O96  1  0.42990000  0.00420000  0.26000000  1.0 -0.4241314027
