# DDEC6 charges by PACMAN v1.1 (https://github.com/mtap-research/PACMAN-charge/)
data_DUDGOB_ASR_pacman
_symmetry_space_group_name_H-M   'P 1'
_cell_length_a   11.11010000
_cell_length_b   11.11010000
_cell_length_c   6.65510000
_cell_angle_alpha   88.11380000
_cell_angle_beta   91.88620000
_cell_angle_gamma   139.73200000
_symmetry_Int_Tables_number   1
_chemical_formula_structural   Ga(C2O)5
_chemical_formula_sum   'Ga2 C20 O10'
_cell_volume   530.64058504
_cell_formula_units_Z   2
loop_
 _symmetry_equiv_pos_site_id
 _symmetry_equiv_pos_as_xyz
  1  'x, y, z'
loop_
 _atom_site_type_symbol
 _atom_site_label
 _atom_site_symmetry_multiplicity
 _atom_site_fract_x
 _atom_site_fract_y
 _atom_site_fract_z
 _atom_site_occupancy
 _atom_site_charge
Ga  Ga1  1  0.50000000  0.50000000  0.00000000  1.0 1.2955437431
Ga  Ga2  1  0.50000000  0.50000000  0.50000000  1.0 1.2955437431
C  C1  1  0.60750000  0.78250000  0.72200000  1.0 0.6025308647
C  C2  1  0.67790000  0.96810000  0.73650000  1.0 -0.0888642764
C  C3  1  0.58410000  0.98590000  0.86800000  1.0 0.0781922617
C  C4  1  0.54090000  0.91310000  0.06500000  1.0 0.0515300815
C  C5  1  0.45330000  0.92470000  0.19160000  1.0 -0.0298918618
C  C6  1  0.78250000  0.60750000  0.77800000  1.0 0.6025308647
C  C7  1  0.96810000  0.67790000  0.76350000  1.0 -0.0888642764
C  C8  1  0.98590000  0.58410000  0.63200000  1.0 0.0781922617
C  C9  1  0.91310000  0.54090000  0.43500000  1.0 0.0515300815
C  C10  1  0.92470000  0.45330000  0.30840000  1.0 -0.0298918618
C  C11  1  0.39250000  0.21750000  0.27800000  1.0 0.6025308647
C  C12  1  0.32210000  0.03190000  0.26350000  1.0 -0.0888642764
C  C13  1  0.41590000  0.01410000  0.13200000  1.0 0.0781922617
C  C14  1  0.45910000  0.08690000  0.93500000  1.0 0.0515300815
C  C15  1  0.54670000  0.07530000  0.80840000  1.0 -0.0298918618
C  C16  1  0.21750000  0.39250000  0.22200000  1.0 0.6025308647
C  C17  1  0.03190000  0.32210000  0.23650000  1.0 -0.0888642764
C  C18  1  0.01410000  0.41590000  0.36800000  1.0 0.0781922617
C  C19  1  0.08690000  0.45910000  0.56500000  1.0 0.0515300815
C  C20  1  0.07530000  0.54670000  0.69160000  1.0 -0.0298918618
O  O1  1  0.53460000  0.69700000  0.56000000  1.0 -0.4847560993
O  O2  1  0.63400000  0.74360000  0.88480000  1.0 -0.4879158011
O  O3  1  0.69700000  0.53460000  0.94000000  1.0 -0.4847560993
O  O4  1  0.74360000  0.63400000  0.61520000  1.0 -0.4879158011
O  O5  1  0.46540000  0.30300000  0.44000000  1.0 -0.4847560993
O  O6  1  0.36600000  0.25640000  0.11520000  1.0 -0.4879158011
O  O7  1  0.30300000  0.46540000  0.06000000  1.0 -0.4847560993
O  O8  1  0.25640000  0.36600000  0.38480000  1.0 -0.4879158011
O  O9  1  0.62870000  0.62870000  0.25000000  1.0 -0.5771940819
O  O10  1  0.37130000  0.37130000  0.75000000  1.0 -0.5771940819
