# DDEC6 charges by PACMAN v1.1 (https://github.com/mtap-research/PACMAN-charge/)
data_DUDKIY_ASR_pacman
_symmetry_space_group_name_H-M   'P 1'
_cell_length_a   10.15910000
_cell_length_b   17.64870000
_cell_length_c   22.68530000
_cell_angle_alpha   90.00000000
_cell_angle_beta   99.59200000
_cell_angle_gamma   90.00000000
_symmetry_Int_Tables_number   1
_chemical_formula_structural   Zn2H15C20N3O10
_chemical_formula_sum   'Zn8 H60 C80 N12 O40'
_cell_volume   4010.49430934
_cell_formula_units_Z   4
loop_
 _symmetry_equiv_pos_site_id
 _symmetry_equiv_pos_as_xyz
  1  'x, y, z'
loop_
 _atom_site_type_symbol
 _atom_site_label
 _atom_site_symmetry_multiplicity
 _atom_site_fract_x
 _atom_site_fract_y
 _atom_site_fract_z
 _atom_site_occupancy
 _atom_site_charge
Zn  Zn1  1  0.50691000  0.19225000  0.16684000  1.0 0.897912506
Zn  Zn2  1  0.49309000  0.69225000  0.33316000  1.0 0.897912506
Zn  Zn3  1  0.49309000  0.80775000  0.83316000  1.0 0.897912506
Zn  Zn4  1  0.50691000  0.30775000  0.66684000  1.0 0.897912506
Zn  Zn5  1  0.32630000  0.27494000  0.27221000  1.0 0.9234279531
Zn  Zn6  1  0.67370000  0.77494000  0.22779000  1.0 0.9262057878
Zn  Zn7  1  0.67370000  0.72506000  0.72779000  1.0 0.9234279531
Zn  Zn8  1  0.32630000  0.22506000  0.77221000  1.0 0.9234279531
H  H1  1  0.47960000  0.39830000  0.07490000  1.0 0.1212356301
H  H2  1  0.52040000  0.89830000  0.42510000  1.0 0.1212356301
H  H3  1  0.52040000  0.60170000  0.92510000  1.0 0.1212356301
H  H4  1  0.47960000  0.10170000  0.57490000  1.0 0.1212356301
H  H5  1  0.52030000  0.62270000  0.10030000  1.0 0.1256146915
H  H6  1  0.47970000  0.12270000  0.39970000  1.0 0.1256146915
H  H7  1  0.47970000  0.37730000  0.89970000  1.0 0.1256146915
H  H8  1  0.52030000  0.87730000  0.60030000  1.0 0.1256146915
H  H9  1  0.46790000  0.48850000  0.23530000  1.0 0.1256146915
H  H10  1  0.53210000  0.98850000  0.26470000  1.0 0.1256146915
H  H11  1  0.53210000  0.51150000  0.76470000  1.0 0.1256146915
H  H12  1  0.46790000  0.01150000  0.73530000  1.0 0.1256146915
H  H13  1  0.16490000  0.07900000  0.06570000  1.0 0.1212356301
H  H14  1  0.83510000  0.57900000  0.43430000  1.0 0.1212356301
H  H15  1  0.83510000  0.92100000  0.93430000  1.0 0.1212356301
H  H16  1  0.16490000  0.42100000  0.56570000  1.0 0.1212356301
H  H17  1  0.76640000  0.07290000  0.05580000  1.0 0.1212356301
H  H18  1  0.23360000  0.57290000  0.44420000  1.0 0.1212356301
H  H19  1  0.23360000  0.92710000  0.94420000  1.0 0.1212356301
H  H20  1  0.76640000  0.42710000  0.55580000  1.0 0.1212356301
H  H21  1  0.98970000  0.20180000  0.17940000  1.0 0.1390925422
H  H22  1  0.01030000  0.70180000  0.32060000  1.0 0.1390925422
H  H23  1  0.01030000  0.79820000  0.82060000  1.0 0.1390925422
H  H24  1  0.98970000  0.29820000  0.67940000  1.0 0.1390925422
H  H25  1  0.35200000  0.43390000  0.31890000  1.0 0.1506950942
H  H26  1  0.64800000  0.93390000  0.18110000  1.0 0.1506950942
H  H27  1  0.64800000  0.56610000  0.68110000  1.0 0.1506950942
H  H28  1  0.35200000  0.06610000  0.81890000  1.0 0.1506950942
H  H29  1  0.27510000  0.46020000  0.36970000  1.0 0.1390925422
H  H30  1  0.72490000  0.96020000  0.13030000  1.0 0.1390925422
H  H31  1  0.72490000  0.53980000  0.63030000  1.0 0.1390925422
H  H32  1  0.27510000  0.03980000  0.86970000  1.0 0.1390925422
H  H33  1  0.43050000  0.46990000  0.37760000  1.0 0.1390925422
H  H34  1  0.56950000  0.96990000  0.12240000  1.0 0.1390925422
H  H35  1  0.56950000  0.53010000  0.62240000  1.0 0.1390925422
H  H36  1  0.43050000  0.03010000  0.87760000  1.0 0.1390925422
H  H37  1  0.31870000  0.43850000  0.49560000  1.0 0.1256146915
H  H38  1  0.68130000  0.93850000  0.00440000  1.0 0.1256146915
H  H39  1  0.68130000  0.56150000  0.50440000  1.0 0.1256146915
H  H40  1  0.31870000  0.06150000  0.99560000  1.0 0.1256146915
H  H41  1  0.45530000  0.40460000  0.52690000  1.0 0.1506950942
H  H42  1  0.54470000  0.90460000  0.97310000  1.0 0.1506950942
H  H43  1  0.54470000  0.59540000  0.47310000  1.0 0.1506950942
H  H44  1  0.45530000  0.09540000  0.02690000  1.0 0.1506950942
H  H45  1  0.45120000  0.46040000  0.47290000  1.0 0.1111964695
H  H46  1  0.54880000  0.96040000  0.02710000  1.0 0.1111964695
H  H47  1  0.54880000  0.53960000  0.52710000  1.0 0.1111964695
H  H48  1  0.45120000  0.03960000  0.97290000  1.0 0.1111964695
H  H49  1  0.33020000  0.24940000  0.44730000  1.0 0.1390925422
H  H50  1  0.66980000  0.74940000  0.05270000  1.0 0.1390925422
H  H51  1  0.66980000  0.75060000  0.55270000  1.0 0.1390925422
H  H52  1  0.33020000  0.25060000  0.94730000  1.0 0.1390925422
H  H53  1  0.48470000  0.26090000  0.46560000  1.0 0.1390925422
H  H54  1  0.51530000  0.76090000  0.03440000  1.0 0.1390925422
H  H55  1  0.51530000  0.73910000  0.53440000  1.0 0.1390925422
H  H56  1  0.48470000  0.23910000  0.96560000  1.0 0.1390925422
H  H57  1  0.38900000  0.28140000  0.51070000  1.0 0.1506950942
H  H58  1  0.61100000  0.78140000  0.98930000  1.0 0.1506950942
H  H59  1  0.61100000  0.71860000  0.48930000  1.0 0.1506950942
H  H60  1  0.38900000  0.21860000  0.01070000  1.0 0.1506950942
C  C1  1  0.46050000  0.35450000  0.18380000  1.0 0.6070770956
C  C2  1  0.53950000  0.85450000  0.31620000  1.0 0.6070770956
C  C3  1  0.53950000  0.64550000  0.81620000  1.0 0.6070770956
C  C4  1  0.46050000  0.14550000  0.68380000  1.0 0.6070770956
C  C5  1  0.47280000  0.43170000  0.15990000  1.0 -0.0362220361
C  C6  1  0.52720000  0.93170000  0.34010000  1.0 -0.0362220361
C  C7  1  0.52720000  0.56830000  0.84010000  1.0 -0.0362220361
C  C8  1  0.47280000  0.06830000  0.65990000  1.0 -0.0362220361
C  C9  1  0.48210000  0.44030000  0.09980000  1.0 -0.1488336188
C  C10  1  0.51790000  0.94030000  0.40020000  1.0 -0.1488336188
C  C11  1  0.51790000  0.55970000  0.90020000  1.0 -0.1488336188
C  C12  1  0.48210000  0.05970000  0.59980000  1.0 -0.1488336188
C  C13  1  0.49540000  0.51370000  0.07730000  1.0 0.1506950942
C  C14  1  0.50460000  0.01370000  0.42270000  1.0 0.1506950942
C  C15  1  0.50460000  0.48630000  0.92270000  1.0 0.1506950942
C  C16  1  0.49540000  0.98630000  0.57730000  1.0 0.1591071255
C  C17  1  0.50520000  0.57480000  0.11500000  1.0 -0.1592081614
C  C18  1  0.49480000  0.07480000  0.38500000  1.0 -0.1488336188
C  C19  1  0.49480000  0.42520000  0.88500000  1.0 -0.1488336188
C  C20  1  0.50520000  0.92520000  0.61500000  1.0 -0.1592081614
C  C21  1  0.49310000  0.56670000  0.17410000  1.0 -0.0182564683
C  C22  1  0.50690000  0.06670000  0.32590000  1.0 -0.0182564683
C  C23  1  0.50690000  0.43330000  0.82590000  1.0 -0.0182564683
C  C24  1  0.49310000  0.93330000  0.67410000  1.0 -0.0182564683
C  C25  1  0.47670000  0.49460000  0.19540000  1.0 -0.1005077241
C  C26  1  0.52330000  0.99460000  0.30460000  1.0 -0.1005077241
C  C27  1  0.52330000  0.50540000  0.80460000  1.0 -0.1005077241
C  C28  1  0.47670000  0.00540000  0.69540000  1.0 -0.1005077241
C  C29  1  0.50650000  0.63300000  0.21560000  1.0 0.5987893082
C  C30  1  0.49350000  0.13300000  0.28440000  1.0 0.5987893082
C  C31  1  0.49350000  0.36700000  0.78440000  1.0 0.5987893082
C  C32  1  0.50650000  0.86700000  0.71560000  1.0 0.5987893082
C  C33  1  0.23180000  0.17630000  0.15240000  1.0 0.5892988928
C  C34  1  0.76820000  0.67630000  0.34760000  1.0 0.5892988928
C  C35  1  0.76820000  0.82370000  0.84760000  1.0 0.5892988928
C  C36  1  0.23180000  0.32370000  0.65240000  1.0 0.5892988928
C  C37  1  0.09680000  0.14730000  0.12500000  1.0 -0.0182564683
C  C38  1  0.90320000  0.64730000  0.37500000  1.0 -0.0182564683
C  C39  1  0.90320000  0.85270000  0.87500000  1.0 -0.0182564683
C  C40  1  0.09680000  0.35270000  0.62500000  1.0 -0.0182564683
C  C41  1  0.08790000  0.09560000  0.07880000  1.0 -0.1592081614
C  C42  1  0.91210000  0.59560000  0.42120000  1.0 -0.1592081614
C  C43  1  0.91210000  0.90440000  0.92120000  1.0 -0.1592081614
C  C44  1  0.08790000  0.40440000  0.57880000  1.0 -0.1592081614
C  C45  1  0.73620000  0.16900000  0.14180000  1.0 0.5510529615
C  C46  1  0.26380000  0.66900000  0.35820000  1.0 0.5510529615
C  C47  1  0.26380000  0.83100000  0.85820000  1.0 0.5510529615
C  C48  1  0.73620000  0.33100000  0.64180000  1.0 0.5510529615
C  C49  1  0.85770000  0.14360000  0.11910000  1.0 -0.0182564683
C  C50  1  0.14230000  0.64360000  0.38090000  1.0 -0.0182564683
C  C51  1  0.14230000  0.85640000  0.88090000  1.0 -0.0182564683
C  C52  1  0.85770000  0.35640000  0.61910000  1.0 -0.0182564683
C  C53  1  0.84920000  0.09210000  0.07300000  1.0 -0.1592081614
C  C54  1  0.15080000  0.59210000  0.42700000  1.0 -0.1592081614
C  C55  1  0.15080000  0.90790000  0.92700000  1.0 -0.1592081614
C  C56  1  0.84920000  0.40790000  0.57300000  1.0 -0.1592081614
C  C57  1  0.96410000  0.06830000  0.05190000  1.0 0.1591071255
C  C58  1  0.03590000  0.56830000  0.44810000  1.0 0.1591071255
C  C59  1  0.03590000  0.93170000  0.94810000  1.0 0.1591071255
C  C60  1  0.96410000  0.43170000  0.55190000  1.0 0.1591071255
C  C61  1  0.98280000  0.16950000  0.14660000  1.0 -0.1005077241
C  C62  1  0.01720000  0.66950000  0.35340000  1.0 -0.1005077241
C  C63  1  0.01720000  0.83050000  0.85340000  1.0 -0.1005077241
C  C64  1  0.98280000  0.33050000  0.64660000  1.0 -0.1005077241
C  C65  1  0.37500000  0.36010000  0.38960000  1.0 0.4459390975
C  C66  1  0.62500000  0.86010000  0.11040000  1.0 0.4459390975
C  C67  1  0.62500000  0.63990000  0.61040000  1.0 0.4459390975
C  C68  1  0.37500000  0.13990000  0.88960000  1.0 0.4448635317
C  C69  1  0.35640000  0.43820000  0.36130000  1.0 -0.4820473977
C  C70  1  0.64360000  0.93820000  0.13870000  1.0 -0.4820473977
C  C71  1  0.64360000  0.56180000  0.63870000  1.0 -0.4820473977
C  C72  1  0.35640000  0.06180000  0.86130000  1.0 -0.4820473977
C  C73  1  0.40450000  0.42040000  0.48940000  1.0 -0.363082599
C  C74  1  0.59550000  0.92040000  0.01060000  1.0 -0.363082599
C  C75  1  0.59550000  0.57960000  0.51060000  1.0 -0.363082599
C  C76  1  0.40450000  0.07960000  0.98940000  1.0 -0.363082599
C  C77  1  0.39850000  0.28080000  0.46930000  1.0 -0.3003078364
C  C78  1  0.60150000  0.78080000  0.03070000  1.0 -0.3003078364
C  C79  1  0.60150000  0.71920000  0.53070000  1.0 -0.3003078364
C  C80  1  0.39850000  0.21920000  0.96930000  1.0 -0.3003078364
N  N1  1  0.50620000  0.52840000  0.01648000  1.0 -0.1187496092
N  N2  1  0.49380000  0.02840000  0.48352000  1.0 -0.1187496092
N  N3  1  0.49380000  0.47160000  0.98352000  1.0 -0.1187496092
N  N4  1  0.50620000  0.97160000  0.51648000  1.0 -0.1187496092
N  N5  1  0.94720000  0.01260000  0.00660000  1.0 -0.1187496092
N  N6  1  0.05280000  0.51260000  0.49340000  1.0 -0.1187496092
N  N7  1  0.05280000  0.98740000  0.99340000  1.0 -0.1187496092
N  N8  1  0.94720000  0.48740000  0.50660000  1.0 -0.1187496092
N  N9  1  0.38630000  0.35420000  0.44660000  1.0 -0.0578261409
N  N10  1  0.61370000  0.85420000  0.05340000  1.0 -0.0578261409
N  N11  1  0.61370000  0.64580000  0.55340000  1.0 -0.0578261409
N  N12  1  0.38630000  0.14580000  0.94660000  1.0 -0.0578261409
O  O1  1  0.48820000  0.30040000  0.15258000  1.0 -0.5276229345
O  O2  1  0.51180000  0.80040000  0.34742000  1.0 -0.5276229345
O  O3  1  0.51180000  0.69960000  0.84742000  1.0 -0.5276229345
O  O4  1  0.48820000  0.19960000  0.65258000  1.0 -0.5276229345
O  O5  1  0.47460000  0.62420000  0.26516000  1.0 -0.5083209984
O  O6  1  0.52540000  0.12420000  0.23484000  1.0 -0.5083209984
O  O7  1  0.52540000  0.37580000  0.73484000  1.0 -0.5083209984
O  O8  1  0.47460000  0.87580000  0.76516000  1.0 -0.5083209984
O  O9  1  0.42560000  0.34790000  0.23405000  1.0 -0.5797783695
O  O10  1  0.57440000  0.84790000  0.26595000  1.0 -0.5797783695
O  O11  1  0.57440000  0.65210000  0.76595000  1.0 -0.5797783695
O  O12  1  0.42560000  0.15210000  0.73405000  1.0 -0.5797783695
O  O13  1  0.55230000  0.69370000  0.19739000  1.0 -0.5873154067
O  O14  1  0.44770000  0.19370000  0.30261000  1.0 -0.5873154067
O  O15  1  0.44770000  0.30630000  0.80261000  1.0 -0.5873154067
O  O16  1  0.55230000  0.80630000  0.69739000  1.0 -0.5873154067
O  O17  1  0.32700000  0.15860000  0.12818000  1.0 -0.5164695941
O  O18  1  0.67300000  0.65860000  0.37182000  1.0 -0.5164695941
O  O19  1  0.67300000  0.84140000  0.87182000  1.0 -0.5164695941
O  O20  1  0.32700000  0.34140000  0.62818000  1.0 -0.5164695941
O  O21  1  0.23790000  0.21660000  0.19820000  1.0 -0.5797783695
O  O22  1  0.76210000  0.71660000  0.30180000  1.0 -0.5797783695
O  O23  1  0.76210000  0.78340000  0.80180000  1.0 -0.5797783695
O  O24  1  0.23790000  0.28340000  0.69820000  1.0 -0.5797783695
O  O25  1  0.74400000  0.21000000  0.18603000  1.0 -0.5083209984
O  O26  1  0.25600000  0.71000000  0.31397000  1.0 -0.5083209984
O  O27  1  0.25600000  0.79000000  0.81397000  1.0 -0.5083209984
O  O28  1  0.74400000  0.29000000  0.68603000  1.0 -0.5083209984
O  O29  1  0.62290000  0.14690000  0.11325000  1.0 -0.5577948355
O  O30  1  0.37710000  0.64690000  0.38675000  1.0 -0.5577948355
O  O31  1  0.37710000  0.85310000  0.88675000  1.0 -0.5577948355
O  O32  1  0.62290000  0.35310000  0.61325000  1.0 -0.5577948355
O  O33  1  0.33740000  0.30760000  0.35540000  1.0 -0.2110515423
O  O34  1  0.66260000  0.80760000  0.14460000  1.0 -0.2110515423
O  O35  1  0.66260000  0.69240000  0.64460000  1.0 -0.2110515423
O  O36  1  0.33740000  0.19240000  0.85540000  1.0 -0.2110515423
O  O37  1  0.40730000  0.33070000  0.35350000  1.0 0.0057305327
O  O38  1  0.59270000  0.83070000  0.14650000  1.0 0.0042881025
O  O39  1  0.59270000  0.66930000  0.64650000  1.0 0.0057305327
O  O40  1  0.40730000  0.16930000  0.85350000  1.0 0.0057305327
