# DDEC6 charges by PACMAN v1.1 (https://github.com/mtap-research/PACMAN-charge/)
data_DUDKOE_ASR_pacman
_symmetry_space_group_name_H-M   'P 1'
_cell_length_a   19.44870000
_cell_length_b   19.44870000
_cell_length_c   21.76720000
_cell_angle_alpha   64.20640000
_cell_angle_beta   115.79400000
_cell_angle_gamma   119.37200000
_symmetry_Int_Tables_number   1
_chemical_formula_structural   ZnH3C8NO4
_chemical_formula_sum   'Zn12 H36 C96 N12 O48'
_cell_volume   6196.94494301
_cell_formula_units_Z   12
loop_
 _symmetry_equiv_pos_site_id
 _symmetry_equiv_pos_as_xyz
  1  'x, y, z'
loop_
 _atom_site_type_symbol
 _atom_site_label
 _atom_site_symmetry_multiplicity
 _atom_site_fract_x
 _atom_site_fract_y
 _atom_site_fract_z
 _atom_site_occupancy
 _atom_site_charge
Zn  Zn1  1  0.22440000  0.76056000  0.67339000  1.0 0.9489643288
Zn  Zn2  1  0.76056000  0.22440000  0.82661000  1.0 0.9489643288
Zn  Zn3  1  0.77560000  0.23944000  0.32661000  1.0 0.9489643288
Zn  Zn4  1  0.23944000  0.77560000  0.17339000  1.0 0.9489643288
Zn  Zn5  1  0.31149000  0.80214000  0.81217000  1.0 0.9489643288
Zn  Zn6  1  0.80214000  0.31150000  0.68783000  1.0 0.9489643288
Zn  Zn7  1  0.68851000  0.19786000  0.18783000  1.0 0.9489643288
Zn  Zn8  1  0.19785000  0.68851000  0.31217000  1.0 0.9489643288
Zn  Zn9  1  0.32033000  0.23005000  0.81887000  1.0 0.9489643288
Zn  Zn10  1  0.23005000  0.32033000  0.68113000  1.0 0.9489643288
Zn  Zn11  1  0.67967000  0.76995000  0.18113000  1.0 0.9489643288
Zn  Zn12  1  0.76995000  0.67967000  0.31887000  1.0 0.9489643288
H  H1  1  0.53860000  0.01420000  0.75770000  1.0 0.1312937718
H  H2  1  0.01420000  0.53860000  0.74230000  1.0 0.1312937718
H  H3  1  0.46140000  0.98580000  0.24230000  1.0 0.1312937718
H  H4  1  0.98580000  0.46140000  0.25770000  1.0 0.1312937718
H  H5  1  0.63100000  0.12100000  0.59130000  1.0 0.1361058267
H  H6  1  0.12100000  0.63100000  0.90870000  1.0 0.1361058267
H  H7  1  0.36900000  0.87900000  0.40870000  1.0 0.1361058267
H  H8  1  0.87900000  0.36900000  0.09130000  1.0 0.1361058267
H  H9  1  0.42010000  0.92390000  0.58910000  1.0 0.1312937718
H  H10  1  0.92390000  0.42010000  0.91090000  1.0 0.1312937718
H  H11  1  0.57990000  0.07610000  0.41090000  1.0 0.1312937718
H  H12  1  0.07610000  0.57990000  0.08910000  1.0 0.1312937718
H  H13  1  0.42530000  0.63390000  0.90210000  1.0 0.1361058267
H  H14  1  0.63390000  0.42530000  0.59790000  1.0 0.1361058267
H  H15  1  0.57470000  0.36610000  0.09790000  1.0 0.1361058267
H  H16  1  0.36610000  0.57470000  0.40210000  1.0 0.1361058267
H  H17  1  0.42650000  0.42630000  0.90630000  1.0 0.1312937718
H  H18  1  0.42630000  0.42650000  0.59370000  1.0 0.1312937718
H  H19  1  0.57350000  0.57370000  0.09370000  1.0 0.1312937718
H  H20  1  0.57370000  0.57350000  0.40630000  1.0 0.1312937718
H  H21  1  0.29470000  0.54610000  0.73240000  1.0 0.1312937718
H  H22  1  0.54610000  0.29470000  0.76760000  1.0 0.1312937718
H  H23  1  0.70530000  0.45390000  0.26760000  1.0 0.1312937718
H  H24  1  0.45390000  0.70530000  0.23240000  1.0 0.1312937718
H  H25  1  0.08740000  0.91620000  0.58560000  1.0 0.1312937718
H  H26  1  0.91620000  0.08740000  0.91440000  1.0 0.1312937718
H  H27  1  0.91260000  0.08380000  0.41440000  1.0 0.1312937718
H  H28  1  0.08380000  0.91260000  0.08560000  1.0 0.1312937718
H  H29  1  0.09470000  0.12470000  0.58910000  1.0 0.1361058267
H  H30  1  0.12470000  0.09470000  0.91090000  1.0 0.1361058267
H  H31  1  0.90530000  0.87530000  0.41090000  1.0 0.1361058267
H  H32  1  0.87530000  0.90530000  0.08910000  1.0 0.1361058267
H  H33  1  0.24780000  0.01540000  0.74610000  1.0 0.1312937718
H  H34  1  0.01540000  0.24780000  0.75390000  1.0 0.1312937718
H  H35  1  0.75220000  0.98460000  0.25390000  1.0 0.1312937718
H  H36  1  0.98460000  0.75220000  0.24610000  1.0 0.1312937718
C  C1  1  0.39978000  0.89490000  0.71108000  1.0 0.591685269
C  C2  1  0.89490000  0.39978000  0.78892000  1.0 0.591685269
C  C3  1  0.60022000  0.10510000  0.28892000  1.0 0.591685269
C  C4  1  0.10510000  0.60022000  0.21108000  1.0 0.591685269
C  C5  1  0.46811000  0.95941000  0.67830000  1.0 -0.0119380007
C  C6  1  0.95941000  0.46811000  0.82170000  1.0 -0.0119380007
C  C7  1  0.53189000  0.04059000  0.32170000  1.0 -0.0119380007
C  C8  1  0.04059000  0.53189000  0.17830000  1.0 -0.0119380007
C  C9  1  0.53480000  0.01680000  0.71271000  1.0 -0.0904100518
C  C10  1  0.01680000  0.53480000  0.78729000  1.0 -0.0904100518
C  C11  1  0.46520000  0.98320000  0.28729000  1.0 -0.0904100518
C  C12  1  0.98320000  0.46520000  0.21271000  1.0 -0.0904100518
C  C13  1  0.59543000  0.07773000  0.68009000  1.0 -0.0189031203
C  C14  1  0.07773000  0.59543000  0.81991000  1.0 -0.0189031203
C  C15  1  0.40457000  0.92227000  0.31991000  1.0 -0.0189031203
C  C16  1  0.92227000  0.40457000  0.18009000  1.0 -0.0189031203
C  C17  1  0.59073000  0.08007000  0.61354000  1.0 -0.1459690146
C  C18  1  0.08007000  0.59073000  0.88646000  1.0 -0.1459690146
C  C19  1  0.40927000  0.91993000  0.38646000  1.0 -0.1459690146
C  C20  1  0.91993000  0.40927000  0.11354000  1.0 -0.1459690146
C  C21  1  0.52579000  0.02109000  0.58042000  1.0 0.1538487487
C  C22  1  0.02109000  0.52579000  0.91958000  1.0 0.1538487487
C  C23  1  0.47421000  0.97891000  0.41958000  1.0 0.155555334
C  C24  1  0.97891000  0.47421000  0.08042000  1.0 0.155555334
C  C25  1  0.46433000  0.96209000  0.61216000  1.0 -0.143027009
C  C26  1  0.96209000  0.46433000  0.88784000  1.0 -0.143027009
C  C27  1  0.53567000  0.03791000  0.38784000  1.0 -0.143027009
C  C28  1  0.03791000  0.53567000  0.11216000  1.0 -0.143027009
C  C29  1  0.32198000  0.66912000  0.77596000  1.0 0.591685269
C  C30  1  0.66912000  0.32198000  0.72404000  1.0 0.591685269
C  C31  1  0.67802000  0.33088000  0.22404000  1.0 0.591685269
C  C32  1  0.33088000  0.67802000  0.27596000  1.0 0.591685269
C  C33  1  0.35399000  0.60077000  0.81114000  1.0 -0.0189031203
C  C34  1  0.60077000  0.35399000  0.68886000  1.0 -0.0189031203
C  C35  1  0.64601000  0.39923000  0.18886000  1.0 -0.0189031203
C  C36  1  0.39923000  0.64601000  0.31114000  1.0 -0.0189031203
C  C37  1  0.40776000  0.59444000  0.87976000  1.0 -0.143027009
C  C38  1  0.59444000  0.40776000  0.62024000  1.0 -0.143027009
C  C39  1  0.59224000  0.40556000  0.12024000  1.0 -0.143027009
C  C40  1  0.40556000  0.59224000  0.37976000  1.0 -0.143027009
C  C41  1  0.43520000  0.53000000  0.91481000  1.0 0.1538487487
C  C42  1  0.53000000  0.43520000  0.58519000  1.0 0.1538487487
C  C43  1  0.56480000  0.47000000  0.08519000  1.0 0.1538487487
C  C44  1  0.47000000  0.56480000  0.41481000  1.0 0.1538487487
C  C45  1  0.40860000  0.47000000  0.88231000  1.0 -0.143027009
C  C46  1  0.47000000  0.40860000  0.61769000  1.0 -0.143027009
C  C47  1  0.59140000  0.53000000  0.11769000  1.0 -0.143027009
C  C48  1  0.53000000  0.59140000  0.38231000  1.0 -0.143027009
C  C49  1  0.35559000  0.47569000  0.81438000  1.0 -0.0119380007
C  C50  1  0.47569000  0.35559000  0.68562000  1.0 -0.0119380007
C  C51  1  0.64441000  0.52431000  0.18562000  1.0 -0.0119380007
C  C52  1  0.52431000  0.64441000  0.31438000  1.0 -0.0119380007
C  C53  1  0.32922000  0.54168000  0.77858000  1.0 -0.0904100518
C  C54  1  0.54168000  0.32922000  0.72142000  1.0 -0.0904100518
C  C55  1  0.67078000  0.45832000  0.22142000  1.0 -0.0904100518
C  C56  1  0.45832000  0.67078000  0.27858000  1.0 -0.0904100518
C  C57  1  0.32430000  0.40762000  0.78145000  1.0 0.591685269
C  C58  1  0.40762000  0.32430000  0.71855000  1.0 0.591685269
C  C59  1  0.67570000  0.59238000  0.21855000  1.0 0.591685269
C  C60  1  0.59238000  0.67570000  0.28145000  1.0 0.591685269
C  C61  1  0.20758000  0.88974000  0.70131000  1.0 0.5993281491
C  C62  1  0.88974000  0.20758000  0.79869000  1.0 0.5993281491
C  C63  1  0.79242000  0.11026000  0.29869000  1.0 0.5993281491
C  C64  1  0.11026000  0.79242000  0.20131000  1.0 0.5993281491
C  C65  1  0.17330000  0.95620000  0.67023000  1.0 -0.0189031203
C  C66  1  0.95620000  0.17330000  0.82977000  1.0 -0.0119380007
C  C67  1  0.82670000  0.04380000  0.32977000  1.0 -0.0189031203
C  C68  1  0.04380000  0.82670000  0.17023000  1.0 -0.0189031203
C  C69  1  0.10970000  0.95710000  0.60772000  1.0 -0.143027009
C  C70  1  0.95710000  0.10970000  0.89228000  1.0 -0.143027009
C  C71  1  0.89030000  0.04290000  0.39228000  1.0 -0.143027009
C  C72  1  0.04290000  0.89030000  0.10772000  1.0 -0.143027009
C  C73  1  0.07947000  0.01993000  0.57830000  1.0 0.1538487487
C  C74  1  0.01993000  0.07947000  0.92170000  1.0 0.1538487487
C  C75  1  0.92053000  0.98007000  0.42170000  1.0 0.1538487487
C  C76  1  0.98007000  0.92053000  0.07830000  1.0 0.155555334
C  C77  1  0.11410000  0.08210000  0.60991000  1.0 -0.143027009
C  C78  1  0.08210000  0.11410000  0.89009000  1.0 -0.143027009
C  C79  1  0.88590000  0.91790000  0.39009000  1.0 -0.143027009
C  C80  1  0.91790000  0.88590000  0.10991000  1.0 -0.143027009
C  C81  1  0.17815000  0.08137000  0.67279000  1.0 -0.0256382711
C  C82  1  0.08137000  0.17815000  0.82721000  1.0 -0.0189031203
C  C83  1  0.82185000  0.91863000  0.32721000  1.0 -0.0189031203
C  C84  1  0.91863000  0.82185000  0.17279000  1.0 -0.0189031203
C  C85  1  0.20635000  0.01741000  0.70319000  1.0 -0.0904100518
C  C86  1  0.01741000  0.20635000  0.79681000  1.0 -0.0904100518
C  C87  1  0.79365000  0.98259000  0.29681000  1.0 -0.0904100518
C  C88  1  0.98259000  0.79365000  0.20319000  1.0 -0.0904100518
C  C89  1  0.21662000  0.15040000  0.70540000  1.0 0.5993281491
C  C90  1  0.15040000  0.21662000  0.79460000  1.0 0.5993281491
C  C91  1  0.78338000  0.84960000  0.29460000  1.0 0.5993281491
C  C92  1  0.84960000  0.78338000  0.20540000  1.0 0.5993281491
C  C93  1  0.66520000  0.14318000  0.71427000  1.0 0.591685269
C  C94  1  0.14318000  0.66520000  0.78573000  1.0 0.591685269
C  C95  1  0.33480000  0.85682000  0.28573000  1.0 0.591685269
C  C96  1  0.85682000  0.33480000  0.21427000  1.0 0.591685269
N  N1  1  0.52842000  0.02790000  0.51312000  1.0 -0.1293154098
N  N2  1  0.02790000  0.52842000  0.98688000  1.0 -0.1293154098
N  N3  1  0.47158000  0.97210000  0.48688000  1.0 -0.1293154098
N  N4  1  0.97210000  0.47158000  0.01312000  1.0 -0.1293154098
N  N5  1  0.48996000  0.53026000  0.98425000  1.0 -0.1293154098
N  N6  1  0.53026000  0.48996000  0.51575000  1.0 -0.1293154098
N  N7  1  0.51004000  0.46974000  0.01575000  1.0 -0.1293154098
N  N8  1  0.46974000  0.51004000  0.48425000  1.0 -0.1293154098
N  N9  1  0.01319000  0.02607000  0.51490000  1.0 -0.1234243307
N  N10  1  0.02607000  0.01319000  0.98510000  1.0 -0.1234243307
N  N11  1  0.98681000  0.97393000  0.48510000  1.0 -0.1234243307
N  N12  1  0.97393000  0.98681000  0.01490000  1.0 -0.1234243307
O  O1  1  0.33761000  0.85387000  0.67205000  1.0 -0.5508592017
O  O2  1  0.85387000  0.33761000  0.82795000  1.0 -0.5508592017
O  O3  1  0.66239000  0.14613000  0.32795000  1.0 -0.5508592017
O  O4  1  0.14613000  0.66239000  0.17205000  1.0 -0.5508592017
O  O5  1  0.40973000  0.88747000  0.77466000  1.0 -0.5223237445
O  O6  1  0.88747000  0.40973000  0.72534000  1.0 -0.5223237445
O  O7  1  0.59027000  0.11253000  0.22534000  1.0 -0.5223237445
O  O8  1  0.11253000  0.59027000  0.27466000  1.0 -0.5223237445
O  O9  1  0.27908000  0.67750000  0.71239000  1.0 -0.5223237445
O  O10  1  0.67750000  0.27908000  0.78761000  1.0 -0.5223237445
O  O11  1  0.72092000  0.32250000  0.28761000  1.0 -0.5223237445
O  O12  1  0.32250000  0.72092000  0.21239000  1.0 -0.5223237445
O  O13  1  0.34014000  0.71232000  0.81444000  1.0 -0.5613948442
O  O14  1  0.71232000  0.34014000  0.68556000  1.0 -0.5613948442
O  O15  1  0.65986000  0.28768000  0.18556000  1.0 -0.5613948442
O  O16  1  0.28768000  0.65986000  0.31444000  1.0 -0.5613948442
O  O17  1  0.18338000  0.84362000  0.66387000  1.0 -0.5508592017
O  O18  1  0.84362000  0.18338000  0.83613000  1.0 -0.5508592017
O  O19  1  0.81662000  0.15638000  0.33613000  1.0 -0.5508592017
O  O20  1  0.15638000  0.81662000  0.16387000  1.0 -0.5508592017
O  O21  1  0.25905000  0.88661000  0.76211000  1.0 -0.5267483054
O  O22  1  0.88661000  0.25905000  0.73789000  1.0 -0.5267483054
O  O23  1  0.74095000  0.11339000  0.23789000  1.0 -0.5267483054
O  O24  1  0.11339000  0.74095000  0.26211000  1.0 -0.5267483054
O  O25  1  0.66998000  0.13784000  0.77541000  1.0 -0.5223237445
O  O26  1  0.13784000  0.66998000  0.72459000  1.0 -0.5223237445
O  O27  1  0.33002000  0.86216000  0.22459000  1.0 -0.5223237445
O  O28  1  0.86216000  0.33002000  0.27541000  1.0 -0.5223237445
O  O29  1  0.71302000  0.19934000  0.67779000  1.0 -0.5508592017
O  O30  1  0.19934000  0.71302000  0.82221000  1.0 -0.5508592017
O  O31  1  0.28698000  0.80066000  0.32221000  1.0 -0.5508592017
O  O32  1  0.80066000  0.28698000  0.17779000  1.0 -0.5508592017
O  O33  1  0.28338000  0.41958000  0.71706000  1.0 -0.5223237445
O  O34  1  0.41958000  0.28338000  0.78294000  1.0 -0.5267483054
O  O35  1  0.71662000  0.58042000  0.28294000  1.0 -0.5267483054
O  O36  1  0.58042000  0.71662000  0.21706000  1.0 -0.5267483054
O  O37  1  0.34076000  0.34482000  0.82126000  1.0 -0.5508592017
O  O38  1  0.34482000  0.34076000  0.67874000  1.0 -0.5508592017
O  O39  1  0.65924000  0.65518000  0.17874000  1.0 -0.5508592017
O  O40  1  0.65518000  0.65924000  0.32126000  1.0 -0.5508592017
O  O41  1  0.18988000  0.20794000  0.67072000  1.0 -0.5508592017
O  O42  1  0.20794000  0.18988000  0.82928000  1.0 -0.5508592017
O  O43  1  0.81012000  0.79206000  0.32928000  1.0 -0.5508592017
O  O44  1  0.79206000  0.81012000  0.17072000  1.0 -0.5508592017
O  O45  1  0.27219000  0.14643000  0.76345000  1.0 -0.5223237445
O  O46  1  0.14643000  0.27219000  0.73655000  1.0 -0.5223237445
O  O47  1  0.72781000  0.85357000  0.23655000  1.0 -0.5223237445
O  O48  1  0.85357000  0.72781000  0.26345000  1.0 -0.5223237445
