# DDEC6 charges by PACMAN v1.1 (https://github.com/mtap-research/PACMAN-charge/)
data_DUDXUY_FSR_pacman
_symmetry_space_group_name_H-M   'P 1'
_cell_length_a   12.48690000
_cell_length_b   12.59500000
_cell_length_c   13.75830000
_cell_angle_alpha   112.06000000
_cell_angle_beta   104.84800000
_cell_angle_gamma   102.41700000
_symmetry_Int_Tables_number   1
_chemical_formula_structural   CeH27C27N3O11
_chemical_formula_sum   'Ce2 H54 C54 N6 O22'
_cell_volume   1817.65738050
_cell_formula_units_Z   2
loop_
 _symmetry_equiv_pos_site_id
 _symmetry_equiv_pos_as_xyz
  1  'x, y, z'
loop_
 _atom_site_type_symbol
 _atom_site_label
 _atom_site_symmetry_multiplicity
 _atom_site_fract_x
 _atom_site_fract_y
 _atom_site_fract_z
 _atom_site_occupancy
 _atom_site_charge
Ce  Ce1  1  0.18201000  0.54227000  0.54448000  1.0 1.8935136696
Ce  Ce2  1  0.81799000  0.45773000  0.45552000  1.0 1.8935136696
H  H1  1  0.38980000  0.25750000  0.89910000  1.0 0.1283422423
H  H2  1  0.48620000  0.26150000  0.06870000  1.0 0.1283422423
H  H3  1  0.76630000  0.44300000  0.93920000  1.0 0.1203006253
H  H4  1  0.79040000  0.45810000  0.11690000  1.0 0.1283422423
H  H5  1  0.77990000  0.87580000  0.46420000  1.0 0.1203006253
H  H6  1  0.85540000  0.74260000  0.51340000  1.0 0.1088688721
H  H7  1  0.08250000  0.26430000  0.27370000  1.0 0.1017237871
H  H8  1  0.36520000  0.43180000  0.32680000  1.0 0.1386513984
H  H9  1  0.33070000  0.41620000  0.20070000  1.0 0.1386513984
H  H10  1  0.37690000  0.31910000  0.23080000  1.0 0.1203006253
H  H11  1  0.17650000  0.16170000  0.06690000  1.0 0.1386513984
H  H12  1  0.12060000  0.26230000  0.05810000  1.0 0.1508697569
H  H13  1  0.06020000  0.16570000  0.09480000  1.0 0.1386513984
H  H14  1  0.47190000  0.72500000  0.63590000  1.0 0.1203006253
H  H15  1  0.40350000  0.70130000  0.36650000  1.0 0.1283422423
H  H16  1  0.51350000  0.65560000  0.36550000  1.0 0.1017237871
H  H17  1  0.52950000  0.79490000  0.39470000  1.0 0.1017237871
H  H18  1  0.64830000  0.85830000  0.67780000  1.0 0.1088688721
H  H19  1  0.66440000  0.90710000  0.58870000  1.0 0.0890407649
H  H20  1  0.69590000  0.78900000  0.58370000  1.0 0.1203006253
H  H21  1  0.32160000  0.77850000  0.46200000  1.0 0.1508697569
H  H22  1  0.54090000  0.67130000  0.54340000  1.0 0.1088688721
H  H23  1  0.64160000  0.78360000  0.55550000  1.0 0.0890407649
H  H24  1  0.57710000  0.66170000  0.43770000  1.0 0.1017237871
H  H25  1  0.44070000  0.87450000  0.39730000  1.0 0.1017237871
H  H26  1  0.52960000  0.81030000  0.35670000  1.0 0.1203006253
H  H27  1  0.57600000  0.92400000  0.47940000  1.0 0.1017237871
H  H28  1  0.61020000  0.74250000  0.10090000  1.0 0.1283422423
H  H29  1  0.51380000  0.73850000  0.93130000  1.0 0.1283422423
H  H30  1  0.23370000  0.55700000  0.06080000  1.0 0.1203006253
H  H31  1  0.20960000  0.54190000  0.88310000  1.0 0.1283422423
H  H32  1  0.22010000  0.12420000  0.53580000  1.0 0.1203006253
H  H33  1  0.14460000  0.25740000  0.48660000  1.0 0.1088688721
H  H34  1  0.91750000  0.73570000  0.72630000  1.0 0.1017237871
H  H35  1  0.63480000  0.56820000  0.67320000  1.0 0.1386513984
H  H36  1  0.66930000  0.58380000  0.79930000  1.0 0.1386513984
H  H37  1  0.62310000  0.68090000  0.76920000  1.0 0.1203006253
H  H38  1  0.82350000  0.83830000  0.93310000  1.0 0.1386513984
H  H39  1  0.87940000  0.73770000  0.94190000  1.0 0.1508697569
H  H40  1  0.93980000  0.83430000  0.90520000  1.0 0.1386513984
H  H41  1  0.52810000  0.27500000  0.36410000  1.0 0.1203006253
H  H42  1  0.59650000  0.29870000  0.63350000  1.0 0.1283422423
H  H43  1  0.48650000  0.34440000  0.63450000  1.0 0.1017237871
H  H44  1  0.47050000  0.20510000  0.60530000  1.0 0.1017237871
H  H45  1  0.35170000  0.14170000  0.32220000  1.0 0.1088688721
H  H46  1  0.33560000  0.09290000  0.41130000  1.0 0.0890407649
H  H47  1  0.30410000  0.21100000  0.41630000  1.0 0.1203006253
H  H48  1  0.67840000  0.22150000  0.53800000  1.0 0.1508697569
H  H49  1  0.45910000  0.32870000  0.45660000  1.0 0.1088688721
H  H50  1  0.35840000  0.21640000  0.44450000  1.0 0.0890407649
H  H51  1  0.42290000  0.33830000  0.56230000  1.0 0.1017237871
H  H52  1  0.55930000  0.12550000  0.60270000  1.0 0.1017237871
H  H53  1  0.47040000  0.18970000  0.64330000  1.0 0.1203006253
H  H54  1  0.42400000  0.07600000  0.52060000  1.0 0.1017237871
C  C1  1  0.36140000  0.55530000  0.73480000  1.0 0.5654975375
C  C2  1  0.42480000  0.55390000  0.84150000  1.0 -0.1301681871
C  C3  1  0.40610000  0.44460000  0.84860000  1.0 0.2602678558
C  C4  1  0.46210000  0.44350000  0.95280000  1.0 -0.0140892739
C  C5  1  0.44210000  0.33270000  0.96220000  1.0 -0.1479973246
C  C6  1  0.49870000  0.33570000  0.06300000  1.0 -0.1109405259
C  C7  1  0.01940000  0.49320000  0.71060000  1.0 0.6460593244
C  C8  1  0.02960000  0.49830000  0.82330000  1.0 -0.1479973246
C  C9  1  0.93130000  0.47650000  0.85190000  1.0 0.2602678558
C  C10  1  0.94280000  0.48500000  0.96100000  1.0 -0.0177154622
C  C11  1  0.84300000  0.46340000  0.99150000  1.0 -0.1397285859
C  C12  1  0.85770000  0.47220000  0.09700000  1.0 -0.0968823606
C  C13  1  0.92560000  0.26220000  0.42980000  1.0 0.6387551029
C  C14  1  0.97120000  0.17220000  0.45500000  1.0 -0.1479973246
C  C15  1  0.89430000  0.07210000  0.45160000  1.0 0.2718319893
C  C16  1  0.93840000  0.98950000  0.48420000  1.0 -0.0177154622
C  C17  1  0.86200000  0.88900000  0.48440000  1.0 -0.1301681871
C  C18  1  0.90730000  0.81040000  0.51390000  1.0 -0.1217987487
C  C19  1  0.16280000  0.31210000  0.29680000  1.0 0.2602678558
C  C20  1  0.33050000  0.37270000  0.24660000  1.0 -0.3674472372
C  C21  1  0.13550000  0.21530000  0.09970000  1.0 -0.3286855767
C  C22  1  0.44320000  0.70940000  0.55910000  1.0 0.0837769558
C  C23  1  0.48920000  0.72430000  0.40230000  1.0 0.0205780951
C  C24  1  0.64240000  0.83410000  0.59960000  1.0 -0.2728022436
C  C25  1  0.37390000  0.73700000  0.47730000  1.0 0.1203006253
C  C26  1  0.56660000  0.71680000  0.50430000  1.0 0.0205780951
C  C27  1  0.50870000  0.85090000  0.42160000  1.0 -0.2847597996
C  C28  1  0.63860000  0.44470000  0.26520000  1.0 0.5654975375
C  C29  1  0.57520000  0.44610000  0.15850000  1.0 -0.1301681871
C  C30  1  0.59390000  0.55540000  0.15140000  1.0 0.2602678558
C  C31  1  0.53790000  0.55650000  0.04720000  1.0 -0.0177154622
C  C32  1  0.55790000  0.66730000  0.03780000  1.0 -0.1479973246
C  C33  1  0.50130000  0.66430000  0.93700000  1.0 -0.1109405259
C  C34  1  0.98060000  0.50680000  0.28940000  1.0 0.6460593244
C  C35  1  0.97040000  0.50170000  0.17670000  1.0 -0.1479973246
C  C36  1  0.06870000  0.52350000  0.14810000  1.0 0.2602678558
C  C37  1  0.05720000  0.51500000  0.03900000  1.0 -0.0250811117
C  C38  1  0.15700000  0.53660000  0.00850000  1.0 -0.1397285859
C  C39  1  0.14230000  0.52780000  0.90300000  1.0 -0.0968823606
C  C40  1  0.07440000  0.73780000  0.57020000  1.0 0.6387551029
C  C41  1  0.02880000  0.82780000  0.54500000  1.0 -0.1479973246
C  C42  1  0.10570000  0.92790000  0.54840000  1.0 0.2718319893
C  C43  1  0.06160000  0.01050000  0.51580000  1.0 -0.0177154622
C  C44  1  0.13800000  0.11100000  0.51560000  1.0 -0.1301681871
C  C45  1  0.09270000  0.18960000  0.48610000  1.0 -0.1217987487
C  C46  1  0.83720000  0.68790000  0.70320000  1.0 0.2718319893
C  C47  1  0.66950000  0.62730000  0.75340000  1.0 -0.3674472372
C  C48  1  0.86450000  0.78470000  0.90030000  1.0 -0.3286855767
C  C49  1  0.55680000  0.29060000  0.44090000  1.0 0.0837769558
C  C50  1  0.51080000  0.27570000  0.59770000  1.0 0.0205780951
C  C51  1  0.35760000  0.16590000  0.40040000  1.0 -0.2728022436
C  C52  1  0.62610000  0.26300000  0.52270000  1.0 0.1203006253
C  C53  1  0.43340000  0.28320000  0.49570000  1.0 0.0205780951
C  C54  1  0.49130000  0.14910000  0.57840000  1.0 -0.2847597996
N  N1  1  0.20940000  0.29950000  0.21890000  1.0 0.0005207334
N  N2  1  0.52080000  0.75600000  0.52260000  1.0 0.1386513984
N  N3  1  0.47850000  0.76610000  0.46930000  1.0 0.1508697569
N  N4  1  0.79060000  0.70050000  0.78110000  1.0 0.0005207334
N  N5  1  0.47920000  0.24400000  0.47740000  1.0 0.1386513984
N  N6  1  0.52150000  0.23390000  0.53070000  1.0 0.1508697569
O  O1  1  0.36080000  0.65340000  0.73250000  1.0 -0.5700164238
O  O2  1  0.30520000  0.45220000  0.64557000  1.0 -0.5938338439
O  O3  1  0.33410000  0.33530000  0.76110000  1.0 -0.4820853124
O  O4  1  0.11160000  0.52410000  0.69286000  1.0 -0.6060296992
O  O5  1  0.91464000  0.45720000  0.63824000  1.0 -0.6358357171
O  O6  1  0.82070000  0.44580000  0.77960000  1.0 -0.5423705975
O  O7  1  0.99550000  0.36271000  0.44746000  1.0 -0.6841726701
O  O8  1  0.81430000  0.23960000  0.39393000  1.0 -0.5700164238
O  O9  1  0.77680000  0.04800000  0.42120000  1.0 -0.5269397
O  O10  1  0.21870000  0.38330000  0.39850000  1.0 -0.5423705975
O  O11  1  0.34290000  0.65110000  0.50620000  1.0 -0.3080070863
O  O12  1  0.63920000  0.34660000  0.26750000  1.0 -0.5700164238
O  O13  1  0.69480000  0.54780000  0.35443000  1.0 -0.5938338439
O  O14  1  0.66590000  0.66470000  0.23890000  1.0 -0.4820853124
O  O15  1  0.88840000  0.47590000  0.30714000  1.0 -0.6060296992
O  O16  1  0.08536000  0.54280000  0.36176000  1.0 -0.6358357171
O  O17  1  0.17930000  0.55420000  0.22040000  1.0 -0.5423705975
O  O18  1  0.00450000  0.63729000  0.55254000  1.0 -0.6841726701
O  O19  1  0.18570000  0.76040000  0.60607000  1.0 -0.5700164238
O  O20  1  0.22320000  0.95200000  0.57880000  1.0 -0.5269397
O  O21  1  0.78130000  0.61670000  0.60150000  1.0 -0.5423705975
O  O22  1  0.65710000  0.34890000  0.49380000  1.0 -0.3080070863
