# DDEC6 charges by PACMAN v1.1 (https://github.com/mtap-research/PACMAN-charge/)
data_DUFZOU_ASR_pacman
_symmetry_space_group_name_H-M   'P 1'
_cell_length_a   15.23800000
_cell_length_b   15.23800000
_cell_length_c   15.66300000
_cell_angle_alpha   90.00000000
_cell_angle_beta   90.00000000
_cell_angle_gamma   120.00000000
_symmetry_Int_Tables_number   1
_chemical_formula_structural   Eu2Fe3H18C42(NO4)6
_chemical_formula_sum   'Eu4 Fe6 H36 C84 N12 O48'
_cell_volume   3149.64435721
_cell_formula_units_Z   2
loop_
 _symmetry_equiv_pos_site_id
 _symmetry_equiv_pos_as_xyz
  1  'x, y, z'
loop_
 _atom_site_type_symbol
 _atom_site_label
 _atom_site_symmetry_multiplicity
 _atom_site_fract_x
 _atom_site_fract_y
 _atom_site_fract_z
 _atom_site_occupancy
 _atom_site_charge
Eu  Eu1  1  0.33333333  0.66666667  0.25000000  1.0 1.8427541387
Eu  Eu2  1  0.66666667  0.33333333  0.25000000  1.0 1.8427541387
Eu  Eu3  1  0.66666667  0.33333333  0.75000000  1.0 1.8427541387
Eu  Eu4  1  0.33333333  0.66666667  0.75000000  1.0 1.8427541387
Fe  Fe1  1  0.50000000  0.00000000  0.50000000  1.0 1.0880460671
Fe  Fe2  1  0.00000000  0.50000000  0.50000000  1.0 1.0880460671
Fe  Fe3  1  0.50000000  0.50000000  0.50000000  1.0 1.0880460671
Fe  Fe4  1  0.00000000  0.50000000  0.00000000  1.0 1.0880460671
Fe  Fe5  1  0.50000000  0.00000000  0.00000000  1.0 1.0880460671
Fe  Fe6  1  0.50000000  0.50000000  0.00000000  1.0 1.0880460671
H  H1  1  0.80050000  0.90025000  0.25000000  1.0 0.1083453354
H  H2  1  0.09975000  0.90025000  0.25000000  1.0 0.1083453354
H  H3  1  0.09975000  0.19950000  0.25000000  1.0 0.1083453354
H  H4  1  0.19950000  0.09975000  0.25000000  1.0 0.1083453354
H  H5  1  0.90025000  0.09975000  0.25000000  1.0 0.1083453354
H  H6  1  0.90025000  0.80050000  0.25000000  1.0 0.1083453354
H  H7  1  0.19950000  0.09975000  0.75000000  1.0 0.1083453354
H  H8  1  0.90025000  0.09975000  0.75000000  1.0 0.1083453354
H  H9  1  0.90025000  0.80050000  0.75000000  1.0 0.1083453354
H  H10  1  0.80050000  0.90025000  0.75000000  1.0 0.1083453354
H  H11  1  0.09975000  0.90025000  0.75000000  1.0 0.1083453354
H  H12  1  0.09975000  0.19950000  0.75000000  1.0 0.1083453354
H  H13  1  0.71270000  0.76890000  0.15470000  1.0 0.1384143662
H  H14  1  0.23110000  0.94380000  0.15470000  1.0 0.1384143662
H  H15  1  0.05620000  0.28730000  0.15470000  1.0 0.1384143662
H  H16  1  0.28730000  0.23110000  0.15470000  1.0 0.1384143662
H  H17  1  0.76890000  0.05620000  0.15470000  1.0 0.1384143662
H  H18  1  0.94380000  0.71270000  0.15470000  1.0 0.1384143662
H  H19  1  0.76890000  0.71270000  0.34530000  1.0 0.1384143662
H  H20  1  0.94380000  0.23110000  0.34530000  1.0 0.1384143662
H  H21  1  0.28730000  0.05620000  0.34530000  1.0 0.1384143662
H  H22  1  0.23110000  0.28730000  0.34530000  1.0 0.1384143662
H  H23  1  0.05620000  0.76890000  0.34530000  1.0 0.1384143662
H  H24  1  0.71270000  0.94380000  0.34530000  1.0 0.1384143662
H  H25  1  0.28730000  0.23110000  0.84530000  1.0 0.1384143662
H  H26  1  0.76890000  0.05620000  0.84530000  1.0 0.1384143662
H  H27  1  0.94380000  0.71270000  0.84530000  1.0 0.1384143662
H  H28  1  0.71270000  0.76890000  0.84530000  1.0 0.1384143662
H  H29  1  0.23110000  0.94380000  0.84530000  1.0 0.1384143662
H  H30  1  0.05620000  0.28730000  0.84530000  1.0 0.1384143662
H  H31  1  0.23110000  0.28730000  0.65470000  1.0 0.1384143662
H  H32  1  0.05620000  0.76890000  0.65470000  1.0 0.1384143662
H  H33  1  0.71270000  0.94380000  0.65470000  1.0 0.1384143662
H  H34  1  0.76890000  0.71270000  0.65470000  1.0 0.1384143662
H  H35  1  0.94380000  0.23110000  0.65470000  1.0 0.1384143662
H  H36  1  0.28730000  0.05620000  0.65470000  1.0 0.1384143662
C  C1  1  0.73000000  0.86500000  0.25000000  1.0 -0.0561207067
C  C2  1  0.13500000  0.86500000  0.25000000  1.0 -0.0561207067
C  C3  1  0.13500000  0.27000000  0.25000000  1.0 -0.0561207067
C  C4  1  0.27000000  0.13500000  0.25000000  1.0 -0.0561207067
C  C5  1  0.86500000  0.13500000  0.25000000  1.0 -0.0561207067
C  C6  1  0.86500000  0.73000000  0.25000000  1.0 -0.0561207067
C  C7  1  0.27000000  0.13500000  0.75000000  1.0 -0.0561207067
C  C8  1  0.86500000  0.13500000  0.75000000  1.0 -0.0561207067
C  C9  1  0.86500000  0.73000000  0.75000000  1.0 -0.0561207067
C  C10  1  0.73000000  0.86500000  0.75000000  1.0 -0.0561207067
C  C11  1  0.13500000  0.86500000  0.75000000  1.0 -0.0561207067
C  C12  1  0.13500000  0.27000000  0.75000000  1.0 -0.0561207067
C  C13  1  0.67830000  0.78680000  0.19360000  1.0 -0.1352352965
C  C14  1  0.21320000  0.89150000  0.19360000  1.0 -0.1352352965
C  C15  1  0.10850000  0.32170000  0.19360000  1.0 -0.1352352965
C  C16  1  0.32170000  0.21320000  0.19360000  1.0 -0.1352352965
C  C17  1  0.78680000  0.10850000  0.19360000  1.0 -0.1352352965
C  C18  1  0.89150000  0.67830000  0.19360000  1.0 -0.1352352965
C  C19  1  0.78680000  0.67830000  0.30640000  1.0 -0.1352352965
C  C20  1  0.89150000  0.21320000  0.30640000  1.0 -0.1352352965
C  C21  1  0.32170000  0.10850000  0.30640000  1.0 -0.1352352965
C  C22  1  0.21320000  0.32170000  0.30640000  1.0 -0.1352352965
C  C23  1  0.10850000  0.78680000  0.30640000  1.0 -0.1352352965
C  C24  1  0.67830000  0.89150000  0.30640000  1.0 -0.1352352965
C  C25  1  0.32170000  0.21320000  0.80640000  1.0 -0.1352352965
C  C26  1  0.78680000  0.10850000  0.80640000  1.0 -0.1352352965
C  C27  1  0.89150000  0.67830000  0.80640000  1.0 -0.1352352965
C  C28  1  0.67830000  0.78680000  0.80640000  1.0 -0.1352352965
C  C29  1  0.21320000  0.89150000  0.80640000  1.0 -0.1352352965
C  C30  1  0.10850000  0.32170000  0.80640000  1.0 -0.1352352965
C  C31  1  0.21320000  0.32170000  0.69360000  1.0 -0.1352352965
C  C32  1  0.10850000  0.78680000  0.69360000  1.0 -0.1352352965
C  C33  1  0.67830000  0.89150000  0.69360000  1.0 -0.1352352965
C  C34  1  0.78680000  0.67830000  0.69360000  1.0 -0.1352352965
C  C35  1  0.89150000  0.21320000  0.69360000  1.0 -0.1352352965
C  C36  1  0.32170000  0.10850000  0.69360000  1.0 -0.1352352965
C  C37  1  0.57400000  0.73570000  0.19610000  1.0 0.1284018886
C  C38  1  0.26430000  0.83830000  0.19610000  1.0 0.1284018886
C  C39  1  0.16170000  0.42600000  0.19610000  1.0 0.1284018886
C  C40  1  0.42600000  0.26430000  0.19610000  1.0 0.1284018886
C  C41  1  0.73570000  0.16170000  0.19610000  1.0 0.1284018886
C  C42  1  0.83830000  0.57400000  0.19610000  1.0 0.1284018886
C  C43  1  0.73570000  0.57400000  0.30390000  1.0 0.1284018886
C  C44  1  0.83830000  0.26430000  0.30390000  1.0 0.1284018886
C  C45  1  0.42600000  0.16170000  0.30390000  1.0 0.1284018886
C  C46  1  0.26430000  0.42600000  0.30390000  1.0 0.1284018886
C  C47  1  0.16170000  0.73570000  0.30390000  1.0 0.1284018886
C  C48  1  0.57400000  0.83830000  0.30390000  1.0 0.1284018886
C  C49  1  0.42600000  0.26430000  0.80390000  1.0 0.1284018886
C  C50  1  0.73570000  0.16170000  0.80390000  1.0 0.1284018886
C  C51  1  0.83830000  0.57400000  0.80390000  1.0 0.1284018886
C  C52  1  0.57400000  0.73570000  0.80390000  1.0 0.1284018886
C  C53  1  0.26430000  0.83830000  0.80390000  1.0 0.1284018886
C  C54  1  0.16170000  0.42600000  0.80390000  1.0 0.1284018886
C  C55  1  0.26430000  0.42600000  0.69610000  1.0 0.1284018886
C  C56  1  0.16170000  0.73570000  0.69610000  1.0 0.1284018886
C  C57  1  0.57400000  0.83830000  0.69610000  1.0 0.1284018886
C  C58  1  0.73570000  0.57400000  0.69610000  1.0 0.1284018886
C  C59  1  0.83830000  0.26430000  0.69610000  1.0 0.1284018886
C  C60  1  0.42600000  0.16170000  0.69610000  1.0 0.1284018886
C  C61  1  0.50840000  0.64750000  0.13870000  1.0 0.5777411592
C  C62  1  0.35250000  0.86090000  0.13870000  1.0 0.5777411592
C  C63  1  0.13910000  0.49160000  0.13870000  1.0 0.5777411592
C  C64  1  0.49160000  0.35250000  0.13870000  1.0 0.5777411592
C  C65  1  0.64750000  0.13910000  0.13870000  1.0 0.5777411592
C  C66  1  0.86090000  0.50840000  0.13870000  1.0 0.5777411592
C  C67  1  0.64750000  0.50840000  0.36130000  1.0 0.5777411592
C  C68  1  0.86090000  0.35250000  0.36130000  1.0 0.5777411592
C  C69  1  0.49160000  0.13910000  0.36130000  1.0 0.5777411592
C  C70  1  0.35250000  0.49160000  0.36130000  1.0 0.5777411592
C  C71  1  0.13910000  0.64750000  0.36130000  1.0 0.5777411592
C  C72  1  0.50840000  0.86090000  0.36130000  1.0 0.5777411592
C  C73  1  0.49160000  0.35250000  0.86130000  1.0 0.5777411592
C  C74  1  0.64750000  0.13910000  0.86130000  1.0 0.5777411592
C  C75  1  0.86090000  0.50840000  0.86130000  1.0 0.5777411592
C  C76  1  0.50840000  0.64750000  0.86130000  1.0 0.5777411592
C  C77  1  0.35250000  0.86090000  0.86130000  1.0 0.5777411592
C  C78  1  0.13910000  0.49160000  0.86130000  1.0 0.5777411592
C  C79  1  0.35250000  0.49160000  0.63870000  1.0 0.5777411592
C  C80  1  0.13910000  0.64750000  0.63870000  1.0 0.5777411592
C  C81  1  0.50840000  0.86090000  0.63870000  1.0 0.5777411592
C  C82  1  0.64750000  0.50840000  0.63870000  1.0 0.5777411592
C  C83  1  0.86090000  0.35250000  0.63870000  1.0 0.5777411592
C  C84  1  0.49160000  0.13910000  0.63870000  1.0 0.5777411592
N  N1  1  0.52270000  0.76135000  0.25000000  1.0 -0.3226318228
N  N2  1  0.23865000  0.76135000  0.25000000  1.0 -0.3226318228
N  N3  1  0.23865000  0.47730000  0.25000000  1.0 -0.3226318228
N  N4  1  0.47730000  0.23865000  0.25000000  1.0 -0.3226318228
N  N5  1  0.76135000  0.23865000  0.25000000  1.0 -0.3226318228
N  N6  1  0.76135000  0.52270000  0.25000000  1.0 -0.3226318228
N  N7  1  0.47730000  0.23865000  0.75000000  1.0 -0.3226318228
N  N8  1  0.76135000  0.23865000  0.75000000  1.0 -0.3226318228
N  N9  1  0.76135000  0.52270000  0.75000000  1.0 -0.3226318228
N  N10  1  0.52270000  0.76135000  0.75000000  1.0 -0.3226318228
N  N11  1  0.23865000  0.76135000  0.75000000  1.0 -0.3226318228
N  N12  1  0.23865000  0.47730000  0.75000000  1.0 -0.3226318228
O  O1  1  0.41330000  0.61200000  0.14351000  1.0 -0.5978004578
O  O2  1  0.38800000  0.80130000  0.14351000  1.0 -0.5978004578
O  O3  1  0.19870000  0.58670000  0.14351000  1.0 -0.5978004578
O  O4  1  0.58670000  0.38800000  0.14351000  1.0 -0.5978004578
O  O5  1  0.61200000  0.19870000  0.14351000  1.0 -0.5978004578
O  O6  1  0.80130000  0.41330000  0.14351000  1.0 -0.5978004578
O  O7  1  0.61200000  0.41330000  0.35649000  1.0 -0.5978004578
O  O8  1  0.80130000  0.38800000  0.35649000  1.0 -0.5978004578
O  O9  1  0.58670000  0.19870000  0.35649000  1.0 -0.5978004578
O  O10  1  0.38800000  0.58670000  0.35649000  1.0 -0.5978004578
O  O11  1  0.19870000  0.61200000  0.35649000  1.0 -0.5978004578
O  O12  1  0.41330000  0.80130000  0.35649000  1.0 -0.5978004578
O  O13  1  0.58670000  0.38800000  0.85649000  1.0 -0.5978004578
O  O14  1  0.61200000  0.19870000  0.85649000  1.0 -0.5978004578
O  O15  1  0.80130000  0.41330000  0.85649000  1.0 -0.5978004578
O  O16  1  0.41330000  0.61200000  0.85649000  1.0 -0.5978004578
O  O17  1  0.38800000  0.80130000  0.85649000  1.0 -0.5978004578
O  O18  1  0.19870000  0.58670000  0.85649000  1.0 -0.5978004578
O  O19  1  0.38800000  0.58670000  0.64351000  1.0 -0.5978004578
O  O20  1  0.19870000  0.61200000  0.64351000  1.0 -0.5978004578
O  O21  1  0.41330000  0.80130000  0.64351000  1.0 -0.5978004578
O  O22  1  0.61200000  0.41330000  0.64351000  1.0 -0.5978004578
O  O23  1  0.80130000  0.38800000  0.64351000  1.0 -0.5978004578
O  O24  1  0.58670000  0.19870000  0.64351000  1.0 -0.5978004578
O  O25  1  0.55250000  0.61570000  0.09150000  1.0 -0.5554552692
O  O26  1  0.38430000  0.93680000  0.09150000  1.0 -0.5554552692
O  O27  1  0.06320000  0.44750000  0.09150000  1.0 -0.5554552692
O  O28  1  0.44750000  0.38430000  0.09150000  1.0 -0.5554552692
O  O29  1  0.61570000  0.06320000  0.09150000  1.0 -0.5554552692
O  O30  1  0.93680000  0.55250000  0.09150000  1.0 -0.5554552692
O  O31  1  0.61570000  0.55250000  0.40850000  1.0 -0.5554552692
O  O32  1  0.93680000  0.38430000  0.40850000  1.0 -0.5554552692
O  O33  1  0.44750000  0.06320000  0.40850000  1.0 -0.5554552692
O  O34  1  0.38430000  0.44750000  0.40850000  1.0 -0.5554552692
O  O35  1  0.06320000  0.61570000  0.40850000  1.0 -0.5554552692
O  O36  1  0.55250000  0.93680000  0.40850000  1.0 -0.5554552692
O  O37  1  0.44750000  0.38430000  0.90850000  1.0 -0.5554552692
O  O38  1  0.61570000  0.06320000  0.90850000  1.0 -0.5554552692
O  O39  1  0.93680000  0.55250000  0.90850000  1.0 -0.5554552692
O  O40  1  0.55250000  0.61570000  0.90850000  1.0 -0.5554552692
O  O41  1  0.38430000  0.93680000  0.90850000  1.0 -0.5554552692
O  O42  1  0.06320000  0.44750000  0.90850000  1.0 -0.5554552692
O  O43  1  0.38430000  0.44750000  0.59150000  1.0 -0.5554552692
O  O44  1  0.06320000  0.61570000  0.59150000  1.0 -0.5554552692
O  O45  1  0.55250000  0.93680000  0.59150000  1.0 -0.5554552692
O  O46  1  0.61570000  0.55250000  0.59150000  1.0 -0.5554552692
O  O47  1  0.93680000  0.38430000  0.59150000  1.0 -0.5554552692
O  O48  1  0.44750000  0.06320000  0.59150000  1.0 -0.5554552692
