# DDEC6 charges by PACMAN v1.1 (https://github.com/mtap-research/PACMAN-charge/)
data_DUGBAJ_ASR_pacman
_symmetry_space_group_name_H-M   'P 1'
_cell_length_a   15.19900000
_cell_length_b   15.19900000
_cell_length_c   15.58900000
_cell_angle_alpha   90.00000000
_cell_angle_beta   90.00000000
_cell_angle_gamma   120.00000000
_symmetry_Int_Tables_number   1
_chemical_formula_structural   Tb2Fe3H18C42(NO4)6
_chemical_formula_sum   'Tb4 Fe6 H36 C84 N12 O48'
_cell_volume   3118.73819254
_cell_formula_units_Z   2
loop_
 _symmetry_equiv_pos_site_id
 _symmetry_equiv_pos_as_xyz
  1  'x, y, z'
loop_
 _atom_site_type_symbol
 _atom_site_label
 _atom_site_symmetry_multiplicity
 _atom_site_fract_x
 _atom_site_fract_y
 _atom_site_fract_z
 _atom_site_occupancy
 _atom_site_charge
Tb  Tb1  1  0.33333333  0.66666667  0.25000000  1.0 1.8174239604
Tb  Tb2  1  0.66666667  0.33333333  0.25000000  1.0 1.8174239604
Tb  Tb3  1  0.66666667  0.33333333  0.75000000  1.0 1.8174239604
Tb  Tb4  1  0.33333333  0.66666667  0.75000000  1.0 1.8174239604
Fe  Fe1  1  0.50000000  0.50000000  0.00000000  1.0 1.0889907687
Fe  Fe2  1  0.50000000  0.00000000  0.00000000  1.0 1.0840963333
Fe  Fe3  1  0.00000000  0.50000000  0.00000000  1.0 1.0840963333
Fe  Fe4  1  0.50000000  0.50000000  0.50000000  1.0 1.0889907687
Fe  Fe5  1  0.00000000  0.50000000  0.50000000  1.0 1.0840963333
Fe  Fe6  1  0.50000000  0.00000000  0.50000000  1.0 1.0840963333
H  H1  1  0.80130000  0.90065000  0.25000000  1.0 0.1056964804
H  H2  1  0.09935000  0.90065000  0.25000000  1.0 0.1056964804
H  H3  1  0.09935000  0.19870000  0.25000000  1.0 0.1056964804
H  H4  1  0.19870000  0.09935000  0.25000000  1.0 0.1056964804
H  H5  1  0.90065000  0.09935000  0.25000000  1.0 0.1056964804
H  H6  1  0.90065000  0.80130000  0.25000000  1.0 0.1056964804
H  H7  1  0.19870000  0.09935000  0.75000000  1.0 0.1056964804
H  H8  1  0.90065000  0.09935000  0.75000000  1.0 0.1056964804
H  H9  1  0.90065000  0.80130000  0.75000000  1.0 0.1056964804
H  H10  1  0.80130000  0.90065000  0.75000000  1.0 0.1056964804
H  H11  1  0.09935000  0.90065000  0.75000000  1.0 0.1056964804
H  H12  1  0.09935000  0.19870000  0.75000000  1.0 0.1056964804
H  H13  1  0.71210000  0.76760000  0.15530000  1.0 0.1366755778
H  H14  1  0.23240000  0.94450000  0.15530000  1.0 0.1366755778
H  H15  1  0.05550000  0.28790000  0.15530000  1.0 0.1366755778
H  H16  1  0.28790000  0.23240000  0.15530000  1.0 0.1366755778
H  H17  1  0.76760000  0.05550000  0.15530000  1.0 0.1366755778
H  H18  1  0.94450000  0.71210000  0.15530000  1.0 0.1366755778
H  H19  1  0.76760000  0.71210000  0.34470000  1.0 0.1366755778
H  H20  1  0.94450000  0.23240000  0.34470000  1.0 0.1366755778
H  H21  1  0.28790000  0.05550000  0.34470000  1.0 0.1366755778
H  H22  1  0.23240000  0.28790000  0.34470000  1.0 0.1366755778
H  H23  1  0.05550000  0.76760000  0.34470000  1.0 0.1366755778
H  H24  1  0.71210000  0.94450000  0.34470000  1.0 0.1366755778
H  H25  1  0.28790000  0.23240000  0.84470000  1.0 0.1366755778
H  H26  1  0.76760000  0.05550000  0.84470000  1.0 0.1366755778
H  H27  1  0.94450000  0.71210000  0.84470000  1.0 0.1366755778
H  H28  1  0.71210000  0.76760000  0.84470000  1.0 0.1366755778
H  H29  1  0.23240000  0.94450000  0.84470000  1.0 0.1366755778
H  H30  1  0.05550000  0.28790000  0.84470000  1.0 0.1366755778
H  H31  1  0.23240000  0.28790000  0.65530000  1.0 0.1366755778
H  H32  1  0.05550000  0.76760000  0.65530000  1.0 0.1366755778
H  H33  1  0.71210000  0.94450000  0.65530000  1.0 0.1366755778
H  H34  1  0.76760000  0.71210000  0.65530000  1.0 0.1366755778
H  H35  1  0.94450000  0.23240000  0.65530000  1.0 0.1366755778
H  H36  1  0.28790000  0.05550000  0.65530000  1.0 0.1366755778
C  C1  1  0.73060000  0.86530000  0.25000000  1.0 -0.0515164917
C  C2  1  0.13470000  0.86530000  0.25000000  1.0 -0.0515164917
C  C3  1  0.13470000  0.26940000  0.25000000  1.0 -0.0515164917
C  C4  1  0.26940000  0.13470000  0.25000000  1.0 -0.0515164917
C  C5  1  0.86530000  0.13470000  0.25000000  1.0 -0.0515164917
C  C6  1  0.86530000  0.73060000  0.25000000  1.0 -0.0515164917
C  C7  1  0.26940000  0.13470000  0.75000000  1.0 -0.0515164917
C  C8  1  0.86530000  0.13470000  0.75000000  1.0 -0.0515164917
C  C9  1  0.86530000  0.73060000  0.75000000  1.0 -0.0515164917
C  C10  1  0.73060000  0.86530000  0.75000000  1.0 -0.0515164917
C  C11  1  0.13470000  0.86530000  0.75000000  1.0 -0.0515164917
C  C12  1  0.13470000  0.26940000  0.75000000  1.0 -0.0515164917
C  C13  1  0.67780000  0.78630000  0.19400000  1.0 -0.1383983968
C  C14  1  0.21370000  0.89150000  0.19400000  1.0 -0.1383983968
C  C15  1  0.10850000  0.32220000  0.19400000  1.0 -0.1383983968
C  C16  1  0.32220000  0.21370000  0.19400000  1.0 -0.1383983968
C  C17  1  0.78630000  0.10850000  0.19400000  1.0 -0.1383983968
C  C18  1  0.89150000  0.67780000  0.19400000  1.0 -0.1383983968
C  C19  1  0.78630000  0.67780000  0.30600000  1.0 -0.1383983968
C  C20  1  0.89150000  0.21370000  0.30600000  1.0 -0.1383983968
C  C21  1  0.32220000  0.10850000  0.30600000  1.0 -0.1383983968
C  C22  1  0.21370000  0.32220000  0.30600000  1.0 -0.1383983968
C  C23  1  0.10850000  0.78630000  0.30600000  1.0 -0.1383983968
C  C24  1  0.67780000  0.89150000  0.30600000  1.0 -0.1383983968
C  C25  1  0.32220000  0.21370000  0.80600000  1.0 -0.1383983968
C  C26  1  0.78630000  0.10850000  0.80600000  1.0 -0.1383983968
C  C27  1  0.89150000  0.67780000  0.80600000  1.0 -0.1383983968
C  C28  1  0.67780000  0.78630000  0.80600000  1.0 -0.1383983968
C  C29  1  0.21370000  0.89150000  0.80600000  1.0 -0.1383983968
C  C30  1  0.10850000  0.32220000  0.80600000  1.0 -0.1383983968
C  C31  1  0.21370000  0.32220000  0.69400000  1.0 -0.1383983968
C  C32  1  0.10850000  0.78630000  0.69400000  1.0 -0.1383983968
C  C33  1  0.67780000  0.89150000  0.69400000  1.0 -0.1383983968
C  C34  1  0.78630000  0.67780000  0.69400000  1.0 -0.1383983968
C  C35  1  0.89150000  0.21370000  0.69400000  1.0 -0.1383983968
C  C36  1  0.32220000  0.10850000  0.69400000  1.0 -0.1383983968
C  C37  1  0.57360000  0.73530000  0.19610000  1.0 0.1284336928
C  C38  1  0.26470000  0.83830000  0.19610000  1.0 0.1284336928
C  C39  1  0.16170000  0.42640000  0.19610000  1.0 0.1284336928
C  C40  1  0.42640000  0.26470000  0.19610000  1.0 0.1284336928
C  C41  1  0.73530000  0.16170000  0.19610000  1.0 0.1284336928
C  C42  1  0.83830000  0.57360000  0.19610000  1.0 0.1284336928
C  C43  1  0.73530000  0.57360000  0.30390000  1.0 0.1284336928
C  C44  1  0.83830000  0.26470000  0.30390000  1.0 0.1284336928
C  C45  1  0.42640000  0.16170000  0.30390000  1.0 0.1284336928
C  C46  1  0.26470000  0.42640000  0.30390000  1.0 0.1284336928
C  C47  1  0.16170000  0.73530000  0.30390000  1.0 0.1284336928
C  C48  1  0.57360000  0.83830000  0.30390000  1.0 0.1284336928
C  C49  1  0.42640000  0.26470000  0.80390000  1.0 0.1284336928
C  C50  1  0.73530000  0.16170000  0.80390000  1.0 0.1284336928
C  C51  1  0.83830000  0.57360000  0.80390000  1.0 0.1284336928
C  C52  1  0.57360000  0.73530000  0.80390000  1.0 0.1284336928
C  C53  1  0.26470000  0.83830000  0.80390000  1.0 0.1284336928
C  C54  1  0.16170000  0.42640000  0.80390000  1.0 0.1284336928
C  C55  1  0.26470000  0.42640000  0.69610000  1.0 0.1284336928
C  C56  1  0.16170000  0.73530000  0.69610000  1.0 0.1284336928
C  C57  1  0.57360000  0.83830000  0.69610000  1.0 0.1284336928
C  C58  1  0.73530000  0.57360000  0.69610000  1.0 0.1284336928
C  C59  1  0.83830000  0.26470000  0.69610000  1.0 0.1284336928
C  C60  1  0.42640000  0.16170000  0.69610000  1.0 0.1284336928
C  C61  1  0.50820000  0.64710000  0.13880000  1.0 0.5739377125
C  C62  1  0.35290000  0.86110000  0.13880000  1.0 0.5739377125
C  C63  1  0.13890000  0.49180000  0.13880000  1.0 0.5739377125
C  C64  1  0.49180000  0.35290000  0.13880000  1.0 0.5739377125
C  C65  1  0.64710000  0.13890000  0.13880000  1.0 0.5739377125
C  C66  1  0.86110000  0.50820000  0.13880000  1.0 0.5739377125
C  C67  1  0.64710000  0.50820000  0.36120000  1.0 0.5739377125
C  C68  1  0.86110000  0.35290000  0.36120000  1.0 0.5739377125
C  C69  1  0.49180000  0.13890000  0.36120000  1.0 0.5739377125
C  C70  1  0.35290000  0.49180000  0.36120000  1.0 0.5739377125
C  C71  1  0.13890000  0.64710000  0.36120000  1.0 0.5739377125
C  C72  1  0.50820000  0.86110000  0.36120000  1.0 0.5739377125
C  C73  1  0.49180000  0.35290000  0.86120000  1.0 0.5739377125
C  C74  1  0.64710000  0.13890000  0.86120000  1.0 0.5739377125
C  C75  1  0.86110000  0.50820000  0.86120000  1.0 0.5739377125
C  C76  1  0.50820000  0.64710000  0.86120000  1.0 0.5739377125
C  C77  1  0.35290000  0.86110000  0.86120000  1.0 0.5739377125
C  C78  1  0.13890000  0.49180000  0.86120000  1.0 0.5739377125
C  C79  1  0.35290000  0.49180000  0.63880000  1.0 0.5739377125
C  C80  1  0.13890000  0.64710000  0.63880000  1.0 0.5739377125
C  C81  1  0.50820000  0.86110000  0.63880000  1.0 0.5739377125
C  C82  1  0.64710000  0.50820000  0.63880000  1.0 0.5739377125
C  C83  1  0.86110000  0.35290000  0.63880000  1.0 0.5739377125
C  C84  1  0.49180000  0.13890000  0.63880000  1.0 0.5739377125
N  N1  1  0.52220000  0.76110000  0.25000000  1.0 -0.323631549
N  N2  1  0.23890000  0.76110000  0.25000000  1.0 -0.323631549
N  N3  1  0.23890000  0.47780000  0.25000000  1.0 -0.323631549
N  N4  1  0.47780000  0.23890000  0.25000000  1.0 -0.323631549
N  N5  1  0.76110000  0.23890000  0.25000000  1.0 -0.323631549
N  N6  1  0.76110000  0.52220000  0.25000000  1.0 -0.323631549
N  N7  1  0.47780000  0.23890000  0.75000000  1.0 -0.323631549
N  N8  1  0.76110000  0.23890000  0.75000000  1.0 -0.323631549
N  N9  1  0.76110000  0.52220000  0.75000000  1.0 -0.323631549
N  N10  1  0.52220000  0.76110000  0.75000000  1.0 -0.323631549
N  N11  1  0.23890000  0.76110000  0.75000000  1.0 -0.323631549
N  N12  1  0.23890000  0.47780000  0.75000000  1.0 -0.323631549
O  O1  1  0.41360000  0.61250000  0.14348000  1.0 -0.5894947043
O  O2  1  0.38750000  0.80110000  0.14348000  1.0 -0.5894947043
O  O3  1  0.19890000  0.58640000  0.14348000  1.0 -0.5894947043
O  O4  1  0.58640000  0.38750000  0.14348000  1.0 -0.5894947043
O  O5  1  0.61250000  0.19890000  0.14348000  1.0 -0.5894947043
O  O6  1  0.80110000  0.41360000  0.14348000  1.0 -0.5894947043
O  O7  1  0.61250000  0.41360000  0.35652000  1.0 -0.5894947043
O  O8  1  0.80110000  0.38750000  0.35652000  1.0 -0.5894947043
O  O9  1  0.58640000  0.19890000  0.35652000  1.0 -0.5894947043
O  O10  1  0.38750000  0.58640000  0.35652000  1.0 -0.5894947043
O  O11  1  0.19890000  0.61250000  0.35652000  1.0 -0.5894947043
O  O12  1  0.41360000  0.80110000  0.35652000  1.0 -0.5894947043
O  O13  1  0.58640000  0.38750000  0.85652000  1.0 -0.5894947043
O  O14  1  0.61250000  0.19890000  0.85652000  1.0 -0.5894947043
O  O15  1  0.80110000  0.41360000  0.85652000  1.0 -0.5894947043
O  O16  1  0.41360000  0.61250000  0.85652000  1.0 -0.5894947043
O  O17  1  0.38750000  0.80110000  0.85652000  1.0 -0.5894947043
O  O18  1  0.19890000  0.58640000  0.85652000  1.0 -0.5894947043
O  O19  1  0.38750000  0.58640000  0.64348000  1.0 -0.5894947043
O  O20  1  0.19890000  0.61250000  0.64348000  1.0 -0.5894947043
O  O21  1  0.41360000  0.80110000  0.64348000  1.0 -0.5894947043
O  O22  1  0.61250000  0.41360000  0.64348000  1.0 -0.5894947043
O  O23  1  0.80110000  0.38750000  0.64348000  1.0 -0.5894947043
O  O24  1  0.58640000  0.19890000  0.64348000  1.0 -0.5894947043
O  O25  1  0.55210000  0.61520000  0.09200000  1.0 -0.5507640482
O  O26  1  0.38480000  0.93690000  0.09200000  1.0 -0.5507640482
O  O27  1  0.06310000  0.44790000  0.09200000  1.0 -0.5507640482
O  O28  1  0.44790000  0.38480000  0.09200000  1.0 -0.5507640482
O  O29  1  0.61520000  0.06310000  0.09200000  1.0 -0.5507640482
O  O30  1  0.93690000  0.55210000  0.09200000  1.0 -0.5507640482
O  O31  1  0.61520000  0.55210000  0.40800000  1.0 -0.5507640482
O  O32  1  0.93690000  0.38480000  0.40800000  1.0 -0.5507640482
O  O33  1  0.44790000  0.06310000  0.40800000  1.0 -0.5507640482
O  O34  1  0.38480000  0.44790000  0.40800000  1.0 -0.5507640482
O  O35  1  0.06310000  0.61520000  0.40800000  1.0 -0.5507640482
O  O36  1  0.55210000  0.93690000  0.40800000  1.0 -0.5507640482
O  O37  1  0.44790000  0.38480000  0.90800000  1.0 -0.5507640482
O  O38  1  0.61520000  0.06310000  0.90800000  1.0 -0.5507640482
O  O39  1  0.93690000  0.55210000  0.90800000  1.0 -0.5507640482
O  O40  1  0.55210000  0.61520000  0.90800000  1.0 -0.5507640482
O  O41  1  0.38480000  0.93690000  0.90800000  1.0 -0.5507640482
O  O42  1  0.06310000  0.44790000  0.90800000  1.0 -0.5507640482
O  O43  1  0.38480000  0.44790000  0.59200000  1.0 -0.5507640482
O  O44  1  0.06310000  0.61520000  0.59200000  1.0 -0.5507640482
O  O45  1  0.55210000  0.93690000  0.59200000  1.0 -0.5507640482
O  O46  1  0.61520000  0.55210000  0.59200000  1.0 -0.5507640482
O  O47  1  0.93690000  0.38480000  0.59200000  1.0 -0.5507640482
O  O48  1  0.44790000  0.06310000  0.59200000  1.0 -0.5507640482
