# DDEC6 charges by PACMAN v1.1 (https://github.com/mtap-research/PACMAN-charge/)
data_DUGGOD_ASR_pacman
_symmetry_space_group_name_H-M   'P 1'
_cell_length_a   11.92600000
_cell_length_b   14.41900000
_cell_length_c   24.46700000
_cell_angle_alpha   90.00000000
_cell_angle_beta   104.87800000
_cell_angle_gamma   90.00000000
_symmetry_Int_Tables_number   1
_chemical_formula_structural   Cu6SiH20W12C20(N10O11)3
_chemical_formula_sum   'Cu12 Si2 H40 W24 C40 N60 O66'
_cell_volume   4066.31647903
_cell_formula_units_Z   2
loop_
 _symmetry_equiv_pos_site_id
 _symmetry_equiv_pos_as_xyz
  1  'x, y, z'
loop_
 _atom_site_type_symbol
 _atom_site_label
 _atom_site_symmetry_multiplicity
 _atom_site_fract_x
 _atom_site_fract_y
 _atom_site_fract_z
 _atom_site_occupancy
 _atom_site_charge
Cu  Cu1  1  0.24210000  0.91698000  0.46140000  1.0 0.4895318196
Cu  Cu2  1  0.24210000  0.08302000  0.96140000  1.0 0.4895318196
Cu  Cu3  1  0.12629000  0.67079000  0.44329000  1.0 0.2673254357
Cu  Cu4  1  0.12629000  0.32921000  0.94329000  1.0 0.2673254357
Cu  Cu5  1  0.74441000  0.93181000  0.45901000  1.0 0.5626058624
Cu  Cu6  1  0.74441000  0.06819000  0.95901000  1.0 0.5626058624
Cu  Cu7  1  0.63094000  0.17289000  0.45284000  1.0 0.5626058624
Cu  Cu8  1  0.63094000  0.82711000  0.95284000  1.0 0.5626058624
Cu  Cu9  1  0.50698000  0.40457000  0.43908000  1.0 0.2842742549
Cu  Cu10  1  0.50698000  0.59543000  0.93908000  1.0 0.2842742549
Cu  Cu11  1  0.00615000  0.43535000  0.43685000  1.0 0.4298902051
Cu  Cu12  1  0.00615000  0.56465000  0.93685000  1.0 0.4298902051
Si  Si1  1  0.37120000  0.25980000  0.69490000  1.0 1.6577071295
Si  Si2  1  0.37120000  0.74020000  0.19490000  1.0 1.6577071295
H  H1  1  0.00630000  0.98780000  0.47110000  1.0 0.0923667
H  H2  1  0.00630000  0.01220000  0.97110000  1.0 0.0923667
H  H3  1  0.46350000  0.10810000  0.33940000  1.0 0.1019944289
H  H4  1  0.46350000  0.89190000  0.83940000  1.0 0.1019944289
H  H5  1  0.36850000  0.59440000  0.44430000  1.0 0.1081808612
H  H6  1  0.36850000  0.40560000  0.94430000  1.0 0.1081808612
H  H7  1  0.24200000  0.34510000  0.42790000  1.0 0.1019944289
H  H8  1  0.24200000  0.65490000  0.92790000  1.0 0.1019944289
H  H9  1  0.31530000  0.35520000  0.32550000  1.0 0.1019944289
H  H10  1  0.31530000  0.64480000  0.82550000  1.0 0.1019944289
H  H11  1  0.29600000  0.61690000  0.56080000  1.0 0.1204708389
H  H12  1  0.29600000  0.38310000  0.06080000  1.0 0.1204708389
H  H13  1  0.41720000  0.86720000  0.57500000  1.0 0.1286424059
H  H14  1  0.41720000  0.13280000  0.07500000  1.0 0.1286424059
H  H15  1  0.95260000  0.00180000  0.58320000  1.0 0.1019944289
H  H16  1  0.95260000  0.99820000  0.08320000  1.0 0.1081808612
H  H17  1  0.95570000  0.73260000  0.32830000  1.0 0.1081808612
H  H18  1  0.95570000  0.26740000  0.82830000  1.0 0.1081808612
H  H19  1  0.81310000  0.47730000  0.32210000  1.0 0.1019944289
H  H20  1  0.81310000  0.52270000  0.82210000  1.0 0.1019944289
H  H21  1  0.74290000  0.49710000  0.43290000  1.0 0.1019944289
H  H22  1  0.74290000  0.50290000  0.93290000  1.0 0.1019944289
H  H23  1  0.38210000  0.10140000  0.46230000  1.0 0.1019944289
H  H24  1  0.38210000  0.89860000  0.96230000  1.0 0.1019944289
H  H25  1  0.49580000  0.84770000  0.45600000  1.0 0.1081808612
H  H26  1  0.49580000  0.15230000  0.95600000  1.0 0.1081808612
H  H27  1  0.80090000  0.24060000  0.57450000  1.0 0.1204708389
H  H28  1  0.80090000  0.75940000  0.07450000  1.0 0.1204708389
H  H29  1  0.87940000  0.74090000  0.44890000  1.0 0.1019944289
H  H30  1  0.87940000  0.25910000  0.94890000  1.0 0.1019944289
H  H31  1  0.71990000  0.19670000  0.32610000  1.0 0.1019944289
H  H32  1  0.71990000  0.80330000  0.82610000  1.0 0.1019944289
H  H33  1  0.13080000  0.13290000  0.45530000  1.0 0.1081808612
H  H34  1  0.13080000  0.86710000  0.95530000  1.0 0.1081808612
H  H35  1  0.18630000  0.98260000  0.33550000  1.0 0.1081808612
H  H36  1  0.18630000  0.01740000  0.83550000  1.0 0.1081808612
H  H37  1  0.81550000  0.93490000  0.34050000  1.0 0.1081808612
H  H38  1  0.81550000  0.06510000  0.84050000  1.0 0.1081808612
H  H39  1  0.87800000  0.25070000  0.45200000  1.0 0.1081808612
H  H40  1  0.87800000  0.74930000  0.95200000  1.0 0.1081808612
W  W1  1  0.07981000  0.32242000  0.68719000  1.0 2.4327935324
W  W2  1  0.07981000  0.67758000  0.18719000  1.0 2.4327935324
W  W3  1  0.28087000  0.25209000  0.82299000  1.0 2.3675337182
W  W4  1  0.28087000  0.74791000  0.32299000  1.0 2.3675337182
W  W5  1  0.46020000  0.42417000  0.80361000  1.0 2.3286339389
W  W6  1  0.46020000  0.57583000  0.30361000  1.0 2.3286339389
W  W7  1  0.18079000  0.07703000  0.71054000  1.0 2.4120016442
W  W8  1  0.18079000  0.92297000  0.21054000  1.0 2.4120016442
W  W9  1  0.56063000  0.20593000  0.82618000  1.0 2.3886301862
W  W10  1  0.56063000  0.79407000  0.32618000  1.0 2.3886301862
W  W11  1  0.56889000  0.43043000  0.67619000  1.0 2.4760454045
W  W12  1  0.56889000  0.56957000  0.17619000  1.0 2.4760454045
W  W13  1  0.47373000  0.26821000  0.57042000  1.0 2.404085909
W  W14  1  0.47373000  0.73179000  0.07042000  1.0 2.404085909
W  W15  1  0.26191000  0.48883000  0.66585000  1.0 2.4488848792
W  W16  1  0.26191000  0.51117000  0.16585000  1.0 2.4488848792
W  W17  1  0.17064000  0.31909000  0.56546000  1.0 2.4120016442
W  W18  1  0.17064000  0.68091000  0.06546000  1.0 2.4120016442
W  W19  1  0.28111000  0.08292000  0.59102000  1.0 2.3886301862
W  W20  1  0.28111000  0.91708000  0.09102000  1.0 2.3886301862
W  W21  1  0.66091000  0.20791000  0.69510000  1.0 2.4177472935
W  W22  1  0.66091000  0.79209000  0.19510000  1.0 2.4177472935
W  W23  1  0.45928000  0.02416000  0.71845000  1.0 2.3886301862
W  W24  1  0.45928000  0.97584000  0.21845000  1.0 2.3886301862
C  C1  1  0.99790000  0.92480000  0.46280000  1.0 0.1518926592
C  C2  1  0.99790000  0.07520000  0.96280000  1.0 0.1518926592
C  C3  1  0.44870000  0.17030000  0.34470000  1.0 0.1286424059
C  C4  1  0.44870000  0.82970000  0.84470000  1.0 0.1286424059
C  C5  1  0.31840000  0.54400000  0.44070000  1.0 0.1286424059
C  C6  1  0.31840000  0.45600000  0.94070000  1.0 0.1286424059
C  C7  1  0.25170000  0.40890000  0.43220000  1.0 0.1421737344
C  C8  1  0.25170000  0.59110000  0.93220000  1.0 0.1421737344
C  C9  1  0.36720000  0.30640000  0.33620000  1.0 0.1081808612
C  C10  1  0.36720000  0.69360000  0.83620000  1.0 0.1081808612
C  C11  1  0.31290000  0.67760000  0.55290000  1.0 0.1081808612
C  C12  1  0.31290000  0.32240000  0.05290000  1.0 0.1081808612
C  C13  1  0.37810000  0.81330000  0.56010000  1.0 0.1081808612
C  C14  1  0.37810000  0.18670000  0.06010000  1.0 0.1081808612
C  C15  1  0.90300000  0.05060000  0.56900000  1.0 0.1286424059
C  C16  1  0.90300000  0.94940000  0.06900000  1.0 0.1286424059
C  C17  1  0.94000000  0.67100000  0.33500000  1.0 0.1204708389
C  C18  1  0.94000000  0.32900000  0.83500000  1.0 0.1204708389
C  C19  1  0.85980000  0.52900000  0.33280000  1.0 0.1286424059
C  C20  1  0.85980000  0.47100000  0.83280000  1.0 0.1286424059
C  C21  1  0.75300000  0.43310000  0.43600000  1.0 0.1081808612
C  C22  1  0.75300000  0.56690000  0.93600000  1.0 0.1081808612
C  C23  1  0.43060000  0.05180000  0.46060000  1.0 0.1204708389
C  C24  1  0.43060000  0.94820000  0.96060000  1.0 0.1204708389
C  C25  1  0.49340000  0.91200000  0.45840000  1.0 0.1421737344
C  C26  1  0.49340000  0.08800000  0.95840000  1.0 0.1421737344
C  C27  1  0.82100000  0.18210000  0.56400000  1.0 0.1204708389
C  C28  1  0.82100000  0.81790000  0.06400000  1.0 0.1204708389
C  C29  1  0.92920000  0.79130000  0.45120000  1.0 0.1421737344
C  C30  1  0.92920000  0.20870000  0.95120000  1.0 0.1421737344
C  C31  1  0.73660000  0.13670000  0.33960000  1.0 0.0803887611
C  C32  1  0.73660000  0.86330000  0.83960000  1.0 0.0803887611
C  C33  1  0.13530000  0.11600000  0.41930000  1.0 0.1019944289
C  C34  1  0.13530000  0.88400000  0.91930000  1.0 0.1019944289
C  C35  1  0.16470000  0.03000000  0.35670000  1.0 0.1204708389
C  C36  1  0.16470000  0.97000000  0.85670000  1.0 0.1204708389
C  C37  1  0.79030000  0.99400000  0.34730000  1.0 0.0803887611
C  C38  1  0.79030000  0.00600000  0.84730000  1.0 0.0803887611
C  C39  1  0.82560000  0.29970000  0.44710000  1.0 0.1286424059
C  C40  1  0.82560000  0.70030000  0.94710000  1.0 0.1286424059
N  N1  1  0.08020000  0.87670000  0.45450000  1.0 -0.1985007727
N  N2  1  0.08020000  0.12330000  0.95450000  1.0 -0.1985007727
N  N3  1  0.03220000  0.78460000  0.44730000  1.0 -0.1808951675
N  N4  1  0.03220000  0.21540000  0.94730000  1.0 -0.1808951675
N  N5  1  0.89830000  0.88020000  0.45910000  1.0 -0.3497806444
N  N6  1  0.89830000  0.11980000  0.95910000  1.0 -0.3497806444
N  N7  1  0.75280000  0.01870000  0.39200000  1.0 -0.1598107049
N  N8  1  0.75280000  0.98130000  0.89200000  1.0 -0.1598107049
N  N9  1  0.71670000  0.10510000  0.38670000  1.0 -0.2380129724
N  N10  1  0.71670000  0.89490000  0.88670000  1.0 -0.2380129724
N  N11  1  0.81340000  0.04540000  0.52200000  1.0 -0.2837597235
N  N12  1  0.81340000  0.95460000  0.02200000  1.0 -0.2837597235
N  N13  1  0.76210000  0.13430000  0.51730000  1.0 -0.2095086715
N  N14  1  0.76210000  0.86570000  0.01730000  1.0 -0.2095086715
N  N15  1  0.49290000  0.21370000  0.38760000  1.0 -0.1808951675
N  N16  1  0.49290000  0.78630000  0.88760000  1.0 -0.1808951675
N  N17  1  0.44680000  0.30170000  0.38220000  1.0 -0.1808951675
N  N18  1  0.44680000  0.69830000  0.88220000  1.0 -0.1808951675
N  N19  1  0.35340000  0.45210000  0.43690000  1.0 -0.3374152435
N  N20  1  0.35340000  0.54790000  0.93690000  1.0 -0.3374152435
N  N21  1  0.16790000  0.46560000  0.43440000  1.0 -0.1985007727
N  N22  1  0.16790000  0.53440000  0.93440000  1.0 -0.1985007727
N  N23  1  0.85170000  0.39000000  0.43740000  1.0 -0.3271104051
N  N24  1  0.85170000  0.61000000  0.93740000  1.0 -0.3271104051
N  N25  1  0.26260000  0.72260000  0.50650000  1.0 -0.1513990714
N  N26  1  0.26260000  0.27740000  0.00650000  1.0 -0.1513990714
N  N27  1  0.30450000  0.80630000  0.51120000  1.0 -0.1513990714
N  N28  1  0.30450000  0.19370000  0.01120000  1.0 -0.1513990714
N  N29  1  0.38940000  0.72950000  0.58640000  1.0 -0.1598107049
N  N30  1  0.38940000  0.27050000  0.08640000  1.0 -0.1598107049
N  N31  1  0.99190000  0.62160000  0.37800000  1.0 -0.1808951675
N  N32  1  0.99190000  0.37840000  0.87800000  1.0 -0.1808951675
N  N33  1  0.90970000  0.13310000  0.59170000  1.0 -0.2485815054
N  N34  1  0.90970000  0.86690000  0.09170000  1.0 -0.2485815054
N  N35  1  0.54060000  0.06160000  0.45680000  1.0 -0.2095086715
N  N36  1  0.54060000  0.93840000  0.95680000  1.0 -0.2095086715
N  N37  1  0.37110000  0.22530000  0.30410000  1.0 -0.299038644
N  N38  1  0.37110000  0.77470000  0.80410000  1.0 -0.299038644
N  N39  1  0.85400000  0.61470000  0.30000000  1.0 -0.2694977774
N  N40  1  0.85400000  0.38530000  0.80000000  1.0 -0.2694977774
N  N41  1  0.93920000  0.53870000  0.37860000  1.0 -0.2380129724
N  N42  1  0.93920000  0.46130000  0.87860000  1.0 -0.2380129724
N  N43  1  0.17510000  0.02640000  0.40780000  1.0 -0.3066165103
N  N44  1  0.17510000  0.97360000  0.90780000  1.0 -0.3066165103
N  N45  1  0.78660000  0.07020000  0.31260000  1.0 -0.1917666673
N  N46  1  0.78660000  0.92980000  0.81260000  1.0 -0.1917666673
N  N47  1  0.58380000  0.96790000  0.45890000  1.0 -0.1985007727
N  N48  1  0.58380000  0.03210000  0.95890000  1.0 -0.1985007727
N  N49  1  0.39860000  0.96010000  0.46190000  1.0 -0.3497806444
N  N50  1  0.39860000  0.03990000  0.96190000  1.0 -0.3497806444
N  N51  1  0.11820000  0.11300000  0.33520000  1.0 -0.0196611233
N  N52  1  0.11820000  0.88700000  0.83520000  1.0 -0.0196611233
N  N53  1  0.10920000  0.16900000  0.38020000  1.0 -0.2485815054
N  N54  1  0.10920000  0.83100000  0.88020000  1.0 -0.2485815054
N  N55  1  0.71790000  0.29200000  0.44850000  1.0 -0.1343145101
N  N56  1  0.71790000  0.70800000  0.94850000  1.0 -0.1343145101
N  N57  1  0.67070000  0.37390000  0.43930000  1.0 -0.1513990714
N  N58  1  0.67070000  0.62610000  0.93930000  1.0 -0.1513990714
N  N59  1  0.21620000  0.55130000  0.43870000  1.0 -0.1598107049
N  N60  1  0.21620000  0.44870000  0.93870000  1.0 -0.1598107049
O  O1  1  0.47740000  0.28490000  0.66950000  1.0 -1.141196137
O  O2  1  0.47740000  0.71510000  0.16950000  1.0 -1.141196137
O  O3  1  0.33390000  0.15040000  0.68380000  1.0 -1.141196137
O  O4  1  0.33390000  0.84960000  0.18380000  1.0 -1.141196137
O  O5  1  0.25900000  0.32370000  0.66360000  1.0 -1.141196137
O  O6  1  0.25900000  0.67630000  0.16360000  1.0 -1.141196137
O  O7  1  0.40350000  0.27800000  0.76210000  1.0 -1.113397087
O  O8  1  0.40350000  0.72200000  0.26210000  1.0 -1.113397087
O  O9  1  0.55300000  0.43290000  0.75160000  1.0 -0.9555471195
O  O10  1  0.55300000  0.56710000  0.25160000  1.0 -0.9555471195
O  O11  1  0.54840000  0.39120000  0.59780000  1.0 -0.9522302045
O  O12  1  0.54840000  0.60880000  0.09780000  1.0 -0.9555471195
O  O13  1  0.62400000  0.21310000  0.61590000  1.0 -0.9416693005
O  O14  1  0.62400000  0.78690000  0.11590000  1.0 -0.9416693005
O  O15  1  0.56560000  0.33280000  0.84300000  1.0 -0.9030030324
O  O16  1  0.56560000  0.66720000  0.34300000  1.0 -0.9030030324
O  O17  1  0.42610000  0.20210000  0.85780000  1.0 -0.880787219
O  O18  1  0.42610000  0.79790000  0.35780000  1.0 -0.880787219
O  O19  1  0.33780000  0.47250000  0.74410000  1.0 -0.9673688067
O  O20  1  0.33780000  0.52750000  0.24410000  1.0 -0.9673688067
O  O21  1  0.12270000  0.45070000  0.68740000  1.0 -0.993113841
O  O22  1  0.12270000  0.54930000  0.18740000  1.0 -0.993113841
O  O23  1  0.34660000  0.37080000  0.83800000  1.0 -0.9069858446
O  O24  1  0.34660000  0.62920000  0.33800000  1.0 -0.9069858446
O  O25  1  0.09210000  0.18500000  0.68520000  1.0 -0.9763851269
O  O26  1  0.09210000  0.81500000  0.18520000  1.0 -0.9763851269
O  O27  1  0.23630000  0.14240000  0.77940000  1.0 -0.9309934034
O  O28  1  0.23630000  0.85760000  0.27940000  1.0 -0.9309934034
O  O29  1  0.49480000  0.09640000  0.78720000  1.0 -0.9416693005
O  O30  1  0.49480000  0.90360000  0.28720000  1.0 -0.9416693005
O  O31  1  0.31450000  0.99830000  0.73560000  1.0 -0.9522302045
O  O32  1  0.31450000  0.00170000  0.23560000  1.0 -0.9522302045
O  O33  1  0.39990000  0.15160000  0.57220000  1.0 -0.9309934034
O  O34  1  0.39990000  0.84840000  0.07220000  1.0 -0.9309934034
O  O35  1  0.17970000  0.18850000  0.56870000  1.0 -0.9416693005
O  O36  1  0.17970000  0.81150000  0.06870000  1.0 -0.9416693005
O  O37  1  0.32650000  0.32750000  0.55570000  1.0 -0.9416693005
O  O38  1  0.32650000  0.67250000  0.05570000  1.0 -0.9416693005
O  O39  1  0.16780000  0.31520000  0.76510000  1.0 -0.9416693005
O  O40  1  0.16780000  0.68480000  0.26510000  1.0 -0.9416693005
O  O41  1  0.23470000  0.00600000  0.53420000  1.0 -0.817480634
O  O42  1  0.23470000  0.99400000  0.03420000  1.0 -0.817480634
O  O43  1  0.21120000  0.24130000  0.87560000  1.0 -0.7561935438
O  O44  1  0.21120000  0.75870000  0.37560000  1.0 -0.7561935438
O  O45  1  0.04420000  0.32130000  0.60760000  1.0 -0.9309934034
O  O46  1  0.04420000  0.67870000  0.10760000  1.0 -0.9309934034
O  O47  1  0.16760000  0.04400000  0.63700000  1.0 -0.9069858446
O  O48  1  0.16760000  0.95600000  0.13700000  1.0 -0.9069858446
O  O49  1  0.39430000  0.99790000  0.64140000  1.0 -0.9416693005
O  O50  1  0.39430000  0.00210000  0.14140000  1.0 -0.9416693005
O  O51  1  0.69330000  0.34110000  0.69960000  1.0 -0.995274867
O  O52  1  0.69330000  0.65890000  0.19960000  1.0 -0.995274867
O  O53  1  0.57580000  0.09860000  0.69640000  1.0 -0.9763851269
O  O54  1  0.57580000  0.90140000  0.19640000  1.0 -0.9763851269
O  O55  1  0.19350000  0.45790000  0.58920000  1.0 -0.9522302045
O  O56  1  0.19350000  0.54210000  0.08920000  1.0 -0.9522302045
O  O57  1  0.50850000  0.27350000  0.50560000  1.0 -0.77347901
O  O58  1  0.50850000  0.72650000  0.00560000  1.0 -0.77347901
O  O59  1  0.07690000  0.34390000  0.49720000  1.0 -0.817480634
O  O60  1  0.07690000  0.65610000  0.99720000  1.0 -0.817480634
O  O61  1  0.64190000  0.22550000  0.77140000  1.0 -0.9309934034
O  O62  1  0.64190000  0.77450000  0.27140000  1.0 -0.9309934034
O  O63  1  0.66390000  0.17070000  0.88610000  1.0 -0.7819996728
O  O64  1  0.66390000  0.82930000  0.38610000  1.0 -0.7819996728
O  O65  1  0.41280000  0.47900000  0.65690000  1.0 -0.9673688067
O  O66  1  0.41280000  0.52100000  0.15690000  1.0 -0.9673688067
