# DDEC6 charges by PACMAN v1.1 (https://github.com/mtap-research/PACMAN-charge/)
data_DUJDAP_ASR_pacman
_symmetry_space_group_name_H-M   'P 1'
_cell_length_a   14.55530000
_cell_length_b   14.55530000
_cell_length_c   8.36900000
_cell_angle_alpha   75.15610000
_cell_angle_beta   104.84400000
_cell_angle_gamma   85.51080000
_symmetry_Int_Tables_number   1
_chemical_formula_structural   ZnH16C23(N3O2)2
_chemical_formula_sum   'Zn2 H32 C46 N12 O8'
_cell_volume   1636.89641409
_cell_formula_units_Z   2
loop_
 _symmetry_equiv_pos_site_id
 _symmetry_equiv_pos_as_xyz
  1  'x, y, z'
loop_
 _atom_site_type_symbol
 _atom_site_label
 _atom_site_symmetry_multiplicity
 _atom_site_fract_x
 _atom_site_fract_y
 _atom_site_fract_z
 _atom_site_occupancy
 _atom_site_charge
Zn  Zn1  1  0.73383000  0.25111000  0.59230000  1.0 0.7686897633
Zn  Zn2  1  0.25111000  0.73383000  0.40770000  1.0 0.7686897633
H  H1  1  0.60220000  0.49460000  0.12520000  1.0 0.1204593093
H  H2  1  0.49460000  0.60220000  0.87480000  1.0 0.1204593093
H  H3  1  0.41760000  0.30540000  0.11580000  1.0 0.0971787092
H  H4  1  0.30540000  0.41760000  0.88420000  1.0 0.0971787092
H  H5  1  0.85490000  0.09290000  0.30300000  1.0 0.1095928573
H  H6  1  0.09290000  0.85490000  0.69700000  1.0 0.1095928573
H  H7  1  0.00000000  0.94780000  0.79520000  1.0 0.1204593093
H  H8  1  0.94780000  0.00000000  0.20480000  1.0 0.1204593093
H  H9  1  0.92650000  0.24570000  0.89460000  1.0 0.1204593093
H  H10  1  0.24570000  0.92650000  0.10540000  1.0 0.1204593093
H  H11  1  0.94390000  0.50490000  0.62500000  1.0 0.1324818846
H  H12  1  0.50490000  0.94390000  0.37500000  1.0 0.1324818846
H  H13  1  0.80260000  0.45380000  0.47740000  1.0 0.1421337641
H  H14  1  0.45380000  0.80260000  0.52260000  1.0 0.1421337641
H  H15  1  0.08760000  0.22980000  0.03720000  1.0 0.1421337641
H  H16  1  0.22980000  0.08760000  0.96280000  1.0 0.1421337641
H  H17  1  0.14000000  0.11000000  0.31100000  1.0 0.1324818846
H  H18  1  0.11000000  0.14000000  0.68900000  1.0 0.1324818846
H  H19  1  0.26260000  0.99580000  0.53010000  1.0 0.1324818846
H  H20  1  0.99580000  0.26260000  0.46990000  1.0 0.1324818846
H  H21  1  0.37510000  0.22990000  0.37490000  1.0 0.1095928573
H  H22  1  0.22990000  0.37510000  0.62510000  1.0 0.1095928573
H  H23  1  0.26480000  0.37840000  0.28830000  1.0 0.1421337641
H  H24  1  0.37840000  0.26480000  0.71170000  1.0 0.1421337641
H  H25  1  0.20070000  0.53450000  0.36270000  1.0 0.1204593093
H  H26  1  0.53450000  0.20070000  0.63730000  1.0 0.1204593093
H  H27  1  0.21630000  0.76130000  0.00020000  1.0 0.1324818846
H  H28  1  0.76130000  0.21630000  0.99980000  1.0 0.1324818846
H  H29  1  0.17850000  0.63490000  0.86220000  1.0 0.1467010868
H  H30  1  0.63490000  0.17850000  0.13780000  1.0 0.1467010868
H  H31  1  0.04070000  0.51890000  0.87560000  1.0 0.1467010868
H  H32  1  0.51890000  0.04070000  0.12440000  1.0 0.1467010868
C  C1  1  0.58560000  0.32260000  0.30920000  1.0 0.5412705508
C  C2  1  0.32260000  0.58560000  0.69080000  1.0 0.5412705508
C  C3  1  0.51880000  0.39160000  0.14690000  1.0 -0.0159846414
C  C4  1  0.39160000  0.51880000  0.85310000  1.0 -0.0159846414
C  C5  1  0.54330000  0.47830000  0.07540000  1.0 -0.1083993237
C  C6  1  0.47830000  0.54330000  0.92460000  1.0 -0.1083993237
C  C7  1  0.43200000  0.36620000  0.07140000  1.0 -0.1390738296
C  C8  1  0.36620000  0.43200000  0.92860000  1.0 -0.1390738296
C  C9  1  0.86120000  0.09720000  0.62090000  1.0 0.5412705508
C  C10  1  0.09720000  0.86120000  0.37910000  1.0 0.5412705508
C  C11  1  0.91730000  0.03370000  0.55680000  1.0 -0.0394523313
C  C12  1  0.03370000  0.91730000  0.44320000  1.0 -0.0394523313
C  C13  1  0.90350000  0.04550000  0.38220000  1.0 -0.1163940499
C  C14  1  0.04550000  0.90350000  0.61780000  1.0 -0.1163940499
C  C15  1  0.99030000  0.95870000  0.67720000  1.0 -0.1018400225
C  C16  1  0.95870000  0.99030000  0.32280000  1.0 -0.1018400225
C  C17  1  0.91220000  0.30380000  0.80810000  1.0 0.1095928573
C  C18  1  0.30380000  0.91220000  0.19190000  1.0 0.1095928573
C  C19  1  0.92300000  0.44640000  0.66160000  1.0 -0.1018400225
C  C20  1  0.44640000  0.92300000  0.33840000  1.0 -0.1018400225
C  C21  1  0.84590000  0.41790000  0.58160000  1.0 -0.0394523313
C  C22  1  0.41790000  0.84590000  0.41840000  1.0 -0.0394523313
C  C23  1  0.05050000  0.37490000  0.93660000  1.0 0.1939985273
C  C24  1  0.37490000  0.05050000  0.06340000  1.0 0.1939985273
C  C25  1  0.10490000  0.28830000  0.04980000  1.0 -0.2816236424
C  C26  1  0.28830000  0.10490000  0.95020000  1.0 -0.2816236424
C  C27  1  0.18420000  0.29040000  0.18020000  1.0 0.2003607121
C  C28  1  0.29040000  0.18420000  0.81980000  1.0 0.2003607121
C  C29  1  0.20310000  0.11950000  0.35240000  1.0 -0.1083993237
C  C30  1  0.11950000  0.20310000  0.64760000  1.0 -0.1083993237
C  C31  1  0.26980000  0.05660000  0.46910000  1.0 -0.0543153486
C  C32  1  0.05660000  0.26980000  0.53090000  1.0 -0.0543153486
C  C33  1  0.33300000  0.18540000  0.38560000  1.0 0.0802278933
C  C34  1  0.18540000  0.33300000  0.61440000  1.0 0.0802278933
C  C35  1  0.21140000  0.37720000  0.20000000  1.0 -0.2538555148
C  C36  1  0.37720000  0.21140000  0.80000000  1.0 -0.2538555148
C  C37  1  0.15820000  0.45980000  0.08780000  1.0 0.2003607121
C  C38  1  0.45980000  0.15820000  0.91220000  1.0 0.2003607121
C  C39  1  0.20020000  0.57520000  0.25680000  1.0 0.1095928573
C  C40  1  0.57520000  0.20020000  0.74320000  1.0 0.1095928573
C  C41  1  0.20870000  0.69950000  0.05520000  1.0 -0.0394523313
C  C42  1  0.69950000  0.20870000  0.94480000  1.0 -0.0394523313
C  C43  1  0.18750000  0.63050000  0.97820000  1.0 -0.0795882899
C  C44  1  0.63050000  0.18750000  0.02180000  1.0 -0.0795882899
C  C45  1  0.07600000  0.46120000  0.95170000  1.0 -0.2591329995
C  C46  1  0.46120000  0.07600000  0.04830000  1.0 -0.2591329995
N  N1  1  0.83750000  0.32610000  0.67400000  1.0 -0.2816236424
N  N2  1  0.32610000  0.83750000  0.32600000  1.0 -0.2816236424
N  N3  1  0.96640000  0.37460000  0.80800000  1.0 0.009593437
N  N4  1  0.37460000  0.96640000  0.19200000  1.0 0.009593437
N  N5  1  0.35680000  0.09680000  0.48810000  1.0 -0.2903006556
N  N6  1  0.09680000  0.35680000  0.51190000  1.0 -0.2903006556
N  N7  1  0.23860000  0.20240000  0.29820000  1.0 -0.0051381056
N  N8  1  0.20240000  0.23860000  0.70180000  1.0 -0.0051381056
N  N9  1  0.21730000  0.66470000  0.22770000  1.0 -0.269733775
N  N10  1  0.66470000  0.21730000  0.77230000  1.0 -0.269733775
N  N11  1  0.18200000  0.55320000  0.10450000  1.0 0.009593437
N  N12  1  0.55320000  0.18200000  0.89550000  1.0 0.009593437
O  O1  1  0.66150000  0.35130000  0.38190000  1.0 -0.5407870295
O  O2  1  0.35130000  0.66150000  0.61810000  1.0 -0.5407870295
O  O3  1  0.56370000  0.24330000  0.36480000  1.0 -0.5630845311
O  O4  1  0.24330000  0.56370000  0.63520000  1.0 -0.5630845311
O  O5  1  0.78940000  0.15220000  0.51270000  1.0 -0.5407870295
O  O6  1  0.15220000  0.78940000  0.48730000  1.0 -0.5407870295
O  O7  1  0.88350000  0.09430000  0.77720000  1.0 -0.5822251919
O  O8  1  0.09430000  0.88350000  0.22280000  1.0 -0.5822251919
