# DDEC6 charges by PACMAN v1.1 (https://github.com/mtap-research/PACMAN-charge/)
data_DUMFEY_FSR_pacman
_symmetry_space_group_name_H-M   'P 1'
_cell_length_a   7.01480000
_cell_length_b   7.01480000
_cell_length_c   7.56550000
_cell_angle_alpha   90.00000000
_cell_angle_beta   90.00000000
_cell_angle_gamma   90.00000000
_symmetry_Int_Tables_number   1
_chemical_formula_structural   SiNiH8C8(N2F3)2
_chemical_formula_sum   'Si1 Ni1 H8 C8 N4 F6'
_cell_volume   372.27872875
_cell_formula_units_Z   1
loop_
 _symmetry_equiv_pos_site_id
 _symmetry_equiv_pos_as_xyz
  1  'x, y, z'
loop_
 _atom_site_type_symbol
 _atom_site_label
 _atom_site_symmetry_multiplicity
 _atom_site_fract_x
 _atom_site_fract_y
 _atom_site_fract_z
 _atom_site_occupancy
 _atom_site_charge
Si  Si1  1  0.50000000  0.50000000  0.00000000  1.0 1.5973271281
Ni  Ni1  1  0.50000000  0.50000000  0.50000000  1.0 0.6440039426
H  H1  1  0.50000000  0.16000000  0.26000000  1.0 0.1652400643
H  H2  1  0.84000000  0.50000000  0.26000000  1.0 0.1652400643
H  H3  1  0.50000000  0.84000000  0.26000000  1.0 0.1652400643
H  H4  1  0.16000000  0.50000000  0.26000000  1.0 0.1652400643
H  H5  1  0.50000000  0.84000000  0.74000000  1.0 0.1652400643
H  H6  1  0.84000000  0.50000000  0.74000000  1.0 0.1652400643
H  H7  1  0.50000000  0.16000000  0.74000000  1.0 0.1652400643
H  H8  1  0.16000000  0.50000000  0.74000000  1.0 0.1652400643
C  C1  1  0.50000000  0.09240000  0.36118000  1.0 0.022386387
C  C2  1  0.90760000  0.50000000  0.36118000  1.0 0.022386387
C  C3  1  0.50000000  0.90760000  0.36118000  1.0 0.022386387
C  C4  1  0.09240000  0.50000000  0.36118000  1.0 0.022386387
C  C5  1  0.50000000  0.90760000  0.63882000  1.0 0.022386387
C  C6  1  0.90760000  0.50000000  0.63882000  1.0 0.022386387
C  C7  1  0.50000000  0.09240000  0.63882000  1.0 0.022386387
C  C8  1  0.09240000  0.50000000  0.63882000  1.0 0.022386387
N  N1  1  0.50000000  0.20910000  0.50000000  1.0 -0.196458593
N  N2  1  0.79090000  0.50000000  0.50000000  1.0 -0.196458593
N  N3  1  0.50000000  0.79090000  0.50000000  1.0 -0.196458593
N  N4  1  0.20910000  0.50000000  0.50000000  1.0 -0.196458593
F  F1  1  0.50000000  0.50000000  0.20810000  1.0 -0.4615067095
F  F2  1  0.50000000  0.50000000  0.79190000  1.0 -0.4615067095
F  F3  1  0.33740000  0.33740000  0.00000000  1.0 -0.5083737224
F  F4  1  0.66260000  0.33740000  0.00000000  1.0 -0.5083737224
F  F5  1  0.66260000  0.66260000  0.00000000  1.0 -0.5083737224
F  F6  1  0.33740000  0.66260000  0.00000000  1.0 -0.5083737224
