# DDEC6 charges by PACMAN v1.1 (https://github.com/mtap-research/PACMAN-charge/)
data_DURDAX_ASR_pacman
_symmetry_space_group_name_H-M   'P 1'
_cell_length_a   10.15400000
_cell_length_b   18.41600000
_cell_length_c   27.01000000
_cell_angle_alpha   90.00000000
_cell_angle_beta   90.00000000
_cell_angle_gamma   90.00000000
_symmetry_Int_Tables_number   1
_chemical_formula_structural   ZnH5C11O4
_chemical_formula_sum   'Zn8 H40 C88 O32'
_cell_volume   5050.76368864
_cell_formula_units_Z   8
loop_
 _symmetry_equiv_pos_site_id
 _symmetry_equiv_pos_as_xyz
  1  'x, y, z'
loop_
 _atom_site_type_symbol
 _atom_site_label
 _atom_site_symmetry_multiplicity
 _atom_site_fract_x
 _atom_site_fract_y
 _atom_site_fract_z
 _atom_site_occupancy
 _atom_site_charge
Zn  Zn1  1  0.68796000  0.82834000  0.96752000  1.0 0.932636518
Zn  Zn2  1  0.31204000  0.17166000  0.46752000  1.0 0.932636518
Zn  Zn3  1  0.18796000  0.67166000  0.46752000  1.0 0.932636518
Zn  Zn4  1  0.81204000  0.32834000  0.96752000  1.0 0.932636518
Zn  Zn5  1  0.99096000  0.68785000  0.56630000  1.0 0.9920295066
Zn  Zn6  1  0.00904000  0.31215000  0.06630000  1.0 0.9920295066
Zn  Zn7  1  0.49096000  0.81215000  0.06630000  1.0 0.9920295066
Zn  Zn8  1  0.50904000  0.18785000  0.56630000  1.0 0.9920295066
H  H1  1  0.75890000  0.56800000  0.99070000  1.0 0.1429938562
H  H2  1  0.24110000  0.43200000  0.49070000  1.0 0.1429938562
H  H3  1  0.25890000  0.93200000  0.49070000  1.0 0.1429938562
H  H4  1  0.74110000  0.06800000  0.99070000  1.0 0.1429938562
H  H5  1  0.81370000  0.49320000  0.12960000  1.0 0.1164503778
H  H6  1  0.18630000  0.50680000  0.62960000  1.0 0.1164503778
H  H7  1  0.31370000  0.00680000  0.62960000  1.0 0.1164503778
H  H8  1  0.68630000  0.99320000  0.12960000  1.0 0.1164503778
H  H9  1  0.66740000  0.69240000  0.10870000  1.0 0.100429289
H  H10  1  0.33260000  0.30760000  0.60870000  1.0 0.100429289
H  H11  1  0.16740000  0.80760000  0.60870000  1.0 0.100429289
H  H12  1  0.83260000  0.19240000  0.10870000  1.0 0.100429289
H  H13  1  0.54380000  0.68980000  0.26450000  1.0 0.1164503778
H  H14  1  0.45620000  0.31020000  0.76450000  1.0 0.1164503778
H  H15  1  0.04380000  0.81020000  0.76450000  1.0 0.1164503778
H  H16  1  0.95620000  0.18980000  0.26450000  1.0 0.1164503778
H  H17  1  0.55060000  0.65820000  0.18040000  1.0 0.1164503778
H  H18  1  0.44940000  0.34180000  0.68040000  1.0 0.1164503778
H  H19  1  0.05060000  0.84180000  0.68040000  1.0 0.1164503778
H  H20  1  0.94940000  0.15820000  0.18040000  1.0 0.1164503778
H  H21  1  0.88790000  0.55150000  0.20380000  1.0 0.1164503778
H  H22  1  0.11210000  0.44850000  0.70380000  1.0 0.1164503778
H  H23  1  0.38790000  0.94850000  0.70380000  1.0 0.1164503778
H  H24  1  0.61210000  0.05150000  0.20380000  1.0 0.1164503778
H  H25  1  0.65770000  0.67870000  0.47570000  1.0 0.1279853023
H  H26  1  0.34230000  0.32130000  0.97570000  1.0 0.1279853023
H  H27  1  0.15770000  0.82130000  0.97570000  1.0 0.1279853023
H  H28  1  0.84230000  0.17870000  0.47570000  1.0 0.1279853023
H  H29  1  0.86110000  0.56940000  0.28790000  1.0 0.1164503778
H  H30  1  0.13890000  0.43060000  0.78790000  1.0 0.1164503778
H  H31  1  0.36110000  0.93060000  0.78790000  1.0 0.1164503778
H  H32  1  0.63890000  0.06940000  0.28790000  1.0 0.1164503778
H  H33  1  0.88330000  0.64620000  0.35450000  1.0 0.1164503778
H  H34  1  0.11670000  0.35380000  0.85450000  1.0 0.1164503778
H  H35  1  0.38330000  0.85380000  0.85450000  1.0 0.1164503778
H  H36  1  0.61670000  0.14620000  0.35450000  1.0 0.1164503778
H  H37  1  0.48860000  0.65020000  0.34310000  1.0 0.1164503778
H  H38  1  0.51140000  0.34980000  0.84310000  1.0 0.1164503778
H  H39  1  0.98860000  0.84980000  0.84310000  1.0 0.1164503778
H  H40  1  0.01140000  0.15020000  0.34310000  1.0 0.1164503778
C  C1  1  0.75640000  0.57480000  0.02480000  1.0 -0.0878110268
C  C2  1  0.24360000  0.42520000  0.52480000  1.0 -0.0878110268
C  C3  1  0.25640000  0.92520000  0.52480000  1.0 -0.0878110268
C  C4  1  0.74360000  0.07480000  0.02480000  1.0 -0.0878110268
C  C5  1  0.78640000  0.52950000  0.10790000  1.0 -0.1411963453
C  C6  1  0.21360000  0.47050000  0.60790000  1.0 -0.1411963453
C  C7  1  0.28640000  0.97050000  0.60790000  1.0 -0.1411963453
C  C8  1  0.71360000  0.02950000  0.10790000  1.0 -0.1411963453
C  C9  1  0.70080000  0.64890000  0.09640000  1.0 -0.1625385508
C  C10  1  0.29920000  0.35110000  0.59640000  1.0 -0.1625385508
C  C11  1  0.20080000  0.85110000  0.59640000  1.0 -0.1625385508
C  C12  1  0.79920000  0.14890000  0.09640000  1.0 -0.1625385508
C  C13  1  0.61030000  0.65960000  0.25290000  1.0 -0.1411963453
C  C14  1  0.38970000  0.34040000  0.75290000  1.0 -0.1411963453
C  C15  1  0.11030000  0.84040000  0.75290000  1.0 -0.1411963453
C  C16  1  0.88970000  0.15960000  0.25290000  1.0 -0.1411963453
C  C17  1  0.71880000  0.60590000  0.18270000  1.0 0.062969028
C  C18  1  0.28120000  0.39410000  0.68270000  1.0 0.062969028
C  C19  1  0.21880000  0.89410000  0.68270000  1.0 0.062969028
C  C20  1  0.78120000  0.10590000  0.18270000  1.0 0.062969028
C  C21  1  0.85080000  0.44880000  0.03850000  1.0 0.6004465036
C  C22  1  0.14920000  0.55120000  0.53850000  1.0 0.6004465036
C  C23  1  0.35080000  0.05120000  0.53850000  1.0 0.6004465036
C  C24  1  0.64920000  0.94880000  0.03850000  1.0 0.6004465036
C  C25  1  0.61780000  0.64290000  0.20140000  1.0 -0.1411963453
C  C26  1  0.38220000  0.35710000  0.70140000  1.0 -0.1411963453
C  C27  1  0.11780000  0.85710000  0.70140000  1.0 -0.1411963453
C  C28  1  0.88220000  0.14290000  0.20140000  1.0 -0.1411963453
C  C29  1  0.73580000  0.59520000  0.12790000  1.0 0.0660071819
C  C30  1  0.26420000  0.40480000  0.62790000  1.0 0.0660071819
C  C31  1  0.23580000  0.90480000  0.62790000  1.0 0.0660071819
C  C32  1  0.76420000  0.09520000  0.12790000  1.0 0.0660071819
C  C33  1  0.81620000  0.57750000  0.21570000  1.0 -0.1411963453
C  C34  1  0.18380000  0.42250000  0.71570000  1.0 -0.1411963453
C  C35  1  0.31620000  0.92250000  0.71570000  1.0 -0.1411963453
C  C36  1  0.68380000  0.07750000  0.21570000  1.0 -0.1411963453
C  C37  1  0.71520000  0.63880000  0.04430000  1.0 0.0037427563
C  C38  1  0.28480000  0.36120000  0.54430000  1.0 0.0037427563
C  C39  1  0.21520000  0.86120000  0.54430000  1.0 0.0037427563
C  C40  1  0.78480000  0.13880000  0.04430000  1.0 0.0037427563
C  C41  1  0.69880000  0.63190000  0.28460000  1.0 0.062969028
C  C42  1  0.30120000  0.36810000  0.78460000  1.0 0.062969028
C  C43  1  0.19880000  0.86810000  0.78460000  1.0 0.062969028
C  C44  1  0.80120000  0.13190000  0.28460000  1.0 0.062969028
C  C45  1  0.66490000  0.66900000  0.44200000  1.0 -0.0878110268
C  C46  1  0.33510000  0.33100000  0.94200000  1.0 -0.0878110268
C  C47  1  0.16490000  0.83100000  0.94200000  1.0 -0.0878110268
C  C48  1  0.83510000  0.16900000  0.44200000  1.0 -0.0878110268
C  C49  1  0.91080000  0.67060000  0.45310000  1.0 0.6004465036
C  C50  1  0.08920000  0.32940000  0.95310000  1.0 0.6004465036
C  C51  1  0.41080000  0.82940000  0.95310000  1.0 0.6004465036
C  C52  1  0.58920000  0.17060000  0.45310000  1.0 0.6004465036
C  C53  1  0.54980000  0.66090000  0.41310000  1.0 -0.0294932356
C  C54  1  0.45020000  0.33910000  0.91310000  1.0 -0.0294932356
C  C55  1  0.04980000  0.83910000  0.91310000  1.0 -0.0294932356
C  C56  1  0.95020000  0.16090000  0.41310000  1.0 -0.0294932356
C  C57  1  0.80100000  0.58990000  0.26600000  1.0 -0.1411963453
C  C58  1  0.19900000  0.41010000  0.76600000  1.0 -0.1411963453
C  C59  1  0.30100000  0.91010000  0.76600000  1.0 -0.1411963453
C  C60  1  0.69900000  0.08990000  0.26600000  1.0 -0.1411963453
C  C61  1  0.80050000  0.65060000  0.36890000  1.0 -0.1540723555
C  C62  1  0.19950000  0.34940000  0.86890000  1.0 -0.1540723555
C  C63  1  0.30050000  0.84940000  0.86890000  1.0 -0.1540723555
C  C64  1  0.69950000  0.15060000  0.36890000  1.0 -0.1540723555
C  C65  1  0.68790000  0.70440000  0.01050000  1.0 0.5834247656
C  C66  1  0.31210000  0.29560000  0.51050000  1.0 0.5834247656
C  C67  1  0.18790000  0.79560000  0.51050000  1.0 0.5834247656
C  C68  1  0.81210000  0.20440000  0.01050000  1.0 0.5834247656
C  C69  1  0.68640000  0.64560000  0.34010000  1.0 0.0660071819
C  C70  1  0.31360000  0.35440000  0.84010000  1.0 0.0660071819
C  C71  1  0.18640000  0.85440000  0.84010000  1.0 0.0660071819
C  C72  1  0.81360000  0.14560000  0.34010000  1.0 0.0660071819
C  C73  1  0.78770000  0.66250000  0.42070000  1.0 -0.0160310502
C  C74  1  0.21230000  0.33750000  0.92070000  1.0 -0.0160310502
C  C75  1  0.28770000  0.83750000  0.92070000  1.0 -0.0160310502
C  C76  1  0.71230000  0.16250000  0.42070000  1.0 -0.0160310502
C  C77  1  0.79640000  0.51760000  0.05790000  1.0 -0.0294932356
C  C78  1  0.20360000  0.48240000  0.55790000  1.0 -0.0294932356
C  C79  1  0.29640000  0.98240000  0.55790000  1.0 -0.0294932356
C  C80  1  0.70360000  0.01760000  0.05790000  1.0 -0.0294932356
C  C81  1  0.56380000  0.65200000  0.36270000  1.0 -0.1411963453
C  C82  1  0.43620000  0.34800000  0.86270000  1.0 -0.1411963453
C  C83  1  0.06380000  0.84800000  0.86270000  1.0 -0.1411963453
C  C84  1  0.93620000  0.15200000  0.36270000  1.0 -0.1411963453
C  C85  1  0.41990000  0.66830000  0.43620000  1.0 0.5473689623
C  C86  1  0.58010000  0.33170000  0.93620000  1.0 0.5473689623
C  C87  1  0.91990000  0.83170000  0.93620000  1.0 0.5473689623
C  C88  1  0.08010000  0.16830000  0.43620000  1.0 0.5473689623
O  O1  1  0.92220000  0.41300000  0.06578000  1.0 -0.5463885181
O  O2  1  0.07780000  0.58700000  0.56578000  1.0 -0.5463885181
O  O3  1  0.42220000  0.08700000  0.56578000  1.0 -0.5463885181
O  O4  1  0.57780000  0.91300000  0.06578000  1.0 -0.5463885181
O  O5  1  0.81150000  0.43060000  0.99415000  1.0 -0.5463885181
O  O6  1  0.18850000  0.56940000  0.49415000  1.0 -0.5463885181
O  O7  1  0.31150000  0.06940000  0.49415000  1.0 -0.5463885181
O  O8  1  0.68850000  0.93060000  0.99415000  1.0 -0.5463885181
O  O9  1  0.65540000  0.76490000  0.02915000  1.0 -0.5992435628
O  O10  1  0.34460000  0.23510000  0.52915000  1.0 -0.5992435628
O  O11  1  0.15540000  0.73510000  0.52915000  1.0 -0.5992435628
O  O12  1  0.84460000  0.26490000  0.02915000  1.0 -0.5992435628
O  O13  1  0.02110000  0.66880000  0.42999000  1.0 -0.541741442
O  O14  1  0.97890000  0.33120000  0.92999000  1.0 -0.541741442
O  O15  1  0.52110000  0.83120000  0.92999000  1.0 -0.541741442
O  O16  1  0.47890000  0.16880000  0.42999000  1.0 -0.541741442
O  O17  1  0.31810000  0.65890000  0.41033000  1.0 -0.5097254627
O  O18  1  0.68190000  0.34110000  0.91033000  1.0 -0.5097254627
O  O19  1  0.81810000  0.84110000  0.91033000  1.0 -0.5097254627
O  O20  1  0.18190000  0.15890000  0.41033000  1.0 -0.5097254627
O  O21  1  0.41120000  0.67960000  0.48237000  1.0 -0.5097254627
O  O22  1  0.58880000  0.32040000  0.98237000  1.0 -0.5097254627
O  O23  1  0.91120000  0.82040000  0.98237000  1.0 -0.5097254627
O  O24  1  0.08880000  0.17960000  0.48237000  1.0 -0.5097254627
O  O25  1  0.89330000  0.67740000  0.49809000  1.0 -0.558803361
O  O26  1  0.10670000  0.32260000  0.99809000  1.0 -0.558803361
O  O27  1  0.39330000  0.82260000  0.99809000  1.0 -0.558803361
O  O28  1  0.60670000  0.17740000  0.49809000  1.0 -0.558803361
O  O29  1  0.70840000  0.69740000  0.96517000  1.0 -0.4781641476
O  O30  1  0.29160000  0.30260000  0.46517000  1.0 -0.4781641476
O  O31  1  0.20840000  0.80260000  0.46517000  1.0 -0.4781641476
O  O32  1  0.79160000  0.19740000  0.96517000  1.0 -0.4781641476
