# DDEC6 charges by PACMAN v1.1 (https://github.com/mtap-research/PACMAN-charge/)
data_DUVNIU_FSR_pacman
_symmetry_space_group_name_H-M   'P 1'
_cell_length_a   15.16010000
_cell_length_b   15.16010000
_cell_length_c   11.46700000
_cell_angle_alpha   80.77720000
_cell_angle_beta   99.22280000
_cell_angle_gamma   101.54300000
_symmetry_Int_Tables_number   1
_chemical_formula_structural   MgZnH5(C4O3)3
_chemical_formula_sum   'Mg4 Zn4 H20 C48 O36'
_cell_volume   2526.26823701
_cell_formula_units_Z   4
loop_
 _symmetry_equiv_pos_site_id
 _symmetry_equiv_pos_as_xyz
  1  'x, y, z'
loop_
 _atom_site_type_symbol
 _atom_site_label
 _atom_site_symmetry_multiplicity
 _atom_site_fract_x
 _atom_site_fract_y
 _atom_site_fract_z
 _atom_site_occupancy
 _atom_site_charge
Mg  Mg1  1  0.72502000  0.21040000  0.32048000  1.0 1.3892494066
Mg  Mg2  1  0.21040000  0.72502000  0.17952000  1.0 1.3892494066
Mg  Mg3  1  0.27498000  0.78960000  0.67952000  1.0 1.3892494066
Mg  Mg4  1  0.78960000  0.27498000  0.82048000  1.0 1.3892494066
Zn  Zn1  1  0.85202000  0.30362000  0.52943000  1.0 0.9242829008
Zn  Zn2  1  0.30362000  0.85202000  0.97057000  1.0 0.9252671722
Zn  Zn3  1  0.14798000  0.69638000  0.47057000  1.0 0.9252671722
Zn  Zn4  1  0.69638000  0.14798000  0.02943000  1.0 0.9252671722
H  H1  1  0.05961000  0.53913000  0.59968000  1.0 0.1525178662
H  H2  1  0.02121000  0.42569000  0.92930000  1.0 0.1304089677
H  H3  1  0.12118000  0.54322000  0.00456000  1.0 0.1304089677
H  H4  1  0.82056000  0.02806000  0.33041000  1.0 0.3781282453
H  H5  1  0.03976000  0.11438000  0.61883000  1.0 0.1525178662
H  H6  1  0.53913000  0.05961000  0.90032000  1.0 0.1525178662
H  H7  1  0.42569000  0.02121000  0.57070000  1.0 0.1304089677
H  H8  1  0.54322000  0.12118000  0.49544000  1.0 0.1304089677
H  H9  1  0.02806000  0.82056000  0.16959000  1.0 0.3781282453
H  H10  1  0.11438000  0.03976000  0.88117000  1.0 0.1525178662
H  H11  1  0.94039000  0.46087000  0.40032000  1.0 0.1525178662
H  H12  1  0.97879000  0.57431000  0.07070000  1.0 0.1304089677
H  H13  1  0.87882000  0.45678000  0.99544000  1.0 0.1304089677
H  H14  1  0.17944000  0.97194000  0.66959000  1.0 0.3781282453
H  H15  1  0.96024000  0.88562000  0.38117000  1.0 0.1525178662
H  H16  1  0.46087000  0.94039000  0.09968000  1.0 0.1525178662
H  H17  1  0.57431000  0.97879000  0.42930000  1.0 0.1304089677
H  H18  1  0.45678000  0.87882000  0.50456000  1.0 0.1304089677
H  H19  1  0.97194000  0.17944000  0.83041000  1.0 0.3781282453
H  H20  1  0.88562000  0.96024000  0.11883000  1.0 0.1525178662
C  C1  1  0.20350000  0.69350000  0.90740000  1.0 0.6418096347
C  C2  1  0.15240000  0.61580000  0.84900000  1.0 -0.150864158
C  C3  1  0.13630000  0.61350000  0.72250000  1.0 0.3572236075
C  C4  1  0.07260000  0.54140000  0.68130000  1.0 -0.2242550926
C  C5  1  0.02820000  0.47340000  0.75720000  1.0 0.0047656509
C  C6  1  0.04840000  0.47340000  0.87780000  1.0 -0.1344222205
C  C7  1  0.10890000  0.54370000  0.92240000  1.0 -0.0740065948
C  C8  1  0.95490000  0.40090000  0.71020000  1.0 0.614422418
C  C9  1  0.88980000  0.14000000  0.46740000  1.0 0.6320430858
C  C10  1  0.94700000  0.06880000  0.48460000  1.0 -0.1396538244
C  C11  1  0.92350000  0.99910000  0.41200000  1.0 0.2809581457
C  C12  1  0.02370000  0.06810000  0.57100000  1.0 -0.1917900817
C  C13  1  0.69350000  0.20350000  0.59260000  1.0 0.6418096347
C  C14  1  0.61580000  0.15240000  0.65100000  1.0 -0.150864158
C  C15  1  0.61350000  0.13630000  0.77750000  1.0 0.3572236075
C  C16  1  0.54140000  0.07260000  0.81870000  1.0 -0.2242550926
C  C17  1  0.47340000  0.02820000  0.74280000  1.0 0.0047656509
C  C18  1  0.47340000  0.04840000  0.62220000  1.0 -0.1344222205
C  C19  1  0.54370000  0.10890000  0.57760000  1.0 -0.0740065948
C  C20  1  0.40090000  0.95490000  0.78980000  1.0 0.614422418
C  C21  1  0.14000000  0.88980000  0.03260000  1.0 0.6320430858
C  C22  1  0.06880000  0.94700000  0.01540000  1.0 -0.1396538244
C  C23  1  0.99910000  0.92350000  0.08800000  1.0 0.2809581457
C  C24  1  0.06810000  0.02370000  0.92900000  1.0 -0.1917900817
C  C25  1  0.79650000  0.30650000  0.09260000  1.0 0.6418096347
C  C26  1  0.84760000  0.38420000  0.15100000  1.0 -0.150864158
C  C27  1  0.86370000  0.38650000  0.27750000  1.0 0.3572236075
C  C28  1  0.92740000  0.45860000  0.31870000  1.0 -0.2251802312
C  C29  1  0.97180000  0.52660000  0.24280000  1.0 0.0047656509
C  C30  1  0.95160000  0.52660000  0.12220000  1.0 -0.1344222205
C  C31  1  0.89110000  0.45630000  0.07760000  1.0 -0.0740065948
C  C32  1  0.04510000  0.59910000  0.28980000  1.0 0.614422418
C  C33  1  0.11020000  0.86000000  0.53260000  1.0 0.6320430858
C  C34  1  0.05300000  0.93120000  0.51540000  1.0 -0.1396538244
C  C35  1  0.07650000  0.00090000  0.58800000  1.0 0.2809581457
C  C36  1  0.97630000  0.93190000  0.42900000  1.0 -0.1917900817
C  C37  1  0.30650000  0.79650000  0.40740000  1.0 0.6418096347
C  C38  1  0.38420000  0.84760000  0.34900000  1.0 -0.150864158
C  C39  1  0.38650000  0.86370000  0.22250000  1.0 0.3572236075
C  C40  1  0.45860000  0.92740000  0.18130000  1.0 -0.2242550926
C  C41  1  0.52660000  0.97180000  0.25720000  1.0 0.0047656509
C  C42  1  0.52660000  0.95160000  0.37780000  1.0 -0.1344222205
C  C43  1  0.45630000  0.89110000  0.42240000  1.0 -0.0740065948
C  C44  1  0.59910000  0.04510000  0.21020000  1.0 0.614422418
C  C45  1  0.86000000  0.11020000  0.96740000  1.0 0.6320430858
C  C46  1  0.93120000  0.05300000  0.98460000  1.0 -0.1396538244
C  C47  1  0.00090000  0.07650000  0.91200000  1.0 0.2809581457
C  C48  1  0.93190000  0.97630000  0.07100000  1.0 -0.1917900817
O  O1  1  0.24380000  0.76560000  0.84950000  1.0 -0.6079654472
O  O2  1  0.20890000  0.68830000  0.01750000  1.0 -0.5731692152
O  O3  1  0.18019000  0.67659000  0.64720000  1.0 -0.646683939
O  O4  1  0.94688000  0.39228000  0.60240000  1.0 -0.519717008
O  O5  1  0.90620000  0.35500000  0.78110000  1.0 -0.5731692152
O  O6  1  0.82240000  0.13460000  0.38990000  1.0 -0.6180424617
O  O7  1  0.61800000  0.28180000  0.25440000  1.0 -0.4363914208
O  O8  1  0.91650000  0.20110000  0.53570000  1.0 -0.519717008
O  O9  1  0.84760000  0.98560000  0.33540000  1.0 -0.3749499397
O  O10  1  0.76560000  0.24380000  0.65050000  1.0 -0.6079654472
O  O11  1  0.68830000  0.20890000  0.48250000  1.0 -0.5731692152
O  O12  1  0.67659000  0.18019000  0.85280000  1.0 -0.6448632555
O  O13  1  0.39228000  0.94688000  0.89760000  1.0 -0.519717008
O  O14  1  0.35500000  0.90620000  0.71890000  1.0 -0.5762843566
O  O15  1  0.13460000  0.82240000  0.11010000  1.0 -0.6180424617
O  O16  1  0.28180000  0.61800000  0.24560000  1.0 -0.431614645
O  O17  1  0.20110000  0.91650000  0.96430000  1.0 -0.519717008
O  O18  1  0.98560000  0.84760000  0.16460000  1.0 -0.3749499397
O  O19  1  0.75620000  0.23440000  0.15050000  1.0 -0.6079654472
O  O20  1  0.79110000  0.31170000  0.98250000  1.0 -0.5731692152
O  O21  1  0.81981000  0.32341000  0.35280000  1.0 -0.646683939
O  O22  1  0.05312000  0.60772000  0.39760000  1.0 -0.519717008
O  O23  1  0.09380000  0.64500000  0.21890000  1.0 -0.5762843566
O  O24  1  0.17760000  0.86540000  0.61010000  1.0 -0.6180424617
O  O25  1  0.38200000  0.71820000  0.74560000  1.0 -0.431614645
O  O26  1  0.08350000  0.79890000  0.46430000  1.0 -0.519717008
O  O27  1  0.15240000  0.01440000  0.66460000  1.0 -0.3756678777
O  O28  1  0.23440000  0.75620000  0.34950000  1.0 -0.6079654472
O  O29  1  0.31170000  0.79110000  0.51750000  1.0 -0.5731692152
O  O30  1  0.32341000  0.81981000  0.14720000  1.0 -0.646683939
O  O31  1  0.60772000  0.05312000  0.10240000  1.0 -0.519717008
O  O32  1  0.64500000  0.09380000  0.28110000  1.0 -0.5762843566
O  O33  1  0.86540000  0.17760000  0.88990000  1.0 -0.6180424617
O  O34  1  0.71820000  0.38200000  0.75440000  1.0 -0.4554865138
O  O35  1  0.79890000  0.08350000  0.03570000  1.0 -0.519717008
O  O36  1  0.01440000  0.15240000  0.83540000  1.0 -0.3749499397
