# DDEC6 charges by PACMAN v1.1 (https://github.com/mtap-research/PACMAN-charge/)
data_DUWGEJ_ion_pacman
_symmetry_space_group_name_H-M   'P 1'
_cell_length_a   18.31480000
_cell_length_b   9.45060000
_cell_length_c   19.09930000
_cell_angle_alpha   90.00000000
_cell_angle_beta   106.09100000
_cell_angle_gamma   90.00000000
_symmetry_Int_Tables_number   1
_chemical_formula_structural   Cd3H46C42(N2O15)2
_chemical_formula_sum   'Cd6 H92 C84 N8 O60'
_cell_volume   3176.30551751
_cell_formula_units_Z   2
loop_
 _symmetry_equiv_pos_site_id
 _symmetry_equiv_pos_as_xyz
  1  'x, y, z'
loop_
 _atom_site_type_symbol
 _atom_site_label
 _atom_site_symmetry_multiplicity
 _atom_site_fract_x
 _atom_site_fract_y
 _atom_site_fract_z
 _atom_site_occupancy
 _atom_site_charge
Cd  Cd1  1  0.71534000  0.44147000  0.55545000  1.0 0.9712428196
Cd  Cd2  1  0.28466000  0.94147000  0.94455000  1.0 0.9712428196
Cd  Cd3  1  0.28466000  0.55853000  0.44455000  1.0 0.9712428196
Cd  Cd4  1  0.71534000  0.05853000  0.05545000  1.0 0.9712428196
Cd  Cd5  1  0.50000000  0.50000000  0.50000000  1.0 1.0991044386
Cd  Cd6  1  0.50000000  0.00000000  0.00000000  1.0 1.0991044386
H  H1  1  0.50110000  0.81700000  0.41890000  1.0 0.1317264962
H  H2  1  0.49890000  0.31700000  0.08110000  1.0 0.1317264962
H  H3  1  0.49890000  0.18300000  0.58110000  1.0 0.1317264962
H  H4  1  0.50110000  0.68300000  0.91890000  1.0 0.1317264962
H  H5  1  0.95910000  0.67870000  0.56240000  1.0 0.1317264962
H  H6  1  0.04090000  0.17870000  0.93760000  1.0 0.1317264962
H  H7  1  0.04090000  0.32130000  0.43760000  1.0 0.1317264962
H  H8  1  0.95910000  0.82130000  0.06240000  1.0 0.1317264962
H  H9  1  0.82950000  0.13980000  0.74590000  1.0 0.1317264962
H  H10  1  0.17050000  0.63980000  0.75410000  1.0 0.1317264962
H  H11  1  0.17050000  0.86020000  0.25410000  1.0 0.1317264962
H  H12  1  0.82950000  0.36020000  0.24590000  1.0 0.1317264962
H  H13  1  0.84140000  0.17340000  0.82870000  1.0 0.1317264962
H  H14  1  0.15860000  0.67340000  0.67130000  1.0 0.1317264962
H  H15  1  0.15860000  0.82660000  0.17130000  1.0 0.1317264962
H  H16  1  0.84140000  0.32660000  0.32870000  1.0 0.1317264962
H  H17  1  0.79280000  0.04220000  0.79330000  1.0 0.1218697323
H  H18  1  0.20720000  0.54220000  0.70670000  1.0 0.1218697323
H  H19  1  0.20720000  0.95780000  0.20670000  1.0 0.1218697323
H  H20  1  0.79280000  0.45780000  0.29330000  1.0 0.1218697323
H  H21  1  0.64960000  0.29770000  0.79850000  1.0 0.1317264962
H  H22  1  0.35040000  0.79770000  0.70150000  1.0 0.1317264962
H  H23  1  0.35040000  0.70230000  0.20150000  1.0 0.1317264962
H  H24  1  0.64960000  0.20230000  0.29850000  1.0 0.1317264962
H  H25  1  0.67550000  0.14510000  0.82690000  1.0 0.1317264962
H  H26  1  0.32450000  0.64510000  0.67310000  1.0 0.1317264962
H  H27  1  0.32450000  0.85490000  0.17310000  1.0 0.1317264962
H  H28  1  0.67550000  0.35490000  0.32690000  1.0 0.1317264962
H  H29  1  0.72350000  0.27690000  0.86280000  1.0 0.1386200158
H  H30  1  0.27650000  0.77690000  0.63720000  1.0 0.1386200158
H  H31  1  0.27650000  0.72310000  0.13720000  1.0 0.1386200158
H  H32  1  0.72350000  0.22310000  0.36280000  1.0 0.1386200158
H  H33  1  0.67860000  0.35940000  0.69850000  1.0 0.0936205766
H  H34  1  0.32140000  0.85940000  0.80150000  1.0 0.0936205766
H  H35  1  0.32140000  0.64060000  0.30150000  1.0 0.0936205766
H  H36  1  0.67860000  0.14060000  0.19850000  1.0 0.0936205766
H  H37  1  0.48710000  0.90820000  0.82220000  1.0 0.3398515566
H  H38  1  0.51290000  0.40820000  0.67780000  1.0 0.3398515566
H  H39  1  0.51290000  0.09180000  0.17780000  1.0 0.3398515566
H  H40  1  0.48710000  0.59180000  0.32220000  1.0 0.3398515566
H  H41  1  0.75560000  0.65670000  0.71600000  1.0 0.3398515566
H  H42  1  0.24440000  0.15670000  0.78400000  1.0 0.3398515566
H  H43  1  0.24440000  0.34330000  0.28400000  1.0 0.3398515566
H  H44  1  0.75560000  0.84330000  0.21600000  1.0 0.3398515566
H  H45  1  0.63240000  0.06300000  0.42920000  1.0 0.3317711397
H  H46  1  0.36760000  0.56300000  0.07080000  1.0 0.3317711397
H  H47  1  0.36760000  0.93700000  0.57080000  1.0 0.3317711397
H  H48  1  0.63240000  0.43700000  0.92920000  1.0 0.3317711397
H  H49  1  0.87900000  0.26030000  0.47690000  1.0 0.3398515566
H  H50  1  0.12100000  0.76030000  0.02310000  1.0 0.3398515566
H  H51  1  0.12100000  0.73970000  0.52310000  1.0 0.3398515566
H  H52  1  0.87900000  0.23970000  0.97690000  1.0 0.3398515566
H  H53  1  0.74870000  0.86080000  0.90960000  1.0 0.3398515566
H  H54  1  0.25130000  0.36080000  0.59040000  1.0 0.3398515566
H  H55  1  0.25130000  0.13920000  0.09040000  1.0 0.3398515566
H  H56  1  0.74870000  0.63920000  0.40960000  1.0 0.3398515566
H  H57  1  0.49410000  0.71090000  0.63050000  1.0 0.3398515566
H  H58  1  0.50590000  0.21090000  0.86950000  1.0 0.3398515566
H  H59  1  0.50590000  0.28910000  0.36950000  1.0 0.3398515566
H  H60  1  0.49410000  0.78910000  0.13050000  1.0 0.3398515566
H  H61  1  0.84730000  0.55190000  0.99280000  1.0 0.1317264962
H  H62  1  0.78530000  0.67050000  0.97120000  1.0 0.1317264962
H  H63  1  0.76140000  0.51080000  0.96280000  1.0 0.1317264962
H  H64  1  0.76190000  0.56810000  0.14100000  1.0 0.1124350174
H  H65  1  0.70350000  0.51850000  0.06860000  1.0 0.1218697323
H  H66  1  0.72120000  0.68000000  0.08260000  1.0 0.1218697323
H  H67  1  0.81230000  0.49660000  0.08180000  1.0 0.240174283
H  H68  1  0.82120000  0.64680000  0.08500000  1.0 0.2297360494
H  H69  1  0.15270000  0.05190000  0.50720000  1.0 0.1317264962
H  H70  1  0.21470000  0.17050000  0.52880000  1.0 0.1317264962
H  H71  1  0.23860000  0.01080000  0.53720000  1.0 0.1317264962
H  H72  1  0.23810000  0.06810000  0.35900000  1.0 0.1124350174
H  H73  1  0.29650000  0.01850000  0.43140000  1.0 0.1218697323
H  H74  1  0.27880000  0.18000000  0.41740000  1.0 0.1218697323
H  H75  1  0.18770000  0.99660000  0.41820000  1.0 0.240174283
H  H76  1  0.17880000  0.14680000  0.41500000  1.0 0.2297360494
H  H77  1  0.15270000  0.44810000  0.00720000  1.0 0.1317264962
H  H78  1  0.21470000  0.32950000  0.02880000  1.0 0.1317264962
H  H79  1  0.23860000  0.48920000  0.03720000  1.0 0.1317264962
H  H80  1  0.23810000  0.43190000  0.85900000  1.0 0.1124350174
H  H81  1  0.29650000  0.48150000  0.93140000  1.0 0.1218697323
H  H82  1  0.27880000  0.32000000  0.91740000  1.0 0.1218697323
H  H83  1  0.18770000  0.50340000  0.91820000  1.0 0.240174283
H  H84  1  0.17880000  0.35320000  0.91500000  1.0 0.2297360494
H  H85  1  0.84730000  0.94810000  0.49280000  1.0 0.1317264962
H  H86  1  0.78530000  0.82950000  0.47120000  1.0 0.1317264962
H  H87  1  0.76140000  0.98920000  0.46280000  1.0 0.1317264962
H  H88  1  0.76190000  0.93190000  0.64100000  1.0 0.1124350174
H  H89  1  0.70350000  0.98150000  0.56860000  1.0 0.1218697323
H  H90  1  0.72120000  0.82000000  0.58260000  1.0 0.1218697323
H  H91  1  0.81230000  0.00340000  0.58180000  1.0 0.240174283
H  H92  1  0.82120000  0.85320000  0.58500000  1.0 0.2297360494
C  C1  1  0.61996000  0.91370000  0.90692000  1.0 0.6160647019
C  C2  1  0.38004000  0.41370000  0.59308000  1.0 0.6160647019
C  C3  1  0.38004000  0.08630000  0.09308000  1.0 0.6160647019
C  C4  1  0.61996000  0.58630000  0.40692000  1.0 0.6160647019
C  C5  1  0.62041000  0.84850000  0.83525000  1.0 -0.2804736228
C  C6  1  0.37959000  0.34850000  0.66475000  1.0 -0.2804736228
C  C7  1  0.37959000  0.15150000  0.16475000  1.0 -0.2804736228
C  C8  1  0.62041000  0.65150000  0.33525000  1.0 -0.2804736228
C  C9  1  0.68870000  0.80320000  0.82497000  1.0 0.1867873116
C  C10  1  0.31130000  0.30320000  0.67503000  1.0 0.1867873116
C  C11  1  0.31130000  0.19680000  0.17503000  1.0 0.1867873116
C  C12  1  0.68870000  0.69680000  0.32497000  1.0 0.1867873116
C  C13  1  0.69167000  0.74120000  0.76067000  1.0 0.1587687849
C  C14  1  0.30833000  0.24120000  0.73933000  1.0 0.1587687849
C  C15  1  0.30833000  0.25880000  0.23933000  1.0 0.1587687849
C  C16  1  0.69167000  0.75880000  0.26067000  1.0 0.1587687849
C  C17  1  0.62483000  0.72340000  0.70412000  1.0 -0.297100629
C  C18  1  0.37517000  0.22340000  0.79588000  1.0 -0.297100629
C  C19  1  0.37517000  0.27660000  0.29588000  1.0 -0.297100629
C  C20  1  0.62483000  0.77660000  0.20412000  1.0 -0.297100629
C  C21  1  0.55639000  0.77020000  0.71357000  1.0 0.2076622105
C  C22  1  0.44361000  0.27020000  0.78643000  1.0 0.2076622105
C  C23  1  0.44361000  0.22980000  0.28643000  1.0 0.2076622105
C  C24  1  0.55639000  0.72980000  0.21357000  1.0 0.2076622105
C  C25  1  0.55400000  0.83150000  0.77898000  1.0 0.1677028581
C  C26  1  0.44600000  0.33150000  0.72102000  1.0 0.1677028581
C  C27  1  0.44600000  0.16850000  0.22102000  1.0 0.1677028581
C  C28  1  0.55400000  0.66850000  0.27898000  1.0 0.1677028581
C  C29  1  0.62606000  0.65460000  0.63286000  1.0 0.5999018296
C  C30  1  0.37394000  0.15460000  0.86714000  1.0 0.5999018296
C  C31  1  0.37394000  0.34540000  0.36714000  1.0 0.5999018296
C  C32  1  0.62606000  0.84540000  0.13286000  1.0 0.5999018296
C  C33  1  0.60517000  0.22990000  0.51728000  1.0 0.5618194087
C  C34  1  0.39483000  0.72990000  0.98272000  1.0 0.5618194087
C  C35  1  0.39483000  0.77010000  0.48272000  1.0 0.5618194087
C  C36  1  0.60517000  0.27010000  0.01728000  1.0 0.5618194087
C  C37  1  0.55117000  0.11120000  0.50805000  1.0 -0.1611250446
C  C38  1  0.44883000  0.61120000  0.99195000  1.0 -0.1611250446
C  C39  1  0.44883000  0.88880000  0.49195000  1.0 -0.1611250446
C  C40  1  0.55117000  0.38880000  0.00805000  1.0 -0.1611250446
C  C41  1  0.55182000  0.00100000  0.45852000  1.0 0.240174283
C  C42  1  0.44818000  0.50100000  0.04148000  1.0 0.240174283
C  C43  1  0.44818000  0.99900000  0.54148000  1.0 0.240174283
C  C44  1  0.55182000  0.49900000  0.95852000  1.0 0.240174283
C  C45  1  0.50064000  0.89040000  0.45125000  1.0 -0.2089770225
C  C46  1  0.49936000  0.39040000  0.04875000  1.0 -0.2089770225
C  C47  1  0.49936000  0.10960000  0.54875000  1.0 -0.2089770225
C  C48  1  0.50064000  0.60960000  0.95125000  1.0 -0.2089770225
C  C49  1  0.97570000  0.60680000  0.53725000  1.0 -0.2089770225
C  C50  1  0.02430000  0.10680000  0.96275000  1.0 -0.2089770225
C  C51  1  0.02430000  0.39320000  0.46275000  1.0 -0.2089770225
C  C52  1  0.97570000  0.89320000  0.03725000  1.0 -0.2089770225
C  C53  1  0.95654000  0.37700000  0.48076000  1.0 0.2524940564
C  C54  1  0.04346000  0.87700000  0.01924000  1.0 0.2524940564
C  C55  1  0.04346000  0.62300000  0.51924000  1.0 0.2524940564
C  C56  1  0.95654000  0.12300000  0.98076000  1.0 0.2524940564
C  C57  1  0.93274000  0.48670000  0.51865000  1.0 -0.1207396643
C  C58  1  0.06726000  0.98670000  0.98135000  1.0 -0.1207396643
C  C59  1  0.06726000  0.51330000  0.48135000  1.0 -0.1207396643
C  C60  1  0.93274000  0.01330000  0.01865000  1.0 -0.1207396643
C  C61  1  0.85833000  0.47260000  0.53947000  1.0 0.5513725026
C  C62  1  0.14167000  0.97260000  0.96053000  1.0 0.5513725026
C  C63  1  0.14167000  0.52740000  0.46053000  1.0 0.5513725026
C  C64  1  0.85833000  0.02740000  0.03947000  1.0 0.5513725026
C  C65  1  0.80630000  0.13780000  0.78520000  1.0 -0.3399451033
C  C66  1  0.19370000  0.63780000  0.71480000  1.0 -0.3399451033
C  C67  1  0.19370000  0.86220000  0.21480000  1.0 -0.3399451033
C  C68  1  0.80630000  0.36220000  0.28520000  1.0 -0.3399451033
C  C69  1  0.69270000  0.23760000  0.81800000  1.0 -0.3339951889
C  C70  1  0.30730000  0.73760000  0.68200000  1.0 -0.3339951889
C  C71  1  0.30730000  0.76240000  0.18200000  1.0 -0.3339951889
C  C72  1  0.69270000  0.26240000  0.31800000  1.0 -0.3339951889
C  C73  1  0.72107000  0.30110000  0.70709000  1.0 0.2906779392
C  C74  1  0.27893000  0.80110000  0.79291000  1.0 0.2906779392
C  C75  1  0.27893000  0.69890000  0.29291000  1.0 0.2906779392
C  C76  1  0.72107000  0.19890000  0.20709000  1.0 0.2906779392
C  C77  1  0.79630000  0.57770000  0.99180000  1.0 -0.297100629
C  C78  1  0.74230000  0.58630000  0.08980000  1.0 -0.1501632699
C  C79  1  0.20370000  0.07770000  0.50820000  1.0 -0.297100629
C  C80  1  0.25770000  0.08630000  0.41020000  1.0 -0.1501632699
C  C81  1  0.20370000  0.42230000  0.00820000  1.0 -0.297100629
C  C82  1  0.25770000  0.41370000  0.91020000  1.0 -0.1501632699
C  C83  1  0.79630000  0.92230000  0.49180000  1.0 -0.297100629
C  C84  1  0.74230000  0.91370000  0.58980000  1.0 -0.1501632699
N  N1  1  0.73685000  0.22730000  0.76640000  1.0 0.0265856755
N  N2  1  0.26315000  0.72730000  0.73360000  1.0 0.0265856755
N  N3  1  0.26315000  0.77270000  0.23360000  1.0 0.0265856755
N  N4  1  0.73685000  0.27270000  0.26640000  1.0 0.0265856755
N  N5  1  0.78910000  0.57760000  0.06320000  1.0 -0.0549199836
N  N6  1  0.21090000  0.07760000  0.43680000  1.0 -0.0549199836
N  N7  1  0.21090000  0.42240000  0.93680000  1.0 -0.0549199836
N  N8  1  0.78910000  0.92240000  0.56320000  1.0 -0.0549199836
O  O1  1  0.55612000  0.95400000  0.91221000  1.0 -0.5837563531
O  O2  1  0.44388000  0.45400000  0.58779000  1.0 -0.5837563531
O  O3  1  0.44388000  0.04600000  0.08779000  1.0 -0.5837563531
O  O4  1  0.55612000  0.54600000  0.41221000  1.0 -0.5837563531
O  O5  1  0.68166000  0.92660000  0.95405000  1.0 -0.5317814642
O  O6  1  0.31834000  0.42660000  0.54595000  1.0 -0.5317814642
O  O7  1  0.31834000  0.07340000  0.04595000  1.0 -0.5317814642
O  O8  1  0.68166000  0.57340000  0.45405000  1.0 -0.5317814642
O  O9  1  0.48382000  0.87280000  0.78229000  1.0 -0.3894204938
O  O10  1  0.51618000  0.37280000  0.71771000  1.0 -0.3894204938
O  O11  1  0.51618000  0.12720000  0.21771000  1.0 -0.3894204938
O  O12  1  0.48382000  0.62720000  0.28229000  1.0 -0.3894204938
O  O13  1  0.76074000  0.69470000  0.75570000  1.0 -0.4177883522
O  O14  1  0.23926000  0.19470000  0.74430000  1.0 -0.4177883522
O  O15  1  0.23926000  0.30530000  0.24430000  1.0 -0.4177883522
O  O16  1  0.76074000  0.80530000  0.25570000  1.0 -0.4177883522
O  O17  1  0.68909000  0.60590000  0.63045000  1.0 -0.5540697233
O  O18  1  0.31091000  0.10590000  0.86955000  1.0 -0.5540697233
O  O19  1  0.31091000  0.39410000  0.36955000  1.0 -0.5540697233
O  O20  1  0.68909000  0.89410000  0.13045000  1.0 -0.5540697233
O  O21  1  0.56647000  0.65171000  0.58333000  1.0 -0.5421101109
O  O22  1  0.43353000  0.15171000  0.91667000  1.0 -0.5421101109
O  O23  1  0.43353000  0.34829000  0.41667000  1.0 -0.5421101109
O  O24  1  0.56647000  0.84829000  0.08333000  1.0 -0.5421101109
O  O25  1  0.59524000  0.33963000  0.55188000  1.0 -0.5954896615
O  O26  1  0.40476000  0.83963000  0.94812000  1.0 -0.5954896615
O  O27  1  0.40476000  0.66037000  0.44812000  1.0 -0.5954896615
O  O28  1  0.59524000  0.16037000  0.05188000  1.0 -0.5954896615
O  O29  1  0.66237000  0.22138000  0.49271000  1.0 -0.5317814642
O  O30  1  0.33763000  0.72138000  0.00729000  1.0 -0.5317814642
O  O31  1  0.33763000  0.77862000  0.50729000  1.0 -0.5317814642
O  O32  1  0.66237000  0.27862000  0.99271000  1.0 -0.5317814642
O  O33  1  0.60207000  0.99770000  0.41721000  1.0 -0.4488483028
O  O34  1  0.39793000  0.49770000  0.08279000  1.0 -0.4488483028
O  O35  1  0.39793000  0.00230000  0.58279000  1.0 -0.4488483028
O  O36  1  0.60207000  0.50230000  0.91721000  1.0 -0.4488483028
O  O37  1  0.82096000  0.36180000  0.52193000  1.0 -0.5317814642
O  O38  1  0.17904000  0.86180000  0.97807000  1.0 -0.5317814642
O  O39  1  0.17904000  0.63820000  0.47807000  1.0 -0.5317814642
O  O40  1  0.82096000  0.13820000  0.02193000  1.0 -0.5317814642
O  O41  1  0.83633000  0.57000000  0.57204000  1.0 -0.5317814642
O  O42  1  0.16367000  0.07000000  0.92796000  1.0 -0.5317814642
O  O43  1  0.16367000  0.43000000  0.42796000  1.0 -0.5317814642
O  O44  1  0.83633000  0.93000000  0.07204000  1.0 -0.5317814642
O  O45  1  0.91767000  0.25670000  0.46330000  1.0 -0.4488483028
O  O46  1  0.08233000  0.75670000  0.03670000  1.0 -0.4488483028
O  O47  1  0.08233000  0.74330000  0.53670000  1.0 -0.4488483028
O  O48  1  0.91767000  0.24330000  0.96330000  1.0 -0.4488483028
O  O49  1  0.75622000  0.30230000  0.66076000  1.0 -0.4663653628
O  O50  1  0.24378000  0.80230000  0.83924000  1.0 -0.4663653628
O  O51  1  0.24378000  0.69770000  0.33924000  1.0 -0.4663653628
O  O52  1  0.75622000  0.19770000  0.16076000  1.0 -0.4663653628
O  O53  1  0.75510000  0.82310000  0.87310000  1.0 -0.3894204938
O  O54  1  0.24490000  0.32310000  0.62690000  1.0 -0.3894204938
O  O55  1  0.24490000  0.17690000  0.12690000  1.0 -0.3894204938
O  O56  1  0.75510000  0.67690000  0.37310000  1.0 -0.3894204938
O  O57  1  0.48900000  0.74570000  0.66820000  1.0 -0.3608089344
O  O58  1  0.51100000  0.24570000  0.83180000  1.0 -0.3608089344
O  O59  1  0.51100000  0.25430000  0.33180000  1.0 -0.3608089344
O  O60  1  0.48900000  0.75430000  0.16820000  1.0 -0.3608089344
