# DDEC6 charges by PACMAN v1.1 (https://github.com/mtap-research/PACMAN-charge/)
data_DUYBOR_ASR_pacman
_symmetry_space_group_name_H-M   'P 1'
_cell_length_a   15.74120000
_cell_length_b   15.74120000
_cell_length_c   9.15500000
_cell_angle_alpha   84.88340000
_cell_angle_beta   95.11660000
_cell_angle_gamma   104.78100000
_symmetry_Int_Tables_number   1
_chemical_formula_structural   Cd2H23C34N5O8
_chemical_formula_sum   'Cd4 H46 C68 N10 O16'
_cell_volume   2179.46316326
_cell_formula_units_Z   2
loop_
 _symmetry_equiv_pos_site_id
 _symmetry_equiv_pos_as_xyz
  1  'x, y, z'
loop_
 _atom_site_type_symbol
 _atom_site_label
 _atom_site_symmetry_multiplicity
 _atom_site_fract_x
 _atom_site_fract_y
 _atom_site_fract_z
 _atom_site_occupancy
 _atom_site_charge
Cd  Cd1  1  0.58050000  0.21266000  0.62760000  1.0 0.8734657077
Cd  Cd2  1  0.21266000  0.58050000  0.87240000  1.0 0.8734657077
Cd  Cd3  1  0.41950000  0.78734000  0.37240000  1.0 0.8734657077
Cd  Cd4  1  0.78734000  0.41950000  0.12760000  1.0 0.8734657077
H  H1  1  0.26988000  0.11628000  0.69929000  1.0 0.120678336
H  H2  1  0.05736000  0.98258000  0.70608000  1.0 0.120678336
H  H3  1  0.14360000  0.02760000  0.62800000  1.0 0.120678336
H  H4  1  0.19424000  0.89170000  0.71077000  1.0 0.120678336
H  H5  1  0.26816000  0.82152000  0.89020000  1.0 0.120678336
H  H6  1  0.24005000  0.98511000  0.18006000  1.0 0.120678336
H  H7  1  0.16847000  0.05875000  0.00062000  1.0 0.1118139214
H  H8  1  0.60431000  0.05175000  0.46927000  1.0 0.1118139214
H  H9  1  0.57196000  0.98046000  0.25727000  1.0 0.1378409771
H  H10  1  0.46420000  0.17646000  0.07987000  1.0 0.151460549
H  H11  1  0.51168000  0.24586000  0.29624000  1.0 0.1118139214
H  H12  1  0.11628000  0.26988000  0.80071000  1.0 0.120678336
H  H13  1  0.98258000  0.05736000  0.79392000  1.0 0.120678336
H  H14  1  0.02760000  0.14360000  0.87200000  1.0 0.120678336
H  H15  1  0.89170000  0.19424000  0.78923000  1.0 0.120678336
H  H16  1  0.82152000  0.26816000  0.60980000  1.0 0.120678336
H  H17  1  0.98511000  0.24005000  0.31994000  1.0 0.120678336
H  H18  1  0.05875000  0.16847000  0.49938000  1.0 0.120678336
H  H19  1  0.05175000  0.60431000  0.03073000  1.0 0.1118139214
H  H20  1  0.98046000  0.57196000  0.24273000  1.0 0.1378409771
H  H21  1  0.17646000  0.46420000  0.42013000  1.0 0.151460549
H  H22  1  0.24586000  0.51168000  0.20376000  1.0 0.1118139214
H  H23  1  0.73012000  0.88372000  0.30071000  1.0 0.120678336
H  H24  1  0.94264000  0.01742000  0.29392000  1.0 0.120678336
H  H25  1  0.85640000  0.97240000  0.37200000  1.0 0.120678336
H  H26  1  0.80576000  0.10830000  0.28923000  1.0 0.120678336
H  H27  1  0.73184000  0.17848000  0.10980000  1.0 0.120678336
H  H28  1  0.75995000  0.01489000  0.81994000  1.0 0.120678336
H  H29  1  0.83153000  0.94125000  0.99938000  1.0 0.120678336
H  H30  1  0.39569000  0.94825000  0.53073000  1.0 0.1118139214
H  H31  1  0.42804000  0.01954000  0.74273000  1.0 0.1378409771
H  H32  1  0.53580000  0.82354000  0.92013000  1.0 0.151460549
H  H33  1  0.48832000  0.75414000  0.70376000  1.0 0.1118139214
H  H34  1  0.88372000  0.73012000  0.19929000  1.0 0.120678336
H  H35  1  0.01742000  0.94264000  0.20608000  1.0 0.120678336
H  H36  1  0.97240000  0.85640000  0.12800000  1.0 0.120678336
H  H37  1  0.10830000  0.80576000  0.21077000  1.0 0.120678336
H  H38  1  0.17848000  0.73184000  0.39020000  1.0 0.120678336
H  H39  1  0.01489000  0.75995000  0.68006000  1.0 0.120678336
H  H40  1  0.94125000  0.83153000  0.50062000  1.0 0.1118139214
H  H41  1  0.94825000  0.39569000  0.96927000  1.0 0.1118139214
H  H42  1  0.01954000  0.42804000  0.75727000  1.0 0.1378409771
H  H43  1  0.82354000  0.53580000  0.57987000  1.0 0.151460549
H  H44  1  0.75414000  0.48832000  0.79624000  1.0 0.1118139214
H  H45  1  0.37331000  0.37331000  0.75000000  1.0 0.1340024156
H  H46  1  0.62669000  0.62669000  0.25000000  1.0 0.1340024156
C  C1  1  0.42190000  0.23190000  0.68450000  1.0 0.5318122712
C  C2  1  0.33340000  0.24360000  0.71720000  1.0 0.0034316426
C  C3  1  0.26240000  0.17080000  0.71880000  1.0 -0.2026007863
C  C4  1  0.11560000  0.02180000  0.71980000  1.0 -0.1883997636
C  C5  1  0.16840000  0.97920000  0.83740000  1.0 0.1118139214
C  C6  1  0.20260000  0.91040000  0.80570000  1.0 -0.1639333683
C  C7  1  0.24850000  0.86950000  0.91240000  1.0 -0.0933066773
C  C8  1  0.26590000  0.89950000  0.05420000  1.0 -0.0418686502
C  C9  1  0.32060000  0.85960000  0.16720000  1.0 0.5318122712
C  C10  1  0.23220000  0.96720000  0.08470000  1.0 -0.1023083719
C  C11  1  0.18670000  0.00990000  0.97840000  1.0 -0.1760229262
C  C12  1  0.57720000  0.07760000  0.38910000  1.0 0.0776214434
C  C13  1  0.55760000  0.03380000  0.26350000  1.0 -0.2026007863
C  C14  1  0.51440000  0.07280000  0.14210000  1.0 0.1773297546
C  C15  1  0.49450000  0.15070000  0.15580000  1.0 -0.1883997636
C  C16  1  0.52140000  0.19060000  0.28870000  1.0 0.093731424
C  C17  1  0.23190000  0.42190000  0.81550000  1.0 0.5318122712
C  C18  1  0.24360000  0.33340000  0.78280000  1.0 0.0034316426
C  C19  1  0.17080000  0.26240000  0.78120000  1.0 -0.2026007863
C  C20  1  0.02180000  0.11560000  0.78020000  1.0 -0.1883997636
C  C21  1  0.97920000  0.16840000  0.66260000  1.0 0.1118139214
C  C22  1  0.91040000  0.20260000  0.69430000  1.0 -0.1639333683
C  C23  1  0.86950000  0.24850000  0.58760000  1.0 -0.0933066773
C  C24  1  0.89950000  0.26590000  0.44580000  1.0 -0.0418686502
C  C25  1  0.85960000  0.32060000  0.33280000  1.0 0.5318122712
C  C26  1  0.96720000  0.23220000  0.41530000  1.0 -0.1023083719
C  C27  1  0.00990000  0.18670000  0.52160000  1.0 -0.1760229262
C  C28  1  0.07760000  0.57720000  0.11090000  1.0 0.0776214434
C  C29  1  0.03380000  0.55760000  0.23650000  1.0 -0.2026007863
C  C30  1  0.07280000  0.51440000  0.35790000  1.0 0.1773297546
C  C31  1  0.15070000  0.49450000  0.34420000  1.0 -0.1883997636
C  C32  1  0.19060000  0.52140000  0.21130000  1.0 0.093731424
C  C33  1  0.57810000  0.76810000  0.31550000  1.0 0.5318122712
C  C34  1  0.66666667  0.75640000  0.28280000  1.0 0.0034316426
C  C35  1  0.73760000  0.82920000  0.28120000  1.0 -0.2026007863
C  C36  1  0.88440000  0.97820000  0.28020000  1.0 -0.1883997636
C  C37  1  0.83160000  0.02080000  0.16260000  1.0 0.1118139214
C  C38  1  0.79740000  0.08960000  0.19430000  1.0 -0.1639333683
C  C39  1  0.75150000  0.13050000  0.08760000  1.0 -0.0933066773
C  C40  1  0.73410000  0.10050000  0.94580000  1.0 -0.0418686502
C  C41  1  0.67940000  0.14040000  0.83280000  1.0 0.5318122712
C  C42  1  0.76780000  0.03280000  0.91530000  1.0 -0.1023083719
C  C43  1  0.81330000  0.99010000  0.02160000  1.0 -0.1760229262
C  C44  1  0.42280000  0.92240000  0.61090000  1.0 0.0776214434
C  C45  1  0.44240000  0.96620000  0.73650000  1.0 -0.2026007863
C  C46  1  0.48560000  0.92720000  0.85790000  1.0 0.1773297546
C  C47  1  0.50550000  0.84930000  0.84420000  1.0 -0.1883997636
C  C48  1  0.47860000  0.80940000  0.71130000  1.0 0.093731424
C  C49  1  0.76810000  0.57810000  0.18450000  1.0 0.5318122712
C  C50  1  0.75640000  0.66666667  0.21720000  1.0 0.0034316426
C  C51  1  0.82920000  0.73760000  0.21880000  1.0 -0.2026007863
C  C52  1  0.97820000  0.88440000  0.21980000  1.0 -0.1883997636
C  C53  1  0.02080000  0.83160000  0.33740000  1.0 0.1118139214
C  C54  1  0.08960000  0.79740000  0.30570000  1.0 -0.1639333683
C  C55  1  0.13050000  0.75150000  0.41240000  1.0 -0.0933066773
C  C56  1  0.10050000  0.73410000  0.55420000  1.0 -0.0418686502
C  C57  1  0.14040000  0.67940000  0.66720000  1.0 0.5318122712
C  C58  1  0.03280000  0.76780000  0.58470000  1.0 -0.1023083719
C  C59  1  0.99010000  0.81330000  0.47840000  1.0 -0.1760229262
C  C60  1  0.92240000  0.42280000  0.88910000  1.0 0.0776214434
C  C61  1  0.96620000  0.44240000  0.76350000  1.0 -0.2026007863
C  C62  1  0.92720000  0.48560000  0.64210000  1.0 0.1773297546
C  C63  1  0.84930000  0.50550000  0.65580000  1.0 -0.1883997636
C  C64  1  0.80940000  0.47860000  0.78870000  1.0 0.093731424
C  C65  1  0.32490000  0.32490000  0.75000000  1.0 -0.1209924238
C  C66  1  0.17850000  0.17850000  0.75000000  1.0 0.1722878871
C  C67  1  0.67510000  0.67510000  0.25000000  1.0 -0.1209924238
C  C68  1  0.82150000  0.82150000  0.25000000  1.0 0.1722878871
N  N1  1  0.56000000  0.15480000  0.40480000  1.0 -0.2574304136
N  N2  1  0.49060000  0.03420000  0.00070000  1.0 -0.0418686502
N  N3  1  0.15480000  0.56000000  0.09520000  1.0 -0.2574304136
N  N4  1  0.03420000  0.49060000  0.49930000  1.0 -0.0418686502
N  N5  1  0.44000000  0.84520000  0.59520000  1.0 -0.2574304136
N  N6  1  0.50940000  0.96580000  0.99930000  1.0 -0.0418686502
N  N7  1  0.84520000  0.44000000  0.90480000  1.0 -0.2574304136
N  N8  1  0.96580000  0.50940000  0.50070000  1.0 -0.0418686502
N  N9  1  0.10620000  0.10620000  0.75000000  1.0 -0.0615348162
N  N10  1  0.89380000  0.89380000  0.25000000  1.0 -0.0615348162
O  O1  1  0.48790000  0.29390000  0.70170000  1.0 -0.5146161409
O  O2  1  0.42823000  0.16277000  0.64100000  1.0 -0.5363264771
O  O3  1  0.34338000  0.89302000  0.28700000  1.0 -0.5483402105
O  O4  1  0.34322000  0.78978000  0.14240000  1.0 -0.5581224951
O  O5  1  0.29390000  0.48790000  0.79830000  1.0 -0.5146161409
O  O6  1  0.16277000  0.42823000  0.85900000  1.0 -0.5363264771
O  O7  1  0.89302000  0.34338000  0.21300000  1.0 -0.5483402105
O  O8  1  0.78978000  0.34322000  0.35760000  1.0 -0.5581224951
O  O9  1  0.51210000  0.70610000  0.29830000  1.0 -0.5146161409
O  O10  1  0.57177000  0.83723000  0.35900000  1.0 -0.5363264771
O  O11  1  0.65662000  0.10698000  0.71300000  1.0 -0.5483402105
O  O12  1  0.65678000  0.21022000  0.85760000  1.0 -0.5581224951
O  O13  1  0.70610000  0.51210000  0.20170000  1.0 -0.5146161409
O  O14  1  0.83723000  0.57177000  0.14100000  1.0 -0.5363264771
O  O15  1  0.10698000  0.65662000  0.78700000  1.0 -0.5483402105
O  O16  1  0.21022000  0.65678000  0.64240000  1.0 -0.5581224951
