# DDEC6 charges by PACMAN v1.1 (https://github.com/mtap-research/PACMAN-charge/)
data_DUYBIL_FSR_pacman
_symmetry_space_group_name_H-M   'P 1'
_cell_length_a   14.88700000
_cell_length_b   15.96600000
_cell_length_c   16.17100000
_cell_angle_alpha   100.90600000
_cell_angle_beta   108.51100000
_cell_angle_gamma   110.88500000
_symmetry_Int_Tables_number   1
_chemical_formula_structural   Cd3H30C48N2O17
_chemical_formula_sum   'Cd6 H60 C96 N4 O34'
_cell_volume   3200.81522498
_cell_formula_units_Z   2
loop_
 _symmetry_equiv_pos_site_id
 _symmetry_equiv_pos_as_xyz
  1  'x, y, z'
loop_
 _atom_site_type_symbol
 _atom_site_label
 _atom_site_symmetry_multiplicity
 _atom_site_fract_x
 _atom_site_fract_y
 _atom_site_fract_z
 _atom_site_occupancy
 _atom_site_charge
Cd  Cd1  1  0.12874000  0.30597000  0.76490000  1.0 1.0104389508
Cd  Cd2  1  0.28980000  0.56399000  0.76404000  1.0 1.0243402739
Cd  Cd3  1  0.20337000  0.32539000  0.58151000  1.0 1.0104389508
Cd  Cd4  1  0.87126000  0.69403000  0.23510000  1.0 1.0104389508
Cd  Cd5  1  0.71020000  0.43601000  0.23596000  1.0 1.0243402739
Cd  Cd6  1  0.79663000  0.67461000  0.41849000  1.0 1.0104389508
H  H1  1  0.96309000  0.52749000  0.57813000  1.0 0.1397768776
H  H2  1  0.67299000  0.31767000  0.40824000  1.0 0.1291605041
H  H3  1  0.89826000  0.25562000  0.55816000  1.0 0.1291605041
H  H4  1  0.65406000  0.06830000  0.49623000  1.0 0.1192445555
H  H5  1  0.76904000  0.14825000  0.55977000  1.0 0.1192445555
H  H6  1  0.82583000  0.02233000  0.56723000  1.0 0.1291605041
H  H7  1  0.88318000  0.91924000  0.50241000  1.0 0.1192445555
H  H8  1  0.77152000  0.95711000  0.26134000  1.0 0.1192445555
H  H9  1  0.72340000  0.06358000  0.32735000  1.0 0.1107578577
H  H10  1  0.56123000  0.07118000  0.35447000  1.0 0.1192445555
H  H11  1  0.59574000  0.16435000  0.32973000  1.0 0.1192445555
H  H12  1  0.39893000  0.11786000  0.28721000  1.0 0.1291605041
H  H13  1  0.28908000  0.16560000  0.33684000  1.0 0.1291605041
H  H14  1  0.49099000  0.26109000  0.59493000  1.0 0.1192445555
H  H15  1  0.60867000  0.21721000  0.55144000  1.0 0.1291605041
H  H16  1  0.57367000  0.54443000  0.94784000  1.0 0.1397768776
H  H17  1  0.66934000  0.34752000  0.00168000  1.0 0.1291605041
H  H18  1  0.40334000  0.27283000  0.77608000  1.0 0.1397768776
H  H19  1  0.58293000  0.19970000  0.98290000  1.0 0.1192445555
H  H20  1  0.65060000  0.19058000  0.92774000  1.0 0.1192445555
H  H21  1  0.37966000  0.04503000  0.88256000  1.0 0.1291605041
H  H22  1  0.30648000  0.88327000  0.84873000  1.0 0.1291605041
H  H23  1  0.57551000  0.87837000  0.87445000  1.0 0.1291605041
H  H24  1  0.65723000  0.04339000  0.90883000  1.0 0.1291605041
H  H25  1  0.47258000  0.18306000  0.71890000  1.0 0.1291605041
H  H26  1  0.47355000  0.09092000  0.73851000  1.0 0.1107578577
H  H27  1  0.66622000  0.32796000  0.78352000  1.0 0.1291605041
H  H28  1  0.83097000  0.36850000  0.78408000  1.0 0.1291605041
H  H29  1  0.77727000  0.09658000  0.72995000  1.0 0.1291605041
H  H30  1  0.61100000  0.05651000  0.72768000  1.0 0.1192445555
H  H31  1  0.03691000  0.47251000  0.42187000  1.0 0.1397768776
H  H32  1  0.32701000  0.68233000  0.59176000  1.0 0.1291605041
H  H33  1  0.10174000  0.74438000  0.44184000  1.0 0.1291605041
H  H34  1  0.34594000  0.93170000  0.50377000  1.0 0.1192445555
H  H35  1  0.23096000  0.85175000  0.44023000  1.0 0.1192445555
H  H36  1  0.17417000  0.97767000  0.43277000  1.0 0.1291605041
H  H37  1  0.11682000  0.08076000  0.49759000  1.0 0.1192445555
H  H38  1  0.22848000  0.04289000  0.73866000  1.0 0.1192445555
H  H39  1  0.27660000  0.93642000  0.67265000  1.0 0.1107578577
H  H40  1  0.43877000  0.92882000  0.64553000  1.0 0.1192445555
H  H41  1  0.40426000  0.83565000  0.67027000  1.0 0.1192445555
H  H42  1  0.60107000  0.88214000  0.71279000  1.0 0.1291605041
H  H43  1  0.71092000  0.83440000  0.66316000  1.0 0.1291605041
H  H44  1  0.50901000  0.73891000  0.40507000  1.0 0.1192445555
H  H45  1  0.39133000  0.78279000  0.44856000  1.0 0.1291605041
H  H46  1  0.42633000  0.45557000  0.05216000  1.0 0.1397768776
H  H47  1  0.33066000  0.65248000  0.99832000  1.0 0.1291605041
H  H48  1  0.59666000  0.72717000  0.22392000  1.0 0.1397768776
H  H49  1  0.41707000  0.80030000  0.01710000  1.0 0.1192445555
H  H50  1  0.34940000  0.80942000  0.07226000  1.0 0.1192445555
H  H51  1  0.62034000  0.95497000  0.11744000  1.0 0.1291605041
H  H52  1  0.69352000  0.11673000  0.15127000  1.0 0.1291605041
H  H53  1  0.42449000  0.12163000  0.12555000  1.0 0.1291605041
H  H54  1  0.34277000  0.95661000  0.09117000  1.0 0.1291605041
H  H55  1  0.52742000  0.81694000  0.28110000  1.0 0.1291605041
H  H56  1  0.52645000  0.90908000  0.26149000  1.0 0.1107578577
H  H57  1  0.33378000  0.67204000  0.21648000  1.0 0.1291605041
H  H58  1  0.16903000  0.63150000  0.21592000  1.0 0.1291605041
H  H59  1  0.22273000  0.90342000  0.27005000  1.0 0.1291605041
H  H60  1  0.38900000  0.94349000  0.27232000  1.0 0.1192445555
C  C1  1  0.06030000  0.42860000  0.63980000  1.0 0.5988238474
C  C2  1  0.94820000  0.39670000  0.57720000  1.0 -0.0223919767
C  C3  1  0.91620000  0.46290000  0.55200000  1.0 -0.1092487299
C  C4  1  0.81420000  0.43240000  0.48770000  1.0 -0.0083584044
C  C5  1  0.78580000  0.50620000  0.45690000  1.0 0.5797510763
C  C6  1  0.74140000  0.33710000  0.45160000  1.0 -0.1918446402
C  C7  1  0.87630000  0.30000000  0.54140000  1.0 -0.1918446402
C  C8  1  0.77120000  0.27010000  0.48050000  1.0 0.1812971503
C  C9  1  0.71920000  0.11090000  0.49570000  1.0 -0.1768304984
C  C10  1  0.76420000  0.05020000  0.45340000  1.0 0.0930385535
C  C11  1  0.81370000  0.00870000  0.50510000  1.0 -0.1514563963
C  C12  1  0.84710000  0.94530000  0.46570000  1.0 -0.1009639854
C  C13  1  0.82620000  0.92230000  0.37360000  1.0 -0.0336126674
C  C14  1  0.85180000  0.84650000  0.32980000  1.0 0.5614946504
C  C15  1  0.78160000  0.96880000  0.32300000  1.0 -0.1092487299
C  C16  1  0.75220000  0.03210000  0.36240000  1.0 -0.1626965583
C  C17  1  0.59170000  0.14010000  0.37980000  1.0 -0.171115538
C  C18  1  0.51670000  0.16660000  0.41340000  1.0 0.1107578577
C  C19  1  0.42050000  0.14850000  0.34990000  1.0 -0.1514563963
C  C20  1  0.35410000  0.17680000  0.38070000  1.0 -0.0889480541
C  C21  1  0.37970000  0.21800000  0.46800000  1.0 -0.0024349174
C  C22  1  0.31350000  0.25800000  0.50570000  1.0 0.5325267037
C  C23  1  0.47320000  0.23310000  0.53250000  1.0 -0.1009639854
C  C24  1  0.54470000  0.20720000  0.50680000  1.0 -0.1413408423
C  C25  1  0.39300000  0.43660000  0.79770000  1.0 0.5988238474
C  C26  1  0.47580000  0.41170000  0.85370000  1.0 0.0064931411
C  C27  1  0.56330000  0.48150000  0.93260000  1.0 -0.1166744659
C  C28  1  0.63410000  0.45750000  0.98740000  1.0 -0.0024349174
C  C29  1  0.72460000  0.53130000  0.07570000  1.0 0.5797510763
C  C30  1  0.62130000  0.36330000  0.96340000  1.0 -0.2086092214
C  C31  1  0.53670000  0.29360000  0.88240000  1.0 0.1812971503
C  C32  1  0.46220000  0.31900000  0.82880000  1.0 -0.171115538
C  C33  1  0.57890000  0.16900000  0.92310000  1.0 -0.171115538
C  C34  1  0.52930000  0.06270000  0.90120000  1.0 0.1107578577
C  C35  1  0.42070000  0.01280000  0.88140000  1.0 -0.1413408423
C  C36  1  0.37750000  0.91540000  0.86060000  1.0 -0.1092487299
C  C37  1  0.43010000  0.86480000  0.85630000  1.0 -0.0336126674
C  C38  1  0.37950000  0.75870000  0.82820000  1.0 0.5087814053
C  C39  1  0.53650000  0.91250000  0.87570000  1.0 -0.1092487299
C  C40  1  0.58620000  0.01220000  0.89730000  1.0 -0.1626965583
C  C41  1  0.51250000  0.15990000  0.76050000  1.0 -0.1626965583
C  C42  1  0.61950000  0.18670000  0.75640000  1.0 0.1005855372
C  C43  1  0.68800000  0.28070000  0.77290000  1.0 -0.1514563963
C  C44  1  0.78720000  0.30550000  0.77380000  1.0 -0.0889480541
C  C45  1  0.82120000  0.23660000  0.75930000  1.0 -0.0083584044
C  C46  1  0.75540000  0.14370000  0.74130000  1.0 -0.1092487299
C  C47  1  0.65520000  0.12000000  0.74010000  1.0 -0.171115538
C  C48  1  0.93200000  0.26290000  0.76410000  1.0 0.5325267037
C  C49  1  0.93970000  0.57140000  0.36020000  1.0 0.5988238474
C  C50  1  0.05180000  0.60330000  0.42280000  1.0 -0.0223919767
C  C51  1  0.08380000  0.53710000  0.44800000  1.0 -0.1092487299
C  C52  1  0.18580000  0.56760000  0.51230000  1.0 -0.0083584044
C  C53  1  0.21420000  0.49380000  0.54310000  1.0 0.5797510763
C  C54  1  0.25860000  0.66290000  0.54840000  1.0 -0.1918446402
C  C55  1  0.12370000  0.70000000  0.45860000  1.0 -0.1918446402
C  C56  1  0.22880000  0.72990000  0.51950000  1.0 0.1812971503
C  C57  1  0.28080000  0.88910000  0.50430000  1.0 -0.1768304984
C  C58  1  0.23580000  0.94980000  0.54660000  1.0 0.0930385535
C  C59  1  0.18630000  0.99130000  0.49490000  1.0 -0.1514563963
C  C60  1  0.15290000  0.05470000  0.53430000  1.0 -0.1009639854
C  C61  1  0.17380000  0.07770000  0.62640000  1.0 -0.0336126674
C  C62  1  0.14820000  0.15350000  0.67020000  1.0 0.5614946504
C  C63  1  0.21840000  0.03120000  0.67700000  1.0 -0.1092487299
C  C64  1  0.24780000  0.96790000  0.63760000  1.0 -0.1626965583
C  C65  1  0.40830000  0.85990000  0.62020000  1.0 -0.171115538
C  C66  1  0.48330000  0.83340000  0.58660000  1.0 0.1107578577
C  C67  1  0.57950000  0.85150000  0.65010000  1.0 -0.1514563963
C  C68  1  0.64590000  0.82320000  0.61930000  1.0 -0.0889480541
C  C69  1  0.62030000  0.78200000  0.53200000  1.0 -0.0024349174
C  C70  1  0.68650000  0.74200000  0.49430000  1.0 0.5325267037
C  C71  1  0.52680000  0.76690000  0.46750000  1.0 -0.1009639854
C  C72  1  0.45530000  0.79280000  0.49320000  1.0 -0.1413408423
C  C73  1  0.60700000  0.56340000  0.20230000  1.0 0.5988238474
C  C74  1  0.52420000  0.58830000  0.14630000  1.0 0.0064931411
C  C75  1  0.43670000  0.51850000  0.06740000  1.0 -0.1166744659
C  C76  1  0.36590000  0.54250000  0.01260000  1.0 -0.0024349174
C  C77  1  0.27540000  0.46870000  0.92430000  1.0 0.5797510763
C  C78  1  0.37870000  0.63670000  0.03660000  1.0 -0.2086092214
C  C79  1  0.46330000  0.70640000  0.11760000  1.0 0.1812971503
C  C80  1  0.53780000  0.68100000  0.17120000  1.0 -0.171115538
C  C81  1  0.42110000  0.83100000  0.07690000  1.0 -0.171115538
C  C82  1  0.47070000  0.93730000  0.09880000  1.0 0.1107578577
C  C83  1  0.57930000  0.98720000  0.11860000  1.0 -0.1413408423
C  C84  1  0.62250000  0.08460000  0.13940000  1.0 -0.1092487299
C  C85  1  0.56990000  0.13520000  0.14370000  1.0 -0.0336126674
C  C86  1  0.62050000  0.24130000  0.17180000  1.0 0.5087814053
C  C87  1  0.46350000  0.08750000  0.12430000  1.0 -0.1092487299
C  C88  1  0.41380000  0.98780000  0.10270000  1.0 -0.1626965583
C  C89  1  0.48750000  0.84010000  0.23950000  1.0 -0.1626965583
C  C90  1  0.38050000  0.81330000  0.24360000  1.0 0.1005855372
C  C91  1  0.31200000  0.71930000  0.22710000  1.0 -0.1514563963
C  C92  1  0.21280000  0.69450000  0.22620000  1.0 -0.0889480541
C  C93  1  0.17880000  0.76340000  0.24070000  1.0 -0.0083584044
C  C94  1  0.24460000  0.85630000  0.25870000  1.0 -0.1092487299
C  C95  1  0.34480000  0.88000000  0.25990000  1.0 -0.171115538
C  C96  1  0.06800000  0.73710000  0.23590000  1.0 0.5325267037
N  N1  1  0.52010000  0.19820000  0.85360000  1.0 -0.1092487299
N  N2  1  0.69730000  0.17540000  0.44940000  1.0 -0.0794951002
N  N3  1  0.47990000  0.80180000  0.14640000  1.0 -0.1092487299
N  N4  1  0.30270000  0.82460000  0.55060000  1.0 -0.0794951002
O  O1  1  0.11880000  0.51620000  0.68170000  1.0 -0.4993385255
O  O2  1  0.09540000  0.36720000  0.64760000  1.0 -0.6193727235
O  O3  1  0.84280000  0.59230000  0.50770000  1.0 -0.5095811168
O  O4  1  0.70820000  0.48100000  0.38100000  1.0 -0.5718097816
O  O5  1  0.22490000  0.23460000  0.44590000  1.0 -0.4899848978
O  O6  1  0.34580000  0.30280000  0.58500000  1.0 -0.4899848978
O  O7  1  0.30450000  0.37200000  0.74260000  1.0 -0.5926436166
O  O8  1  0.41970000  0.52370000  0.81470000  1.0 -0.4993385255
O  O9  1  0.75240000  0.61800000  0.08510000  1.0 -0.5095811168
O  O10  1  0.77140000  0.50530000  0.13880000  1.0 -0.5718097816
O  O11  1  0.29080000  0.71530000  0.81980000  1.0 -0.4317953715
O  O12  1  0.42490000  0.71440000  0.80950000  1.0 -0.4317953715
O  O13  1  0.95640000  0.20030000  0.73990000  1.0 -0.5095811168
O  O14  1  0.99500000  0.34840000  0.79160000  1.0 -0.4993385255
O  O15  1  0.88370000  0.80220000  0.37620000  1.0 -0.5169631819
O  O16  1  0.83590000  0.82900000  0.24560000  1.0 -0.5095811168
O  O17  1  0.01730000  0.20420000  0.44620000  1.0 0.1812971503
O  O18  1  0.88120000  0.48380000  0.31830000  1.0 -0.4993385255
O  O19  1  0.90460000  0.63280000  0.35240000  1.0 -0.6193727235
O  O20  1  0.15720000  0.40770000  0.49230000  1.0 -0.5095811168
O  O21  1  0.29180000  0.51900000  0.61900000  1.0 -0.5718097816
O  O22  1  0.77510000  0.76540000  0.55410000  1.0 -0.4899848978
O  O23  1  0.65420000  0.69720000  0.41500000  1.0 -0.4899848978
O  O24  1  0.69550000  0.62800000  0.25740000  1.0 -0.5926436166
O  O25  1  0.58030000  0.47630000  0.18530000  1.0 -0.4993385255
O  O26  1  0.24760000  0.38200000  0.91490000  1.0 -0.5095811168
O  O27  1  0.22860000  0.49470000  0.86120000  1.0 -0.5718097816
O  O28  1  0.70920000  0.28470000  0.18020000  1.0 -0.4317953715
O  O29  1  0.57510000  0.28560000  0.19050000  1.0 -0.4317953715
O  O30  1  0.04360000  0.79970000  0.26010000  1.0 -0.5095811168
O  O31  1  0.00500000  0.65160000  0.20840000  1.0 -0.4993385255
O  O32  1  0.11630000  0.19780000  0.62380000  1.0 -0.5169631819
O  O33  1  0.16410000  0.17100000  0.75440000  1.0 -0.5095811168
O  O34  1  0.98270000  0.79580000  0.55380000  1.0 0.1812971503
