# DDEC6 charges by PACMAN v1.1 (https://github.com/mtap-research/PACMAN-charge/)
data_DUZXUU_ASR_pacman
_symmetry_space_group_name_H-M   'P 1'
_cell_length_a   13.14500000
_cell_length_b   13.01400000
_cell_length_c   16.35800000
_cell_angle_alpha   90.00000000
_cell_angle_beta   97.17200000
_cell_angle_gamma   90.00000000
_symmetry_Int_Tables_number   1
_chemical_formula_structural   Eu2H5C18NO14
_chemical_formula_sum   'Eu8 H20 C72 N4 O56'
_cell_volume   2776.45245479
_cell_formula_units_Z   4
loop_
 _symmetry_equiv_pos_site_id
 _symmetry_equiv_pos_as_xyz
  1  'x, y, z'
loop_
 _atom_site_type_symbol
 _atom_site_label
 _atom_site_symmetry_multiplicity
 _atom_site_fract_x
 _atom_site_fract_y
 _atom_site_fract_z
 _atom_site_occupancy
 _atom_site_charge
Eu  Eu1  1  0.80799000  0.69989000  0.56255000  1.0 2.0216908028
Eu  Eu2  1  0.49258000  0.87352000  0.76554000  1.0 1.937914448
Eu  Eu3  1  0.19201000  0.19989000  0.93745000  1.0 2.0216908028
Eu  Eu4  1  0.50742000  0.37352000  0.73446000  1.0 1.937914448
Eu  Eu5  1  0.19201000  0.30011000  0.43745000  1.0 2.0216908028
Eu  Eu6  1  0.50742000  0.12648000  0.23446000  1.0 1.937914448
Eu  Eu7  1  0.80799000  0.80011000  0.06255000  1.0 2.0216908028
Eu  Eu8  1  0.49258000  0.62648000  0.26554000  1.0 1.9034096768
H  H1  1  0.84520000  0.98790000  0.57800000  1.0 0.3564848473
H  H2  1  0.92350000  0.18980000  0.30360000  1.0 0.1279634108
H  H3  1  0.87460000  0.13390000  0.42490000  1.0 0.1185365042
H  H4  1  0.90410000  0.84280000  0.35230000  1.0 0.108770339
H  H5  1  0.95490000  0.90020000  0.23050000  1.0 0.1185365042
H  H6  1  0.15480000  0.48790000  0.92200000  1.0 0.3564848473
H  H7  1  0.07650000  0.68980000  0.19640000  1.0 0.1279634108
H  H8  1  0.12540000  0.63390000  0.07510000  1.0 0.1185365042
H  H9  1  0.09590000  0.34280000  0.14770000  1.0 0.108770339
H  H10  1  0.04510000  0.40020000  0.26950000  1.0 0.1185365042
H  H11  1  0.15480000  0.01210000  0.42200000  1.0 0.3564848473
H  H12  1  0.07650000  0.81020000  0.69640000  1.0 0.1279634108
H  H13  1  0.12540000  0.86610000  0.57510000  1.0 0.1185365042
H  H14  1  0.09590000  0.15720000  0.64770000  1.0 0.108770339
H  H15  1  0.04510000  0.09980000  0.76950000  1.0 0.1185365042
H  H16  1  0.84520000  0.51210000  0.07800000  1.0 0.3564848473
H  H17  1  0.92350000  0.31020000  0.80360000  1.0 0.1279634108
H  H18  1  0.87460000  0.36610000  0.92490000  1.0 0.1185365042
H  H19  1  0.90410000  0.65720000  0.85230000  1.0 0.108770339
H  H20  1  0.95490000  0.59980000  0.73050000  1.0 0.1185365042
C  C1  1  0.26450000  0.15320000  0.13240000  1.0 0.6130141785
C  C2  1  0.15190000  0.13590000  0.13000000  1.0 0.0900198092
C  C3  1  0.10190000  0.10990000  0.19640000  1.0 -0.0794358308
C  C4  1  0.15450000  0.11700000  0.28440000  1.0 0.6326979717
C  C5  1  0.99900000  0.08550000  0.18430000  1.0 0.065506058
C  C6  1  0.94710000  0.09080000  0.10540000  1.0 -0.1063503454
C  C7  1  0.00140000  0.12180000  0.04300000  1.0 0.108770339
C  C8  1  0.83430000  0.06800000  0.09150000  1.0 0.6326979717
C  C9  1  0.95500000  0.13830000  0.95340000  1.0 0.5326405166
C  C10  1  0.94990000  0.05040000  0.25620000  1.0 0.0558304974
C  C11  1  0.92160000  0.11970000  0.31430000  1.0 -0.1247839461
C  C12  1  0.89160000  0.08690000  0.38600000  1.0 -0.0913669335
C  C13  1  0.88650000  0.98190000  0.40090000  1.0 -0.0794358308
C  C14  1  0.90940000  0.91290000  0.34280000  1.0 -0.0913669335
C  C15  1  0.94040000  0.94730000  0.27030000  1.0 -0.1360979954
C  C16  1  0.86010000  0.94470000  0.48090000  1.0 0.5971661379
C  C17  1  0.61740000  0.82320000  0.61450000  1.0 0.5411299636
C  C18  1  0.61090000  0.72150000  0.65950000  1.0 0.5411299636
C  C19  1  0.73550000  0.65320000  0.36760000  1.0 0.6130141785
C  C20  1  0.84810000  0.63590000  0.37000000  1.0 0.0900198092
C  C21  1  0.89810000  0.60990000  0.30360000  1.0 -0.0794358308
C  C22  1  0.84550000  0.61700000  0.21560000  1.0 0.6326979717
C  C23  1  0.00100000  0.58550000  0.31570000  1.0 0.065506058
C  C24  1  0.05290000  0.59080000  0.39460000  1.0 -0.1063503454
C  C25  1  0.99860000  0.62180000  0.45700000  1.0 0.108770339
C  C26  1  0.16570000  0.56800000  0.40850000  1.0 0.6326979717
C  C27  1  0.04500000  0.63830000  0.54660000  1.0 0.5326405166
C  C28  1  0.05010000  0.55040000  0.24380000  1.0 0.0558304974
C  C29  1  0.07840000  0.61970000  0.18570000  1.0 -0.1247839461
C  C30  1  0.10840000  0.58690000  0.11400000  1.0 -0.0913669335
C  C31  1  0.11350000  0.48190000  0.09910000  1.0 -0.0794358308
C  C32  1  0.09060000  0.41290000  0.15720000  1.0 -0.0913669335
C  C33  1  0.05960000  0.44730000  0.22970000  1.0 -0.1360979954
C  C34  1  0.13990000  0.44470000  0.01910000  1.0 0.5971661379
C  C35  1  0.38260000  0.32320000  0.88550000  1.0 0.5326405166
C  C36  1  0.38910000  0.22150000  0.84050000  1.0 0.5411299636
C  C37  1  0.73550000  0.84680000  0.86760000  1.0 0.6130141785
C  C38  1  0.84810000  0.86410000  0.87000000  1.0 0.0900198092
C  C39  1  0.89810000  0.89010000  0.80360000  1.0 -0.0794358308
C  C40  1  0.84550000  0.88300000  0.71560000  1.0 0.6326979717
C  C41  1  0.00100000  0.91450000  0.81570000  1.0 0.065506058
C  C42  1  0.05290000  0.90920000  0.89460000  1.0 -0.1063503454
C  C43  1  0.99860000  0.87820000  0.95700000  1.0 0.108770339
C  C44  1  0.16570000  0.93200000  0.90850000  1.0 0.6326979717
C  C45  1  0.04500000  0.86170000  0.04660000  1.0 0.5326405166
C  C46  1  0.05010000  0.94960000  0.74380000  1.0 0.0558304974
C  C47  1  0.07840000  0.88030000  0.68570000  1.0 -0.1247839461
C  C48  1  0.10840000  0.91310000  0.61400000  1.0 -0.0913669335
C  C49  1  0.11350000  0.01810000  0.59910000  1.0 -0.0794358308
C  C50  1  0.09060000  0.08710000  0.65720000  1.0 -0.0913669335
C  C51  1  0.05960000  0.05270000  0.72970000  1.0 -0.1360979954
C  C52  1  0.13990000  0.05530000  0.51910000  1.0 0.5971661379
C  C53  1  0.38260000  0.17680000  0.38550000  1.0 0.5326405166
C  C54  1  0.38910000  0.27850000  0.34050000  1.0 0.5411299636
C  C55  1  0.26450000  0.34680000  0.63240000  1.0 0.6130141785
C  C56  1  0.15190000  0.36410000  0.63000000  1.0 0.0900198092
C  C57  1  0.10190000  0.39010000  0.69640000  1.0 -0.0794358308
C  C58  1  0.15450000  0.38300000  0.78440000  1.0 0.6326979717
C  C59  1  0.99900000  0.41450000  0.68430000  1.0 0.065506058
C  C60  1  0.94710000  0.40920000  0.60540000  1.0 -0.1063503454
C  C61  1  0.00140000  0.37820000  0.54300000  1.0 0.108770339
C  C62  1  0.83430000  0.43200000  0.59150000  1.0 0.6326979717
C  C63  1  0.95500000  0.36170000  0.45340000  1.0 0.5326405166
C  C64  1  0.94990000  0.44960000  0.75620000  1.0 0.0558304974
C  C65  1  0.92160000  0.38030000  0.81430000  1.0 -0.1247839461
C  C66  1  0.89160000  0.41310000  0.88600000  1.0 -0.0913669335
C  C67  1  0.88650000  0.51810000  0.90090000  1.0 -0.0794358308
C  C68  1  0.90940000  0.58710000  0.84280000  1.0 -0.0913669335
C  C69  1  0.94040000  0.55270000  0.77030000  1.0 -0.1360979954
C  C70  1  0.86010000  0.55530000  0.98090000  1.0 0.5971661379
C  C71  1  0.61740000  0.67680000  0.11450000  1.0 0.5326405166
C  C72  1  0.61090000  0.77850000  0.15950000  1.0 0.5411299636
N  N1  1  0.10000000  0.14060000  0.05460000  1.0 -0.3824254403
N  N2  1  0.90000000  0.64060000  0.44540000  1.0 -0.3824254403
N  N3  1  0.90000000  0.85940000  0.94540000  1.0 -0.3824254403
N  N4  1  0.10000000  0.35940000  0.55460000  1.0 -0.3824254403
O  O1  1  0.29310000  0.17670000  0.06520000  1.0 -0.6123340557
O  O2  1  0.32010000  0.14230000  0.19830000  1.0 -0.6007961611
O  O3  1  0.01500000  0.17180000  0.90640000  1.0 -0.6355390379
O  O4  1  0.86380000  0.11730000  0.93590000  1.0 -0.4804369862
O  O5  1  0.15700000  0.20560000  0.31560000  1.0 -0.6704957093
O  O6  1  0.18160000  0.03670000  0.32020000  1.0 -0.5015595088
O  O7  1  0.77670000  0.14030000  0.10020000  1.0 -0.4804369862
O  O8  1  0.80690000  0.97630000  0.07750000  1.0 -0.6704957093
O  O9  1  0.86280000  0.85050000  0.49710000  1.0 -0.6545992772
O  O10  1  0.83770000  0.01190000  0.53130000  1.0 -0.4166183377
O  O11  1  0.66890000  0.82680000  0.55680000  1.0 -0.553434653
O  O12  1  0.56510000  0.89540000  0.63940000  1.0 -0.618117539
O  O13  1  0.66900000  0.65140000  0.64010000  1.0 -0.5870457122
O  O14  1  0.54790000  0.71510000  0.70980000  1.0 -0.6123340557
O  O15  1  0.70690000  0.67670000  0.43480000  1.0 -0.6123340557
O  O16  1  0.67990000  0.64230000  0.30170000  1.0 -0.6007961611
O  O17  1  0.98500000  0.67180000  0.59360000  1.0 -0.6355390379
O  O18  1  0.13620000  0.61730000  0.56410000  1.0 -0.4804369862
O  O19  1  0.84300000  0.70560000  0.18440000  1.0 -0.6704957093
O  O20  1  0.81840000  0.53670000  0.17980000  1.0 -0.5015595088
O  O21  1  0.22330000  0.64030000  0.39980000  1.0 -0.4804369862
O  O22  1  0.19310000  0.47630000  0.42250000  1.0 -0.6704957093
O  O23  1  0.13720000  0.35050000  0.00290000  1.0 -0.6545992772
O  O24  1  0.16230000  0.51190000  0.96870000  1.0 -0.4166183377
O  O25  1  0.33110000  0.32680000  0.94320000  1.0 -0.553434653
O  O26  1  0.43490000  0.39540000  0.86060000  1.0 -0.618117539
O  O27  1  0.33100000  0.15140000  0.85990000  1.0 -0.5870457122
O  O28  1  0.45210000  0.21510000  0.79020000  1.0 -0.6123340557
O  O29  1  0.70690000  0.82330000  0.93480000  1.0 -0.618117539
O  O30  1  0.67990000  0.85770000  0.80170000  1.0 -0.6007961611
O  O31  1  0.98500000  0.82820000  0.09360000  1.0 -0.6355390379
O  O32  1  0.13620000  0.88270000  0.06410000  1.0 -0.4804369862
O  O33  1  0.84300000  0.79440000  0.68440000  1.0 -0.6704957093
O  O34  1  0.81840000  0.96330000  0.67980000  1.0 -0.5015595088
O  O35  1  0.22330000  0.85970000  0.89980000  1.0 -0.4804369862
O  O36  1  0.19310000  0.02370000  0.92250000  1.0 -0.6704957093
O  O37  1  0.13720000  0.14950000  0.50290000  1.0 -0.6545992772
O  O38  1  0.16230000  0.98810000  0.46870000  1.0 -0.4166183377
O  O39  1  0.33110000  0.17320000  0.44320000  1.0 -0.553434653
O  O40  1  0.43490000  0.10460000  0.36060000  1.0 -0.618117539
O  O41  1  0.33100000  0.34860000  0.35990000  1.0 -0.5870457122
O  O42  1  0.45210000  0.28490000  0.29020000  1.0 -0.6123340557
O  O43  1  0.29310000  0.32330000  0.56520000  1.0 -0.6123340557
O  O44  1  0.32010000  0.35770000  0.69830000  1.0 -0.6007961611
O  O45  1  0.01500000  0.32820000  0.40640000  1.0 -0.6355390379
O  O46  1  0.86380000  0.38270000  0.43590000  1.0 -0.4804369862
O  O47  1  0.15700000  0.29440000  0.81560000  1.0 -0.6704957093
O  O48  1  0.18160000  0.46330000  0.82020000  1.0 -0.5015595088
O  O49  1  0.77670000  0.35970000  0.60020000  1.0 -0.4804369862
O  O50  1  0.80690000  0.52370000  0.57750000  1.0 -0.6704957093
O  O51  1  0.86280000  0.64950000  0.99710000  1.0 -0.6545992772
O  O52  1  0.83770000  0.48810000  0.03130000  1.0 -0.4166183377
O  O53  1  0.66890000  0.67320000  0.05680000  1.0 -0.553434653
O  O54  1  0.56510000  0.60460000  0.13940000  1.0 -0.6123340557
O  O55  1  0.66900000  0.84860000  0.14010000  1.0 -0.5870457122
O  O56  1  0.54790000  0.78490000  0.20980000  1.0 -0.6123340557
