# DDEC6 charges by PACMAN v1.1 (https://github.com/mtap-research/PACMAN-charge/)
data_EBACIX_ASR_pacman
_symmetry_space_group_name_H-M   'P 1'
_cell_length_a   8.58073000
_cell_length_b   8.58073000
_cell_length_c   11.69260000
_cell_angle_alpha   78.57620000
_cell_angle_beta   101.42400000
_cell_angle_gamma   129.19100000
_symmetry_Int_Tables_number   1
_chemical_formula_structural   MnH10C26(N3F4)2
_chemical_formula_sum   'Mn1 H10 C26 N6 F8'
_cell_volume   651.00788146
_cell_formula_units_Z   1
loop_
 _symmetry_equiv_pos_site_id
 _symmetry_equiv_pos_as_xyz
  1  'x, y, z'
loop_
 _atom_site_type_symbol
 _atom_site_label
 _atom_site_symmetry_multiplicity
 _atom_site_fract_x
 _atom_site_fract_y
 _atom_site_fract_z
 _atom_site_occupancy
 _atom_site_charge
Mn  Mn1  1  0.00000000  0.00000000  0.00000000  1.0 0.8329860554
H  H1  1  0.81520000  0.18480000  0.83520000  1.0 0.1080008732
H  H2  1  0.66540000  0.33460000  0.82910000  1.0 0.125457196
H  H3  1  0.61360000  0.38640000  0.00260000  1.0 0.1206834898
H  H4  1  0.71930000  0.28070000  0.17860000  1.0 0.1363269971
H  H5  1  0.86960000  0.13040000  0.17830000  1.0 0.10405062
H  H6  1  0.18480000  0.81520000  0.16480000  1.0 0.1080008732
H  H7  1  0.33460000  0.66540000  0.17090000  1.0 0.125457196
H  H8  1  0.38640000  0.61360000  0.99740000  1.0 0.1206834898
H  H9  1  0.28070000  0.71930000  0.82140000  1.0 0.1363269971
H  H10  1  0.13040000  0.86960000  0.82170000  1.0 0.10405062
C  C1  1  0.63470000  0.68450000  0.80520000  1.0 0.2459290312
C  C2  1  0.60870000  0.67890000  0.54420000  1.0 0.0812706702
C  C3  1  0.67010000  0.62290000  0.56810000  1.0 0.0812706702
C  C4  1  0.68450000  0.63470000  0.19480000  1.0 0.2459290312
C  C5  1  0.67890000  0.60870000  0.45580000  1.0 0.0812706702
C  C6  1  0.62290000  0.67010000  0.43190000  1.0 0.0812706702
C  C7  1  0.36530000  0.31550000  0.19480000  1.0 0.2459290312
C  C8  1  0.39130000  0.32110000  0.45580000  1.0 0.0812706702
C  C9  1  0.32990000  0.37710000  0.43190000  1.0 0.0812706702
C  C10  1  0.31550000  0.36530000  0.80520000  1.0 0.2459290312
C  C11  1  0.32110000  0.39130000  0.54420000  1.0 0.0812706702
C  C12  1  0.37710000  0.32990000  0.56810000  1.0 0.0812706702
C  C13  1  0.79600000  0.20400000  0.90690000  1.0 0.088650702
C  C14  1  0.70610000  0.29390000  0.90290000  1.0 -0.1575694098
C  C15  1  0.67500000  0.32500000  0.00380000  1.0 -0.0278155128
C  C16  1  0.73740000  0.26260000  0.10600000  1.0 -0.140609832
C  C17  1  0.82760000  0.17240000  0.10570000  1.0 0.0812706702
C  C18  1  0.20400000  0.79600000  0.09310000  1.0 0.088650702
C  C19  1  0.29390000  0.70610000  0.09710000  1.0 -0.1575694098
C  C20  1  0.32500000  0.67500000  0.99620000  1.0 -0.0278155128
C  C21  1  0.26260000  0.73740000  0.89400000  1.0 -0.140609832
C  C22  1  0.17240000  0.82760000  0.89430000  1.0 0.0812706702
C  C23  1  0.47830000  0.52170000  0.74140000  1.0 -0.140609832
C  C24  1  0.48890000  0.51110000  0.62030000  1.0 -0.0734018101
C  C25  1  0.52170000  0.47830000  0.25860000  1.0 -0.140609832
C  C26  1  0.51110000  0.48890000  0.37970000  1.0 -0.0734018101
N  N1  1  0.76040000  0.81260000  0.86290000  1.0 -0.4225808992
N  N2  1  0.81260000  0.76040000  0.13710000  1.0 -0.4225808992
N  N3  1  0.23960000  0.18740000  0.13710000  1.0 -0.4225808992
N  N4  1  0.18740000  0.23960000  0.86290000  1.0 -0.4225808992
N  N5  1  0.85610000  0.14390000  0.00620000  1.0 -0.2348285331
N  N6  1  0.14390000  0.85610000  0.99380000  1.0 -0.2351663127
F  F1  1  0.71510000  0.86170000  0.58270000  1.0 -0.0961317695
F  F2  1  0.84190000  0.74450000  0.63340000  1.0 -0.0927225812
F  F3  1  0.86170000  0.71510000  0.41730000  1.0 -0.0961317695
F  F4  1  0.74450000  0.84190000  0.36660000  1.0 -0.0927225812
F  F5  1  0.28490000  0.13830000  0.41730000  1.0 -0.0961317695
F  F6  1  0.15810000  0.25550000  0.36660000  1.0 -0.0927225812
F  F7  1  0.13830000  0.28490000  0.58270000  1.0 -0.0961317695
F  F8  1  0.25550000  0.15810000  0.63340000  1.0 -0.0927225812
