# DDEC6 charges by PACMAN v1.1 (https://github.com/mtap-research/PACMAN-charge/)
data_EBADAQ_ASR_pacman
_symmetry_space_group_name_H-M   'P 1'
_cell_length_a   7.29500000
_cell_length_b   8.49300000
_cell_length_c   11.72200000
_cell_angle_alpha   105.61000000
_cell_angle_beta   88.28200000
_cell_angle_gamma   113.71000000
_symmetry_Int_Tables_number   1
_chemical_formula_structural   MnH10C22(N3F2)2
_chemical_formula_sum   'Mn1 H10 C22 N6 F4'
_cell_volume   637.90110347
_cell_formula_units_Z   1
loop_
 _symmetry_equiv_pos_site_id
 _symmetry_equiv_pos_as_xyz
  1  'x, y, z'
loop_
 _atom_site_type_symbol
 _atom_site_label
 _atom_site_symmetry_multiplicity
 _atom_site_fract_x
 _atom_site_fract_y
 _atom_site_fract_z
 _atom_site_occupancy
 _atom_site_charge
Mn  Mn1  1  0.50000000  0.00000000  0.00000000  1.0 0.8196066852
H  H1  1  0.70400000  0.38970000  0.15900000  1.0 0.1085455689
H  H2  1  0.61350000  0.23270000  0.81310000  1.0 0.1085455689
H  H3  1  0.87160000  0.76460000  0.98190000  1.0 0.1085455689
H  H4  1  0.74590000  0.52000000  0.80290000  1.0 0.1313894476
H  H5  1  0.85460000  0.68680000  0.16090000  1.0 0.1221337385
H  H6  1  0.29600000  0.61030000  0.84100000  1.0 0.1085455689
H  H7  1  0.38650000  0.76730000  0.18690000  1.0 0.1085455689
H  H8  1  0.12840000  0.23540000  0.01810000  1.0 0.1085455689
H  H9  1  0.25410000  0.48000000  0.19710000  1.0 0.1313894476
H  H10  1  0.14540000  0.31320000  0.83910000  1.0 0.1221337385
C  C1  1  0.86120000  0.06620000  0.20330000  1.0 0.2799872543
C  C2  1  0.00940000  0.03870000  0.38500000  1.0 -0.1037738052
C  C3  1  0.18550000  0.07540000  0.20000000  1.0 0.2799872543
C  C4  1  0.02030000  0.06900000  0.26610000  1.0 -0.1842183684
C  C5  1  0.71500000  0.41760000  0.08520000  1.0 0.0825084756
C  C6  1  0.17600000  0.07940000  0.45860000  1.0 0.0989650126
C  C7  1  0.66050000  0.32690000  0.88510000  1.0 0.0644039559
C  C8  1  0.81600000  0.64300000  0.98370000  1.0 -0.0265346756
C  C9  1  0.74000000  0.49700000  0.87830000  1.0 -0.1414861892
C  C10  1  0.82720000  0.95530000  0.43420000  1.0 0.1221337385
C  C11  1  0.80300000  0.59700000  0.08740000  1.0 -0.1414861892
C  C12  1  0.13880000  0.93380000  0.79670000  1.0 0.2799872543
C  C13  1  0.99060000  0.96130000  0.61500000  1.0 -0.1037738052
C  C14  1  0.81450000  0.92460000  0.80000000  1.0 0.2799872543
C  C15  1  0.97970000  0.93100000  0.73390000  1.0 -0.1842183684
C  C16  1  0.28500000  0.58240000  0.91480000  1.0 0.0825084756
C  C17  1  0.82400000  0.92060000  0.54140000  1.0 0.0989650126
C  C18  1  0.33950000  0.67310000  0.11490000  1.0 0.0644039559
C  C19  1  0.18400000  0.35700000  0.01630000  1.0 -0.0265346756
C  C20  1  0.26000000  0.50300000  0.12170000  1.0 -0.1414861892
C  C21  1  0.17280000  0.04470000  0.56580000  1.0 0.1221337385
C  C22  1  0.19700000  0.40300000  0.91260000  1.0 -0.1414861892
N  N1  1  0.31270000  0.07800000  0.14040000  1.0 -0.4232503538
N  N2  1  0.64400000  0.28350000  0.98730000  1.0 -0.2261286144
N  N3  1  0.73210000  0.06310000  0.14490000  1.0 -0.4467207705
N  N4  1  0.68730000  0.92200000  0.85960000  1.0 -0.4232503538
N  N5  1  0.35600000  0.71650000  0.01270000  1.0 -0.2261286144
N  N6  1  0.26790000  0.93690000  0.85510000  1.0 -0.4467207705
F  F1  1  0.65420000  0.90430000  0.37090000  1.0 -0.1116749801
F  F2  1  0.35930000  0.15920000  0.42040000  1.0 -0.1116749801
F  F3  1  0.34580000  0.09570000  0.62910000  1.0 -0.1116749801
F  F4  1  0.64070000  0.84080000  0.57960000  1.0 -0.1116749801
