# DDEC6 charges by PACMAN v1.1 (https://github.com/mtap-research/PACMAN-charge/)
data_EBAMUS_ASR_pacman
_symmetry_space_group_name_H-M   'P 1'
_cell_length_a   18.61740000
_cell_length_b   18.61740000
_cell_length_c   18.61740000
_cell_angle_alpha   60.00000000
_cell_angle_beta   60.00000000
_cell_angle_gamma   60.00000000
_symmetry_Int_Tables_number   1
_chemical_formula_structural   CuH2C6(O2F)2
_chemical_formula_sum   'Cu12 H24 C72 O48 F24'
_cell_volume   4562.91198371
_cell_formula_units_Z   12
loop_
 _symmetry_equiv_pos_site_id
 _symmetry_equiv_pos_as_xyz
  1  'x, y, z'
loop_
 _atom_site_type_symbol
 _atom_site_label
 _atom_site_symmetry_multiplicity
 _atom_site_fract_x
 _atom_site_fract_y
 _atom_site_fract_z
 _atom_site_occupancy
 _atom_site_charge
Cu  Cu1  1  0.42878000  0.00000000  0.00000000  1.0 0.8259097084
Cu  Cu2  1  0.42878000  0.00000000  0.57122000  1.0 0.8259097084
Cu  Cu3  1  0.00000000  0.42878000  0.57122000  1.0 0.8259097084
Cu  Cu4  1  0.00000000  0.42878000  0.00000000  1.0 0.8259097084
Cu  Cu5  1  0.57122000  0.00000000  0.00000000  1.0 0.8259097084
Cu  Cu6  1  0.00000000  0.57122000  0.42878000  1.0 0.8259097084
Cu  Cu7  1  0.00000000  0.00000000  0.42878000  1.0 0.8259097084
Cu  Cu8  1  0.42878000  0.57122000  0.00000000  1.0 0.8259097084
Cu  Cu9  1  0.00000000  0.00000000  0.57122000  1.0 0.8259097084
Cu  Cu10  1  0.57122000  0.00000000  0.42878000  1.0 0.8259097084
Cu  Cu11  1  0.00000000  0.57122000  0.00000000  1.0 0.8259097084
Cu  Cu12  1  0.57122000  0.42878000  0.00000000  1.0 0.8259097084
H  H1  1  0.48920000  0.96720000  0.27180000  1.0 0.2261110178
H  H2  1  0.72820000  0.72820000  0.51080000  1.0 0.2261110178
H  H3  1  0.96720000  0.48920000  0.27180000  1.0 0.2261110178
H  H4  1  0.72820000  0.72820000  0.03280000  1.0 0.2261110178
H  H5  1  0.03280000  0.72820000  0.51080000  1.0 0.2261110178
H  H6  1  0.27180000  0.27180000  0.96720000  1.0 0.2261110178
H  H7  1  0.72820000  0.51080000  0.72820000  1.0 0.2261110178
H  H8  1  0.03280000  0.72820000  0.72820000  1.0 0.2261110178
H  H9  1  0.27180000  0.27180000  0.48920000  1.0 0.2261110178
H  H10  1  0.72820000  0.51080000  0.03280000  1.0 0.2261110178
H  H11  1  0.27180000  0.48920000  0.96720000  1.0 0.2261110178
H  H12  1  0.96720000  0.27180000  0.48920000  1.0 0.2261110178
H  H13  1  0.27180000  0.96720000  0.27180000  1.0 0.2261110178
H  H14  1  0.27180000  0.96720000  0.48920000  1.0 0.2261110178
H  H15  1  0.48920000  0.27180000  0.96720000  1.0 0.2261110178
H  H16  1  0.48920000  0.27180000  0.27180000  1.0 0.2261110178
H  H17  1  0.96720000  0.27180000  0.27180000  1.0 0.2261110178
H  H18  1  0.27180000  0.48920000  0.27180000  1.0 0.2261110178
H  H19  1  0.51080000  0.03280000  0.72820000  1.0 0.2261110178
H  H20  1  0.03280000  0.51080000  0.72820000  1.0 0.2261110178
H  H21  1  0.72820000  0.03280000  0.72820000  1.0 0.2261110178
H  H22  1  0.51080000  0.72820000  0.03280000  1.0 0.2261110178
H  H23  1  0.51080000  0.72820000  0.72820000  1.0 0.2261110178
H  H24  1  0.72820000  0.03280000  0.51080000  1.0 0.2261110178
C  C1  1  0.43111000  0.97593000  0.16185000  1.0 0.5758467609
C  C2  1  0.56889000  0.83815000  0.56889000  1.0 0.5758467609
C  C3  1  0.97593000  0.43111000  0.43111000  1.0 0.5758467609
C  C4  1  0.83815000  0.56889000  0.02407000  1.0 0.5758467609
C  C5  1  0.02407000  0.56889000  0.56889000  1.0 0.5758467609
C  C6  1  0.43111000  0.16185000  0.97593000  1.0 0.5758467609
C  C7  1  0.83815000  0.56889000  0.56889000  1.0 0.5758467609
C  C8  1  0.02407000  0.83815000  0.56889000  1.0 0.5758467609
C  C9  1  0.16185000  0.43111000  0.43111000  1.0 0.5758467609
C  C10  1  0.56889000  0.56889000  0.02407000  1.0 0.5758467609
C  C11  1  0.16185000  0.43111000  0.97593000  1.0 0.5758467609
C  C12  1  0.97593000  0.16185000  0.43111000  1.0 0.5758467609
C  C13  1  0.16185000  0.97593000  0.43111000  1.0 0.5758467609
C  C14  1  0.43111000  0.97593000  0.43111000  1.0 0.5758467609
C  C15  1  0.43111000  0.43111000  0.97593000  1.0 0.5758467609
C  C16  1  0.43111000  0.16185000  0.43111000  1.0 0.5758467609
C  C17  1  0.97593000  0.43111000  0.16185000  1.0 0.5758467609
C  C18  1  0.43111000  0.43111000  0.16185000  1.0 0.5758467609
C  C19  1  0.56889000  0.02407000  0.56889000  1.0 0.5738109642
C  C20  1  0.02407000  0.56889000  0.83815000  1.0 0.5758467609
C  C21  1  0.56889000  0.02407000  0.83815000  1.0 0.5758467609
C  C22  1  0.56889000  0.83815000  0.02407000  1.0 0.5758467609
C  C23  1  0.56889000  0.56889000  0.83815000  1.0 0.5758467609
C  C24  1  0.83815000  0.02407000  0.56889000  1.0 0.5738109642
C  C25  1  0.38743000  0.96943000  0.25571000  1.0 -0.2075752231
C  C26  1  0.61257000  0.74429000  0.61257000  1.0 -0.2075752231
C  C27  1  0.96943000  0.38743000  0.38743000  1.0 -0.2075752231
C  C28  1  0.74429000  0.61257000  0.03057000  1.0 -0.2075752231
C  C29  1  0.03057000  0.61257000  0.61257000  1.0 -0.2075752231
C  C30  1  0.38743000  0.25571000  0.96943000  1.0 -0.2075752231
C  C31  1  0.74429000  0.61257000  0.61257000  1.0 -0.2075752231
C  C32  1  0.03057000  0.74429000  0.61257000  1.0 -0.2075752231
C  C33  1  0.25571000  0.38743000  0.38743000  1.0 -0.2075752231
C  C34  1  0.61257000  0.61257000  0.03057000  1.0 -0.2075752231
C  C35  1  0.25571000  0.38743000  0.96943000  1.0 -0.2075752231
C  C36  1  0.96943000  0.25571000  0.38743000  1.0 -0.2075752231
C  C37  1  0.25571000  0.96943000  0.38743000  1.0 -0.2075752231
C  C38  1  0.38743000  0.96943000  0.38743000  1.0 -0.2075752231
C  C39  1  0.38743000  0.38743000  0.96943000  1.0 -0.2075752231
C  C40  1  0.38743000  0.25571000  0.38743000  1.0 -0.2075752231
C  C41  1  0.96943000  0.38743000  0.25571000  1.0 -0.2075752231
C  C42  1  0.38743000  0.38743000  0.25571000  1.0 -0.2075752231
C  C43  1  0.61257000  0.03057000  0.61257000  1.0 -0.2075752231
C  C44  1  0.03057000  0.61257000  0.74429000  1.0 -0.2075752231
C  C45  1  0.61257000  0.03057000  0.74429000  1.0 -0.2075752231
C  C46  1  0.61257000  0.74429000  0.03057000  1.0 -0.2075752231
C  C47  1  0.61257000  0.61257000  0.74429000  1.0 -0.2075752231
C  C48  1  0.74429000  0.03057000  0.61257000  1.0 -0.2075752231
C  C49  1  0.42989000  0.96849000  0.30081000  1.0 0.0947214645
C  C50  1  0.69919000  0.69919000  0.57011000  1.0 0.0947214645
C  C51  1  0.96849000  0.42989000  0.30081000  1.0 0.0947214645
C  C52  1  0.69919000  0.69919000  0.03151000  1.0 0.0947214645
C  C53  1  0.03151000  0.69919000  0.57011000  1.0 0.0947214645
C  C54  1  0.30081000  0.30081000  0.96849000  1.0 0.0947214645
C  C55  1  0.69919000  0.57011000  0.69919000  1.0 0.0947214645
C  C56  1  0.03151000  0.69919000  0.69919000  1.0 0.0947214645
C  C57  1  0.30081000  0.30081000  0.42989000  1.0 0.0947214645
C  C58  1  0.69919000  0.57011000  0.03151000  1.0 0.0947214645
C  C59  1  0.30081000  0.42989000  0.96849000  1.0 0.0947214645
C  C60  1  0.96849000  0.30081000  0.42989000  1.0 0.0947214645
C  C61  1  0.30081000  0.96849000  0.30081000  1.0 0.0947214645
C  C62  1  0.30081000  0.96849000  0.42989000  1.0 0.0947214645
C  C63  1  0.42989000  0.30081000  0.96849000  1.0 0.0947214645
C  C64  1  0.42989000  0.30081000  0.30081000  1.0 0.0947214645
C  C65  1  0.96849000  0.30081000  0.30081000  1.0 0.0947214645
C  C66  1  0.30081000  0.42989000  0.30081000  1.0 0.0947214645
C  C67  1  0.57011000  0.03151000  0.69919000  1.0 0.0947214645
C  C68  1  0.03151000  0.57011000  0.69919000  1.0 0.0947214645
C  C69  1  0.69919000  0.03151000  0.69919000  1.0 0.0947214645
C  C70  1  0.57011000  0.69919000  0.03151000  1.0 0.0947214645
C  C71  1  0.57011000  0.69919000  0.69919000  1.0 0.0947214645
C  C72  1  0.69919000  0.03151000  0.57011000  1.0 0.0947214645
O  O1  1  0.38764000  0.97902000  0.12588000  1.0 -0.4863697818
O  O2  1  0.49254000  0.87412000  0.61236000  1.0 -0.4863697818
O  O3  1  0.97902000  0.38764000  0.50746000  1.0 -0.4863697818
O  O4  1  0.87412000  0.49254000  0.02098000  1.0 -0.4863697818
O  O5  1  0.02098000  0.49254000  0.61236000  1.0 -0.4863697818
O  O6  1  0.50746000  0.12588000  0.97902000  1.0 -0.4863697818
O  O7  1  0.87412000  0.61236000  0.49254000  1.0 -0.4863697818
O  O8  1  0.02098000  0.87412000  0.49254000  1.0 -0.4863697818
O  O9  1  0.12588000  0.50746000  0.38764000  1.0 -0.4863697818
O  O10  1  0.49254000  0.61236000  0.02098000  1.0 -0.4863697818
O  O11  1  0.12588000  0.38764000  0.97902000  1.0 -0.4863697818
O  O12  1  0.97902000  0.12588000  0.38764000  1.0 -0.4863697818
O  O13  1  0.12588000  0.97902000  0.50746000  1.0 -0.4863697818
O  O14  1  0.50746000  0.97902000  0.38764000  1.0 -0.4863697818
O  O15  1  0.38764000  0.50746000  0.97902000  1.0 -0.4863697818
O  O16  1  0.38764000  0.12588000  0.50746000  1.0 -0.4863697818
O  O17  1  0.97902000  0.50746000  0.12588000  1.0 -0.4863697818
O  O18  1  0.50746000  0.38764000  0.12588000  1.0 -0.4863697818
O  O19  1  0.61236000  0.02098000  0.49254000  1.0 -0.4863697818
O  O20  1  0.02098000  0.61236000  0.87412000  1.0 -0.4863697818
O  O21  1  0.49254000  0.02098000  0.87412000  1.0 -0.4863697818
O  O22  1  0.61236000  0.87412000  0.02098000  1.0 -0.4863697818
O  O23  1  0.61236000  0.49254000  0.87412000  1.0 -0.4863697818
O  O24  1  0.87412000  0.02098000  0.61236000  1.0 -0.4863697818
O  O25  1  0.61236000  0.02098000  0.87412000  1.0 -0.4863697818
O  O26  1  0.50746000  0.12588000  0.38764000  1.0 -0.4863697818
O  O27  1  0.02098000  0.61236000  0.49254000  1.0 -0.4863697818
O  O28  1  0.12588000  0.50746000  0.97902000  1.0 -0.4863697818
O  O29  1  0.97902000  0.50746000  0.38764000  1.0 -0.4863697818
O  O30  1  0.49254000  0.87412000  0.02098000  1.0 -0.4863697818
O  O31  1  0.12588000  0.38764000  0.50746000  1.0 -0.4863697818
O  O32  1  0.97902000  0.12588000  0.50746000  1.0 -0.4863697818
O  O33  1  0.87412000  0.49254000  0.61236000  1.0 -0.4863697818
O  O34  1  0.50746000  0.38764000  0.97902000  1.0 -0.4863697818
O  O35  1  0.87412000  0.61236000  0.02098000  1.0 -0.4863697818
O  O36  1  0.02098000  0.87412000  0.61236000  1.0 -0.4863697818
O  O37  1  0.87412000  0.02098000  0.49254000  1.0 -0.4863697818
O  O38  1  0.49254000  0.02098000  0.61236000  1.0 -0.4863697818
O  O39  1  0.61236000  0.49254000  0.02098000  1.0 -0.4863697818
O  O40  1  0.61236000  0.87412000  0.49254000  1.0 -0.4863697818
O  O41  1  0.02098000  0.49254000  0.87412000  1.0 -0.4863697818
O  O42  1  0.49254000  0.61236000  0.87412000  1.0 -0.4863697818
O  O43  1  0.38764000  0.97902000  0.50746000  1.0 -0.4863697818
O  O44  1  0.97902000  0.38764000  0.12588000  1.0 -0.4863697818
O  O45  1  0.50746000  0.97902000  0.12588000  1.0 -0.4863697818
O  O46  1  0.38764000  0.12588000  0.97902000  1.0 -0.4863697818
O  O47  1  0.38764000  0.50746000  0.12588000  1.0 -0.4863697818
O  O48  1  0.12588000  0.97902000  0.38764000  1.0 -0.4863697818
F  F1  1  0.51950000  0.96590000  0.25730000  1.0 -0.129149661
F  F2  1  0.74270000  0.74270000  0.48050000  1.0 -0.129149661
F  F3  1  0.96590000  0.51950000  0.25730000  1.0 -0.129149661
F  F4  1  0.74270000  0.74270000  0.03410000  1.0 -0.129149661
F  F5  1  0.03410000  0.74270000  0.48050000  1.0 -0.129149661
F  F6  1  0.25730000  0.25730000  0.96590000  1.0 -0.129149661
F  F7  1  0.74270000  0.48050000  0.74270000  1.0 -0.129149661
F  F8  1  0.03410000  0.74270000  0.74270000  1.0 -0.129149661
F  F9  1  0.25730000  0.25730000  0.51950000  1.0 -0.129149661
F  F10  1  0.74270000  0.48050000  0.03410000  1.0 -0.129149661
F  F11  1  0.25730000  0.51950000  0.96590000  1.0 -0.129149661
F  F12  1  0.96590000  0.25730000  0.51950000  1.0 -0.129149661
F  F13  1  0.25730000  0.96590000  0.25730000  1.0 -0.129149661
F  F14  1  0.25730000  0.96590000  0.51950000  1.0 -0.129149661
F  F15  1  0.51950000  0.25730000  0.96590000  1.0 -0.129149661
F  F16  1  0.51950000  0.25730000  0.25730000  1.0 -0.129149661
F  F17  1  0.96590000  0.25730000  0.25730000  1.0 -0.129149661
F  F18  1  0.25730000  0.51950000  0.25730000  1.0 -0.129149661
F  F19  1  0.48050000  0.03410000  0.74270000  1.0 -0.129149661
F  F20  1  0.03410000  0.48050000  0.74270000  1.0 -0.129149661
F  F21  1  0.74270000  0.03410000  0.74270000  1.0 -0.129149661
F  F22  1  0.48050000  0.74270000  0.03410000  1.0 -0.129149661
F  F23  1  0.48050000  0.74270000  0.74270000  1.0 -0.129149661
F  F24  1  0.74270000  0.03410000  0.48050000  1.0 -0.129149661
