# DDEC6 charges by PACMAN v1.1 (https://github.com/mtap-research/PACMAN-charge/)
data_EBATUZ_ASR_pacman
_symmetry_space_group_name_H-M   'P 1'
_cell_length_a   19.71950000
_cell_length_b   19.71950000
_cell_length_c   19.71950000
_cell_angle_alpha   56.92750000
_cell_angle_beta   56.92750000
_cell_angle_gamma   56.92750000
_symmetry_Int_Tables_number   1
_chemical_formula_structural   CuH6(C7O2)2
_chemical_formula_sum   'Cu6 H36 C84 O24'
_cell_volume   5037.89508121
_cell_formula_units_Z   6
loop_
 _symmetry_equiv_pos_site_id
 _symmetry_equiv_pos_as_xyz
  1  'x, y, z'
loop_
 _atom_site_type_symbol
 _atom_site_label
 _atom_site_symmetry_multiplicity
 _atom_site_fract_x
 _atom_site_fract_y
 _atom_site_fract_z
 _atom_site_occupancy
 _atom_site_charge
Cu  Cu1  1  0.00064000  0.43170000  0.00064000  1.0 0.8622424276
Cu  Cu2  1  0.43170000  0.00064000  0.00064000  1.0 0.8622424276
Cu  Cu3  1  0.00064000  0.00064000  0.43170000  1.0 0.8622424276
Cu  Cu4  1  0.99936000  0.99936000  0.56830000  1.0 0.8622424276
Cu  Cu5  1  0.56830000  0.99936000  0.99936000  1.0 0.8622424276
Cu  Cu6  1  0.99936000  0.56830000  0.99936000  1.0 0.8622424276
H  H1  1  0.27305000  0.27305000  0.96090000  1.0 0.1440993817
H  H2  1  0.27305000  0.96090000  0.27305000  1.0 0.1440993817
H  H3  1  0.96090000  0.27305000  0.27305000  1.0 0.1440993817
H  H4  1  0.72695000  0.03910000  0.72695000  1.0 0.1440993817
H  H5  1  0.72695000  0.72695000  0.03910000  1.0 0.1440993817
H  H6  1  0.03910000  0.72695000  0.72695000  1.0 0.1440993817
H  H7  1  0.26010000  0.47490000  0.97360000  1.0 0.1333503877
H  H8  1  0.47490000  0.97360000  0.26010000  1.0 0.1333503877
H  H9  1  0.97360000  0.26010000  0.47490000  1.0 0.1333503877
H  H10  1  0.73990000  0.02640000  0.52510000  1.0 0.1333503877
H  H11  1  0.52510000  0.73990000  0.02640000  1.0 0.1333503877
H  H12  1  0.02640000  0.52510000  0.73990000  1.0 0.1333503877
H  H13  1  0.73990000  0.52510000  0.02640000  1.0 0.1333503877
H  H14  1  0.52510000  0.02640000  0.73990000  1.0 0.1333503877
H  H15  1  0.02640000  0.73990000  0.52510000  1.0 0.1333503877
H  H16  1  0.26010000  0.97360000  0.47490000  1.0 0.1333503877
H  H17  1  0.47490000  0.26010000  0.97360000  1.0 0.1333503877
H  H18  1  0.97360000  0.47490000  0.26010000  1.0 0.1333503877
H  H19  1  0.52120000  0.32270000  0.98650000  1.0 0.1167807948
H  H20  1  0.32270000  0.98650000  0.52120000  1.0 0.1167807948
H  H21  1  0.98650000  0.52120000  0.32270000  1.0 0.1167807948
H  H22  1  0.47880000  0.01350000  0.67730000  1.0 0.1167807948
H  H23  1  0.67730000  0.47880000  0.01350000  1.0 0.1167807948
H  H24  1  0.01350000  0.67730000  0.47880000  1.0 0.1167807948
H  H25  1  0.47880000  0.67730000  0.01350000  1.0 0.1167807948
H  H26  1  0.67730000  0.01350000  0.47880000  1.0 0.1167807948
H  H27  1  0.01350000  0.47880000  0.67730000  1.0 0.1167807948
H  H28  1  0.52120000  0.98650000  0.32270000  1.0 0.1167807948
H  H29  1  0.32270000  0.52120000  0.98650000  1.0 0.1167807948
H  H30  1  0.98650000  0.32270000  0.52120000  1.0 0.1167807948
H  H31  1  0.62285000  0.37715000  0.00000000  1.0 0.1333503877
H  H32  1  0.37715000  0.00000000  0.62285000  1.0 0.1333503877
H  H33  1  0.00000000  0.62285000  0.37715000  1.0 0.1333503877
H  H34  1  0.37715000  0.62285000  0.00000000  1.0 0.1333503877
H  H35  1  0.62285000  0.00000000  0.37715000  1.0 0.1333503877
H  H36  1  0.00000000  0.37715000  0.62285000  1.0 0.1333503877
C  C1  1  0.16008000  0.42638000  0.97328000  1.0 0.5806260676
C  C2  1  0.42638000  0.97328000  0.16008000  1.0 0.5806260676
C  C3  1  0.97328000  0.16008000  0.42638000  1.0 0.5806260676
C  C4  1  0.83992000  0.02672000  0.57362000  1.0 0.5806260676
C  C5  1  0.57362000  0.83992000  0.02672000  1.0 0.5806260676
C  C6  1  0.02672000  0.57362000  0.83992000  1.0 0.5806260676
C  C7  1  0.83992000  0.57362000  0.02672000  1.0 0.5806260676
C  C8  1  0.57362000  0.02672000  0.83992000  1.0 0.5806260676
C  C9  1  0.02672000  0.83992000  0.57362000  1.0 0.5806260676
C  C10  1  0.16008000  0.97328000  0.42638000  1.0 0.5806260676
C  C11  1  0.42638000  0.16008000  0.97328000  1.0 0.5806260676
C  C12  1  0.97328000  0.42638000  0.16008000  1.0 0.5806260676
C  C13  1  0.25093000  0.38033000  0.96853000  1.0 -0.0225214524
C  C14  1  0.38033000  0.96853000  0.25093000  1.0 -0.0225214524
C  C15  1  0.96853000  0.25093000  0.38033000  1.0 -0.0225214524
C  C16  1  0.74907000  0.03147000  0.61967000  1.0 -0.0225214524
C  C17  1  0.61967000  0.74907000  0.03147000  1.0 -0.0225214524
C  C18  1  0.03147000  0.61967000  0.74907000  1.0 -0.0225214524
C  C19  1  0.74907000  0.61967000  0.03147000  1.0 -0.0225214524
C  C20  1  0.61967000  0.03147000  0.74907000  1.0 -0.0225214524
C  C21  1  0.03147000  0.74907000  0.61967000  1.0 -0.0225214524
C  C22  1  0.25093000  0.96853000  0.38033000  1.0 -0.0225214524
C  C23  1  0.38033000  0.25093000  0.96853000  1.0 -0.0225214524
C  C24  1  0.96853000  0.38033000  0.25093000  1.0 -0.0225214524
C  C25  1  0.29825000  0.29825000  0.96540000  1.0 -0.0946064322
C  C26  1  0.29825000  0.96540000  0.29825000  1.0 -0.0954342662
C  C27  1  0.96540000  0.29825000  0.29825000  1.0 -0.0946064322
C  C28  1  0.70175000  0.03460000  0.70175000  1.0 -0.0946064322
C  C29  1  0.70175000  0.70175000  0.03460000  1.0 -0.0954342662
C  C30  1  0.03460000  0.70175000  0.70175000  1.0 -0.0946064322
C  C31  1  0.28994000  0.41944000  0.97144000  1.0 -0.1330808877
C  C32  1  0.41944000  0.97144000  0.28994000  1.0 -0.1330808877
C  C33  1  0.97144000  0.28994000  0.41944000  1.0 -0.1330808877
C  C34  1  0.71006000  0.02856000  0.58056000  1.0 -0.1330808877
C  C35  1  0.58056000  0.71006000  0.02856000  1.0 -0.1330808877
C  C36  1  0.02856000  0.58056000  0.71006000  1.0 -0.1330808877
C  C37  1  0.71006000  0.58056000  0.02856000  1.0 -0.1330808877
C  C38  1  0.58056000  0.02856000  0.71006000  1.0 -0.1330808877
C  C39  1  0.02856000  0.71006000  0.58056000  1.0 -0.1330808877
C  C40  1  0.28994000  0.97144000  0.41944000  1.0 -0.1330808877
C  C41  1  0.41944000  0.28994000  0.97144000  1.0 -0.1330808877
C  C42  1  0.97144000  0.41944000  0.28994000  1.0 -0.1330808877
C  C43  1  0.37415000  0.37415000  0.97110000  1.0 0.1167807948
C  C44  1  0.37415000  0.97110000  0.37415000  1.0 0.1167807948
C  C45  1  0.97110000  0.37415000  0.37415000  1.0 0.1167807948
C  C46  1  0.62585000  0.02890000  0.62585000  1.0 0.1167807948
C  C47  1  0.62585000  0.62585000  0.02890000  1.0 0.1167807948
C  C48  1  0.02890000  0.62585000  0.62585000  1.0 0.1167807948
C  C49  1  0.41820000  0.41820000  0.97510000  1.0 -0.0057844557
C  C50  1  0.41820000  0.97510000  0.41820000  1.0 -0.0057844557
C  C51  1  0.97510000  0.41820000  0.41820000  1.0 -0.0057844557
C  C52  1  0.58180000  0.02490000  0.58180000  1.0 -0.0057844557
C  C53  1  0.58180000  0.58180000  0.02490000  1.0 -0.0057844557
C  C54  1  0.02490000  0.58180000  0.58180000  1.0 -0.0057844557
C  C55  1  0.48672000  0.37972000  0.98352000  1.0 -0.1509335256
C  C56  1  0.37972000  0.98352000  0.48672000  1.0 -0.1509335256
C  C57  1  0.98352000  0.48672000  0.37972000  1.0 -0.1509335256
C  C58  1  0.51328000  0.01648000  0.62028000  1.0 -0.1509335256
C  C59  1  0.62028000  0.51328000  0.01648000  1.0 -0.1509335256
C  C60  1  0.01648000  0.62028000  0.51328000  1.0 -0.1509335256
C  C61  1  0.51328000  0.62028000  0.01648000  1.0 -0.1509335256
C  C62  1  0.62028000  0.01648000  0.51328000  1.0 -0.1509335256
C  C63  1  0.01648000  0.51328000  0.62028000  1.0 -0.1509335256
C  C64  1  0.48672000  0.98352000  0.37972000  1.0 -0.1509335256
C  C65  1  0.37972000  0.48672000  0.98352000  1.0 -0.1509335256
C  C66  1  0.98352000  0.37972000  0.48672000  1.0 -0.1509335256
C  C67  1  0.50677000  0.43487000  0.98797000  1.0 0.0204480457
C  C68  1  0.43487000  0.98797000  0.50677000  1.0 0.0204480457
C  C69  1  0.98797000  0.50677000  0.43487000  1.0 0.0204480457
C  C70  1  0.49323000  0.01203000  0.56513000  1.0 0.0204480457
C  C71  1  0.56513000  0.49323000  0.01203000  1.0 0.0204480457
C  C72  1  0.01203000  0.56513000  0.49323000  1.0 0.0204480457
C  C73  1  0.49323000  0.56513000  0.01203000  1.0 0.0204480457
C  C74  1  0.56513000  0.01203000  0.49323000  1.0 0.0204480457
C  C75  1  0.01203000  0.49323000  0.56513000  1.0 0.0204480457
C  C76  1  0.50677000  0.98797000  0.43487000  1.0 0.0204480457
C  C77  1  0.43487000  0.50677000  0.98797000  1.0 0.0204480457
C  C78  1  0.98797000  0.43487000  0.50677000  1.0 0.0204480457
C  C79  1  0.57345000  0.42655000  0.00000000  1.0 -0.2161176954
C  C80  1  0.42655000  0.00000000  0.57345000  1.0 -0.2161176954
C  C81  1  0.00000000  0.57345000  0.42655000  1.0 -0.2161176954
C  C82  1  0.42655000  0.57345000  0.00000000  1.0 -0.2161176954
C  C83  1  0.57345000  0.00000000  0.42655000  1.0 -0.2161176954
C  C84  1  0.00000000  0.42655000  0.57345000  1.0 -0.2161176954
O  O1  1  0.12391000  0.49911000  0.97851000  1.0 -0.5011022268
O  O2  1  0.49911000  0.97851000  0.12391000  1.0 -0.5011022268
O  O3  1  0.97851000  0.12391000  0.49911000  1.0 -0.5011022268
O  O4  1  0.87609000  0.02149000  0.50089000  1.0 -0.5011022268
O  O5  1  0.50089000  0.87609000  0.02149000  1.0 -0.5011022268
O  O6  1  0.02149000  0.50089000  0.87609000  1.0 -0.5011022268
O  O7  1  0.87609000  0.50089000  0.02149000  1.0 -0.5011022268
O  O8  1  0.50089000  0.02149000  0.87609000  1.0 -0.5011022268
O  O9  1  0.02149000  0.87609000  0.50089000  1.0 -0.5011022268
O  O10  1  0.12391000  0.97851000  0.49911000  1.0 -0.5011022268
O  O11  1  0.49911000  0.12391000  0.97851000  1.0 -0.5011022268
O  O12  1  0.97851000  0.49911000  0.12391000  1.0 -0.5011022268
O  O13  1  0.12373000  0.38623000  0.97823000  1.0 -0.5134114354
O  O14  1  0.38623000  0.97823000  0.12373000  1.0 -0.5134114354
O  O15  1  0.97823000  0.12373000  0.38623000  1.0 -0.5134114354
O  O16  1  0.87627000  0.02177000  0.61377000  1.0 -0.5134114354
O  O17  1  0.61377000  0.87627000  0.02177000  1.0 -0.5134114354
O  O18  1  0.02177000  0.61377000  0.87627000  1.0 -0.5134114354
O  O19  1  0.87627000  0.61377000  0.02177000  1.0 -0.5134114354
O  O20  1  0.61377000  0.02177000  0.87627000  1.0 -0.5134114354
O  O21  1  0.02177000  0.87627000  0.61377000  1.0 -0.5134114354
O  O22  1  0.12373000  0.97823000  0.38623000  1.0 -0.5134114354
O  O23  1  0.38623000  0.12373000  0.97823000  1.0 -0.5134114354
O  O24  1  0.97823000  0.38623000  0.12373000  1.0 -0.5134114354
