# DDEC6 charges by PACMAN v1.1 (https://github.com/mtap-research/PACMAN-charge/)
data_EBEGID_ASR_pacman
_symmetry_space_group_name_H-M   'P 1'
_cell_length_a   16.55330000
_cell_length_b   16.55330000
_cell_length_c   7.49160000
_cell_angle_alpha   87.33160000
_cell_angle_beta   92.66840000
_cell_angle_gamma   140.09100000
_symmetry_Int_Tables_number   1
_chemical_formula_structural   MnMo5H10C12(N5O6)2
_chemical_formula_sum   'Mn2 Mo10 H20 C24 N20 O24'
_cell_volume   1315.39002539
_cell_formula_units_Z   2
loop_
 _symmetry_equiv_pos_site_id
 _symmetry_equiv_pos_as_xyz
  1  'x, y, z'
loop_
 _atom_site_type_symbol
 _atom_site_label
 _atom_site_symmetry_multiplicity
 _atom_site_fract_x
 _atom_site_fract_y
 _atom_site_fract_z
 _atom_site_occupancy
 _atom_site_charge
Mn  Mn1  1  0.50000000  0.00000000  0.50000000  1.0 1.0204800775
Mn  Mn2  1  0.00000000  0.50000000  0.00000000  1.0 1.0204800775
Mo  Mo1  1  0.72183000  0.30817000  0.67171000  1.0 2.1081287077
Mo  Mo2  1  0.30817000  0.72183000  0.82829000  1.0 2.1081287077
Mo  Mo3  1  0.27817000  0.69183000  0.32829000  1.0 2.1081287077
Mo  Mo4  1  0.69183000  0.27817000  0.17171000  1.0 2.1081287077
Mo  Mo5  1  0.61183000  0.43285000  0.73011000  1.0 2.0164498499
Mo  Mo6  1  0.43285000  0.61183000  0.76989000  1.0 2.0164498499
Mo  Mo7  1  0.38817000  0.56715000  0.26989000  1.0 2.0164498499
Mo  Mo8  1  0.56715000  0.38817000  0.23011000  1.0 2.0164498499
Mo  Mo9  1  0.33067000  0.33067000  0.75000000  1.0 1.0936282089
Mo  Mo10  1  0.66933000  0.66933000  0.25000000  1.0 1.0936282089
H  H1  1  0.29020000  0.12440000  0.62350000  1.0 0.2368484548
H  H2  1  0.12440000  0.29020000  0.87650000  1.0 0.2368484548
H  H3  1  0.70980000  0.87560000  0.37650000  1.0 0.2368484548
H  H4  1  0.87560000  0.70980000  0.12350000  1.0 0.2368484548
H  H5  1  0.10900000  0.95260000  0.50240000  1.0 0.0827896556
H  H6  1  0.95260000  0.10900000  0.99760000  1.0 0.0827896556
H  H7  1  0.89100000  0.04740000  0.49760000  1.0 0.0827896556
H  H8  1  0.04740000  0.89100000  0.00240000  1.0 0.0827896556
H  H9  1  0.85290000  0.58070000  0.49670000  1.0 0.0987703016
H  H10  1  0.58070000  0.85290000  0.00330000  1.0 0.0987703016
H  H11  1  0.14710000  0.41930000  0.50330000  1.0 0.0987703016
H  H12  1  0.41930000  0.14710000  0.99670000  1.0 0.0987703016
H  H13  1  0.00930000  0.60490000  0.55160000  1.0 0.1382842174
H  H14  1  0.60490000  0.00930000  0.94840000  1.0 0.1382842174
H  H15  1  0.99070000  0.39510000  0.44840000  1.0 0.1382842174
H  H16  1  0.39510000  0.99070000  0.05160000  1.0 0.1382842174
H  H17  1  0.21780000  0.80600000  0.58010000  1.0 0.1106225064
H  H18  1  0.80600000  0.21780000  0.91990000  1.0 0.1106225064
H  H19  1  0.78220000  0.19400000  0.41990000  1.0 0.1106225064
H  H20  1  0.19400000  0.78220000  0.08010000  1.0 0.1106225064
C  C1  1  0.18400000  0.89900000  0.54360000  1.0 -0.0384744333
C  C2  1  0.89900000  0.18400000  0.95640000  1.0 -0.0384744333
C  C3  1  0.81600000  0.10100000  0.45640000  1.0 -0.0384744333
C  C4  1  0.10100000  0.81600000  0.04360000  1.0 -0.0384744333
C  C5  1  0.08980000  0.88300000  0.51270000  1.0 -0.0204372467
C  C6  1  0.88300000  0.08980000  0.98730000  1.0 -0.0204372467
C  C7  1  0.91020000  0.11700000  0.48730000  1.0 -0.0204372467
C  C8  1  0.11700000  0.91020000  0.01270000  1.0 -0.0204372467
C  C9  1  0.93640000  0.66080000  0.50960000  1.0 0.0579623113
C  C10  1  0.66080000  0.93640000  0.99040000  1.0 0.0579623113
C  C11  1  0.06360000  0.33920000  0.49040000  1.0 0.0579623113
C  C12  1  0.33920000  0.06360000  0.00960000  1.0 0.0579623113
C  C13  1  0.02960000  0.67520000  0.54150000  1.0 -0.1330074483
C  C14  1  0.67520000  0.02960000  0.95850000  1.0 -0.1330074483
C  C15  1  0.97040000  0.32480000  0.45850000  1.0 -0.1330074483
C  C16  1  0.32480000  0.97040000  0.04150000  1.0 -0.1330074483
C  C17  1  0.15450000  0.79550000  0.55860000  1.0 -0.0716421783
C  C18  1  0.79550000  0.15450000  0.94140000  1.0 -0.0716421783
C  C19  1  0.84550000  0.20450000  0.44140000  1.0 -0.0716421783
C  C20  1  0.20450000  0.84550000  0.05860000  1.0 -0.0716421783
C  C21  1  0.31400000  0.02720000  0.56740000  1.0 0.251505818
C  C22  1  0.02720000  0.31400000  0.93260000  1.0 0.251505818
C  C23  1  0.68600000  0.97280000  0.43260000  1.0 0.251505818
C  C24  1  0.97280000  0.68600000  0.06740000  1.0 0.251505818
N  N1  1  0.96670000  0.76310000  0.49720000  1.0 -0.2852931807
N  N2  1  0.76310000  0.96670000  0.00280000  1.0 -0.2852931807
N  N3  1  0.03330000  0.23690000  0.50280000  1.0 -0.2840669939
N  N4  1  0.23690000  0.03330000  0.99720000  1.0 -0.2852931807
N  N5  1  0.41680000  0.06000000  0.56700000  1.0 -0.261656236
N  N6  1  0.06000000  0.41680000  0.93300000  1.0 -0.261656236
N  N7  1  0.58320000  0.94000000  0.43300000  1.0 -0.261656236
N  N8  1  0.94000000  0.58320000  0.06700000  1.0 -0.261656236
N  N9  1  0.51070000  0.18230000  0.61230000  1.0 -0.1208106281
N  N10  1  0.18230000  0.51070000  0.88770000  1.0 -0.1208106281
N  N11  1  0.48930000  0.81770000  0.38770000  1.0 -0.1208106281
N  N12  1  0.81770000  0.48930000  0.11230000  1.0 -0.1208106281
N  N13  1  0.46500000  0.21940000  0.63640000  1.0 -0.0949613044
N  N14  1  0.21940000  0.46500000  0.86360000  1.0 -0.0949613044
N  N15  1  0.53500000  0.78060000  0.36360000  1.0 -0.0949613044
N  N16  1  0.78060000  0.53500000  0.13640000  1.0 -0.0949613044
N  N17  1  0.34170000  0.12450000  0.61260000  1.0 -0.1622740889
N  N18  1  0.12450000  0.34170000  0.88740000  1.0 -0.1622740889
N  N19  1  0.65830000  0.87550000  0.38740000  1.0 -0.1622740889
N  N20  1  0.87550000  0.65830000  0.11260000  1.0 -0.1622740889
O  O1  1  0.65390000  0.15970000  0.65900000  1.0 -0.7832296679
O  O2  1  0.15970000  0.65390000  0.84100000  1.0 -0.7832296679
O  O3  1  0.34610000  0.84030000  0.34100000  1.0 -0.7832296679
O  O4  1  0.84030000  0.34610000  0.15900000  1.0 -0.7832296679
O  O5  1  0.86840000  0.40240000  0.77350000  1.0 -0.7614670137
O  O6  1  0.40240000  0.86840000  0.72650000  1.0 -0.7614670137
O  O7  1  0.13160000  0.59760000  0.22650000  1.0 -0.7614670137
O  O8  1  0.59760000  0.13160000  0.27350000  1.0 -0.7614670137
O  O9  1  0.64430000  0.24490000  0.94630000  1.0 -0.8197291383
O  O10  1  0.24490000  0.64430000  0.55370000  1.0 -0.8197291383
O  O11  1  0.35570000  0.75510000  0.05370000  1.0 -0.8197291383
O  O12  1  0.75510000  0.35570000  0.44630000  1.0 -0.8197291383
O  O13  1  0.71010000  0.41790000  0.72390000  1.0 -0.8651127407
O  O14  1  0.41790000  0.71010000  0.77610000  1.0 -0.8651127407
O  O15  1  0.28990000  0.58210000  0.27610000  1.0 -0.8651127407
O  O16  1  0.58210000  0.28990000  0.22390000  1.0 -0.8651127407
O  O17  1  0.54830000  0.36930000  0.94740000  1.0 -0.8876045534
O  O18  1  0.36930000  0.54830000  0.55260000  1.0 -0.8876045534
O  O19  1  0.45170000  0.63070000  0.05260000  1.0 -0.8876045534
O  O20  1  0.63070000  0.45170000  0.44740000  1.0 -0.8876045534
O  O21  1  0.46270000  0.38550000  0.64510000  1.0 -0.8530226538
O  O22  1  0.38550000  0.46270000  0.85490000  1.0 -0.8530226538
O  O23  1  0.53730000  0.61450000  0.35490000  1.0 -0.8530226538
O  O24  1  0.61450000  0.53730000  0.14510000  1.0 -0.8530226538
