# DDEC6 charges by PACMAN v1.1 (https://github.com/mtap-research/PACMAN-charge/)
data_EBELUU_FSR_pacman
_symmetry_space_group_name_H-M   'P 1'
_cell_length_a   7.36200000
_cell_length_b   12.94600000
_cell_length_c   13.62800000
_cell_angle_alpha   90.00000000
_cell_angle_beta   91.31200000
_cell_angle_gamma   90.00000000
_symmetry_Int_Tables_number   1
_chemical_formula_structural   ZnNiH12C15N7O3
_chemical_formula_sum   'Zn2 Ni2 H24 C30 N14 O6'
_cell_volume   1298.52306829
_cell_formula_units_Z   2
loop_
 _symmetry_equiv_pos_site_id
 _symmetry_equiv_pos_as_xyz
  1  'x, y, z'
loop_
 _atom_site_type_symbol
 _atom_site_label
 _atom_site_symmetry_multiplicity
 _atom_site_fract_x
 _atom_site_fract_y
 _atom_site_fract_z
 _atom_site_occupancy
 _atom_site_charge
Zn  Zn1  1  0.50024000  0.25000000  0.08624000  1.0 0.7974563081
Zn  Zn2  1  0.49976000  0.75000000  0.91376000  1.0 0.7974563081
Ni  Ni1  1  0.00000000  0.00000000  0.00000000  1.0 0.3158617157
Ni  Ni2  1  0.00000000  0.50000000  0.00000000  1.0 0.3158617157
H  H1  1  0.52110000  0.40440000  0.90970000  1.0 0.1167348612
H  H2  1  0.47890000  0.90440000  0.09030000  1.0 0.1167348612
H  H3  1  0.47890000  0.59560000  0.09030000  1.0 0.1167348612
H  H4  1  0.52110000  0.09560000  0.90970000  1.0 0.1167348612
H  H5  1  0.56360000  0.40350000  0.74120000  1.0 0.1304609466
H  H6  1  0.43640000  0.90350000  0.25880000  1.0 0.1304609466
H  H7  1  0.43640000  0.59650000  0.25880000  1.0 0.1304609466
H  H8  1  0.56360000  0.09650000  0.74120000  1.0 0.1304609466
H  H9  1  0.45870000  0.40480000  0.43370000  1.0 0.1398762751
H  H10  1  0.54130000  0.90480000  0.56630000  1.0 0.1398762751
H  H11  1  0.54130000  0.59520000  0.56630000  1.0 0.1398762751
H  H12  1  0.45870000  0.09520000  0.43370000  1.0 0.1398762751
H  H13  1  0.50470000  0.40270000  0.26510000  1.0 0.1050863702
H  H14  1  0.49530000  0.90270000  0.73490000  1.0 0.1050863702
H  H15  1  0.49530000  0.59730000  0.73490000  1.0 0.1050863702
H  H16  1  0.50470000  0.09730000  0.26510000  1.0 0.1050863702
H  H17  1  0.02440000  0.91360000  0.16120000  1.0 0.3580175627
H  H18  1  0.97560000  0.41360000  0.83880000  1.0 0.3580175627
H  H19  1  0.97560000  0.08640000  0.83880000  1.0 0.3580175627
H  H20  1  0.02440000  0.58640000  0.16120000  1.0 0.3580175627
H  H21  1  0.09310000  0.84600000  0.09440000  1.0 0.3527780015
H  H22  1  0.90690000  0.34600000  0.90560000  1.0 0.3527780015
H  H23  1  0.90690000  0.15400000  0.90560000  1.0 0.3527780015
H  H24  1  0.09310000  0.65400000  0.09440000  1.0 0.3527780015
C  C1  1  0.82770000  0.07820000  0.04640000  1.0 0.0015575593
C  C2  1  0.17230000  0.57820000  0.95360000  1.0 0.0015575593
C  C3  1  0.17230000  0.92180000  0.95360000  1.0 0.0015575593
C  C4  1  0.82770000  0.42180000  0.04640000  1.0 0.0015575593
C  C5  1  0.19950000  0.09170000  0.03780000  1.0 0.0544311151
C  C6  1  0.80050000  0.59170000  0.96220000  1.0 0.0544311151
C  C7  1  0.80050000  0.90830000  0.96220000  1.0 0.0544311151
C  C8  1  0.19950000  0.40830000  0.03780000  1.0 0.0544311151
C  C9  1  0.53060000  0.34180000  0.87670000  1.0 0.0740871418
C  C10  1  0.46940000  0.84180000  0.12330000  1.0 0.0740871418
C  C11  1  0.46940000  0.65820000  0.12330000  1.0 0.0740871418
C  C12  1  0.53060000  0.15820000  0.87670000  1.0 0.0740871418
C  C13  1  0.55170000  0.34140000  0.77470000  1.0 -0.1702309113
C  C14  1  0.44830000  0.84140000  0.22530000  1.0 -0.1702309113
C  C15  1  0.44830000  0.65860000  0.22530000  1.0 -0.1702309113
C  C16  1  0.55170000  0.15860000  0.77470000  1.0 -0.1702309113
C  C17  1  0.55470000  0.25000000  0.72390000  1.0 0.0440557737
C  C18  1  0.44530000  0.75000000  0.27610000  1.0 0.0440557737
C  C19  1  0.57580000  0.25000000  0.61500000  1.0 0.4248334605
C  C20  1  0.42420000  0.75000000  0.38500000  1.0 0.4248334605
C  C21  1  0.45930000  0.25000000  0.44870000  1.0 0.2532684345
C  C22  1  0.54070000  0.75000000  0.55130000  1.0 0.2532684345
C  C23  1  0.46900000  0.34250000  0.40020000  1.0 -0.2081109744
C  C24  1  0.53100000  0.84250000  0.59980000  1.0 -0.2081109744
C  C25  1  0.53100000  0.65750000  0.59980000  1.0 -0.2081109744
C  C26  1  0.46900000  0.15750000  0.40020000  1.0 -0.2081109744
C  C27  1  0.49480000  0.34070000  0.29900000  1.0 0.094108491
C  C28  1  0.50520000  0.84070000  0.70100000  1.0 0.094108491
C  C29  1  0.50520000  0.65930000  0.70100000  1.0 0.094108491
C  C30  1  0.49480000  0.15930000  0.29900000  1.0 0.094108491
N  N1  1  0.30550000  0.13980000  0.07650000  1.0 -0.3631699618
N  N2  1  0.69450000  0.63980000  0.92350000  1.0 -0.3631699618
N  N3  1  0.69450000  0.86020000  0.92350000  1.0 -0.3631699618
N  N4  1  0.30550000  0.36020000  0.07650000  1.0 -0.3631699618
N  N5  1  0.71030000  0.13360000  0.07770000  1.0 -0.3909105521
N  N6  1  0.28970000  0.63360000  0.92230000  1.0 -0.3909105521
N  N7  1  0.28970000  0.86640000  0.92230000  1.0 -0.3909105521
N  N8  1  0.71030000  0.36640000  0.07770000  1.0 -0.3909105521
N  N9  1  0.52380000  0.25000000  0.92900000  1.0 -0.262546913
N  N10  1  0.47620000  0.75000000  0.07100000  1.0 -0.262546913
N  N11  1  0.43970000  0.25000000  0.55900000  1.0 -0.4013174337
N  N12  1  0.56030000  0.75000000  0.44100000  1.0 -0.4013174337
N  N13  1  0.50570000  0.25000000  0.24890000  1.0 -0.2157683086
N  N14  1  0.49430000  0.75000000  0.75110000  1.0 -0.2157683086
O  O1  1  0.73120000  0.25000000  0.57740000  1.0 -0.4767409574
O  O2  1  0.26880000  0.75000000  0.42260000  1.0 -0.4767409574
O  O3  1  0.10010000  0.90810000  0.11440000  1.0 -0.5342669647
O  O4  1  0.89990000  0.40810000  0.88560000  1.0 -0.5342669647
O  O5  1  0.89990000  0.09190000  0.88560000  1.0 -0.5342669647
O  O6  1  0.10010000  0.59190000  0.11440000  1.0 -0.5342669647
