# DDEC6 charges by PACMAN v1.1 (https://github.com/mtap-research/PACMAN-charge/)
data_EBEMEF_FSR_pacman
_symmetry_space_group_name_H-M   'P 1'
_cell_length_a   7.46525000
_cell_length_b   7.46525000
_cell_length_c   12.41420000
_cell_angle_alpha   81.72570000
_cell_angle_beta   98.27430000
_cell_angle_gamma   115.72700000
_symmetry_Int_Tables_number   1
_chemical_formula_structural   ZnNi(CN)4
_chemical_formula_sum   'Zn2 Ni2 C8 N8'
_cell_volume   614.19524784
_cell_formula_units_Z   2
loop_
 _symmetry_equiv_pos_site_id
 _symmetry_equiv_pos_as_xyz
  1  'x, y, z'
loop_
 _atom_site_type_symbol
 _atom_site_label
 _atom_site_symmetry_multiplicity
 _atom_site_fract_x
 _atom_site_fract_y
 _atom_site_fract_z
 _atom_site_occupancy
 _atom_site_charge
Zn  Zn1  1  0.87685000  0.87685000  0.75000000  1.0 0.8605417781
Zn  Zn2  1  0.12315000  0.12315000  0.25000000  1.0 0.870380538
Ni  Ni1  1  0.50000000  0.00000000  0.00000000  1.0 0.0982758798
Ni  Ni2  1  0.00000000  0.50000000  0.50000000  1.0 0.0945822693
C  C1  1  0.27040000  0.95960000  0.90602000  1.0 0.1446927957
C  C2  1  0.95960000  0.27040000  0.59398000  1.0 0.1466352068
C  C3  1  0.72960000  0.04040000  0.09398000  1.0 0.1446927957
C  C4  1  0.04040000  0.72960000  0.40602000  1.0 0.1466352068
C  C5  1  0.60770000  0.92350000  0.89790000  1.0 0.1569807751
C  C6  1  0.92350000  0.60770000  0.60210000  1.0 0.1569807751
C  C7  1  0.39230000  0.07650000  0.10210000  1.0 0.1569807751
C  C8  1  0.07650000  0.39230000  0.39790000  1.0 0.169929745
N  N1  1  0.12646000  0.93274000  0.84997000  1.0 -0.38312198
N  N2  1  0.93274000  0.12646000  0.65003000  1.0 -0.38312198
N  N3  1  0.87354000  0.06726000  0.15003000  1.0 -0.38312198
N  N4  1  0.06726000  0.87354000  0.34997000  1.0 -0.3856330045
N  N5  1  0.67895000  0.87685000  0.83822000  1.0 -0.4011496532
N  N6  1  0.87685000  0.67895000  0.66178000  1.0 -0.4011496532
N  N7  1  0.32105000  0.12315000  0.16178000  1.0 -0.4011496532
N  N8  1  0.12315000  0.32105000  0.33822000  1.0 -0.4088606365
