# DDEC6 charges by PACMAN v1.1 (https://github.com/mtap-research/PACMAN-charge/)
data_EBEMEE_ASR_pacman
_symmetry_space_group_name_H-M   'P 1'
_cell_length_a   13.75570000
_cell_length_b   13.75570000
_cell_length_c   13.78000000
_cell_angle_alpha   76.76560000
_cell_angle_beta   103.23400000
_cell_angle_gamma   130.85700000
_symmetry_Int_Tables_number   1
_chemical_formula_structural   CdH10C16(N3O2)2
_chemical_formula_sum   'Cd4 H40 C64 N24 O16'
_cell_volume   1908.61842014
_cell_formula_units_Z   4
loop_
 _symmetry_equiv_pos_site_id
 _symmetry_equiv_pos_as_xyz
  1  'x, y, z'
loop_
 _atom_site_type_symbol
 _atom_site_label
 _atom_site_symmetry_multiplicity
 _atom_site_fract_x
 _atom_site_fract_y
 _atom_site_fract_z
 _atom_site_occupancy
 _atom_site_charge
Cd  Cd1  1  0.04293000  0.59751000  0.36860000  1.0 0.8229397786
Cd  Cd2  1  0.40249000  0.95707000  0.86860000  1.0 0.8229397786
Cd  Cd3  1  0.95707000  0.40249000  0.63140000  1.0 0.8229397786
Cd  Cd4  1  0.59751000  0.04293000  0.13140000  1.0 0.8229397786
H  H1  1  0.07580000  0.72820000  0.78390000  1.0 0.1296441843
H  H2  1  0.27180000  0.92420000  0.28390000  1.0 0.1296441843
H  H3  1  0.92420000  0.27180000  0.21610000  1.0 0.1296441843
H  H4  1  0.72820000  0.07580000  0.71610000  1.0 0.1296441843
H  H5  1  0.88170000  0.56830000  0.84390000  1.0 0.1084122628
H  H6  1  0.43170000  0.11830000  0.34390000  1.0 0.1084122628
H  H7  1  0.11830000  0.43170000  0.15610000  1.0 0.1084122628
H  H8  1  0.56830000  0.88170000  0.65610000  1.0 0.1084122628
H  H9  1  0.98960000  0.79080000  0.37060000  1.0 0.1084122628
H  H10  1  0.20920000  0.01040000  0.87060000  1.0 0.1084122628
H  H11  1  0.01040000  0.20920000  0.62940000  1.0 0.1084122628
H  H12  1  0.79080000  0.98960000  0.12940000  1.0 0.1084122628
H  H13  1  0.83300000  0.80620000  0.37550000  1.0 0.1394918066
H  H14  1  0.19380000  0.16700000  0.87550000  1.0 0.1394918066
H  H15  1  0.16700000  0.19380000  0.62450000  1.0 0.1394918066
H  H16  1  0.80620000  0.83300000  0.12450000  1.0 0.1394918066
H  H17  1  0.56380000  0.41840000  0.37250000  1.0 0.1296441843
H  H18  1  0.58160000  0.43620000  0.87250000  1.0 0.1296441843
H  H19  1  0.43620000  0.58160000  0.62750000  1.0 0.1296441843
H  H20  1  0.41840000  0.56380000  0.12750000  1.0 0.1296441843
H  H21  1  0.72800000  0.41520000  0.36690000  1.0 0.1084122628
H  H22  1  0.58480000  0.27200000  0.86690000  1.0 0.1084122628
H  H23  1  0.27200000  0.58480000  0.63310000  1.0 0.1084122628
H  H24  1  0.41520000  0.72800000  0.13310000  1.0 0.1084122628
H  H25  1  0.51580000  0.75200000  0.37730000  1.0 0.1394918066
H  H26  1  0.24800000  0.48420000  0.87730000  1.0 0.1394918066
H  H27  1  0.48420000  0.24800000  0.62270000  1.0 0.1394918066
H  H28  1  0.75200000  0.51580000  0.12270000  1.0 0.1394918066
H  H29  1  0.35830000  0.76690000  0.38110000  1.0 0.1084122628
H  H30  1  0.23310000  0.64170000  0.88110000  1.0 0.1084122628
H  H31  1  0.64170000  0.23310000  0.61890000  1.0 0.1084122628
H  H32  1  0.76690000  0.35830000  0.11890000  1.0 0.1084122628
H  H33  1  0.08380000  0.39280000  0.37120000  1.0 0.1084122628
H  H34  1  0.60720000  0.91620000  0.87120000  1.0 0.1084122628
H  H35  1  0.91620000  0.60720000  0.62880000  1.0 0.1084122628
H  H36  1  0.39280000  0.08380000  0.12880000  1.0 0.1084122628
H  H37  1  0.23080000  0.36600000  0.36560000  1.0 0.1394918066
H  H38  1  0.63400000  0.76920000  0.86560000  1.0 0.1394918066
H  H39  1  0.76920000  0.63400000  0.63440000  1.0 0.1394918066
H  H40  1  0.36600000  0.23080000  0.13440000  1.0 0.1394918066
C  C1  1  0.04770000  0.67190000  0.04810000  1.0 0.0798830864
C  C2  1  0.32810000  0.95230000  0.54810000  1.0 0.0798830864
C  C3  1  0.95230000  0.32810000  0.95190000  1.0 0.0798830864
C  C4  1  0.67190000  0.04770000  0.45190000  1.0 0.0798830864
C  C5  1  0.16680000  0.76080000  0.01320000  1.0 0.0307965981
C  C6  1  0.23920000  0.83320000  0.51320000  1.0 0.0307965981
C  C7  1  0.83320000  0.23920000  0.98680000  1.0 0.0307965981
C  C8  1  0.76080000  0.16680000  0.48680000  1.0 0.0307965981
C  C9  1  0.07160000  0.71340000  0.85420000  1.0 0.035465015
C  C10  1  0.28660000  0.92840000  0.35420000  1.0 0.035465015
C  C11  1  0.92840000  0.28660000  0.14580000  1.0 0.035465015
C  C12  1  0.71340000  0.07160000  0.64580000  1.0 0.035465015
C  C13  1  0.95520000  0.62060000  0.88970000  1.0 0.0307965981
C  C14  1  0.37940000  0.04480000  0.38970000  1.0 0.0307965981
C  C15  1  0.04480000  0.37940000  0.11030000  1.0 0.0307965981
C  C16  1  0.62060000  0.95520000  0.61030000  1.0 0.0307965981
C  C17  1  0.03070000  0.65110000  0.15830000  1.0 0.5298832011
C  C18  1  0.34890000  0.96930000  0.65830000  1.0 0.5298832011
C  C19  1  0.96930000  0.34890000  0.84170000  1.0 0.5298832011
C  C20  1  0.65110000  0.03070000  0.34170000  1.0 0.5298832011
C  C21  1  0.29030000  0.83050000  0.08430000  1.0 0.5298832011
C  C22  1  0.16950000  0.70970000  0.58430000  1.0 0.5298832011
C  C23  1  0.70970000  0.16950000  0.91570000  1.0 0.5298832011
C  C24  1  0.83050000  0.29030000  0.41570000  1.0 0.5298832011
C  C25  1  0.90180000  0.71420000  0.37070000  1.0 0.0852965441
C  C26  1  0.28580000  0.09820000  0.87070000  1.0 0.0852965441
C  C27  1  0.09820000  0.28580000  0.62930000  1.0 0.0852965441
C  C28  1  0.71420000  0.90180000  0.12930000  1.0 0.0852965441
C  C29  1  0.80950000  0.72430000  0.37400000  1.0 -0.2003152567
C  C30  1  0.27570000  0.19050000  0.87400000  1.0 -0.2003152567
C  C31  1  0.19050000  0.27570000  0.62600000  1.0 -0.2003152567
C  C32  1  0.72430000  0.80950000  0.12600000  1.0 -0.2003152567
C  C33  1  0.68190000  0.61350000  0.37510000  1.0 0.1807944392
C  C34  1  0.38650000  0.31810000  0.87510000  1.0 0.1807944392
C  C35  1  0.31810000  0.38650000  0.62490000  1.0 0.1807944392
C  C36  1  0.61350000  0.68190000  0.12490000  1.0 0.1807944392
C  C37  1  0.65080000  0.49620000  0.37210000  1.0 -0.2003152567
C  C38  1  0.50380000  0.34920000  0.87210000  1.0 -0.2003152567
C  C39  1  0.34920000  0.50380000  0.62790000  1.0 -0.2003152567
C  C40  1  0.49620000  0.65080000  0.12790000  1.0 -0.2003152567
C  C41  1  0.74950000  0.49590000  0.36870000  1.0 0.0798830864
C  C42  1  0.50410000  0.25050000  0.86870000  1.0 0.0798830864
C  C43  1  0.25050000  0.50410000  0.63130000  1.0 0.0798830864
C  C44  1  0.49590000  0.74950000  0.13130000  1.0 0.0798830864
C  C45  1  0.39060000  0.55680000  0.37200000  1.0 0.1807944392
C  C46  1  0.44320000  0.60940000  0.87200000  1.0 0.1807944392
C  C47  1  0.60940000  0.44320000  0.62800000  1.0 0.1807944392
C  C48  1  0.55680000  0.39060000  0.12800000  1.0 0.1807944392
C  C49  1  0.42740000  0.67660000  0.37610000  1.0 -0.2003152567
C  C50  1  0.32340000  0.57260000  0.87610000  1.0 -0.2003152567
C  C51  1  0.57260000  0.32340000  0.62390000  1.0 -0.2003152567
C  C52  1  0.67660000  0.42740000  0.12390000  1.0 -0.2003152567
C  C53  1  0.33270000  0.68450000  0.37830000  1.0 0.1165292439
C  C54  1  0.31550000  0.66730000  0.87830000  1.0 0.1165292439
C  C55  1  0.66730000  0.31550000  0.62170000  1.0 0.1165292439
C  C56  1  0.68450000  0.33270000  0.12170000  1.0 0.1165292439
C  C57  1  0.17300000  0.46640000  0.37230000  1.0 0.0695788589
C  C58  1  0.53360000  0.82700000  0.87230000  1.0 0.0695788589
C  C59  1  0.82700000  0.53360000  0.62770000  1.0 0.0695788589
C  C60  1  0.46640000  0.17300000  0.12770000  1.0 0.0695788589
C  C61  1  0.25940000  0.44940000  0.36940000  1.0 -0.209872638
C  C62  1  0.55060000  0.74060000  0.86940000  1.0 -0.209872638
C  C63  1  0.74060000  0.55060000  0.63060000  1.0 -0.209872638
C  C64  1  0.44940000  0.25940000  0.13060000  1.0 -0.209872638
N  N1  1  0.93940000  0.59940000  0.98660000  1.0 -0.230162495
N  N2  1  0.40060000  0.06060000  0.48660000  1.0 -0.230162495
N  N3  1  0.06060000  0.40060000  0.01340000  1.0 -0.230162495
N  N4  1  0.59940000  0.93940000  0.51340000  1.0 -0.230162495
N  N5  1  0.18090000  0.78490000  0.91460000  1.0 -0.230162495
N  N6  1  0.21510000  0.81910000  0.41460000  1.0 -0.230162495
N  N7  1  0.81910000  0.21510000  0.08540000  1.0 -0.230162495
N  N8  1  0.78490000  0.18090000  0.58540000  1.0 -0.230162495
N  N9  1  0.87390000  0.60170000  0.36770000  1.0 -0.2197397101
N  N10  1  0.39830000  0.12610000  0.86770000  1.0 -0.2197397101
N  N11  1  0.12610000  0.39830000  0.63230000  1.0 -0.2197397101
N  N12  1  0.60170000  0.87390000  0.13230000  1.0 -0.2197397101
N  N13  1  0.20780000  0.58260000  0.37680000  1.0 -0.230162495
N  N14  1  0.41740000  0.79220000  0.87680000  1.0 -0.230162495
N  N15  1  0.79220000  0.41740000  0.62320000  1.0 -0.230162495
N  N16  1  0.58260000  0.20780000  0.12320000  1.0 -0.230162495
N  N17  1  0.59210000  0.63210000  0.38050000  1.0 -0.1104257881
N  N18  1  0.36790000  0.40790000  0.88050000  1.0 -0.1104257881
N  N19  1  0.40790000  0.36790000  0.61950000  1.0 -0.1104257881
N  N20  1  0.63210000  0.59210000  0.11950000  1.0 -0.1104257881
N  N21  1  0.47840000  0.53460000  0.37080000  1.0 -0.1104257881
N  N22  1  0.46540000  0.52160000  0.87080000  1.0 -0.1104257881
N  N23  1  0.52160000  0.46540000  0.62920000  1.0 -0.1104257881
N  N24  1  0.53460000  0.47840000  0.12920000  1.0 -0.1104257881
O  O1  1  0.00270000  0.55070000  0.20770000  1.0 -0.5065678406
O  O2  1  0.44930000  0.99730000  0.70770000  1.0 -0.5065678406
O  O3  1  0.99730000  0.44930000  0.79230000  1.0 -0.5065678406
O  O4  1  0.55070000  0.00270000  0.29230000  1.0 -0.5065678406
O  O5  1  0.04660000  0.73840000  0.19050000  1.0 -0.5419765461
O  O6  1  0.26160000  0.95340000  0.69050000  1.0 -0.5419765461
O  O7  1  0.95340000  0.26160000  0.80950000  1.0 -0.5419765461
O  O8  1  0.73840000  0.04660000  0.30950000  1.0 -0.5419765461
O  O9  1  0.28440000  0.79000000  0.17160000  1.0 -0.4599310804
O  O10  1  0.21000000  0.71560000  0.67160000  1.0 -0.4599310804
O  O11  1  0.71560000  0.21000000  0.82840000  1.0 -0.4599310804
O  O12  1  0.79000000  0.28440000  0.32840000  1.0 -0.4599310804
O  O13  1  0.39400000  0.92480000  0.04530000  1.0 -0.5419765461
O  O14  1  0.07520000  0.60600000  0.54530000  1.0 -0.5419765461
O  O15  1  0.60600000  0.07520000  0.95470000  1.0 -0.5419765461
O  O16  1  0.92480000  0.39400000  0.45470000  1.0 -0.5419765461
