# DDEC6 charges by PACMAN v1.1 (https://github.com/mtap-research/PACMAN-charge/)
data_EBEXIV_ASR_pacman
_symmetry_space_group_name_H-M   'P 1'
_cell_length_a   20.11080000
_cell_length_b   20.11080000
_cell_length_c   20.11080000
_cell_angle_alpha   115.03200000
_cell_angle_beta   115.03200000
_cell_angle_gamma   115.03200000
_symmetry_Int_Tables_number   1
_chemical_formula_structural   Zn3P4H4O13
_chemical_formula_sum   'Zn18 P24 H24 O78'
_cell_volume   4538.79146513
_cell_formula_units_Z   6
loop_
 _symmetry_equiv_pos_site_id
 _symmetry_equiv_pos_as_xyz
  1  'x, y, z'
loop_
 _atom_site_type_symbol
 _atom_site_label
 _atom_site_symmetry_multiplicity
 _atom_site_fract_x
 _atom_site_fract_y
 _atom_site_fract_z
 _atom_site_occupancy
 _atom_site_charge
Zn  Zn1  1  0.39156000  0.10435000  0.79719000  1.0 1.1308259214
Zn  Zn2  1  0.10435000  0.79719000  0.39156000  1.0 1.1308259214
Zn  Zn3  1  0.79719000  0.39156000  0.10435000  1.0 1.1308259214
Zn  Zn4  1  0.60844000  0.89565000  0.20281000  1.0 1.1218501618
Zn  Zn5  1  0.89565000  0.20281000  0.60844000  1.0 1.1308259214
Zn  Zn6  1  0.20281000  0.60844000  0.89565000  1.0 1.1308259214
Zn  Zn7  1  0.52817000  0.41182000  0.97462000  1.0 1.1218501618
Zn  Zn8  1  0.41182000  0.97462000  0.52817000  1.0 1.1218501618
Zn  Zn9  1  0.97462000  0.52817000  0.41182000  1.0 1.1218501618
Zn  Zn10  1  0.47183000  0.58818000  0.02538000  1.0 1.1218501618
Zn  Zn11  1  0.58818000  0.02538000  0.47183000  1.0 1.1218501618
Zn  Zn12  1  0.02538000  0.47183000  0.58818000  1.0 1.1218501618
Zn  Zn13  1  0.66342000  0.16473000  0.16173000  1.0 1.1509100601
Zn  Zn14  1  0.16473000  0.16173000  0.66342000  1.0 1.1509100601
Zn  Zn15  1  0.16173000  0.66342000  0.16473000  1.0 1.1509100601
Zn  Zn16  1  0.33658000  0.83527000  0.83827000  1.0 1.1509100601
Zn  Zn17  1  0.83527000  0.83827000  0.33658000  1.0 1.1509100601
Zn  Zn18  1  0.83827000  0.33658000  0.83527000  1.0 1.1509100601
P  P1  1  0.60294000  0.31576000  0.90720000  1.0 1.2881594007
P  P2  1  0.31576000  0.90720000  0.60294000  1.0 1.2881594007
P  P3  1  0.90720000  0.60294000  0.31576000  1.0 1.2881594007
P  P4  1  0.39706000  0.68424000  0.09280000  1.0 1.2881594007
P  P5  1  0.68424000  0.09280000  0.39706000  1.0 1.2881594007
P  P6  1  0.09280000  0.39706000  0.68424000  1.0 1.2881594007
P  P7  1  0.47897000  0.05923000  0.92575000  1.0 1.2555231656
P  P8  1  0.05923000  0.92575000  0.47897000  1.0 1.2524565364
P  P9  1  0.92575000  0.47897000  0.05923000  1.0 1.2524565364
P  P10  1  0.52103000  0.94077000  0.07425000  1.0 1.2524565364
P  P11  1  0.94077000  0.07425000  0.52103000  1.0 1.2524565364
P  P12  1  0.07425000  0.52103000  0.94077000  1.0 1.2555231656
P  P13  1  0.30803000  0.19488000  0.85130000  1.0 1.1308259214
P  P14  1  0.19488000  0.85130000  0.30803000  1.0 1.1350785101
P  P15  1  0.85130000  0.30803000  0.19488000  1.0 1.1308259214
P  P16  1  0.69197000  0.80512000  0.14870000  1.0 1.1308259214
P  P17  1  0.80512000  0.14870000  0.69197000  1.0 1.1308259214
P  P18  1  0.14870000  0.69197000  0.80512000  1.0 1.1308259214
P  P19  1  0.61986000  0.60400000  0.18848000  1.0 1.2881594007
P  P20  1  0.60400000  0.18848000  0.61986000  1.0 1.2881594007
P  P21  1  0.18848000  0.61986000  0.60400000  1.0 1.2881594007
P  P22  1  0.38014000  0.39600000  0.81152000  1.0 1.2881594007
P  P23  1  0.39600000  0.81152000  0.38014000  1.0 1.2881594007
P  P24  1  0.81152000  0.38014000  0.39600000  1.0 1.2881594007
H  H1  1  0.64230000  0.34280000  0.86870000  1.0 -0.0507273135
H  H2  1  0.34280000  0.86870000  0.64230000  1.0 -0.0507273135
H  H3  1  0.86870000  0.64230000  0.34280000  1.0 -0.0507273135
H  H4  1  0.35770000  0.65720000  0.13130000  1.0 -0.0507273135
H  H5  1  0.65720000  0.13130000  0.35770000  1.0 -0.0507273135
H  H6  1  0.13130000  0.35770000  0.65720000  1.0 -0.0507273135
H  H7  1  0.54910000  0.06740000  0.91480000  1.0 -0.1087663144
H  H8  1  0.06740000  0.91480000  0.54910000  1.0 -0.1087663144
H  H9  1  0.91480000  0.54910000  0.06740000  1.0 -0.1087663144
H  H10  1  0.45090000  0.93260000  0.08520000  1.0 -0.1087663144
H  H11  1  0.93260000  0.08520000  0.45090000  1.0 -0.1087663144
H  H12  1  0.08520000  0.45090000  0.93260000  1.0 -0.1087663144
H  H13  1  0.29200000  0.18640000  0.89690000  1.0 -0.1445704396
H  H14  1  0.18640000  0.89690000  0.29200000  1.0 -0.1445704396
H  H15  1  0.89690000  0.29200000  0.18640000  1.0 -0.1445704396
H  H16  1  0.70800000  0.81360000  0.10310000  1.0 -0.1445704396
H  H17  1  0.81360000  0.10310000  0.70800000  1.0 -0.1445704396
H  H18  1  0.10310000  0.70800000  0.81360000  1.0 -0.1445704396
H  H19  1  0.58660000  0.55190000  0.21210000  1.0 -0.1584262108
H  H20  1  0.55190000  0.21210000  0.58660000  1.0 -0.1584262108
H  H21  1  0.21210000  0.58660000  0.55190000  1.0 -0.1669622009
H  H22  1  0.41340000  0.44810000  0.78790000  1.0 -0.1584262108
H  H23  1  0.44810000  0.78790000  0.41340000  1.0 -0.1584262108
H  H24  1  0.78790000  0.41340000  0.44810000  1.0 -0.1584262108
O  O1  1  0.48310000  0.21112000  0.81068000  1.0 -0.6270710679
O  O2  1  0.21112000  0.81068000  0.48310000  1.0 -0.6270710679
O  O3  1  0.81068000  0.48310000  0.21112000  1.0 -0.6270710679
O  O4  1  0.51690000  0.78888000  0.18932000  1.0 -0.6270710679
O  O5  1  0.78888000  0.18932000  0.51690000  1.0 -0.6270710679
O  O6  1  0.18932000  0.51690000  0.78888000  1.0 -0.6270710679
O  O7  1  0.46626000  0.12476000  0.91598000  1.0 -0.6215297933
O  O8  1  0.12476000  0.91598000  0.46626000  1.0 -0.6215297933
O  O9  1  0.91598000  0.46626000  0.12476000  1.0 -0.6215297933
O  O10  1  0.53374000  0.87524000  0.08402000  1.0 -0.6215297933
O  O11  1  0.87524000  0.08402000  0.53374000  1.0 -0.6215297933
O  O12  1  0.08402000  0.53374000  0.87524000  1.0 -0.6215297933
O  O13  1  0.29007000  0.10778000  0.77495000  1.0 -0.5967495015
O  O14  1  0.10778000  0.77495000  0.29007000  1.0 -0.5967495015
O  O15  1  0.77495000  0.29007000  0.10778000  1.0 -0.5934948772
O  O16  1  0.70993000  0.89222000  0.22505000  1.0 -0.5934948772
O  O17  1  0.89222000  0.22505000  0.70993000  1.0 -0.5967495015
O  O18  1  0.22505000  0.70993000  0.89222000  1.0 -0.5967495015
O  O19  1  0.30004000  0.95817000  0.66649000  1.0 -0.5934948772
O  O20  1  0.95817000  0.66649000  0.30004000  1.0 -0.5934948772
O  O21  1  0.66649000  0.30004000  0.95817000  1.0 -0.5934948772
O  O22  1  0.69996000  0.04183000  0.33351000  1.0 -0.5934948772
O  O23  1  0.04183000  0.33351000  0.69996000  1.0 -0.5934948772
O  O24  1  0.33351000  0.69996000  0.04183000  1.0 -0.5934948772
O  O25  1  0.62846000  0.40796000  0.98808000  1.0 -0.6270710679
O  O26  1  0.40796000  0.98808000  0.62846000  1.0 -0.6270710679
O  O27  1  0.98808000  0.62846000  0.40796000  1.0 -0.6270710679
O  O28  1  0.37154000  0.59204000  0.01192000  1.0 -0.6270710679
O  O29  1  0.59204000  0.01192000  0.37154000  1.0 -0.6270710679
O  O30  1  0.01192000  0.37154000  0.59204000  1.0 -0.6270710679
O  O31  1  0.54609000  0.11591000  0.04000000  1.0 -0.5934948772
O  O32  1  0.11591000  0.04000000  0.54609000  1.0 -0.5934948772
O  O33  1  0.04000000  0.54609000  0.11591000  1.0 -0.5934948772
O  O34  1  0.45391000  0.88409000  0.96000000  1.0 -0.5934948772
O  O35  1  0.88409000  0.96000000  0.45391000  1.0 -0.5934948772
O  O36  1  0.96000000  0.45391000  0.88409000  1.0 -0.5934948772
O  O37  1  0.37125000  0.94501000  0.84424000  1.0 -0.6270710679
O  O38  1  0.94501000  0.84424000  0.37125000  1.0 -0.6270710679
O  O39  1  0.84424000  0.37125000  0.94501000  1.0 -0.6270710679
O  O40  1  0.62875000  0.05499000  0.15576000  1.0 -0.6215297933
O  O41  1  0.05499000  0.15576000  0.62875000  1.0 -0.6215297933
O  O42  1  0.15576000  0.62875000  0.05499000  1.0 -0.6215297933
O  O43  1  0.42609000  0.30356000  0.95105000  1.0 -0.6215297933
O  O44  1  0.30356000  0.95105000  0.42609000  1.0 -0.6215297933
O  O45  1  0.95105000  0.42609000  0.30356000  1.0 -0.6215297933
O  O46  1  0.57391000  0.69644000  0.04895000  1.0 -0.6215297933
O  O47  1  0.69644000  0.04895000  0.57391000  1.0 -0.6270710679
O  O48  1  0.04895000  0.57391000  0.69644000  1.0 -0.6215297933
O  O49  1  0.23467000  0.19910000  0.79333000  1.0 -0.5967495015
O  O50  1  0.19910000  0.79333000  0.23467000  1.0 -0.5967495015
O  O51  1  0.79333000  0.23467000  0.19910000  1.0 -0.5967495015
O  O52  1  0.76533000  0.80090000  0.20667000  1.0 -0.5934948772
O  O53  1  0.80090000  0.20667000  0.76533000  1.0 -0.5967495015
O  O54  1  0.20667000  0.76533000  0.80090000  1.0 -0.5934948772
O  O55  1  0.63084000  0.55418000  0.11908000  1.0 -0.6270710679
O  O56  1  0.55418000  0.11908000  0.63084000  1.0 -0.6270710679
O  O57  1  0.11908000  0.63084000  0.55418000  1.0 -0.6270710679
O  O58  1  0.36916000  0.44582000  0.88092000  1.0 -0.6270710679
O  O59  1  0.44582000  0.88092000  0.36916000  1.0 -0.6270710679
O  O60  1  0.88092000  0.36916000  0.44582000  1.0 -0.6215297933
O  O61  1  0.46775000  0.40543000  0.86602000  1.0 -0.6517380372
O  O62  1  0.40543000  0.86602000  0.46775000  1.0 -0.6517380372
O  O63  1  0.86602000  0.46775000  0.40543000  1.0 -0.6517380372
O  O64  1  0.53225000  0.59457000  0.13398000  1.0 -0.6517380372
O  O65  1  0.59457000  0.13398000  0.53225000  1.0 -0.6517380372
O  O66  1  0.13398000  0.53225000  0.59457000  1.0 -0.6517380372
O  O67  1  0.29739000  0.72651000  0.71690000  1.0 -0.5934948772
O  O68  1  0.72651000  0.71690000  0.29739000  1.0 -0.5934948772
O  O69  1  0.71690000  0.29739000  0.72651000  1.0 -0.5934948772
O  O70  1  0.70261000  0.27349000  0.28310000  1.0 -0.5934948772
O  O71  1  0.27349000  0.28310000  0.70261000  1.0 -0.5934948772
O  O72  1  0.28310000  0.70261000  0.27349000  1.0 -0.5934948772
O  O73  1  0.55210000  0.06880000  0.91760000  1.0 -0.528865481
O  O74  1  0.06880000  0.91760000  0.55210000  1.0 -0.528865481
O  O75  1  0.91760000  0.55210000  0.06880000  1.0 -0.5244220292
O  O76  1  0.44790000  0.93120000  0.08240000  1.0 -0.5244220292
O  O77  1  0.93120000  0.08240000  0.44790000  1.0 -0.528865481
O  O78  1  0.08240000  0.44790000  0.93120000  1.0 -0.528865481
