# DDEC6 charges by PACMAN v1.1 (https://github.com/mtap-research/PACMAN-charge/)
data_EBEZUI_FSR_pacman
_symmetry_space_group_name_H-M   'P 1'
_cell_length_a   16.75670000
_cell_length_b   16.75670000
_cell_length_c   13.19240000
_cell_angle_alpha   76.39920000
_cell_angle_beta   103.60100000
_cell_angle_gamma   70.45440000
_symmetry_Int_Tables_number   1
_chemical_formula_structural   Ag2H18C17N8
_chemical_formula_sum   'Ag8 H72 C68 N32'
_cell_volume   3187.53684027
_cell_formula_units_Z   4
loop_
 _symmetry_equiv_pos_site_id
 _symmetry_equiv_pos_as_xyz
  1  'x, y, z'
loop_
 _atom_site_type_symbol
 _atom_site_label
 _atom_site_symmetry_multiplicity
 _atom_site_fract_x
 _atom_site_fract_y
 _atom_site_fract_z
 _atom_site_occupancy
 _atom_site_charge
Ag  Ag1  1  0.89716000  0.76728000  0.20352000  1.0 0.2197109162
Ag  Ag2  1  0.76728000  0.89716000  0.29648000  1.0 0.2197109162
Ag  Ag3  1  0.10284000  0.23272000  0.79648000  1.0 0.2197109162
Ag  Ag4  1  0.23272000  0.10284000  0.70352000  1.0 0.2197109162
Ag  Ag5  1  0.45326000  0.49344000  0.11471000  1.0 0.2414177358
Ag  Ag6  1  0.49344000  0.45326000  0.38529000  1.0 0.2414177358
Ag  Ag7  1  0.54674000  0.50656000  0.88529000  1.0 0.2414177358
Ag  Ag8  1  0.50656000  0.54674000  0.61471000  1.0 0.2414177358
H  H1  1  0.01820000  0.39500000  0.35750000  1.0 0.1015373691
H  H2  1  0.39500000  0.01820000  0.14250000  1.0 0.1015373691
H  H3  1  0.98180000  0.60500000  0.64250000  1.0 0.1015373691
H  H4  1  0.60500000  0.98180000  0.85750000  1.0 0.1015373691
H  H5  1  0.97820000  0.37320000  0.45120000  1.0 0.1096179986
H  H6  1  0.37320000  0.97820000  0.04880000  1.0 0.1096179986
H  H7  1  0.02180000  0.62680000  0.54880000  1.0 0.1096179986
H  H8  1  0.62680000  0.02180000  0.95120000  1.0 0.1096179986
H  H9  1  0.97900000  0.55600000  0.25410000  1.0 0.1096179986
H  H10  1  0.55600000  0.97900000  0.24590000  1.0 0.1096179986
H  H11  1  0.02100000  0.44400000  0.74590000  1.0 0.1096179986
H  H12  1  0.44400000  0.02100000  0.75410000  1.0 0.1096179986
H  H13  1  0.85990000  0.51950000  0.47420000  1.0 0.1188323919
H  H14  1  0.51950000  0.85990000  0.02580000  1.0 0.1188323919
H  H15  1  0.14010000  0.48050000  0.52580000  1.0 0.1188323919
H  H16  1  0.48050000  0.14010000  0.97420000  1.0 0.1188323919
H  H17  1  0.83930000  0.67510000  0.41380000  1.0 0.1096179986
H  H18  1  0.67510000  0.83930000  0.08620000  1.0 0.1096179986
H  H19  1  0.16070000  0.32490000  0.58620000  1.0 0.1096179986
H  H20  1  0.32490000  0.16070000  0.91380000  1.0 0.1096179986
H  H21  1  0.11830000  0.22270000  0.45350000  1.0 0.1096179986
H  H22  1  0.22270000  0.11830000  0.04650000  1.0 0.1096179986
H  H23  1  0.88170000  0.77730000  0.54650000  1.0 0.1096179986
H  H24  1  0.77730000  0.88170000  0.95350000  1.0 0.1096179986
H  H25  1  0.02880000  0.09400000  0.64780000  1.0 0.1096179986
H  H26  1  0.09400000  0.02880000  0.85220000  1.0 0.1096179986
H  H27  1  0.97120000  0.90600000  0.35220000  1.0 0.1096179986
H  H28  1  0.90600000  0.97120000  0.14780000  1.0 0.1096179986
H  H29  1  0.90510000  0.18290000  0.47170000  1.0 0.1188323919
H  H30  1  0.18290000  0.90510000  0.02830000  1.0 0.1188323919
H  H31  1  0.09490000  0.81710000  0.52830000  1.0 0.1188323919
H  H32  1  0.81710000  0.09490000  0.97170000  1.0 0.1188323919
H  H33  1  0.98970000  0.28530000  0.27030000  1.0 0.1096179986
H  H34  1  0.28530000  0.98970000  0.22970000  1.0 0.1096179986
H  H35  1  0.01030000  0.71470000  0.72970000  1.0 0.1096179986
H  H36  1  0.71470000  0.01030000  0.77030000  1.0 0.1096179986
H  H37  1  0.90410000  0.26750000  0.27190000  1.0 0.1096179986
H  H38  1  0.26750000  0.90410000  0.22810000  1.0 0.1096179986
H  H39  1  0.09590000  0.73250000  0.72810000  1.0 0.1096179986
H  H40  1  0.73250000  0.09590000  0.77190000  1.0 0.1096179986
H  H41  1  0.79430000  0.46130000  0.33570000  1.0 0.1096179986
H  H42  1  0.46130000  0.79430000  0.16430000  1.0 0.1096179986
H  H43  1  0.20570000  0.53870000  0.66430000  1.0 0.1096179986
H  H44  1  0.53870000  0.20570000  0.83570000  1.0 0.1096179986
H  H45  1  0.83770000  0.36050000  0.41140000  1.0 0.1096179986
H  H46  1  0.36050000  0.83770000  0.08860000  1.0 0.1096179986
H  H47  1  0.16230000  0.63950000  0.58860000  1.0 0.1096179986
H  H48  1  0.63950000  0.16230000  0.91140000  1.0 0.1096179986
H  H49  1  0.77680000  0.25760000  0.28040000  1.0 0.1096179986
H  H50  1  0.25760000  0.77680000  0.21960000  1.0 0.1096179986
H  H51  1  0.22320000  0.74240000  0.71960000  1.0 0.1096179986
H  H52  1  0.74240000  0.22320000  0.78040000  1.0 0.1096179986
H  H53  1  0.61760000  0.29600000  0.18700000  1.0 0.1188323919
H  H54  1  0.29600000  0.61760000  0.31300000  1.0 0.1188323919
H  H55  1  0.38240000  0.70400000  0.81300000  1.0 0.1188323919
H  H56  1  0.70400000  0.38240000  0.68700000  1.0 0.1188323919
H  H57  1  0.63830000  0.51190000  0.23240000  1.0 0.1015373691
H  H58  1  0.51190000  0.63830000  0.26760000  1.0 0.1015373691
H  H59  1  0.36170000  0.48810000  0.76760000  1.0 0.1015373691
H  H60  1  0.48810000  0.36170000  0.73240000  1.0 0.1015373691
H  H61  1  0.75140000  0.33540000  0.93600000  1.0 0.1188323919
H  H62  1  0.33540000  0.75140000  0.56400000  1.0 0.1188323919
H  H63  1  0.24860000  0.66460000  0.06400000  1.0 0.1188323919
H  H64  1  0.66460000  0.24860000  0.43600000  1.0 0.1188323919
H  H65  1  0.88830000  0.31330000  0.07320000  1.0 0.1188323919
H  H66  1  0.31330000  0.88830000  0.42680000  1.0 0.1188323919
H  H67  1  0.11170000  0.68670000  0.92680000  1.0 0.1188323919
H  H68  1  0.68670000  0.11170000  0.57320000  1.0 0.1188323919
H  H69  1  0.69270000  0.53790000  0.04790000  1.0 0.1096179986
H  H70  1  0.53790000  0.69270000  0.45210000  1.0 0.1096179986
H  H71  1  0.30730000  0.46210000  0.95210000  1.0 0.1096179986
H  H72  1  0.46210000  0.30730000  0.54790000  1.0 0.1096179986
C  C1  1  0.96310000  0.40990000  0.37490000  1.0 -0.2196977586
C  C2  1  0.40990000  0.96310000  0.12510000  1.0 -0.2196977586
C  C3  1  0.03690000  0.59010000  0.62510000  1.0 -0.2196977586
C  C4  1  0.59010000  0.03690000  0.87490000  1.0 -0.2196977586
C  C5  1  0.94590000  0.56710000  0.30070000  1.0 0.0182197939
C  C6  1  0.56710000  0.94590000  0.19930000  1.0 0.0182197939
C  C7  1  0.05410000  0.43290000  0.69930000  1.0 0.0182197939
C  C8  1  0.43290000  0.05410000  0.80070000  1.0 0.0182197939
C  C9  1  0.88090000  0.54550000  0.42200000  1.0 -0.1468307674
C  C10  1  0.54550000  0.88090000  0.07800000  1.0 -0.1468307674
C  C11  1  0.11910000  0.45450000  0.57800000  1.0 -0.1468307674
C  C12  1  0.45450000  0.11910000  0.92200000  1.0 -0.1468307674
C  C13  1  0.87030000  0.63130000  0.38820000  1.0 -0.0674937713
C  C14  1  0.63130000  0.87030000  0.11180000  1.0 -0.0674937713
C  C15  1  0.12970000  0.36870000  0.61180000  1.0 -0.0674937713
C  C16  1  0.36870000  0.12970000  0.88820000  1.0 -0.0674937713
C  C17  1  0.08010000  0.20190000  0.48160000  1.0 0.0314026409
C  C18  1  0.20190000  0.08010000  0.01840000  1.0 0.0314026409
C  C19  1  0.91990000  0.79810000  0.51840000  1.0 0.0314026409
C  C20  1  0.79810000  0.91990000  0.98160000  1.0 0.0314026409
C  C21  1  0.03200000  0.13240000  0.58670000  1.0 -0.0539223636
C  C22  1  0.13240000  0.03200000  0.91330000  1.0 -0.0539223636
C  C23  1  0.96800000  0.86760000  0.41330000  1.0 -0.0539223636
C  C24  1  0.86760000  0.96800000  0.08670000  1.0 -0.0539223636
C  C25  1  0.96300000  0.18080000  0.48880000  1.0 -0.1406874508
C  C26  1  0.18080000  0.96300000  0.01120000  1.0 -0.1406874508
C  C27  1  0.03700000  0.81920000  0.51120000  1.0 -0.1406874508
C  C28  1  0.81920000  0.03700000  0.98880000  1.0 -0.1406874508
C  C29  1  0.94680000  0.28760000  0.30890000  1.0 -0.2321603391
C  C30  1  0.28760000  0.94680000  0.19110000  1.0 -0.2321603391
C  C31  1  0.05320000  0.71240000  0.69110000  1.0 -0.2321603391
C  C32  1  0.71240000  0.05320000  0.80890000  1.0 -0.2321603391
C  C33  1  0.89630000  0.38470000  0.29730000  1.0 0.1188323919
C  C34  1  0.38470000  0.89630000  0.20270000  1.0 0.1188323919
C  C35  1  0.10370000  0.61530000  0.70270000  1.0 0.1188323919
C  C36  1  0.61530000  0.10370000  0.79730000  1.0 0.1188323919
C  C37  1  0.81580000  0.40000000  0.33490000  1.0 -0.2321603391
C  C38  1  0.40000000  0.81580000  0.16510000  1.0 -0.2321603391
C  C39  1  0.18420000  0.60000000  0.66510000  1.0 -0.2321603391
C  C40  1  0.60000000  0.18420000  0.83490000  1.0 -0.2321603391
C  C41  1  0.72930000  0.31350000  0.25950000  1.0 -0.1253185794
C  C42  1  0.31350000  0.72930000  0.24050000  1.0 -0.1253185794
C  C43  1  0.27070000  0.68650000  0.74050000  1.0 -0.1253185794
C  C44  1  0.68650000  0.27070000  0.75950000  1.0 -0.1253185794
C  C45  1  0.64130000  0.33490000  0.20810000  1.0 -0.0674937713
C  C46  1  0.33490000  0.64130000  0.29190000  1.0 -0.0674937713
C  C47  1  0.35870000  0.66510000  0.79190000  1.0 -0.0674937713
C  C48  1  0.66510000  0.35870000  0.70810000  1.0 -0.0674937713
C  C49  1  0.65230000  0.45310000  0.23300000  1.0 0.0182197939
C  C50  1  0.45310000  0.65230000  0.26700000  1.0 0.0182197939
C  C51  1  0.34770000  0.54690000  0.76700000  1.0 0.0182197939
C  C52  1  0.54690000  0.34770000  0.73300000  1.0 0.0182197939
C  C53  1  0.75720000  0.37340000  0.97600000  1.0 -0.0559529178
C  C54  1  0.37340000  0.75720000  0.52400000  1.0 -0.0559529178
C  C55  1  0.24280000  0.62660000  0.02400000  1.0 -0.0559529178
C  C56  1  0.62660000  0.24280000  0.47600000  1.0 -0.0559529178
C  C57  1  0.83210000  0.36070000  0.05130000  1.0 -0.1231045724
C  C58  1  0.36070000  0.83210000  0.44870000  1.0 -0.1231045724
C  C59  1  0.16790000  0.63930000  0.94870000  1.0 -0.1231045724
C  C60  1  0.63930000  0.16790000  0.55130000  1.0 -0.1231045724
C  C61  1  0.72380000  0.48500000  0.03680000  1.0 0.0409783236
C  C62  1  0.48500000  0.72380000  0.46320000  1.0 0.0409783236
C  C63  1  0.27620000  0.51500000  0.96320000  1.0 0.0409783236
C  C64  1  0.51500000  0.27620000  0.53680000  1.0 0.0409783236
C  C65  1  0.87060000  0.44900000  0.17580000  1.0 -0.4705771208
C  C66  1  0.44900000  0.87060000  0.32420000  1.0 -0.4705771208
C  C67  1  0.12940000  0.55100000  0.82420000  1.0 -0.4705771208
C  C68  1  0.55100000  0.12940000  0.67580000  1.0 -0.4705771208
N  N1  1  0.92820000  0.50420000  0.36570000  1.0 0.0409783236
N  N2  1  0.50420000  0.92820000  0.13430000  1.0 0.0409783236
N  N3  1  0.07180000  0.49580000  0.63430000  1.0 0.0409783236
N  N4  1  0.49580000  0.07180000  0.86570000  1.0 0.0409783236
N  N5  1  0.91020000  0.64620000  0.31220000  1.0 -0.2369045019
N  N6  1  0.64620000  0.91020000  0.18780000  1.0 -0.2369045019
N  N7  1  0.08980000  0.35380000  0.68780000  1.0 -0.2369045019
N  N8  1  0.35380000  0.08980000  0.81220000  1.0 -0.2369045019
N  N9  1  0.10610000  0.14750000  0.58340000  1.0 -0.248763837
N  N10  1  0.14750000  0.10610000  0.91660000  1.0 -0.248763837
N  N11  1  0.89390000  0.85250000  0.41660000  1.0 -0.248763837
N  N12  1  0.85250000  0.89390000  0.08340000  1.0 -0.248763837
N  N13  1  0.99470000  0.22530000  0.42130000  1.0 0.0314026409
N  N14  1  0.22530000  0.99470000  0.07870000  1.0 0.0314026409
N  N15  1  0.00530000  0.77470000  0.57870000  1.0 0.0314026409
N  N16  1  0.77470000  0.00530000  0.92130000  1.0 0.0314026409
N  N17  1  0.73550000  0.38810000  0.27500000  1.0 0.0314026409
N  N18  1  0.38810000  0.73550000  0.22500000  1.0 0.0314026409
N  N19  1  0.26450000  0.61190000  0.72500000  1.0 0.0314026409
N  N20  1  0.61190000  0.26450000  0.77500000  1.0 0.0314026409
N  N21  1  0.59260000  0.42400000  0.19240000  1.0 -0.248763837
N  N22  1  0.42400000  0.59260000  0.30760000  1.0 -0.248763837
N  N23  1  0.40740000  0.57600000  0.80760000  1.0 -0.248763837
N  N24  1  0.57600000  0.40740000  0.69240000  1.0 -0.248763837
N  N25  1  0.69000000  0.45060000  0.96640000  1.0 -0.2064915449
N  N26  1  0.45060000  0.69000000  0.53360000  1.0 -0.2064915449
N  N27  1  0.31000000  0.54940000  0.03360000  1.0 -0.2064915449
N  N28  1  0.54940000  0.31000000  0.46640000  1.0 -0.2064915449
N  N29  1  0.81160000  0.42920000  0.08990000  1.0 0.0807235874
N  N30  1  0.42920000  0.81160000  0.41010000  1.0 0.0807235874
N  N31  1  0.18840000  0.57080000  0.91010000  1.0 0.0807235874
N  N32  1  0.57080000  0.18840000  0.58990000  1.0 0.0807235874
