# DDEC6 charges by PACMAN v1.1 (https://github.com/mtap-research/PACMAN-charge/)
data_EBISAM_FSR_pacman
_symmetry_space_group_name_H-M   'P 1'
_cell_length_a   9.76351000
_cell_length_b   23.25620000
_cell_length_c   10.73260000
_cell_angle_alpha   90.00000000
_cell_angle_beta   105.39300000
_cell_angle_gamma   90.00000000
_symmetry_Int_Tables_number   1
_chemical_formula_structural   ZnH20C19N4O5
_chemical_formula_sum   'Zn4 H80 C76 N16 O20'
_cell_volume   2349.54786429
_cell_formula_units_Z   4
loop_
 _symmetry_equiv_pos_site_id
 _symmetry_equiv_pos_as_xyz
  1  'x, y, z'
loop_
 _atom_site_type_symbol
 _atom_site_label
 _atom_site_symmetry_multiplicity
 _atom_site_fract_x
 _atom_site_fract_y
 _atom_site_fract_z
 _atom_site_occupancy
 _atom_site_charge
Zn  Zn1  1  0.03161000  0.89934000  0.67041000  1.0 0.7342576113
Zn  Zn2  1  0.46839000  0.39934000  0.32959000  1.0 0.7342576113
Zn  Zn3  1  0.96839000  0.10066000  0.32959000  1.0 0.7342576113
Zn  Zn4  1  0.53161000  0.60066000  0.67041000  1.0 0.7342576113
H  H1  1  0.48450000  0.92150000  0.63180000  1.0 0.1100559839
H  H2  1  0.01550000  0.42150000  0.36820000  1.0 0.1100559839
H  H3  1  0.51550000  0.07850000  0.36820000  1.0 0.1100559839
H  H4  1  0.98450000  0.57850000  0.63180000  1.0 0.1100559839
H  H5  1  0.72100000  0.02870000  0.47520000  1.0 0.1100559839
H  H6  1  0.77900000  0.52870000  0.52480000  1.0 0.1100559839
H  H7  1  0.27900000  0.97130000  0.52480000  1.0 0.1100559839
H  H8  1  0.22100000  0.47130000  0.47520000  1.0 0.1100559839
H  H9  1  0.56700000  0.93530000  0.85900000  1.0 0.102516719
H  H10  1  0.93300000  0.43530000  0.14100000  1.0 0.102516719
H  H11  1  0.43300000  0.06470000  0.14100000  1.0 0.102516719
H  H12  1  0.06700000  0.56470000  0.85900000  1.0 0.102516719
H  H13  1  0.26040000  0.01030000  0.99620000  1.0 0.1100559839
H  H14  1  0.23960000  0.51030000  0.00380000  1.0 0.1100559839
H  H15  1  0.73960000  0.98970000  0.00380000  1.0 0.1100559839
H  H16  1  0.76040000  0.48970000  0.99620000  1.0 0.1100559839
H  H17  1  0.95500000  0.95110000  0.38630000  1.0 0.1192961131
H  H18  1  0.54500000  0.45110000  0.61370000  1.0 0.1192961131
H  H19  1  0.04500000  0.04890000  0.61370000  1.0 0.1192961131
H  H20  1  0.45500000  0.54890000  0.38630000  1.0 0.1192961131
H  H21  1  0.22310000  0.82370000  0.52130000  1.0 0.1192961131
H  H22  1  0.27690000  0.32370000  0.47870000  1.0 0.1192961131
H  H23  1  0.77690000  0.17630000  0.47870000  1.0 0.1192961131
H  H24  1  0.72310000  0.67630000  0.52130000  1.0 0.1192961131
H  H25  1  0.22760000  0.84120000  0.29460000  1.0 0.1269913194
H  H26  1  0.27240000  0.34120000  0.70540000  1.0 0.1269913194
H  H27  1  0.77240000  0.15880000  0.70540000  1.0 0.1269913194
H  H28  1  0.72760000  0.65880000  0.29460000  1.0 0.1269913194
H  H29  1  0.13580000  0.94870000  0.15320000  1.0 0.1100559839
H  H30  1  0.36420000  0.44870000  0.84680000  1.0 0.1100559839
H  H31  1  0.86420000  0.05130000  0.84680000  1.0 0.1100559839
H  H32  1  0.63580000  0.55130000  0.15320000  1.0 0.1100559839
H  H33  1  0.97820000  0.96330000  0.16160000  1.0 0.1192961131
H  H34  1  0.52180000  0.46330000  0.83840000  1.0 0.1192961131
H  H35  1  0.02180000  0.03670000  0.83840000  1.0 0.1192961131
H  H36  1  0.47820000  0.53670000  0.16160000  1.0 0.1192961131
H  H37  1  0.06060000  0.85770000  0.06440000  1.0 0.090397681
H  H38  1  0.43940000  0.35770000  0.93560000  1.0 0.090397681
H  H39  1  0.93940000  0.14230000  0.93560000  1.0 0.090397681
H  H40  1  0.56060000  0.64230000  0.06440000  1.0 0.090397681
H  H41  1  0.96900000  0.90700000  0.97650000  1.0 0.102516719
H  H42  1  0.53100000  0.40700000  0.02350000  1.0 0.102516719
H  H43  1  0.03100000  0.09300000  0.02350000  1.0 0.102516719
H  H44  1  0.46900000  0.59300000  0.97650000  1.0 0.102516719
H  H45  1  0.78140000  0.88920000  0.07860000  1.0 0.090397681
H  H46  1  0.71860000  0.38920000  0.92140000  1.0 0.090397681
H  H47  1  0.21860000  0.11080000  0.92140000  1.0 0.090397681
H  H48  1  0.28140000  0.61080000  0.07860000  1.0 0.090397681
H  H49  1  0.87230000  0.83680000  0.15530000  1.0 0.090397681
H  H50  1  0.62770000  0.33680000  0.84470000  1.0 0.090397681
H  H51  1  0.12770000  0.16320000  0.84470000  1.0 0.090397681
H  H52  1  0.37230000  0.66320000  0.15530000  1.0 0.090397681
H  H53  1  0.77410000  0.84050000  0.87830000  1.0 0.102516719
H  H54  1  0.72590000  0.34050000  0.12170000  1.0 0.102516719
H  H55  1  0.22590000  0.15950000  0.12170000  1.0 0.102516719
H  H56  1  0.27410000  0.65950000  0.87830000  1.0 0.102516719
H  H57  1  0.85390000  0.78690000  0.96010000  1.0 0.0845060152
H  H58  1  0.64610000  0.28690000  0.03990000  1.0 0.0845060152
H  H59  1  0.14610000  0.21310000  0.03990000  1.0 0.0845060152
H  H60  1  0.35390000  0.71310000  0.96010000  1.0 0.0845060152
H  H61  1  0.66040000  0.77320000  0.05060000  1.0 0.1100559839
H  H62  1  0.83960000  0.27320000  0.94940000  1.0 0.1100559839
H  H63  1  0.33960000  0.22680000  0.94940000  1.0 0.1100559839
H  H64  1  0.16040000  0.72680000  0.05060000  1.0 0.1100559839
H  H65  1  0.58110000  0.82760000  0.97240000  1.0 0.1192961131
H  H66  1  0.91890000  0.32760000  0.02760000  1.0 0.1192961131
H  H67  1  0.41890000  0.17240000  0.02760000  1.0 0.1192961131
H  H68  1  0.08110000  0.67240000  0.97240000  1.0 0.1192961131
H  H69  1  0.41790000  0.80760000  0.74320000  1.0 0.1402912912
H  H70  1  0.08210000  0.30760000  0.25680000  1.0 0.1402912912
H  H71  1  0.58210000  0.19240000  0.25680000  1.0 0.1402912912
H  H72  1  0.91790000  0.69240000  0.74320000  1.0 0.1402912912
H  H73  1  0.36030000  0.72020000  0.60750000  1.0 0.1192961131
H  H74  1  0.13970000  0.22020000  0.39250000  1.0 0.1192961131
H  H75  1  0.63970000  0.27980000  0.39250000  1.0 0.1192961131
H  H76  1  0.86030000  0.77980000  0.60750000  1.0 0.1192961131
H  H77  1  0.68930000  0.68250000  0.90130000  1.0 0.1100559839
H  H78  1  0.81070000  0.18250000  0.09870000  1.0 0.1100559839
H  H79  1  0.31070000  0.31750000  0.09870000  1.0 0.1100559839
H  H80  1  0.18930000  0.81750000  0.90130000  1.0 0.1100559839
C  C1  1  0.75560000  0.93804000  0.63439000  1.0 0.4522026059
C  C2  1  0.74440000  0.43804000  0.36561000  1.0 0.4522026059
C  C3  1  0.24440000  0.06196000  0.36561000  1.0 0.4522026059
C  C4  1  0.25560000  0.56196000  0.63439000  1.0 0.4522026059
C  C5  1  0.62299000  0.97056000  0.56445000  1.0 -0.0376317251
C  C6  1  0.87701000  0.47056000  0.43555000  1.0 -0.0376317251
C  C7  1  0.37701000  0.02944000  0.43555000  1.0 -0.0376317251
C  C8  1  0.12299000  0.52944000  0.56445000  1.0 -0.0376317251
C  C9  1  0.49092000  0.95346000  0.57842000  1.0 -0.1210647278
C  C10  1  0.00908000  0.45346000  0.42158000  1.0 -0.1210647278
C  C11  1  0.50908000  0.04654000  0.42158000  1.0 -0.1210647278
C  C12  1  0.99092000  0.54654000  0.57842000  1.0 -0.1210647278
C  C13  1  0.63138000  0.01704000  0.48554000  1.0 -0.0883497271
C  C14  1  0.86862000  0.51704000  0.51446000  1.0 -0.0883497271
C  C15  1  0.36862000  0.98296000  0.51446000  1.0 -0.0883497271
C  C16  1  0.13138000  0.48296000  0.48554000  1.0 -0.0883497271
C  C17  1  0.28564000  0.93299000  0.81956000  1.0 0.5411170003
C  C18  1  0.21436000  0.43299000  0.18044000  1.0 0.5411170003
C  C19  1  0.71436000  0.06701000  0.18044000  1.0 0.5411170003
C  C20  1  0.78564000  0.56701000  0.81956000  1.0 0.5411170003
C  C21  1  0.39611000  0.96778000  0.91304000  1.0 -0.0160863531
C  C22  1  0.10389000  0.46778000  0.08696000  1.0 -0.0160863531
C  C23  1  0.60389000  0.03222000  0.08696000  1.0 -0.0160863531
C  C24  1  0.89611000  0.53222000  0.91304000  1.0 -0.0160863531
C  C25  1  0.53980000  0.96155000  0.91597000  1.0 -0.1210647278
C  C26  1  0.96020000  0.46155000  0.08403000  1.0 -0.1210647278
C  C27  1  0.46020000  0.03845000  0.08403000  1.0 -0.1210647278
C  C28  1  0.03980000  0.53845000  0.91597000  1.0 -0.1210647278
C  C29  1  0.35761000  0.00617000  0.99761000  1.0 -0.1210647278
C  C30  1  0.14239000  0.50617000  0.00239000  1.0 -0.1210647278
C  C31  1  0.64239000  0.99383000  0.00239000  1.0 -0.1210647278
C  C32  1  0.85761000  0.49383000  0.99761000  1.0 -0.1210647278
C  C33  1  0.02302000  0.92129000  0.39244000  1.0 0.102516719
C  C34  1  0.47698000  0.42129000  0.60756000  1.0 0.102516719
C  C35  1  0.97698000  0.07871000  0.60756000  1.0 0.102516719
C  C36  1  0.52302000  0.57871000  0.39244000  1.0 0.102516719
C  C37  1  0.16890000  0.85183000  0.46519000  1.0 -0.0327237408
C  C38  1  0.33110000  0.35183000  0.53481000  1.0 -0.0327237408
C  C39  1  0.83110000  0.14817000  0.53481000  1.0 -0.0327237408
C  C40  1  0.66890000  0.64817000  0.46519000  1.0 -0.0327237408
C  C41  1  0.17240000  0.86131000  0.34120000  1.0 -0.1107916176
C  C42  1  0.32760000  0.36131000  0.65880000  1.0 -0.1107916176
C  C43  1  0.82760000  0.13869000  0.65880000  1.0 -0.1107916176
C  C44  1  0.67240000  0.63869000  0.34120000  1.0 -0.1107916176
C  C45  1  0.04790000  0.93187000  0.16712000  1.0 -0.127351124
C  C46  1  0.45210000  0.43187000  0.83288000  1.0 -0.127351124
C  C47  1  0.95210000  0.06813000  0.83288000  1.0 -0.127351124
C  C48  1  0.54790000  0.56813000  0.16712000  1.0 -0.127351124
C  C49  1  0.98810000  0.88780000  0.06164000  1.0 -0.1993810135
C  C50  1  0.51190000  0.38780000  0.93836000  1.0 -0.1993810135
C  C51  1  0.01190000  0.11220000  0.93836000  1.0 -0.1993810135
C  C52  1  0.48810000  0.61220000  0.06164000  1.0 -0.1993810135
C  C53  1  0.85170000  0.85913000  0.07390000  1.0 -0.1649897817
C  C54  1  0.64830000  0.35913000  0.92610000  1.0 -0.1649897817
C  C55  1  0.14830000  0.14087000  0.92610000  1.0 -0.1649897817
C  C56  1  0.35170000  0.64087000  0.07390000  1.0 -0.1708795014
C  C57  1  0.78750000  0.81910000  0.96042000  1.0 -0.2172334317
C  C58  1  0.71250000  0.31910000  0.03958000  1.0 -0.2172334317
C  C59  1  0.21250000  0.18090000  0.03958000  1.0 -0.2172334317
C  C60  1  0.28750000  0.68090000  0.96042000  1.0 -0.2172334317
C  C61  1  0.64590000  0.79522000  0.96920000  1.0 -0.1210647278
C  C62  1  0.85410000  0.29522000  0.03080000  1.0 -0.1107916176
C  C63  1  0.35410000  0.20478000  0.03080000  1.0 -0.1210647278
C  C64  1  0.14590000  0.70478000  0.96920000  1.0 -0.1210647278
C  C65  1  0.46550000  0.77159000  0.75860000  1.0 -0.1107916176
C  C66  1  0.03450000  0.27159000  0.24140000  1.0 -0.1107916176
C  C67  1  0.53450000  0.22841000  0.24140000  1.0 -0.1107916176
C  C68  1  0.96550000  0.72841000  0.75860000  1.0 -0.1107916176
C  C69  1  0.43510000  0.72355000  0.68450000  1.0 -0.0480463776
C  C70  1  0.06490000  0.22355000  0.31550000  1.0 -0.0480463776
C  C71  1  0.56490000  0.27645000  0.31550000  1.0 -0.0480463776
C  C72  1  0.93510000  0.77645000  0.68450000  1.0 -0.0480463776
C  C73  1  0.61380000  0.70269000  0.84402000  1.0 0.0515349006
C  C74  1  0.88620000  0.20269000  0.15598000  1.0 0.0515349006
C  C75  1  0.38620000  0.29731000  0.15598000  1.0 0.0515349006
C  C76  1  0.11380000  0.79731000  0.84402000  1.0 0.0515349006
N  N1  1  0.07454000  0.88940000  0.49693000  1.0 -0.2931846279
N  N2  1  0.42546000  0.38940000  0.50307000  1.0 -0.2931846279
N  N3  1  0.92546000  0.11060000  0.50307000  1.0 -0.2931846279
N  N4  1  0.57454000  0.61060000  0.49693000  1.0 -0.2931846279
N  N5  1  0.07984000  0.90580000  0.29667000  1.0 0.0515349006
N  N6  1  0.42016000  0.40580000  0.70333000  1.0 0.0515349006
N  N7  1  0.92016000  0.09420000  0.70333000  1.0 0.0515349006
N  N8  1  0.57984000  0.59420000  0.29667000  1.0 0.0515349006
N  N9  1  0.57867000  0.75764000  0.85979000  1.0 0.0515349006
N  N10  1  0.92133000  0.25764000  0.14021000  1.0 0.0515349006
N  N11  1  0.42133000  0.24236000  0.14021000  1.0 0.0515349006
N  N12  1  0.07867000  0.74236000  0.85979000  1.0 0.0515349006
N  N13  1  0.52861000  0.68067000  0.73760000  1.0 -0.2931846279
N  N14  1  0.97139000  0.18067000  0.26240000  1.0 -0.2931846279
N  N15  1  0.47139000  0.31933000  0.26240000  1.0 -0.2931846279
N  N16  1  0.02861000  0.81933000  0.73760000  1.0 -0.2931846279
O  O1  1  0.86495000  0.94771000  0.59962000  1.0 -0.5263423148
O  O2  1  0.63505000  0.44771000  0.40038000  1.0 -0.5247746232
O  O3  1  0.13505000  0.05229000  0.40038000  1.0 -0.5263423148
O  O4  1  0.36495000  0.55229000  0.59962000  1.0 -0.5247746232
O  O5  1  0.76130000  0.91440000  0.73830000  1.0 -0.127351124
O  O6  1  0.73870000  0.41440000  0.26170000  1.0 -0.127351124
O  O7  1  0.23870000  0.08560000  0.26170000  1.0 -0.127351124
O  O8  1  0.26130000  0.58560000  0.73830000  1.0 -0.127351124
O  O9  1  0.15658000  0.95034000  0.79811000  1.0 -0.5657969835
O  O10  1  0.34342000  0.45034000  0.20189000  1.0 -0.5657969835
O  O11  1  0.84342000  0.04966000  0.20189000  1.0 -0.5657969835
O  O12  1  0.65658000  0.54966000  0.79811000  1.0 -0.5657969835
O  O13  1  0.32105000  0.89009000  0.76777000  1.0 -0.5595520261
O  O14  1  0.17895000  0.39009000  0.23223000  1.0 -0.5595520261
O  O15  1  0.67895000  0.10991000  0.23223000  1.0 -0.5595520261
O  O16  1  0.82105000  0.60991000  0.76777000  1.0 -0.5595520261
O  O17  1  0.73500000  0.88900000  0.68150000  1.0 -0.1708795014
O  O18  1  0.76500000  0.38900000  0.31850000  1.0 -0.1708795014
O  O19  1  0.26500000  0.11100000  0.31850000  1.0 -0.1708795014
O  O20  1  0.23500000  0.61100000  0.68150000  1.0 -0.1708795014
