# DDEC6 charges by PACMAN v1.1 (https://github.com/mtap-research/PACMAN-charge/)
data_EBITAL_FSR_pacman
_symmetry_space_group_name_H-M   'P 1'
_cell_length_a   8.59830000
_cell_length_b   13.15610000
_cell_length_c   13.46000000
_cell_angle_alpha   90.00000000
_cell_angle_beta   92.47000000
_cell_angle_gamma   90.00000000
_symmetry_Int_Tables_number   1
_chemical_formula_structural   Be3P4(HO3)4
_chemical_formula_sum   'Be12 P16 H16 O48'
_cell_volume   1521.18186541
_cell_formula_units_Z   4
loop_
 _symmetry_equiv_pos_site_id
 _symmetry_equiv_pos_as_xyz
  1  'x, y, z'
loop_
 _atom_site_type_symbol
 _atom_site_label
 _atom_site_symmetry_multiplicity
 _atom_site_fract_x
 _atom_site_fract_y
 _atom_site_fract_z
 _atom_site_occupancy
 _atom_site_charge
Be  Be1  1  0.42170000  0.88040000  0.74950000  1.0 1.0110925492
Be  Be2  1  0.57830000  0.38040000  0.75050000  1.0 1.0110925492
Be  Be3  1  0.57830000  0.11960000  0.25050000  1.0 1.0152571258
Be  Be4  1  0.42170000  0.61960000  0.24950000  1.0 1.0278021154
Be  Be5  1  0.84380000  0.00460000  0.76050000  1.0 1.0502725598
Be  Be6  1  0.15620000  0.50460000  0.73950000  1.0 1.0667968449
Be  Be7  1  0.15620000  0.99540000  0.23950000  1.0 1.0624873695
Be  Be8  1  0.84380000  0.49540000  0.26050000  1.0 1.0502725598
Be  Be9  1  0.32300000  0.17380000  0.59540000  1.0 1.0624873695
Be  Be10  1  0.67700000  0.67380000  0.90460000  1.0 1.0502725598
Be  Be11  1  0.67700000  0.82620000  0.40460000  1.0 1.0502725598
Be  Be12  1  0.32300000  0.32620000  0.09540000  1.0 1.0667968449
P  P1  1  0.69147000  0.86335000  0.62421000  1.0 0.9206867275
P  P2  1  0.30853000  0.36335000  0.87579000  1.0 0.9113182879
P  P3  1  0.30853000  0.13665000  0.37579000  1.0 0.9113182879
P  P4  1  0.69147000  0.63665000  0.12421000  1.0 0.9113182879
P  P5  1  0.65913000  0.89959000  0.90739000  1.0 0.9901686169
P  P6  1  0.34087000  0.39959000  0.59261000  1.0 0.9901686169
P  P7  1  0.34087000  0.10041000  0.09261000  1.0 0.9833508787
P  P8  1  0.65913000  0.60041000  0.40739000  1.0 0.9833508787
P  P9  1  0.39576000  0.65876000  0.77167000  1.0 0.9901686169
P  P10  1  0.60424000  0.15876000  0.72833000  1.0 0.9901686169
P  P11  1  0.60424000  0.34124000  0.22833000  1.0 0.9901686169
P  P12  1  0.39576000  0.84124000  0.27167000  1.0 0.9901686169
P  P13  1  0.18789000  0.04609000  0.75117000  1.0 0.9525702851
P  P14  1  0.81211000  0.54609000  0.74883000  1.0 0.9525702851
P  P15  1  0.81211000  0.95391000  0.24883000  1.0 0.9551044759
P  P16  1  0.18789000  0.45391000  0.25117000  1.0 0.9525702851
H  H1  1  0.70300000  0.76200000  0.64100000  1.0 -0.1638785134
H  H2  1  0.29700000  0.26200000  0.85900000  1.0 -0.1638785134
H  H3  1  0.29700000  0.23800000  0.35900000  1.0 -0.1638785134
H  H4  1  0.70300000  0.73800000  0.14100000  1.0 -0.1638785134
H  H5  1  0.64000000  0.92700000  0.01000000  1.0 -0.1380766275
H  H6  1  0.36000000  0.42700000  0.49000000  1.0 -0.1380766275
H  H7  1  0.36000000  0.07300000  0.99000000  1.0 -0.1380766275
H  H8  1  0.64000000  0.57300000  0.51000000  1.0 -0.1380766275
H  H9  1  0.46800000  0.62220000  0.68390000  1.0 -0.1879572365
H  H10  1  0.53200000  0.12220000  0.81610000  1.0 -0.1879572365
H  H11  1  0.53200000  0.37780000  0.31610000  1.0 -0.1879572365
H  H12  1  0.46800000  0.87780000  0.18390000  1.0 -0.1879572365
H  H13  1  0.26600000  0.08000000  0.83200000  1.0 -0.1380766275
H  H14  1  0.73400000  0.58000000  0.66800000  1.0 -0.1380766275
H  H15  1  0.73400000  0.92000000  0.16800000  1.0 -0.1380766275
H  H16  1  0.26600000  0.42000000  0.33200000  1.0 -0.1380766275
O  O1  1  0.53690000  0.90239000  0.65914000  1.0 -0.5469861109
O  O2  1  0.46310000  0.40239000  0.84086000  1.0 -0.5469861109
O  O3  1  0.46310000  0.09761000  0.34086000  1.0 -0.5469861109
O  O4  1  0.53690000  0.59761000  0.15914000  1.0 -0.5469861109
O  O5  1  0.49830000  0.90525000  0.85743000  1.0 -0.5469861109
O  O6  1  0.50170000  0.40525000  0.64257000  1.0 -0.5469861109
O  O7  1  0.50170000  0.09475000  0.14257000  1.0 -0.5469861109
O  O8  1  0.49830000  0.59475000  0.35743000  1.0 -0.5469861109
O  O9  1  0.36370000  0.76467000  0.73529000  1.0 -0.5200133466
O  O10  1  0.63630000  0.26467000  0.76471000  1.0 -0.5200133466
O  O11  1  0.63630000  0.23533000  0.26471000  1.0 -0.5200133466
O  O12  1  0.36370000  0.73533000  0.23529000  1.0 -0.5200133466
O  O13  1  0.26390000  0.94551000  0.72950000  1.0 -0.5200133466
O  O14  1  0.73610000  0.44551000  0.77050000  1.0 -0.5200133466
O  O15  1  0.73610000  0.05449000  0.27050000  1.0 -0.5200133466
O  O16  1  0.26390000  0.55449000  0.22950000  1.0 -0.5200133466
O  O17  1  0.82890000  0.90976000  0.68155000  1.0 -0.5200133466
O  O18  1  0.17110000  0.40976000  0.81845000  1.0 -0.5200133466
O  O19  1  0.17110000  0.09024000  0.31845000  1.0 -0.5200133466
O  O20  1  0.82890000  0.59024000  0.18155000  1.0 -0.5200133466
O  O21  1  0.77470000  0.97346000  0.86635000  1.0 -0.5407931218
O  O22  1  0.22530000  0.47346000  0.63365000  1.0 -0.5407931218
O  O23  1  0.22530000  0.02654000  0.13365000  1.0 -0.5407931218
O  O24  1  0.77470000  0.52654000  0.36635000  1.0 -0.5407931218
O  O25  1  0.02430000  0.03150000  0.78112000  1.0 -0.4896415118
O  O26  1  0.97570000  0.53150000  0.71888000  1.0 -0.4896415118
O  O27  1  0.97570000  0.96850000  0.21888000  1.0 -0.4896415118
O  O28  1  0.02430000  0.46850000  0.28112000  1.0 -0.4896415118
O  O29  1  0.19850000  0.12143000  0.66729000  1.0 -0.5407931218
O  O30  1  0.80150000  0.62143000  0.83271000  1.0 -0.5407931218
O  O31  1  0.80150000  0.87857000  0.33271000  1.0 -0.5407931218
O  O32  1  0.19850000  0.37857000  0.16729000  1.0 -0.5407931218
O  O33  1  0.70260000  0.88070000  0.51336000  1.0 -0.5066627878
O  O34  1  0.29740000  0.38070000  0.98664000  1.0 -0.5066627878
O  O35  1  0.29740000  0.11930000  0.48664000  1.0 -0.5066627878
O  O36  1  0.70260000  0.61930000  0.01336000  1.0 -0.5066627878
O  O37  1  0.72510000  0.79287000  0.91003000  1.0 -0.5469861109
O  O38  1  0.27490000  0.29287000  0.58997000  1.0 -0.5469861109
O  O39  1  0.27490000  0.20713000  0.08997000  1.0 -0.5469861109
O  O40  1  0.72510000  0.70713000  0.41003000  1.0 -0.5407931218
O  O41  1  0.24300000  0.60485000  0.78784000  1.0 -0.5066627878
O  O42  1  0.75700000  0.10485000  0.71216000  1.0 -0.5066627878
O  O43  1  0.75700000  0.39515000  0.21216000  1.0 -0.5066627878
O  O44  1  0.24300000  0.89515000  0.28784000  1.0 -0.5066627878
O  O45  1  0.49720000  0.65659000  0.86668000  1.0 -0.5630258861
O  O46  1  0.50280000  0.15659000  0.63332000  1.0 -0.5630258861
O  O47  1  0.50280000  0.34341000  0.13332000  1.0 -0.5630258861
O  O48  1  0.49720000  0.84341000  0.36668000  1.0 -0.5630258861
