# DDEC6 charges by PACMAN v1.1 (https://github.com/mtap-research/PACMAN-charge/)
data_EBIVUK_FSR_pacman
_symmetry_space_group_name_H-M   'P 1'
_cell_length_a   14.23850000
_cell_length_b   14.28160000
_cell_length_c   16.05350000
_cell_angle_alpha   84.43500000
_cell_angle_beta   108.76500000
_cell_angle_gamma   117.66100000
_symmetry_Int_Tables_number   1
_chemical_formula_structural   Zn2H39C51(N2O5)2
_chemical_formula_sum   'Zn4 H78 C102 N8 O20'
_cell_volume   2732.33117921
_cell_formula_units_Z   2
loop_
 _symmetry_equiv_pos_site_id
 _symmetry_equiv_pos_as_xyz
  1  'x, y, z'
loop_
 _atom_site_type_symbol
 _atom_site_label
 _atom_site_symmetry_multiplicity
 _atom_site_fract_x
 _atom_site_fract_y
 _atom_site_fract_z
 _atom_site_occupancy
 _atom_site_charge
Zn  Zn1  1  0.94665000  0.96336000  0.19328000  1.0 0.8721615609
Zn  Zn2  1  0.11957000  0.04261000  0.39009000  1.0 0.8171572026
Zn  Zn3  1  0.05335000  0.03664000  0.80672000  1.0 0.8721615609
Zn  Zn4  1  0.88043000  0.95739000  0.60991000  1.0 0.8171572026
H  H1  1  0.40560000  0.26510000  0.30840000  1.0 0.1199414857
H  H2  1  0.20750000  0.08340000  0.08560000  1.0 0.1087483732
H  H3  1  0.54350000  0.35860000  0.24450000  1.0 0.1396733027
H  H4  1  0.34290000  0.18420000  0.01770000  1.0 0.1296644558
H  H5  1  0.48380000  0.47860000  0.11160000  1.0 0.1296644558
H  H6  1  0.73650000  0.44100000  0.08770000  1.0 0.1396733027
H  H7  1  0.59550000  0.65930000  0.13010000  1.0 0.1199414857
H  H8  1  0.85000000  0.62420000  0.11430000  1.0 0.1199414857
H  H9  1  0.99860000  0.24850000  0.45390000  1.0 0.1199414857
H  H10  1  0.80710000  0.15380000  0.20380000  1.0 0.1087483732
H  H11  1  0.92750000  0.36330000  0.45640000  1.0 0.1396733027
H  H12  1  0.74010000  0.27510000  0.20500000  1.0 0.1396733027
H  H13  1  0.99320000  0.50900000  0.32580000  1.0 0.1296644558
H  H14  1  0.73060000  0.53910000  0.33940000  1.0 0.1478908118
H  H15  1  0.09780000  0.69010000  0.33960000  1.0 0.1199414857
H  H16  1  0.83760000  0.72410000  0.34660000  1.0 0.1087483732
H  H17  1  0.38680000  0.98470000  0.79170000  1.0 0.2568104919
H  H18  1  0.48210000  0.15240000  0.96760000  1.0 0.1199414857
H  H19  1  0.46870000  0.88910000  0.88920000  1.0 0.1087483732
H  H20  1  0.14430000  0.14160000  0.55480000  1.0 0.1199414857
H  H21  1  0.25580000  0.17400000  0.70110000  1.0 0.1296644558
H  H22  1  0.40600000  0.01540000  0.65400000  1.0 0.1296644558
H  H23  1  0.29450000  0.98310000  0.50760000  1.0 0.1199414857
H  H24  1  0.56990000  0.24750000  0.85780000  1.0 0.1478908118
H  H25  1  0.50340000  0.28750000  0.77750000  1.0 0.1586772811
H  H26  1  0.56450000  0.22680000  0.76180000  1.0 0.1478908118
H  H27  1  0.89750000  0.34960000  0.82170000  1.0 0.2568104919
H  H28  1  0.70390000  0.10280000  0.98370000  1.0 0.1087483732
H  H29  1  0.75750000  0.00520000  0.09410000  1.0 0.1087483732
H  H30  1  0.03590000  0.09350000  0.04640000  1.0 0.1087483732
H  H31  1  0.99460000  0.20110000  0.93760000  1.0 0.1478908118
H  H32  1  0.75840000  0.24770000  0.88960000  1.0 0.0810433216
H  H33  1  0.04710000  0.52220000  0.87130000  1.0 0.1199414857
H  H34  1  0.73250000  0.20430000  0.74260000  1.0 0.1396733027
H  H35  1  0.69670000  0.09980000  0.79260000  1.0 0.1478908118
H  H36  1  0.81260000  0.15220000  0.77570000  1.0 0.1586772811
H  H37  1  0.12580000  0.91220000  0.55510000  1.0 0.0014011999
H  H38  1  0.16010000  0.62640000  0.00410000  1.0 0.1199414857
H  H39  1  0.06520000  0.65760000  0.95640000  1.0 0.1296644558
H  H40  1  0.59440000  0.73490000  0.69160000  1.0 0.1199414857
H  H41  1  0.79250000  0.91660000  0.91440000  1.0 0.1087483732
H  H42  1  0.45650000  0.64140000  0.75550000  1.0 0.1396733027
H  H43  1  0.65710000  0.81580000  0.98230000  1.0 0.1296644558
H  H44  1  0.51620000  0.52140000  0.88840000  1.0 0.1296644558
H  H45  1  0.26350000  0.55900000  0.91230000  1.0 0.1396733027
H  H46  1  0.40450000  0.34070000  0.86990000  1.0 0.1199414857
H  H47  1  0.15000000  0.37580000  0.88570000  1.0 0.1199414857
H  H48  1  0.00140000  0.75150000  0.54610000  1.0 0.1199414857
H  H49  1  0.19290000  0.84620000  0.79620000  1.0 0.1087483732
H  H50  1  0.07250000  0.63670000  0.54360000  1.0 0.1396733027
H  H51  1  0.25990000  0.72490000  0.79500000  1.0 0.1396733027
H  H52  1  0.00680000  0.49100000  0.67420000  1.0 0.1296644558
H  H53  1  0.26940000  0.46090000  0.66060000  1.0 0.1478908118
H  H54  1  0.90220000  0.30990000  0.66040000  1.0 0.1199414857
H  H55  1  0.16240000  0.27590000  0.65340000  1.0 0.1087483732
H  H56  1  0.61320000  0.01530000  0.20830000  1.0 0.2568104919
H  H57  1  0.51790000  0.84760000  0.03240000  1.0 0.1199414857
H  H58  1  0.53130000  0.11090000  0.11080000  1.0 0.1087483732
H  H59  1  0.85570000  0.85840000  0.44520000  1.0 0.1199414857
H  H60  1  0.74420000  0.82600000  0.29890000  1.0 0.1296644558
H  H61  1  0.59400000  0.98460000  0.34600000  1.0 0.1296644558
H  H62  1  0.70550000  0.01690000  0.49240000  1.0 0.1199414857
H  H63  1  0.43010000  0.75250000  0.14220000  1.0 0.1478908118
H  H64  1  0.49660000  0.71250000  0.22250000  1.0 0.1586772811
H  H65  1  0.43550000  0.77320000  0.23820000  1.0 0.1478908118
H  H66  1  0.10250000  0.65040000  0.17830000  1.0 0.2548803922
H  H67  1  0.29610000  0.89720000  0.01630000  1.0 0.1087483732
H  H68  1  0.24250000  0.99480000  0.90590000  1.0 0.1087483732
H  H69  1  0.96410000  0.90650000  0.95360000  1.0 0.1087483732
H  H70  1  0.00540000  0.79890000  0.06240000  1.0 0.1478908118
H  H71  1  0.24160000  0.75230000  0.11040000  1.0 0.0810433216
H  H72  1  0.95290000  0.47780000  0.12870000  1.0 0.1199414857
H  H73  1  0.26750000  0.79570000  0.25740000  1.0 0.1396733027
H  H74  1  0.30330000  0.90020000  0.20740000  1.0 0.1478908118
H  H75  1  0.18740000  0.84780000  0.22430000  1.0 0.1586772811
H  H76  1  0.87420000  0.08780000  0.44490000  1.0 0.0014011999
H  H77  1  0.83990000  0.37360000  0.99590000  1.0 0.1199414857
H  H78  1  0.93480000  0.34240000  0.04360000  1.0 0.1296644558
C  C1  1  0.20100000  0.10520000  0.24450000  1.0 0.5921574768
C  C2  1  0.29220000  0.16610000  0.20470000  1.0 -0.0503312015
C  C3  1  0.39280000  0.24770000  0.25010000  1.0 -0.0816807932
C  C4  1  0.27400000  0.14000000  0.11690000  1.0 -0.0816807932
C  C5  1  0.47550000  0.30460000  0.21200000  1.0 -0.2200989619
C  C6  1  0.35530000  0.19890000  0.07650000  1.0 -0.1909676109
C  C7  1  0.45650000  0.28100000  0.12710000  1.0 0.2396474492
C  C8  1  0.59830000  0.44120000  0.09850000  1.0 0.2568104919
C  C9  1  0.55710000  0.50700000  0.11110000  1.0 -0.2276399385
C  C10  1  0.70830000  0.48440000  0.09780000  1.0 -0.2200989619
C  C11  1  0.62450000  0.61520000  0.12300000  1.0 -0.0816807932
C  C12  1  0.77580000  0.59470000  0.11270000  1.0 -0.0816807932
C  C13  1  0.73330000  0.65870000  0.12460000  1.0 -0.0503312015
C  C14  1  0.80600000  0.77460000  0.14680000  1.0 0.5441359516
C  C15  1  0.96010000  0.11740000  0.32650000  1.0 0.5921574768
C  C16  1  0.91270000  0.19130000  0.32930000  1.0 -0.0410614328
C  C17  1  0.94630000  0.25330000  0.40340000  1.0 -0.0816807932
C  C18  1  0.83290000  0.19720000  0.25410000  1.0 -0.1044713918
C  C19  1  0.90470000  0.32290000  0.40510000  1.0 -0.1984717164
C  C20  1  0.79220000  0.26930000  0.25500000  1.0 -0.214532322
C  C21  1  0.83020000  0.33160000  0.33080000  1.0 0.2396474492
C  C22  1  0.85370000  0.50600000  0.33510000  1.0 0.268262231
C  C23  1  0.96230000  0.55160000  0.33220000  1.0 -0.2435897652
C  C24  1  0.80420000  0.56940000  0.33950000  1.0 -0.2276399385
C  C25  1  0.02390000  0.65980000  0.33900000  1.0 -0.0885035697
C  C26  1  0.86870000  0.68030000  0.34410000  1.0 -0.0816807932
C  C27  1  0.97820000  0.72390000  0.34480000  1.0 -0.0503312015
C  C28  1  0.04750000  0.84050000  0.35250000  1.0 0.5634509858
C  C29  1  0.46810000  0.02430000  0.91250000  1.0 0.0810433216
C  C30  1  0.48880000  0.09040000  0.98030000  1.0 -0.1315875653
C  C31  1  0.41740000  0.12580000  0.78820000  1.0 0.2792309161
C  C32  1  0.48090000  0.93410000  0.93400000  1.0 -0.1154483024
C  C33  1  0.19680000  0.11630000  0.57470000  1.0 0.0542956639
C  C34  1  0.26360000  0.13570000  0.66230000  1.0 -0.1801490847
C  C35  1  0.34200000  0.09790000  0.69210000  1.0 -0.0004209446
C  C36  1  0.35360000  0.04070000  0.63410000  1.0 -0.1984717164
C  C37  1  0.28680000  0.02130000  0.54640000  1.0 0.0596935656
C  C38  1  0.52390000  0.23200000  0.79720000  1.0 -0.4868825141
C  C39  1  0.84570000  0.16470000  0.94950000  1.0 0.0596935656
C  C40  1  0.77270000  0.10360000  0.99600000  1.0 -0.1315875653
C  C41  1  0.80510000  0.04370000  0.06140000  1.0 0.0739473898
C  C42  1  0.96880000  0.09610000  0.03420000  1.0 0.0810433216
C  C43  1  0.94440000  0.16130000  0.96800000  1.0 -0.1661330599
C  C44  1  0.81340000  0.23230000  0.87790000  1.0 0.1199414857
C  C45  1  0.95130000  0.41480000  0.93660000  1.0 0.1842904326
C  C46  1  0.02800000  0.51250000  0.92280000  1.0 -0.1909676109
C  C47  1  0.75860000  0.16580000  0.78870000  1.0 -0.4438385431
C  C48  1  0.08000000  0.60110000  0.98630000  1.0 -0.2488987621
C  C49  1  0.30000000  0.00000000  0.00000000  1.0 -0.0885035697
C  C50  1  0.40000000  0.00000000  0.00000000  1.0 -0.0410614328
C  C51  1  0.20000000  0.00000000  0.60000000  1.0 0.0445276436
C  C52  1  0.79900000  0.89480000  0.75550000  1.0 0.5921574768
C  C53  1  0.70780000  0.83390000  0.79530000  1.0 -0.0503312015
C  C54  1  0.60720000  0.75230000  0.74990000  1.0 -0.0816807932
C  C55  1  0.72600000  0.86000000  0.88310000  1.0 -0.0816807932
C  C56  1  0.52450000  0.69540000  0.78800000  1.0 -0.2200989619
C  C57  1  0.64470000  0.80110000  0.92350000  1.0 -0.1909676109
C  C58  1  0.54350000  0.71900000  0.87290000  1.0 0.2396474492
C  C59  1  0.40170000  0.55880000  0.90150000  1.0 0.2568104919
C  C60  1  0.44290000  0.49300000  0.88890000  1.0 -0.2276399385
C  C61  1  0.29170000  0.51560000  0.90220000  1.0 -0.2200989619
C  C62  1  0.37550000  0.38480000  0.87700000  1.0 -0.0816807932
C  C63  1  0.22420000  0.40530000  0.88730000  1.0 -0.0816807932
C  C64  1  0.26670000  0.34130000  0.87540000  1.0 -0.0503312015
C  C65  1  0.19400000  0.22540000  0.85320000  1.0 0.5441359516
C  C66  1  0.03990000  0.88260000  0.67350000  1.0 0.5921574768
C  C67  1  0.08730000  0.80870000  0.67070000  1.0 -0.0410614328
C  C68  1  0.05370000  0.74670000  0.59660000  1.0 -0.0885035697
C  C69  1  0.16710000  0.80280000  0.74590000  1.0 -0.105297393
C  C70  1  0.09530000  0.67710000  0.59490000  1.0 -0.1984717164
C  C71  1  0.20780000  0.73070000  0.74500000  1.0 -0.214532322
C  C72  1  0.16980000  0.66840000  0.66920000  1.0 0.2396474492
C  C73  1  0.14630000  0.49400000  0.66490000  1.0 0.268262231
C  C74  1  0.03770000  0.44840000  0.66780000  1.0 -0.2435897652
C  C75  1  0.19580000  0.43060000  0.66050000  1.0 -0.2276399385
C  C76  1  0.97610000  0.34020000  0.66100000  1.0 -0.0885035697
C  C77  1  0.13130000  0.31970000  0.65590000  1.0 -0.0816807932
C  C78  1  0.02180000  0.27610000  0.65520000  1.0 -0.0503312015
C  C79  1  0.95250000  0.15950000  0.64750000  1.0 0.5634509858
C  C80  1  0.53190000  0.97570000  0.08750000  1.0 0.0810433216
C  C81  1  0.51120000  0.90960000  0.01970000  1.0 -0.1315875653
C  C82  1  0.58260000  0.87420000  0.21180000  1.0 0.2792309161
C  C83  1  0.51910000  0.06590000  0.06600000  1.0 -0.1154483024
C  C84  1  0.80320000  0.88370000  0.42530000  1.0 0.0596935656
C  C85  1  0.73640000  0.86430000  0.33770000  1.0 -0.1801490847
C  C86  1  0.65800000  0.90210000  0.30790000  1.0 -0.0004209446
C  C87  1  0.64640000  0.95930000  0.36590000  1.0 -0.1984717164
C  C88  1  0.71320000  0.97870000  0.45360000  1.0 0.0596935656
C  C89  1  0.47610000  0.76800000  0.20280000  1.0 -0.4868825141
C  C90  1  0.15430000  0.83530000  0.05050000  1.0 0.0596935656
C  C91  1  0.22730000  0.89640000  0.00400000  1.0 -0.1315875653
C  C92  1  0.19490000  0.95630000  0.93860000  1.0 0.0739473898
C  C93  1  0.03120000  0.90390000  0.96580000  1.0 0.0810433216
C  C94  1  0.05560000  0.83870000  0.03200000  1.0 -0.1661330599
C  C95  1  0.18660000  0.76770000  0.12210000  1.0 0.1199414857
C  C96  1  0.04870000  0.58520000  0.06340000  1.0 0.1842904326
C  C97  1  0.97200000  0.48750000  0.07720000  1.0 -0.1909676109
C  C98  1  0.24140000  0.83420000  0.21130000  1.0 -0.4438385431
C  C99  1  0.92000000  0.39890000  0.01370000  1.0 -0.2488987621
C  C100  1  0.70000000  0.00000000  0.00000000  1.0 -0.0885035697
C  C101  1  0.60000000  0.00000000  0.00000000  1.0 -0.0410614328
C  C102  1  0.80000000  0.00000000  0.40000000  1.0 0.0445276436
N  N1  1  0.44000000  0.04190000  0.82170000  1.0 -0.4204686645
N  N2  1  0.20840000  0.05910000  0.51670000  1.0 -0.136355466
N  N3  1  0.90030000  0.03820000  0.07990000  1.0 -0.2488987621
N  N4  1  0.90640000  0.32870000  0.87450000  1.0 -0.4145213429
N  N5  1  0.56000000  0.95810000  0.17830000  1.0 -0.4204686645
N  N6  1  0.79160000  0.94090000  0.48330000  1.0 -0.1315875653
N  N7  1  0.09970000  0.96180000  0.92010000  1.0 -0.2488987621
N  N8  1  0.09360000  0.67130000  0.12550000  1.0 -0.4145213429
O  O1  1  0.10890000  0.03590000  0.19840000  1.0 -0.550927397
O  O2  1  0.22320000  0.12980000  0.32580000  1.0 -0.5337979261
O  O3  1  0.53720000  0.33370000  0.08440000  1.0 -0.2200989619
O  O4  1  0.90890000  0.81590000  0.14830000  1.0 -0.550927397
O  O5  1  0.77140000  0.83420000  0.16560000  1.0 -0.5443630878
O  O6  1  0.92380000  0.06170000  0.25750000  1.0 -0.550927397
O  O7  1  0.03990000  0.12210000  0.39450000  1.0 -0.5562840167
O  O8  1  0.78350000  0.39900000  0.32820000  1.0 -0.2200989619
O  O9  1  0.99730000  0.90070000  0.34060000  1.0 -0.589897937
O  O10  1  0.15180000  0.88480000  0.37480000  1.0 -0.5337979261
O  O11  1  0.89110000  0.96410000  0.80160000  1.0 -0.550927397
O  O12  1  0.77680000  0.87020000  0.67420000  1.0 -0.5337979261
O  O13  1  0.46280000  0.66630000  0.91560000  1.0 -0.2200989619
O  O14  1  0.09110000  0.18410000  0.85170000  1.0 -0.550927397
O  O15  1  0.22860000  0.16580000  0.83440000  1.0 -0.5443630878
O  O16  1  0.07620000  0.93830000  0.74250000  1.0 -0.550927397
O  O17  1  0.96010000  0.87790000  0.60550000  1.0 -0.5562840167
O  O18  1  0.21650000  0.60100000  0.67180000  1.0 -0.2200989619
O  O19  1  0.00270000  0.09930000  0.65940000  1.0 -0.589897937
O  O20  1  0.84820000  0.11520000  0.62520000  1.0 -0.5337979261
