# DDEC6 charges by PACMAN v1.1 (https://github.com/mtap-research/PACMAN-charge/)
data_EBOJOV_FSR_pacman
_symmetry_space_group_name_H-M   'P 1'
_cell_length_a   14.09690000
_cell_length_b   14.09690000
_cell_length_c   13.24600000
_cell_angle_alpha   63.35090000
_cell_angle_beta   116.64900000
_cell_angle_gamma   134.00500000
_symmetry_Int_Tables_number   1
_chemical_formula_structural   Eu5(C3O7)4
_chemical_formula_sum   'Eu10 C24 O56'
_cell_volume   1653.38605435
_cell_formula_units_Z   2
loop_
 _symmetry_equiv_pos_site_id
 _symmetry_equiv_pos_as_xyz
  1  'x, y, z'
loop_
 _atom_site_type_symbol
 _atom_site_label
 _atom_site_symmetry_multiplicity
 _atom_site_fract_x
 _atom_site_fract_y
 _atom_site_fract_z
 _atom_site_occupancy
 _atom_site_charge
Eu  Eu1  1  0.25920000  0.25920000  0.00000000  1.0 2.2454974646
Eu  Eu2  1  0.74080000  0.74080000  0.00000000  1.0 2.2424123282
Eu  Eu3  1  0.50630000  0.49370000  0.20720000  1.0 2.2188003058
Eu  Eu4  1  0.49370000  0.50630000  0.79280000  1.0 2.2188003058
Eu  Eu5  1  0.61520000  0.38480000  0.09780000  1.0 2.2134716506
Eu  Eu6  1  0.38480000  0.61520000  0.90220000  1.0 2.2134716506
Eu  Eu7  1  0.07880000  0.92120000  0.91710000  1.0 2.2622325416
Eu  Eu8  1  0.92120000  0.07880000  0.08290000  1.0 2.2622325416
Eu  Eu9  1  0.09360000  0.90640000  0.22660000  1.0 2.2812304492
Eu  Eu10  1  0.90640000  0.09360000  0.77340000  1.0 2.2851369376
C  C1  1  0.85200000  0.72400000  0.41100000  1.0 0.6723493929
C  C2  1  0.72400000  0.85200000  0.58900000  1.0 0.6723493929
C  C3  1  0.14800000  0.27600000  0.58900000  1.0 0.6723493929
C  C4  1  0.27600000  0.14800000  0.41100000  1.0 0.6723493929
C  C5  1  0.27700000  0.08900000  0.70500000  1.0 0.6628350909
C  C6  1  0.08900000  0.27700000  0.29500000  1.0 0.6628350909
C  C7  1  0.72300000  0.91100000  0.29500000  1.0 0.6628350909
C  C8  1  0.91100000  0.72300000  0.70500000  1.0 0.6628350909
C  C9  1  0.24400000  0.75600000  0.05600000  1.0 0.6816149945
C  C10  1  0.75600000  0.24400000  0.94400000  1.0 0.6816149945
C  C11  1  0.91900000  0.81300000  0.49600000  1.0 0.1101467121
C  C12  1  0.81300000  0.91900000  0.50400000  1.0 0.1101467121
C  C13  1  0.08100000  0.18700000  0.50400000  1.0 0.1101467121
C  C14  1  0.18700000  0.08100000  0.49600000  1.0 0.1101467121
C  C15  1  0.22300000  0.02500000  0.61500000  1.0 -0.1711760243
C  C16  1  0.02500000  0.22300000  0.38500000  1.0 -0.1711760243
C  C17  1  0.77700000  0.97500000  0.38500000  1.0 -0.1711760243
C  C18  1  0.97500000  0.77700000  0.61500000  1.0 -0.1711760243
C  C19  1  0.27900000  0.72100000  0.17400000  1.0 -0.1561088716
C  C20  1  0.72100000  0.27900000  0.82600000  1.0 -0.1561088716
C  C21  1  0.33700000  0.66300000  0.23100000  1.0 0.0777908112
C  C22  1  0.66300000  0.33700000  0.76900000  1.0 0.0777908112
C  C23  1  0.37800000  0.62200000  0.18400000  1.0 0.7185981865
C  C24  1  0.62200000  0.37800000  0.81600000  1.0 0.7185981865
O  O1  1  0.43700000  0.28900000  0.18200000  1.0 -0.9528245931
O  O2  1  0.28900000  0.43700000  0.81800000  1.0 -0.9528245931
O  O3  1  0.56300000  0.71100000  0.81800000  1.0 -0.9528245931
O  O4  1  0.71100000  0.56300000  0.18200000  1.0 -0.9528245931
O  O5  1  0.42700000  0.29500000  0.93000000  1.0 -0.8950213199
O  O6  1  0.29500000  0.42700000  0.07000000  1.0 -0.8944213991
O  O7  1  0.57300000  0.70500000  0.07000000  1.0 -0.8944213991
O  O8  1  0.70500000  0.57300000  0.93000000  1.0 -0.8944213991
O  O9  1  0.22500000  0.03900000  0.07600000  1.0 -0.9735462968
O  O10  1  0.03900000  0.22500000  0.92400000  1.0 -0.9735462968
O  O11  1  0.77500000  0.96100000  0.92400000  1.0 -0.9735462968
O  O12  1  0.96100000  0.77500000  0.07600000  1.0 -0.9735462968
O  O13  1  0.13800000  0.16000000  0.83000000  1.0 -0.8801892703
O  O14  1  0.16000000  0.13800000  0.17000000  1.0 -0.8801892703
O  O15  1  0.86200000  0.84000000  0.17000000  1.0 -0.8801892703
O  O16  1  0.84000000  0.86200000  0.83000000  1.0 -0.8801892703
O  O17  1  0.00000000  0.00000000  0.00000000  1.0 -1.0337882047
O  O18  1  0.50000000  0.50000000  0.00000000  1.0 -1.1898841863
O  O19  1  0.59600000  0.40400000  0.39000000  1.0 -0.0135834669
O  O20  1  0.40400000  0.59600000  0.61000000  1.0 -0.0135834669
O  O21  1  0.71300000  0.64700000  0.36100000  1.0 -0.5268958693
O  O22  1  0.64700000  0.71300000  0.63900000  1.0 -0.5268958693
O  O23  1  0.28700000  0.35300000  0.63900000  1.0 -0.5268958693
O  O24  1  0.35300000  0.28700000  0.36100000  1.0 -0.5268958693
O  O25  1  0.43300000  0.56700000  0.25700000  1.0 -0.5869690483
O  O26  1  0.56700000  0.43300000  0.74300000  1.0 -0.5869690483
O  O27  1  0.68400000  0.31600000  0.31400000  1.0 -0.5268958693
O  O28  1  0.31600000  0.68400000  0.68600000  1.0 -0.5249598627
O  O29  1  0.49600000  0.13200000  0.15500000  1.0 -0.1561088716
O  O30  1  0.13200000  0.49600000  0.84500000  1.0 -0.1561088716
O  O31  1  0.50400000  0.86800000  0.84500000  1.0 -0.1532305558
O  O32  1  0.86800000  0.50400000  0.15500000  1.0 -0.1532305558
O  O33  1  0.63800000  0.36200000  0.92700000  1.0 -0.4924753015
O  O34  1  0.36200000  0.63800000  0.07300000  1.0 -0.4924753015
O  O35  1  0.23100000  0.02900000  0.79700000  1.0 -0.5037025218
O  O36  1  0.02900000  0.23100000  0.20300000  1.0 -0.5037025218
O  O37  1  0.76900000  0.97100000  0.20300000  1.0 -0.5037025218
O  O38  1  0.97100000  0.76900000  0.79700000  1.0 -0.5037025218
O  O39  1  0.18700000  0.81300000  0.01500000  1.0 -0.6107991045
O  O40  1  0.81300000  0.18700000  0.98500000  1.0 -0.6107991045
O  O41  1  0.01000000  0.99000000  0.67800000  1.0 0.1247708569
O  O42  1  0.99000000  0.01000000  0.32200000  1.0 0.1270522843
O  O43  1  0.18800000  0.81200000  0.38900000  1.0 -0.7357567256
O  O44  1  0.81200000  0.18800000  0.61100000  1.0 -0.7357567256
O  O45  1  0.25500000  0.06500000  0.36400000  1.0 -0.6634083544
O  O46  1  0.06500000  0.25500000  0.63600000  1.0 -0.6634083544
O  O47  1  0.74500000  0.93500000  0.63600000  1.0 -0.6634083544
O  O48  1  0.93500000  0.74500000  0.36400000  1.0 -0.6634083544
O  O49  1  0.34000000  0.20800000  0.68000000  1.0 -0.2953165477
O  O50  1  0.20800000  0.34000000  0.32000000  1.0 -0.2953165477
O  O51  1  0.66000000  0.79200000  0.32000000  1.0 -0.2953165477
O  O52  1  0.79200000  0.66000000  0.68000000  1.0 -0.2953165477
O  O53  1  0.26500000  0.73500000  0.98700000  1.0 -0.3308495437
O  O54  1  0.73500000  0.26500000  0.01300000  1.0 -0.3308495437
O  O55  1  0.21200000  0.78800000  0.52800000  1.0 0.880686223
O  O56  1  0.78800000  0.21200000  0.47200000  1.0 0.880686223
