# DDEC6 charges by PACMAN v1.1 (https://github.com/mtap-research/PACMAN-charge/)
data_EBOKEP_FSR_pacman
_symmetry_space_group_name_H-M   'P 1'
_cell_length_a   9.47200000
_cell_length_b   10.72300000
_cell_length_c   12.34100000
_cell_angle_alpha   85.77900000
_cell_angle_beta   105.28500000
_cell_angle_gamma   115.84800000
_symmetry_Int_Tables_number   1
_chemical_formula_structural   Cd3H14C28(N2O)10
_chemical_formula_sum   'Cd3 H14 C28 N20 O10'
_cell_volume   1086.91352100
_cell_formula_units_Z   1
loop_
 _symmetry_equiv_pos_site_id
 _symmetry_equiv_pos_as_xyz
  1  'x, y, z'
loop_
 _atom_site_type_symbol
 _atom_site_label
 _atom_site_symmetry_multiplicity
 _atom_site_fract_x
 _atom_site_fract_y
 _atom_site_fract_z
 _atom_site_occupancy
 _atom_site_charge
Cd  Cd1  1  0.27011000  0.38351000  0.91162000  1.0 0.7563746455
Cd  Cd2  1  0.72989000  0.61649000  0.08838000  1.0 0.7563746455
Cd  Cd3  1  0.00000000  0.50000000  0.00000000  1.0 0.8153214636
H  H1  1  0.18070000  0.08890000  0.73730000  1.0 0.1308242215
H  H2  1  0.99460000  0.90470000  0.58480000  1.0 0.1308242215
H  H3  1  0.84080000  0.91780000  0.50810000  1.0 0.1388833854
H  H4  1  0.20380000  0.87840000  0.94050000  1.0 0.1308242215
H  H5  1  0.13270000  0.05460000  0.96470000  1.0 0.1225252482
H  H6  1  0.38960000  0.11360000  0.28690000  1.0 0.1512722331
H  H7  1  0.47140000  0.94540000  0.26070000  1.0 0.1512722331
H  H8  1  0.81930000  0.91110000  0.26270000  1.0 0.1308242215
H  H9  1  0.00540000  0.09530000  0.41520000  1.0 0.1308242215
H  H10  1  0.15920000  0.08220000  0.49190000  1.0 0.1388833854
H  H11  1  0.79620000  0.12160000  0.05950000  1.0 0.1308242215
H  H12  1  0.86730000  0.94540000  0.03530000  1.0 0.1225252482
H  H13  1  0.61040000  0.88640000  0.71310000  1.0 0.1512722331
H  H14  1  0.52860000  0.05460000  0.73930000  1.0 0.1512722331
C  C1  1  0.92480000  0.34190000  0.75680000  1.0 0.5777464691
C  C2  1  0.96770000  0.24110000  0.71270000  1.0 0.0341502684
C  C3  1  0.88870000  0.15140000  0.61660000  1.0 -0.0088181379
C  C4  1  0.75100000  0.13720000  0.52000000  1.0 0.5274731996
C  C5  1  0.10330000  0.12340000  0.71510000  1.0 0.1388833854
C  C6  1  0.95580000  0.96890000  0.54340000  1.0 -0.1106882044
C  C7  1  0.38390000  0.77970000  0.08030000  1.0 0.2866479936
C  C8  1  0.34080000  0.89170000  0.09890000  1.0 0.038915656
C  C9  1  0.24130000  0.92550000  0.01010000  1.0 -0.1106882044
C  C10  1  0.19730000  0.03000000  0.02470000  1.0 -0.1265826267
C  C11  1  0.25090000  0.09710000  0.12970000  1.0 0.038915656
C  C12  1  0.35260000  0.06650000  0.21740000  1.0 -0.0862367865
C  C13  1  0.40010000  0.96470000  0.20200000  1.0 -0.0635121581
C  C14  1  0.18830000  0.19960000  0.14330000  1.0 0.2797167483
C  C15  1  0.07520000  0.65810000  0.24320000  1.0 0.5777464691
C  C16  1  0.03230000  0.75890000  0.28730000  1.0 0.0341502684
C  C17  1  0.11130000  0.84860000  0.38340000  1.0 -0.0088181379
C  C18  1  0.24900000  0.86280000  0.48000000  1.0 0.5274731996
C  C19  1  0.89670000  0.87660000  0.28490000  1.0 0.1388833854
C  C20  1  0.04420000  0.03110000  0.45660000  1.0 -0.1106882044
C  C21  1  0.61610000  0.22030000  0.91970000  1.0 0.2866479936
C  C22  1  0.65920000  0.10830000  0.90110000  1.0 0.038915656
C  C23  1  0.75870000  0.07450000  0.98990000  1.0 -0.1106882044
C  C24  1  0.80270000  0.97000000  0.97530000  1.0 -0.1265826267
C  C25  1  0.74910000  0.90290000  0.87030000  1.0 0.038915656
C  C26  1  0.64740000  0.93350000  0.78260000  1.0 -0.0862367865
C  C27  1  0.59990000  0.03530000  0.79800000  1.0 -0.0635121581
C  C28  1  0.81170000  0.80040000  0.85670000  1.0 0.2797167483
N  N1  1  0.27860000  0.66040000  0.02140000  1.0 -0.2206305382
N  N2  1  0.36730000  0.59380000  0.01580000  1.0 -0.0219702073
N  N3  1  0.51820000  0.66970000  0.06860000  1.0 -0.0456096348
N  N4  1  0.53310000  0.78800000  0.11180000  1.0 -0.2334757265
N  N5  1  0.17010000  0.28750000  0.06520000  1.0 -0.281525549
N  N6  1  0.09970000  0.35290000  0.10580000  1.0 -0.0299907271
N  N7  1  0.07510000  0.30520000  0.20200000  1.0 -0.0299907271
N  N8  1  0.12930000  0.20530000  0.22740000  1.0 -0.2648225394
N  N9  1  0.10000000  0.22170000  0.77150000  1.0 -0.3058374193
N  N10  1  0.98100000  0.07980000  0.62190000  1.0 0.0341502684
N  N11  1  0.72140000  0.33960000  0.97860000  1.0 -0.2206305382
N  N12  1  0.63270000  0.40620000  0.98420000  1.0 -0.0219702073
N  N13  1  0.48180000  0.33030000  0.93140000  1.0 -0.0456096348
N  N14  1  0.46690000  0.21200000  0.88820000  1.0 -0.2334757265
N  N15  1  0.82990000  0.71250000  0.93480000  1.0 -0.281525549
N  N16  1  0.90030000  0.64710000  0.89420000  1.0 -0.0299907271
N  N17  1  0.92490000  0.69480000  0.79800000  1.0 -0.0299907271
N  N18  1  0.87070000  0.79470000  0.77260000  1.0 -0.2648225394
N  N19  1  0.90000000  0.77830000  0.22850000  1.0 -0.3058374193
N  N20  1  0.01900000  0.92020000  0.37810000  1.0 0.0341502684
O  O1  1  0.79700000  0.35090000  0.71000000  1.0 -0.3894765791
O  O2  1  0.02520000  0.41030000  0.84610000  1.0 -0.5484660682
O  O3  1  0.72210000  0.07100000  0.43440000  1.0 -0.4960936723
O  O4  1  0.66650000  0.20440000  0.53020000  1.0 -0.4211197314
O  O5  1  0.37590000  0.54150000  0.78360000  1.0 -0.281525549
O  O6  1  0.20300000  0.64910000  0.29000000  1.0 -0.3894765791
O  O7  1  0.97480000  0.58970000  0.15390000  1.0 -0.5484660682
O  O8  1  0.27790000  0.92900000  0.56560000  1.0 -0.4960936723
O  O9  1  0.33350000  0.79560000  0.46980000  1.0 -0.4211197314
O  O10  1  0.62410000  0.45850000  0.21640000  1.0 -0.281525549
