# DDEC6 charges by PACMAN v1.1 (https://github.com/mtap-research/PACMAN-charge/)
data_EBUREC_ASR_pacman
_symmetry_space_group_name_H-M   'P 1'
_cell_length_a   9.45870000
_cell_length_b   23.46820000
_cell_length_c   28.60400000
_cell_angle_alpha   90.00000000
_cell_angle_beta   90.00000000
_cell_angle_gamma   90.00000000
_symmetry_Int_Tables_number   1
_chemical_formula_structural   Ca3H24C42(NO6)2
_chemical_formula_sum   'Ca12 H96 C168 N8 O48'
_cell_volume   6349.47768618
_cell_formula_units_Z   4
loop_
 _symmetry_equiv_pos_site_id
 _symmetry_equiv_pos_as_xyz
  1  'x, y, z'
loop_
 _atom_site_type_symbol
 _atom_site_label
 _atom_site_symmetry_multiplicity
 _atom_site_fract_x
 _atom_site_fract_y
 _atom_site_fract_z
 _atom_site_occupancy
 _atom_site_charge
Ca  Ca1  1  0.92466000  0.31565000  0.63393000  1.0 1.3584657367
Ca  Ca2  1  0.25105000  0.38631000  0.59847000  1.0 1.3885588701
Ca  Ca3  1  0.60460000  0.29277000  0.56668000  1.0 1.3997708912
Ca  Ca4  1  0.07534000  0.81565000  0.36607000  1.0 1.3584657367
Ca  Ca5  1  0.74895000  0.88631000  0.40153000  1.0 1.3885588701
Ca  Ca6  1  0.39540000  0.79277000  0.43332000  1.0 1.3997708912
Ca  Ca7  1  0.07534000  0.31565000  0.13393000  1.0 1.3584657367
Ca  Ca8  1  0.74895000  0.38631000  0.09847000  1.0 1.3885588701
Ca  Ca9  1  0.39540000  0.29277000  0.06668000  1.0 1.3997708912
Ca  Ca10  1  0.92466000  0.81565000  0.86607000  1.0 1.3584657367
Ca  Ca11  1  0.25105000  0.88631000  0.90153000  1.0 1.3885588701
Ca  Ca12  1  0.60460000  0.79277000  0.93332000  1.0 1.3997708912
H  H1  1  0.25840000  0.48940000  0.73380000  1.0 0.1019041444
H  H2  1  0.25690000  0.53650000  0.80430000  1.0 0.1206317388
H  H3  1  0.97480000  0.42900000  0.85400000  1.0 0.1206317388
H  H4  1  0.96880000  0.38090000  0.78450000  1.0 0.1117657046
H  H5  1  0.08340000  0.69290000  0.83840000  1.0 0.1117657046
H  H6  1  0.03210000  0.59730000  0.83320000  1.0 0.1117657046
H  H7  1  0.29590000  0.56770000  0.93950000  1.0 0.1206317388
H  H8  1  0.34840000  0.66540000  0.94400000  1.0 0.1117657046
H  H9  1  0.98760000  0.47990000  0.02830000  1.0 0.1117657046
H  H10  1  0.99900000  0.53470000  0.96080000  1.0 0.1206317388
H  H11  1  0.22720000  0.41220000  0.89910000  1.0 0.1117657046
H  H12  1  0.21610000  0.35700000  0.96590000  1.0 0.1206317388
H  H13  1  0.22940000  0.44120000  0.46350000  1.0 0.1117657046
H  H14  1  0.21750000  0.48800000  0.39320000  1.0 0.1206317388
H  H15  1  0.54020000  0.40130000  0.34450000  1.0 0.1206317388
H  H16  1  0.55320000  0.35250000  0.41570000  1.0 0.1117657046
H  H17  1  0.40480000  0.65110000  0.39200000  1.0 0.1117657046
H  H18  1  0.47390000  0.56090000  0.38090000  1.0 0.1206317388
H  H19  1  0.22280000  0.54810000  0.26850000  1.0 0.1300485264
H  H20  1  0.16650000  0.64430000  0.27730000  1.0 0.1206317388
H  H21  1  0.29530000  0.34500000  0.22220000  1.0 0.1300485264
H  H22  1  0.29260000  0.38630000  0.29560000  1.0 0.1206317388
H  H23  1  0.51070000  0.51950000  0.24470000  1.0 0.1206317388
H  H24  1  0.51240000  0.47580000  0.17310000  1.0 0.1206317388
H  H25  1  0.74160000  0.98940000  0.26620000  1.0 0.1019041444
H  H26  1  0.74310000  0.03650000  0.19570000  1.0 0.1206317388
H  H27  1  0.02520000  0.92900000  0.14600000  1.0 0.1206317388
H  H28  1  0.03120000  0.88090000  0.21550000  1.0 0.1117657046
H  H29  1  0.91660000  0.19290000  0.16160000  1.0 0.1117657046
H  H30  1  0.96790000  0.09730000  0.16680000  1.0 0.1117657046
H  H31  1  0.70410000  0.06770000  0.06050000  1.0 0.1206317388
H  H32  1  0.65160000  0.16540000  0.05600000  1.0 0.1117657046
H  H33  1  0.01240000  0.97990000  0.97170000  1.0 0.1117657046
H  H34  1  0.00100000  0.03470000  0.03920000  1.0 0.1206317388
H  H35  1  0.77280000  0.91220000  0.10090000  1.0 0.1117657046
H  H36  1  0.78390000  0.85700000  0.03410000  1.0 0.1206317388
H  H37  1  0.77060000  0.94120000  0.53650000  1.0 0.1117657046
H  H38  1  0.78250000  0.98800000  0.60680000  1.0 0.1206317388
H  H39  1  0.45980000  0.90130000  0.65550000  1.0 0.1206317388
H  H40  1  0.44680000  0.85250000  0.58430000  1.0 0.1117657046
H  H41  1  0.59520000  0.15110000  0.60800000  1.0 0.1117657046
H  H42  1  0.52610000  0.06090000  0.61910000  1.0 0.1206317388
H  H43  1  0.77720000  0.04810000  0.73150000  1.0 0.1300485264
H  H44  1  0.83350000  0.14430000  0.72270000  1.0 0.1206317388
H  H45  1  0.70470000  0.84500000  0.77780000  1.0 0.1300485264
H  H46  1  0.70740000  0.88630000  0.70440000  1.0 0.1206317388
H  H47  1  0.48930000  0.01950000  0.75530000  1.0 0.1206317388
H  H48  1  0.48760000  0.97580000  0.82690000  1.0 0.1206317388
H  H49  1  0.74160000  0.48940000  0.23380000  1.0 0.1019041444
H  H50  1  0.74310000  0.53650000  0.30430000  1.0 0.1206317388
H  H51  1  0.02520000  0.42900000  0.35400000  1.0 0.1206317388
H  H52  1  0.03120000  0.38090000  0.28450000  1.0 0.1117657046
H  H53  1  0.91660000  0.69290000  0.33840000  1.0 0.1117657046
H  H54  1  0.96790000  0.59730000  0.33320000  1.0 0.1117657046
H  H55  1  0.70410000  0.56770000  0.43950000  1.0 0.1206317388
H  H56  1  0.65160000  0.66540000  0.44400000  1.0 0.1117657046
H  H57  1  0.01240000  0.47990000  0.52830000  1.0 0.1117657046
H  H58  1  0.00100000  0.53470000  0.46080000  1.0 0.1206317388
H  H59  1  0.77280000  0.41220000  0.39910000  1.0 0.1117657046
H  H60  1  0.78390000  0.35700000  0.46590000  1.0 0.1206317388
H  H61  1  0.77060000  0.44120000  0.96350000  1.0 0.1117657046
H  H62  1  0.78250000  0.48800000  0.89320000  1.0 0.1206317388
H  H63  1  0.45980000  0.40130000  0.84450000  1.0 0.1206317388
H  H64  1  0.44680000  0.35250000  0.91570000  1.0 0.1117657046
H  H65  1  0.59520000  0.65110000  0.89200000  1.0 0.1117657046
H  H66  1  0.52610000  0.56090000  0.88090000  1.0 0.1206317388
H  H67  1  0.77720000  0.54810000  0.76850000  1.0 0.1300485264
H  H68  1  0.83350000  0.64430000  0.77730000  1.0 0.1206317388
H  H69  1  0.70470000  0.34500000  0.72220000  1.0 0.1300485264
H  H70  1  0.70740000  0.38630000  0.79560000  1.0 0.1206317388
H  H71  1  0.48930000  0.51950000  0.74470000  1.0 0.1206317388
H  H72  1  0.48760000  0.47580000  0.67310000  1.0 0.1206317388
H  H73  1  0.25840000  0.98940000  0.76620000  1.0 0.1019041444
H  H74  1  0.25690000  0.03650000  0.69570000  1.0 0.1206317388
H  H75  1  0.97480000  0.92900000  0.64600000  1.0 0.1206317388
H  H76  1  0.96880000  0.88090000  0.71550000  1.0 0.1117657046
H  H77  1  0.08340000  0.19290000  0.66160000  1.0 0.1117657046
H  H78  1  0.03210000  0.09730000  0.66680000  1.0 0.1117657046
H  H79  1  0.29590000  0.06770000  0.56050000  1.0 0.1206317388
H  H80  1  0.34840000  0.16540000  0.55600000  1.0 0.1117657046
H  H81  1  0.98760000  0.97990000  0.47170000  1.0 0.1117657046
H  H82  1  0.99900000  0.03470000  0.53920000  1.0 0.1206317388
H  H83  1  0.22720000  0.91220000  0.60090000  1.0 0.1117657046
H  H84  1  0.21610000  0.85700000  0.53410000  1.0 0.1206317388
H  H85  1  0.22940000  0.94120000  0.03650000  1.0 0.1117657046
H  H86  1  0.21750000  0.98800000  0.10680000  1.0 0.1206317388
H  H87  1  0.54020000  0.90130000  0.15550000  1.0 0.1206317388
H  H88  1  0.55320000  0.85250000  0.08430000  1.0 0.1117657046
H  H89  1  0.40480000  0.15110000  0.10800000  1.0 0.1117657046
H  H90  1  0.47390000  0.06090000  0.11910000  1.0 0.1206317388
H  H91  1  0.22280000  0.04810000  0.23150000  1.0 0.1300485264
H  H92  1  0.16650000  0.14430000  0.22270000  1.0 0.1206317388
H  H93  1  0.29530000  0.84500000  0.27780000  1.0 0.1300485264
H  H94  1  0.29260000  0.88630000  0.20440000  1.0 0.1206317388
H  H95  1  0.51070000  0.01950000  0.25530000  1.0 0.1206317388
H  H96  1  0.51240000  0.97580000  0.32690000  1.0 0.1206317388
C  C1  1  0.09700000  0.40340000  0.70360000  1.0 0.6100820358
C  C2  1  0.10370000  0.43190000  0.75000000  1.0 -0.0493421841
C  C3  1  0.19800000  0.47760000  0.75760000  1.0 -0.0879877415
C  C4  1  0.20000000  0.50460000  0.80030000  1.0 -0.1898517656
C  C5  1  0.12200000  0.48590000  0.83640000  1.0 0.1642993446
C  C6  1  0.03260000  0.44090000  0.82960000  1.0 -0.1978746945
C  C7  1  0.02600000  0.41290000  0.78760000  1.0 -0.0879877415
C  C8  1  0.25930000  0.75210000  0.89450000  1.0 0.6284766849
C  C9  1  0.22340000  0.68950000  0.89110000  1.0 -0.0493421841
C  C10  1  0.12780000  0.66770000  0.85880000  1.0 -0.0879877415
C  C11  1  0.09540000  0.61030000  0.85560000  1.0 -0.1898517656
C  C12  1  0.15780000  0.57300000  0.88600000  1.0 0.1713056769
C  C13  1  0.25290000  0.59300000  0.91900000  1.0 -0.1978746945
C  C14  1  0.28520000  0.65210000  0.92160000  1.0 -0.0994103104
C  C15  1  0.08190000  0.37340000  0.04550000  1.0 0.6100820358
C  C16  1  0.09570000  0.41070000  0.00360000  1.0 -0.0590113104
C  C17  1  0.03430000  0.46580000  0.00210000  1.0 -0.081019197
C  C18  1  0.04320000  0.49930000  0.96170000  1.0 -0.2058899007
C  C19  1  0.11790000  0.47990000  0.92300000  1.0 0.1944641042
C  C20  1  0.17920000  0.42610000  0.92510000  1.0 -0.1898517656
C  C21  1  0.17090000  0.39220000  0.96510000  1.0 -0.081019197
C  C22  1  0.40370000  0.36700000  0.49460000  1.0 0.6100820358
C  C23  1  0.39370000  0.39090000  0.44800000  1.0 -0.0724626482
C  C24  1  0.29410000  0.43230000  0.44010000  1.0 -0.081019197
C  C25  1  0.28850000  0.46120000  0.39780000  1.0 -0.1898517656
C  C26  1  0.38200000  0.45170000  0.36340000  1.0 0.1642993446
C  C27  1  0.47840000  0.41030000  0.36870000  1.0 -0.1898517656
C  C28  1  0.48440000  0.38040000  0.41190000  1.0 -0.081019197
C  C29  1  0.22100000  0.71530000  0.34510000  1.0 0.5775162633
C  C30  1  0.27540000  0.65730000  0.33550000  1.0 -0.0590113104
C  C31  1  0.36920000  0.63060000  0.36670000  1.0 -0.081019197
C  C32  1  0.40760000  0.57700000  0.36080000  1.0 -0.17222072
C  C33  1  0.34930000  0.54410000  0.32460000  1.0 0.1820936929
C  C34  1  0.26000000  0.56900000  0.29330000  1.0 -0.1898517656
C  C35  1  0.22530000  0.62670000  0.29900000  1.0 -0.0879877415
C  C36  1  0.41070000  0.37780000  0.14310000  1.0 0.6214022692
C  C37  1  0.40880000  0.40530000  0.19050000  1.0 -0.0493421841
C  C38  1  0.34000000  0.37990000  0.22690000  1.0 -0.081019197
C  C39  1  0.33550000  0.40520000  0.27080000  1.0 -0.178396212
C  C40  1  0.39370000  0.45740000  0.27750000  1.0 0.1820936929
C  C41  1  0.46610000  0.48460000  0.24040000  1.0 -0.1898517656
C  C42  1  0.46830000  0.45760000  0.19810000  1.0 -0.081019197
C  C43  1  0.90300000  0.90340000  0.29640000  1.0 0.6100820358
C  C44  1  0.89630000  0.93190000  0.25000000  1.0 -0.0493421841
C  C45  1  0.80200000  0.97760000  0.24240000  1.0 -0.0879877415
C  C46  1  0.80000000  0.00460000  0.19970000  1.0 -0.1898517656
C  C47  1  0.87800000  0.98590000  0.16360000  1.0 0.1642993446
C  C48  1  0.96740000  0.94090000  0.17040000  1.0 -0.1978746945
C  C49  1  0.97400000  0.91290000  0.21240000  1.0 -0.0879877415
C  C50  1  0.74070000  0.25210000  0.10550000  1.0 0.6284766849
C  C51  1  0.77660000  0.18950000  0.10890000  1.0 -0.0493421841
C  C52  1  0.87220000  0.16770000  0.14120000  1.0 -0.0879877415
C  C53  1  0.90460000  0.11030000  0.14440000  1.0 -0.1898517656
C  C54  1  0.84220000  0.07300000  0.11400000  1.0 0.1713056769
C  C55  1  0.74710000  0.09300000  0.08100000  1.0 -0.1978746945
C  C56  1  0.71480000  0.15210000  0.07840000  1.0 -0.0994103104
C  C57  1  0.91810000  0.87340000  0.95450000  1.0 0.6100820358
C  C58  1  0.90430000  0.91070000  0.99640000  1.0 -0.0590113104
C  C59  1  0.96570000  0.96580000  0.99790000  1.0 -0.081019197
C  C60  1  0.95680000  0.99930000  0.03830000  1.0 -0.2058899007
C  C61  1  0.88210000  0.97990000  0.07700000  1.0 0.1944641042
C  C62  1  0.82080000  0.92610000  0.07490000  1.0 -0.1898517656
C  C63  1  0.82910000  0.89220000  0.03490000  1.0 -0.081019197
C  C64  1  0.59630000  0.86700000  0.50540000  1.0 0.6100820358
C  C65  1  0.60630000  0.89090000  0.55200000  1.0 -0.0724626482
C  C66  1  0.70590000  0.93230000  0.55990000  1.0 -0.081019197
C  C67  1  0.71150000  0.96120000  0.60220000  1.0 -0.1898517656
C  C68  1  0.61800000  0.95170000  0.63660000  1.0 0.1642993446
C  C69  1  0.52160000  0.91030000  0.63130000  1.0 -0.1898517656
C  C70  1  0.51560000  0.88040000  0.58810000  1.0 -0.081019197
C  C71  1  0.77900000  0.21530000  0.65490000  1.0 0.5775162633
C  C72  1  0.72460000  0.15730000  0.66450000  1.0 -0.0590113104
C  C73  1  0.63080000  0.13060000  0.63330000  1.0 -0.081019197
C  C74  1  0.59240000  0.07700000  0.63920000  1.0 -0.17222072
C  C75  1  0.65070000  0.04410000  0.67540000  1.0 0.1820936929
C  C76  1  0.74000000  0.06900000  0.70670000  1.0 -0.1898517656
C  C77  1  0.77470000  0.12670000  0.70100000  1.0 -0.0879877415
C  C78  1  0.58930000  0.87780000  0.85690000  1.0 0.6214022692
C  C79  1  0.59120000  0.90530000  0.80950000  1.0 -0.0493421841
C  C80  1  0.66000000  0.87990000  0.77310000  1.0 -0.081019197
C  C81  1  0.66450000  0.90520000  0.72920000  1.0 -0.178396212
C  C82  1  0.60630000  0.95740000  0.72250000  1.0 0.1820936929
C  C83  1  0.53390000  0.98460000  0.75960000  1.0 -0.1898517656
C  C84  1  0.53170000  0.95760000  0.80190000  1.0 -0.081019197
C  C85  1  0.90300000  0.40340000  0.20360000  1.0 0.6100820358
C  C86  1  0.89630000  0.43190000  0.25000000  1.0 -0.0493421841
C  C87  1  0.80200000  0.47760000  0.25760000  1.0 -0.0879877415
C  C88  1  0.80000000  0.50460000  0.30030000  1.0 -0.1898517656
C  C89  1  0.87800000  0.48590000  0.33640000  1.0 0.1642993446
C  C90  1  0.96740000  0.44090000  0.32960000  1.0 -0.1978746945
C  C91  1  0.97400000  0.41290000  0.28760000  1.0 -0.0879877415
C  C92  1  0.74070000  0.75210000  0.39450000  1.0 0.6284766849
C  C93  1  0.77660000  0.68950000  0.39110000  1.0 -0.0493421841
C  C94  1  0.87220000  0.66770000  0.35880000  1.0 -0.0879877415
C  C95  1  0.90460000  0.61030000  0.35560000  1.0 -0.1898517656
C  C96  1  0.84220000  0.57300000  0.38600000  1.0 0.1713056769
C  C97  1  0.74710000  0.59300000  0.41900000  1.0 -0.1978746945
C  C98  1  0.71480000  0.65210000  0.42160000  1.0 -0.0994103104
C  C99  1  0.91810000  0.37340000  0.54550000  1.0 0.6100820358
C  C100  1  0.90430000  0.41070000  0.50360000  1.0 -0.0590113104
C  C101  1  0.96570000  0.46580000  0.50210000  1.0 -0.081019197
C  C102  1  0.95680000  0.49930000  0.46170000  1.0 -0.2058899007
C  C103  1  0.88210000  0.47990000  0.42300000  1.0 0.1944641042
C  C104  1  0.82080000  0.42610000  0.42510000  1.0 -0.1898517656
C  C105  1  0.82910000  0.39220000  0.46510000  1.0 -0.081019197
C  C106  1  0.59630000  0.36700000  0.99460000  1.0 0.6100820358
C  C107  1  0.60630000  0.39090000  0.94800000  1.0 -0.0724626482
C  C108  1  0.70590000  0.43230000  0.94010000  1.0 -0.081019197
C  C109  1  0.71150000  0.46120000  0.89780000  1.0 -0.1898517656
C  C110  1  0.61800000  0.45170000  0.86340000  1.0 0.1642993446
C  C111  1  0.52160000  0.41030000  0.86870000  1.0 -0.1898517656
C  C112  1  0.51560000  0.38040000  0.91190000  1.0 -0.081019197
C  C113  1  0.77900000  0.71530000  0.84510000  1.0 0.5775162633
C  C114  1  0.72460000  0.65730000  0.83550000  1.0 -0.0590113104
C  C115  1  0.63080000  0.63060000  0.86670000  1.0 -0.081019197
C  C116  1  0.59240000  0.57700000  0.86080000  1.0 -0.17222072
C  C117  1  0.65070000  0.54410000  0.82460000  1.0 0.1820936929
C  C118  1  0.74000000  0.56900000  0.79330000  1.0 -0.1898517656
C  C119  1  0.77470000  0.62670000  0.79900000  1.0 -0.0879877415
C  C120  1  0.58930000  0.37780000  0.64310000  1.0 0.6214022692
C  C121  1  0.59120000  0.40530000  0.69050000  1.0 -0.0493421841
C  C122  1  0.66000000  0.37990000  0.72690000  1.0 -0.081019197
C  C123  1  0.66450000  0.40520000  0.77080000  1.0 -0.178396212
C  C124  1  0.60630000  0.45740000  0.77750000  1.0 0.1820936929
C  C125  1  0.53390000  0.48460000  0.74040000  1.0 -0.1898517656
C  C126  1  0.53170000  0.45760000  0.69810000  1.0 -0.081019197
C  C127  1  0.09700000  0.90340000  0.79640000  1.0 0.6100820358
C  C128  1  0.10370000  0.93190000  0.75000000  1.0 -0.0493421841
C  C129  1  0.19800000  0.97760000  0.74240000  1.0 -0.0879877415
C  C130  1  0.20000000  0.00460000  0.69970000  1.0 -0.1898517656
C  C131  1  0.12200000  0.98590000  0.66360000  1.0 0.1642993446
C  C132  1  0.03260000  0.94090000  0.67040000  1.0 -0.1978746945
C  C133  1  0.02600000  0.91290000  0.71240000  1.0 -0.0879877415
C  C134  1  0.25930000  0.25210000  0.60550000  1.0 0.6284766849
C  C135  1  0.22340000  0.18950000  0.60890000  1.0 -0.0493421841
C  C136  1  0.12780000  0.16770000  0.64120000  1.0 -0.0879877415
C  C137  1  0.09540000  0.11030000  0.64440000  1.0 -0.1898517656
C  C138  1  0.15780000  0.07300000  0.61400000  1.0 0.1713056769
C  C139  1  0.25290000  0.09300000  0.58100000  1.0 -0.1978746945
C  C140  1  0.28520000  0.15210000  0.57840000  1.0 -0.0994103104
C  C141  1  0.08190000  0.87340000  0.45450000  1.0 0.6100820358
C  C142  1  0.09570000  0.91070000  0.49640000  1.0 -0.0590113104
C  C143  1  0.03430000  0.96580000  0.49790000  1.0 -0.081019197
C  C144  1  0.04320000  0.99930000  0.53830000  1.0 -0.2058899007
C  C145  1  0.11790000  0.97990000  0.57700000  1.0 0.1944641042
C  C146  1  0.17920000  0.92610000  0.57490000  1.0 -0.1898517656
C  C147  1  0.17090000  0.89220000  0.53490000  1.0 -0.081019197
C  C148  1  0.40370000  0.86700000  0.00540000  1.0 0.6100820358
C  C149  1  0.39370000  0.89090000  0.05200000  1.0 -0.0724626482
C  C150  1  0.29410000  0.93230000  0.05990000  1.0 -0.081019197
C  C151  1  0.28850000  0.96120000  0.10220000  1.0 -0.1898517656
C  C152  1  0.38200000  0.95170000  0.13660000  1.0 0.1642993446
C  C153  1  0.47840000  0.91030000  0.13130000  1.0 -0.1898517656
C  C154  1  0.48440000  0.88040000  0.08810000  1.0 -0.081019197
C  C155  1  0.22100000  0.21530000  0.15490000  1.0 0.5775162633
C  C156  1  0.27540000  0.15730000  0.16450000  1.0 -0.0590113104
C  C157  1  0.36920000  0.13060000  0.13330000  1.0 -0.081019197
C  C158  1  0.40760000  0.07700000  0.13920000  1.0 -0.17222072
C  C159  1  0.34930000  0.04410000  0.17540000  1.0 0.1820936929
C  C160  1  0.26000000  0.06900000  0.20670000  1.0 -0.1898517656
C  C161  1  0.22530000  0.12670000  0.20100000  1.0 -0.0879877415
C  C162  1  0.41070000  0.87780000  0.35690000  1.0 0.6214022692
C  C163  1  0.40880000  0.90530000  0.30950000  1.0 -0.0493421841
C  C164  1  0.34000000  0.87990000  0.27310000  1.0 -0.081019197
C  C165  1  0.33550000  0.90520000  0.22920000  1.0 -0.178396212
C  C166  1  0.39370000  0.95740000  0.22250000  1.0 0.1820936929
C  C167  1  0.46610000  0.98460000  0.25960000  1.0 -0.1898517656
C  C168  1  0.46830000  0.95760000  0.30190000  1.0 -0.081019197
N  N1  1  0.12830000  0.51220000  0.88240000  1.0 -0.2058899007
N  N2  1  0.38110000  0.48520000  0.32140000  1.0 -0.1898517656
N  N3  1  0.87170000  0.01220000  0.11760000  1.0 -0.1978746945
N  N4  1  0.61890000  0.98520000  0.67860000  1.0 -0.1898517656
N  N5  1  0.87170000  0.51220000  0.38240000  1.0 -0.2058899007
N  N6  1  0.61890000  0.48520000  0.82140000  1.0 -0.1898517656
N  N7  1  0.12830000  0.01220000  0.61760000  1.0 -0.2058899007
N  N8  1  0.38110000  0.98520000  0.17860000  1.0 -0.1898517656
O  O1  1  0.18530000  0.41560000  0.67270000  1.0 -0.6393253599
O  O2  1  0.00200000  0.36600000  0.69720000  1.0 -0.6277584527
O  O3  1  0.16520000  0.78870000  0.88247000  1.0 -0.6874340717
O  O4  1  0.38070000  0.76620000  0.90660000  1.0 -0.6459585969
O  O5  1  0.99360000  0.38680000  0.07751000  1.0 -0.6824350749
O  O6  1  0.16110000  0.33100000  0.04934000  1.0 -0.6393253599
O  O7  1  0.31040000  0.37290000  0.52280000  1.0 -0.5938730781
O  O8  1  0.51410000  0.33710000  0.50230000  1.0 -0.6393253599
O  O9  1  0.24200000  0.73710000  0.38570000  1.0 -0.6824350749
O  O10  1  0.14710000  0.74100000  0.31640000  1.0 -0.5611842219
O  O11  1  0.30900000  0.34640000  0.13260000  1.0 -0.6393253599
O  O12  1  0.51050000  0.38470000  0.11672000  1.0 -0.607823575
O  O13  1  0.81470000  0.91560000  0.32730000  1.0 -0.6393253599
O  O14  1  0.99800000  0.86600000  0.30280000  1.0 -0.6277584527
O  O15  1  0.83480000  0.28870000  0.11753000  1.0 -0.6874340717
O  O16  1  0.61930000  0.26620000  0.09340000  1.0 -0.6459585969
O  O17  1  0.00640000  0.88680000  0.92249000  1.0 -0.6824350749
O  O18  1  0.83890000  0.83100000  0.95066000  1.0 -0.6393253599
O  O19  1  0.68960000  0.87290000  0.47720000  1.0 -0.5950673763
O  O20  1  0.48590000  0.83710000  0.49770000  1.0 -0.6393253599
O  O21  1  0.75800000  0.23710000  0.61430000  1.0 -0.6824350749
O  O22  1  0.85290000  0.24100000  0.68360000  1.0 -0.5611842219
O  O23  1  0.69100000  0.84640000  0.86740000  1.0 -0.6393253599
O  O24  1  0.48950000  0.88470000  0.88328000  1.0 -0.607823575
O  O25  1  0.81470000  0.41560000  0.17270000  1.0 -0.6393253599
O  O26  1  0.99800000  0.36600000  0.19720000  1.0 -0.6277584527
O  O27  1  0.83480000  0.78870000  0.38247000  1.0 -0.6874340717
O  O28  1  0.61930000  0.76620000  0.40660000  1.0 -0.6459585969
O  O29  1  0.00640000  0.38680000  0.57751000  1.0 -0.6824350749
O  O30  1  0.83890000  0.33100000  0.54934000  1.0 -0.6393253599
O  O31  1  0.68960000  0.37290000  0.02280000  1.0 -0.5938730781
O  O32  1  0.48590000  0.33710000  0.00230000  1.0 -0.6393253599
O  O33  1  0.75800000  0.73710000  0.88570000  1.0 -0.6824350749
O  O34  1  0.85290000  0.74100000  0.81640000  1.0 -0.5611842219
O  O35  1  0.69100000  0.34640000  0.63260000  1.0 -0.6393253599
O  O36  1  0.48950000  0.38470000  0.61672000  1.0 -0.607823575
O  O37  1  0.18530000  0.91560000  0.82730000  1.0 -0.6393253599
O  O38  1  0.00200000  0.86600000  0.80280000  1.0 -0.6277584527
O  O39  1  0.16520000  0.28870000  0.61753000  1.0 -0.6874340717
O  O40  1  0.38070000  0.26620000  0.59340000  1.0 -0.6459585969
O  O41  1  0.99360000  0.88680000  0.42249000  1.0 -0.6824350749
O  O42  1  0.16110000  0.83100000  0.45066000  1.0 -0.6393253599
O  O43  1  0.31040000  0.87290000  0.97720000  1.0 -0.5938730781
O  O44  1  0.51410000  0.83710000  0.99770000  1.0 -0.6393253599
O  O45  1  0.24200000  0.23710000  0.11430000  1.0 -0.6824350749
O  O46  1  0.14710000  0.24100000  0.18360000  1.0 -0.5611842219
O  O47  1  0.30900000  0.84640000  0.36740000  1.0 -0.6393253599
O  O48  1  0.51050000  0.88470000  0.38328000  1.0 -0.607823575
