# DDEC6 charges by PACMAN v1.1 (https://github.com/mtap-research/PACMAN-charge/)
data_EBUREA_FSR_pacman
_symmetry_space_group_name_H-M   'P 1'
_cell_length_a   15.58730000
_cell_length_b   15.58730000
_cell_length_c   19.33700000
_cell_angle_alpha   73.63060000
_cell_angle_beta   106.36900000
_cell_angle_gamma   153.11600000
_symmetry_Int_Tables_number   1
_chemical_formula_structural   Mn3H14C30N4O17
_chemical_formula_sum   'Mn6 H28 C60 N8 O34'
_cell_volume   2033.31277451
_cell_formula_units_Z   2
loop_
 _symmetry_equiv_pos_site_id
 _symmetry_equiv_pos_as_xyz
  1  'x, y, z'
loop_
 _atom_site_type_symbol
 _atom_site_label
 _atom_site_symmetry_multiplicity
 _atom_site_fract_x
 _atom_site_fract_y
 _atom_site_fract_z
 _atom_site_occupancy
 _atom_site_charge
Mn  Mn1  1  0.51491000  0.16125000  0.08992000  1.0 1.1705379135
Mn  Mn2  1  0.83875000  0.48509000  0.58992000  1.0 1.1705379135
Mn  Mn3  1  0.71344000  0.12938000  0.04905000  1.0 1.1485555417
Mn  Mn4  1  0.87062000  0.28656000  0.54905000  1.0 1.1485555417
Mn  Mn5  1  0.16927000  0.60019000  0.23072000  1.0 1.1485555417
Mn  Mn6  1  0.39981000  0.83073000  0.73072000  1.0 1.1485555417
H  H1  1  0.84810000  0.63150000  0.20230000  1.0 0.1292579508
H  H2  1  0.36850000  0.15190000  0.70230000  1.0 0.1292579508
H  H3  1  0.01510000  0.77650000  0.40580000  1.0 0.138979976
H  H4  1  0.22350000  0.98490000  0.90580000  1.0 0.138979976
H  H5  1  0.96240000  0.49800000  0.35400000  1.0 0.1292579508
H  H6  1  0.50200000  0.03760000  0.85400000  1.0 0.1292579508
H  H7  1  0.95560000  0.00440000  0.10750000  1.0 0.1292579508
H  H8  1  0.99560000  0.04440000  0.60750000  1.0 0.1292579508
H  H9  1  0.98430000  0.18290000  0.08710000  1.0 0.1292579508
H  H10  1  0.81710000  0.01570000  0.58710000  1.0 0.1292579508
H  H11  1  0.98790000  0.15730000  0.30010000  1.0 0.1292579508
H  H12  1  0.84270000  0.01210000  0.80010000  1.0 0.1292579508
H  H13  1  0.96340000  0.98080000  0.32250000  1.0 0.1292579508
H  H14  1  0.01920000  0.03660000  0.82250000  1.0 0.1292579508
H  H15  1  0.46130000  0.67310000  0.30620000  1.0 0.1292579508
H  H16  1  0.32690000  0.53870000  0.80620000  1.0 0.1292579508
H  H17  1  0.44740000  0.50960000  0.35810000  1.0 0.1292579508
H  H18  1  0.49040000  0.55260000  0.85810000  1.0 0.1292579508
H  H19  1  0.47190000  0.48890000  0.16210000  1.0 0.1292579508
H  H20  1  0.51110000  0.52810000  0.66210000  1.0 0.1292579508
H  H21  1  0.49170000  0.65990000  0.10980000  1.0 0.1292579508
H  H22  1  0.34010000  0.50830000  0.60980000  1.0 0.1292579508
H  H23  1  0.54120000  0.31780000  0.39740000  1.0 0.1292579508
H  H24  1  0.68220000  0.45880000  0.89740000  1.0 0.1292579508
H  H25  1  0.45720000  0.99820000  0.37090000  1.0 0.138979976
H  H26  1  0.00180000  0.54280000  0.87090000  1.0 0.1292579508
H  H27  1  0.34670000  0.11790000  0.20280000  1.0 0.138979976
H  H28  1  0.88210000  0.65330000  0.70280000  1.0 0.138979976
C  C1  1  0.83190000  0.43990000  0.21610000  1.0 0.5585176253
C  C2  1  0.56010000  0.16810000  0.71610000  1.0 0.5546550996
C  C3  1  0.89430000  0.54730000  0.26970000  1.0 -0.0148800665
C  C4  1  0.45270000  0.10570000  0.76970000  1.0 -0.0148800665
C  C5  1  0.88760000  0.63440000  0.24930000  1.0 -0.1481866778
C  C6  1  0.36560000  0.11240000  0.74930000  1.0 -0.1481866778
C  C7  1  0.94230000  0.72750000  0.30200000  1.0 0.1292579508
C  C8  1  0.27250000  0.05770000  0.80200000  1.0 0.1292579508
C  C9  1  0.98830000  0.72230000  0.37140000  1.0 -0.15703533
C  C10  1  0.27770000  0.01170000  0.87140000  1.0 -0.15703533
C  C11  1  0.99630000  0.63550000  0.39190000  1.0 -0.0233055008
C  C12  1  0.36450000  0.00370000  0.89190000  1.0 -0.0233055008
C  C13  1  0.04480000  0.62840000  0.46920000  1.0 0.5585176253
C  C14  1  0.37160000  0.95520000  0.96920000  1.0 0.5585176253
C  C15  1  0.95290000  0.55150000  0.34100000  1.0 -0.1064644584
C  C16  1  0.44850000  0.04710000  0.84100000  1.0 -0.1064644584
C  C17  1  0.95980000  0.97900000  0.21530000  1.0 0.138979976
C  C18  1  0.02100000  0.04020000  0.71530000  1.0 0.138979976
C  C19  1  0.96290000  0.03550000  0.14610000  1.0 -0.15703533
C  C20  1  0.96450000  0.03710000  0.64610000  1.0 -0.15703533
C  C21  1  0.97700000  0.13980000  0.13400000  1.0 -0.0830338054
C  C22  1  0.86020000  0.02300000  0.63400000  1.0 -0.0830338054
C  C23  1  0.98040000  0.18060000  0.19090000  1.0 -0.0233055008
C  C24  1  0.81940000  0.01960000  0.69090000  1.0 -0.0233055008
C  C25  1  0.99810000  0.29690000  0.17580000  1.0 0.5433148391
C  C26  1  0.70310000  0.00190000  0.67580000  1.0 0.5433148391
C  C27  1  0.97980000  0.12480000  0.26170000  1.0 -0.0903551132
C  C28  1  0.87520000  0.02020000  0.76170000  1.0 -0.0903551132
C  C29  1  0.96710000  0.02110000  0.27560000  1.0 -0.1372385227
C  C30  1  0.97890000  0.03290000  0.77560000  1.0 -0.1372385227
C  C31  1  0.49790000  0.80050000  0.16850000  1.0 0.5585176253
C  C32  1  0.19950000  0.50210000  0.66850000  1.0 0.5585176253
C  C33  1  0.47710000  0.68390000  0.20220000  1.0 -0.0281072095
C  C34  1  0.31610000  0.52290000  0.70220000  1.0 -0.0281072095
C  C35  1  0.46380000  0.63680000  0.27740000  1.0 -0.0903551132
C  C36  1  0.36320000  0.53620000  0.77740000  1.0 -0.0903551132
C  C37  1  0.45470000  0.53830000  0.30840000  1.0 -0.1481866778
C  C38  1  0.46170000  0.54530000  0.80840000  1.0 -0.1481866778
C  C39  1  0.45650000  0.48070000  0.26580000  1.0 0.138979976
C  C40  1  0.51930000  0.54350000  0.76580000  1.0 0.138979976
C  C41  1  0.47020000  0.52640000  0.19070000  1.0 -0.1481866778
C  C42  1  0.47360000  0.52980000  0.69070000  1.0 -0.1481866778
C  C43  1  0.48140000  0.62840000  0.15930000  1.0 -0.0903551132
C  C44  1  0.37160000  0.51860000  0.65930000  1.0 -0.0903551132
C  C45  1  0.43980000  0.23140000  0.29470000  1.0 0.138979976
C  C46  1  0.76860000  0.56020000  0.79470000  1.0 0.138979976
C  C47  1  0.50410000  0.24890000  0.36800000  1.0 -0.1372385227
C  C48  1  0.75110000  0.49590000  0.86800000  1.0 -0.1372385227
C  C49  1  0.51170000  0.16130000  0.39620000  1.0 -0.0413185374
C  C50  1  0.83870000  0.48830000  0.89620000  1.0 -0.0413185374
C  C51  1  0.60050000  0.20050000  0.46940000  1.0 0.5669793731
C  C52  1  0.79950000  0.39950000  0.96940000  1.0 0.5669793731
C  C53  1  0.45370000  0.05690000  0.35220000  1.0 -0.0903551132
C  C54  1  0.94310000  0.54630000  0.85220000  1.0 -0.0903551132
C  C55  1  0.39040000  0.03880000  0.28040000  1.0 -0.0281072095
C  C56  1  0.96120000  0.60960000  0.78040000  1.0 -0.0233055008
C  C57  1  0.33100000  0.92820000  0.23220000  1.0 0.5585176253
C  C58  1  0.07180000  0.66900000  0.73220000  1.0 0.5585176253
C  C59  1  0.38580000  0.12760000  0.25130000  1.0 -0.1481866778
C  C60  1  0.87240000  0.61420000  0.75130000  1.0 -0.1481866778
N  N1  1  0.93950000  0.82010000  0.28860000  1.0 -0.10062783
N  N2  1  0.17990000  0.06050000  0.78860000  1.0 -0.10062783
N  N3  1  0.95460000  0.87840000  0.22510000  1.0 -0.1064644584
N  N4  1  0.12160000  0.04540000  0.72510000  1.0 -0.10062783
N  N5  1  0.44760000  0.37980000  0.30170000  1.0 -0.1166438812
N  N6  1  0.62020000  0.55240000  0.80170000  1.0 -0.1166438812
N  N7  1  0.43560000  0.32000000  0.26110000  1.0 -0.0903551132
N  N8  1  0.68000000  0.56440000  0.76110000  1.0 -0.0903551132
O  O1  1  0.73553000  0.39727000  0.15920000  1.0 -0.5474465393
O  O2  1  0.60273000  0.26447000  0.65920000  1.0 -0.5474465393
O  O3  1  0.87637000  0.39803000  0.23200000  1.0 -0.5014838927
O  O4  1  0.60197000  0.12363000  0.73200000  1.0 -0.5014838927
O  O5  1  0.04691000  0.54569000  0.48620000  1.0 -0.5390182687
O  O6  1  0.45431000  0.95309000  0.98620000  1.0 -0.5390182687
O  O7  1  0.07573000  0.69887000  0.51640000  1.0 -0.5141204202
O  O8  1  0.30113000  0.92427000  0.01640000  1.0 -0.5141204202
O  O9  1  0.02976000  0.35444000  0.23080000  1.0 -0.5264882598
O  O10  1  0.64556000  0.97024000  0.73080000  1.0 -0.5264882598
O  O11  1  0.98020000  0.32780000  0.11270000  1.0 -0.5141204202
O  O12  1  0.67220000  0.01980000  0.61270000  1.0 -0.5141204202
O  O13  1  0.56344000  0.88216000  0.10720000  1.0 -0.5474465393
O  O14  1  0.11784000  0.43656000  0.60720000  1.0 -0.5474465393
O  O15  1  0.45766000  0.81874000  0.20400000  1.0 -0.5190377984
O  O16  1  0.18126000  0.54234000  0.70400000  1.0 -0.5190377984
O  O17  1  0.65539000  0.30121000  0.50640000  1.0 -0.5574353688
O  O18  1  0.69879000  0.34461000  0.00640000  1.0 -0.5574353688
O  O19  1  0.62028000  0.13392000  0.49140000  1.0 -0.5190377984
O  O20  1  0.86608000  0.37972000  0.99140000  1.0 -0.5264882598
O  O21  1  0.31737000  0.83343000  0.26310000  1.0 -0.5390182687
O  O22  1  0.16657000  0.68263000  0.76310000  1.0 -0.5390182687
O  O23  1  0.30401000  0.93999000  0.16490000  1.0 -0.5390182687
O  O24  1  0.06001000  0.69599000  0.66490000  1.0 -0.5390182687
O  O25  1  0.63553000  0.12587000  0.13740000  1.0 -0.062691109
O  O26  1  0.87413000  0.36447000  0.63740000  1.0 -0.0672159546
O  O27  1  0.41810000  0.21290000  0.04690000  1.0 -0.3004816823
O  O28  1  0.78710000  0.58190000  0.54690000  1.0 -0.3004816823
O  O29  1  0.78058000  0.11782000  0.97240000  1.0 -0.1721338608
O  O30  1  0.88218000  0.21942000  0.47240000  1.0 -0.1721338608
O  O31  1  0.12560000  0.62760000  0.11600000  1.0 0.138979976
O  O32  1  0.37240000  0.87440000  0.61600000  1.0 0.1518466867
O  O33  1  0.21180000  0.56780000  0.34670000  1.0 -0.1306346112
O  O34  1  0.43220000  0.78820000  0.84670000  1.0 -0.1306346112
