# DDEC6 charges by PACMAN v1.1 (https://github.com/mtap-research/PACMAN-charge/)
data_ECALOL_FSR_pacman
_symmetry_space_group_name_H-M   'P 1'
_cell_length_a   6.91170000
_cell_length_b   13.14160000
_cell_length_c   34.43330000
_cell_angle_alpha   90.00000000
_cell_angle_beta   90.00000000
_cell_angle_gamma   90.00000000
_symmetry_Int_Tables_number   1
_chemical_formula_structural   Eu4Cu2H16C30N4ClO12
_chemical_formula_sum   'Eu16 Cu8 H64 C120 N16 Cl4 O48'
_cell_volume   3127.60407270
_cell_formula_units_Z   4
loop_
 _symmetry_equiv_pos_site_id
 _symmetry_equiv_pos_as_xyz
  1  'x, y, z'
loop_
 _atom_site_type_symbol
 _atom_site_label
 _atom_site_symmetry_multiplicity
 _atom_site_fract_x
 _atom_site_fract_y
 _atom_site_fract_z
 _atom_site_occupancy
 _atom_site_charge
Eu  Eu1  1  0.12040000  0.87240000  0.48230000  1.0 2.1198393095
Eu  Eu2  1  0.37960000  0.37240000  0.51770000  1.0 2.1198393095
Eu  Eu3  1  0.62040000  0.62760000  0.01770000  1.0 2.1198393095
Eu  Eu4  1  0.87960000  0.12760000  0.98230000  1.0 2.1198393095
Eu  Eu5  1  0.87960000  0.12760000  0.51770000  1.0 2.1198393095
Eu  Eu6  1  0.62040000  0.62760000  0.48230000  1.0 2.1198393095
Eu  Eu7  1  0.37960000  0.37240000  0.98230000  1.0 2.1198393095
Eu  Eu8  1  0.12040000  0.87240000  0.01770000  1.0 2.1198393095
Eu  Eu9  1  0.59970000  0.63370000  0.02140000  1.0 2.1326094854
Eu  Eu10  1  0.90030000  0.13370000  0.97860000  1.0 2.1326094854
Eu  Eu11  1  0.09970000  0.86630000  0.47860000  1.0 2.1326094854
Eu  Eu12  1  0.40030000  0.36630000  0.52140000  1.0 2.1326094854
Eu  Eu13  1  0.40030000  0.36630000  0.97860000  1.0 2.1326094854
Eu  Eu14  1  0.09970000  0.86630000  0.02140000  1.0 2.1326094854
Eu  Eu15  1  0.90030000  0.13370000  0.52140000  1.0 2.1326094854
Eu  Eu16  1  0.59970000  0.63370000  0.47860000  1.0 2.1326094854
Cu  Cu1  1  0.48400000  0.97530000  0.25000000  1.0 0.2118855815
Cu  Cu2  1  0.01600000  0.47530000  0.75000000  1.0 0.2118855815
Cu  Cu3  1  0.98400000  0.52470000  0.25000000  1.0 0.2118855815
Cu  Cu4  1  0.51600000  0.02470000  0.75000000  1.0 0.2118855815
Cu  Cu5  1  0.31220000  0.31850000  0.25000000  1.0 0.2583607572
Cu  Cu6  1  0.18780000  0.81850000  0.75000000  1.0 0.2583607572
Cu  Cu7  1  0.81220000  0.18150000  0.25000000  1.0 0.2583607572
Cu  Cu8  1  0.68780000  0.68150000  0.75000000  1.0 0.2583607572
H  H1  1  0.74380000  0.22360000  0.39230000  1.0 0.1206383991
H  H2  1  0.75620000  0.72360000  0.60770000  1.0 0.1206383991
H  H3  1  0.24380000  0.27640000  0.10770000  1.0 0.1206383991
H  H4  1  0.25620000  0.77640000  0.89230000  1.0 0.1206383991
H  H5  1  0.25620000  0.77640000  0.60770000  1.0 0.1206383991
H  H6  1  0.24380000  0.27640000  0.39230000  1.0 0.1206383991
H  H7  1  0.75620000  0.72360000  0.89230000  1.0 0.1206383991
H  H8  1  0.74380000  0.22360000  0.10770000  1.0 0.1206383991
H  H9  1  0.00760000  0.96260000  0.35820000  1.0 0.113265841
H  H10  1  0.49240000  0.46260000  0.64180000  1.0 0.113265841
H  H11  1  0.50760000  0.53740000  0.14180000  1.0 0.113265841
H  H12  1  0.99240000  0.03740000  0.85820000  1.0 0.113265841
H  H13  1  0.99240000  0.03740000  0.64180000  1.0 0.113265841
H  H14  1  0.50760000  0.53740000  0.35820000  1.0 0.113265841
H  H15  1  0.49240000  0.46260000  0.85820000  1.0 0.113265841
H  H16  1  0.00760000  0.96260000  0.14180000  1.0 0.113265841
H  H17  1  0.69550000  0.26220000  0.32670000  1.0 0.0805811754
H  H18  1  0.80450000  0.76220000  0.67330000  1.0 0.0805811754
H  H19  1  0.19550000  0.23780000  0.17330000  1.0 0.0805811754
H  H20  1  0.30450000  0.73780000  0.82670000  1.0 0.0805811754
H  H21  1  0.30450000  0.73780000  0.67330000  1.0 0.0805811754
H  H22  1  0.19550000  0.23780000  0.32670000  1.0 0.0805811754
H  H23  1  0.80450000  0.76220000  0.82670000  1.0 0.0805811754
H  H24  1  0.69550000  0.26220000  0.17330000  1.0 0.0805811754
H  H25  1  0.95420000  0.01220000  0.29420000  1.0 0.0805811754
H  H26  1  0.54580000  0.51220000  0.70580000  1.0 0.0805811754
H  H27  1  0.45420000  0.48780000  0.20580000  1.0 0.0805811754
H  H28  1  0.04580000  0.98780000  0.79420000  1.0 0.0805811754
H  H29  1  0.04580000  0.98780000  0.70580000  1.0 0.0805811754
H  H30  1  0.45420000  0.48780000  0.29420000  1.0 0.0805811754
H  H31  1  0.54580000  0.51220000  0.79420000  1.0 0.0805811754
H  H32  1  0.95420000  0.01220000  0.20580000  1.0 0.0805811754
H  H33  1  0.35940000  0.00210000  0.38960000  1.0 0.1206383991
H  H34  1  0.14060000  0.50210000  0.61040000  1.0 0.1206383991
H  H35  1  0.85940000  0.49790000  0.11040000  1.0 0.1206383991
H  H36  1  0.64060000  0.99790000  0.88960000  1.0 0.1206383991
H  H37  1  0.64060000  0.99790000  0.61040000  1.0 0.1206383991
H  H38  1  0.85940000  0.49790000  0.38960000  1.0 0.1206383991
H  H39  1  0.14060000  0.50210000  0.88960000  1.0 0.1206383991
H  H40  1  0.35940000  0.00210000  0.11040000  1.0 0.1206383991
H  H41  1  0.64250000  0.74670000  0.35860000  1.0 0.113265841
H  H42  1  0.85750000  0.24670000  0.64140000  1.0 0.113265841
H  H43  1  0.14250000  0.75330000  0.14140000  1.0 0.113265841
H  H44  1  0.35750000  0.25330000  0.85860000  1.0 0.113265841
H  H45  1  0.35750000  0.25330000  0.64140000  1.0 0.113265841
H  H46  1  0.14250000  0.75330000  0.35860000  1.0 0.113265841
H  H47  1  0.85750000  0.24670000  0.85860000  1.0 0.113265841
H  H48  1  0.64250000  0.74670000  0.14140000  1.0 0.113265841
H  H49  1  0.38570000  0.05810000  0.32560000  1.0 0.0805811754
H  H50  1  0.11430000  0.55810000  0.67440000  1.0 0.0805811754
H  H51  1  0.88570000  0.44190000  0.17440000  1.0 0.0805811754
H  H52  1  0.61430000  0.94190000  0.82560000  1.0 0.0805811754
H  H53  1  0.61430000  0.94190000  0.67440000  1.0 0.0805811754
H  H54  1  0.88570000  0.44190000  0.32560000  1.0 0.0805811754
H  H55  1  0.11430000  0.55810000  0.82560000  1.0 0.0805811754
H  H56  1  0.38570000  0.05810000  0.17440000  1.0 0.0805811754
H  H57  1  0.68390000  0.81680000  0.29670000  1.0 0.0805811754
H  H58  1  0.81610000  0.31680000  0.70330000  1.0 0.0805811754
H  H59  1  0.18390000  0.68320000  0.20330000  1.0 0.0805811754
H  H60  1  0.31610000  0.18320000  0.79670000  1.0 0.0805811754
H  H61  1  0.31610000  0.18320000  0.70330000  1.0 0.0805811754
H  H62  1  0.18390000  0.68320000  0.29670000  1.0 0.0805811754
H  H63  1  0.81610000  0.31680000  0.79670000  1.0 0.0805811754
H  H64  1  0.68390000  0.81680000  0.20330000  1.0 0.0805811754
C  C1  1  0.91500000  0.05860000  0.42460000  1.0 0.6201919305
C  C2  1  0.58500000  0.55860000  0.57540000  1.0 0.6201919305
C  C3  1  0.41500000  0.44140000  0.07540000  1.0 0.6201919305
C  C4  1  0.08500000  0.94140000  0.92460000  1.0 0.6201919305
C  C5  1  0.08500000  0.94140000  0.57540000  1.0 0.6201919305
C  C6  1  0.41500000  0.44140000  0.42460000  1.0 0.6201919305
C  C7  1  0.58500000  0.55860000  0.92460000  1.0 0.6201919305
C  C8  1  0.91500000  0.05860000  0.07540000  1.0 0.6201919305
C  C9  1  0.88000000  0.08980000  0.38210000  1.0 0.0077447796
C  C10  1  0.62000000  0.58980000  0.61790000  1.0 0.0077447796
C  C11  1  0.38000000  0.41020000  0.11790000  1.0 0.0077447796
C  C12  1  0.12000000  0.91020000  0.88210000  1.0 0.0048887085
C  C13  1  0.12000000  0.91020000  0.61790000  1.0 0.0048887085
C  C14  1  0.38000000  0.41020000  0.38210000  1.0 0.0077447796
C  C15  1  0.62000000  0.58980000  0.88210000  1.0 0.0077447796
C  C16  1  0.88000000  0.08980000  0.11790000  1.0 0.0077447796
C  C17  1  0.78900000  0.17870000  0.37260000  1.0 -0.1731087726
C  C18  1  0.71100000  0.67870000  0.62740000  1.0 -0.1731087726
C  C19  1  0.28900000  0.32130000  0.12740000  1.0 -0.1731087726
C  C20  1  0.21100000  0.82130000  0.87260000  1.0 -0.1731087726
C  C21  1  0.21100000  0.82130000  0.62740000  1.0 -0.1731087726
C  C22  1  0.28900000  0.32130000  0.37260000  1.0 -0.1731087726
C  C23  1  0.71100000  0.67870000  0.87260000  1.0 -0.1731087726
C  C24  1  0.78900000  0.17870000  0.12740000  1.0 -0.1731087726
C  C25  1  0.94500000  0.02520000  0.35250000  1.0 -0.1799962917
C  C26  1  0.55500000  0.52520000  0.64750000  1.0 -0.1799962917
C  C27  1  0.44500000  0.47480000  0.14750000  1.0 -0.1799962917
C  C28  1  0.05500000  0.97480000  0.85250000  1.0 -0.1799962917
C  C29  1  0.05500000  0.97480000  0.64750000  1.0 -0.1799962917
C  C30  1  0.44500000  0.47480000  0.35250000  1.0 -0.1799962917
C  C31  1  0.55500000  0.52520000  0.85250000  1.0 -0.1799962917
C  C32  1  0.94500000  0.02520000  0.14750000  1.0 -0.1799962917
C  C33  1  0.76400000  0.20200000  0.33320000  1.0 0.0459508214
C  C34  1  0.73600000  0.70200000  0.66680000  1.0 0.0459508214
C  C35  1  0.26400000  0.29800000  0.16680000  1.0 0.0459508214
C  C36  1  0.23600000  0.79800000  0.83320000  1.0 0.0459508214
C  C37  1  0.23600000  0.79800000  0.66680000  1.0 0.0459508214
C  C38  1  0.26400000  0.29800000  0.33320000  1.0 0.0459508214
C  C39  1  0.73600000  0.70200000  0.83320000  1.0 0.0459508214
C  C40  1  0.76400000  0.20200000  0.16680000  1.0 0.0459508214
C  C41  1  0.91400000  0.05650000  0.31440000  1.0 0.0248905558
C  C42  1  0.58600000  0.55650000  0.68560000  1.0 0.0255698401
C  C43  1  0.41400000  0.44350000  0.18560000  1.0 0.0248905558
C  C44  1  0.08600000  0.94350000  0.81440000  1.0 0.0248905558
C  C45  1  0.08600000  0.94350000  0.68560000  1.0 0.0248905558
C  C46  1  0.41400000  0.44350000  0.31440000  1.0 0.0248905558
C  C47  1  0.58600000  0.55650000  0.81440000  1.0 0.0255698401
C  C48  1  0.91400000  0.05650000  0.18560000  1.0 0.0248905558
C  C49  1  0.48300000  0.83010000  0.42230000  1.0 0.5979286272
C  C50  1  0.01700000  0.33010000  0.57770000  1.0 0.5979286272
C  C51  1  0.98300000  0.66990000  0.07770000  1.0 0.5979286272
C  C52  1  0.51700000  0.16990000  0.92230000  1.0 0.5979286272
C  C53  1  0.51700000  0.16990000  0.57770000  1.0 0.5979286272
C  C54  1  0.98300000  0.66990000  0.42230000  1.0 0.5979286272
C  C55  1  0.01700000  0.33010000  0.92230000  1.0 0.5979286272
C  C56  1  0.48300000  0.83010000  0.07770000  1.0 0.5979286272
C  C57  1  0.50100000  0.86850000  0.38130000  1.0 0.0077447796
C  C58  1  0.99900000  0.36850000  0.61870000  1.0 0.0077447796
C  C59  1  0.00100000  0.63150000  0.11870000  1.0 0.0077447796
C  C60  1  0.49900000  0.13150000  0.88130000  1.0 0.0077447796
C  C61  1  0.49900000  0.13150000  0.61870000  1.0 0.0077447796
C  C62  1  0.00100000  0.63150000  0.38130000  1.0 0.0077447796
C  C63  1  0.99900000  0.36850000  0.88130000  1.0 0.0077447796
C  C64  1  0.50100000  0.86850000  0.11870000  1.0 0.0077447796
C  C65  1  0.42200000  0.96070000  0.37080000  1.0 -0.1799962917
C  C66  1  0.07800000  0.46070000  0.62920000  1.0 -0.1799962917
C  C67  1  0.92200000  0.53930000  0.12920000  1.0 -0.1799962917
C  C68  1  0.57800000  0.03930000  0.87080000  1.0 -0.1799962917
C  C69  1  0.57800000  0.03930000  0.62920000  1.0 -0.1799962917
C  C70  1  0.92200000  0.53930000  0.37080000  1.0 -0.1799962917
C  C71  1  0.07800000  0.46070000  0.87080000  1.0 -0.1799962917
C  C72  1  0.42200000  0.96070000  0.12920000  1.0 -0.1799962917
C  C73  1  0.59100000  0.81190000  0.35270000  1.0 -0.1799962917
C  C74  1  0.90900000  0.31190000  0.64730000  1.0 -0.1799962917
C  C75  1  0.09100000  0.68810000  0.14730000  1.0 -0.1799962917
C  C76  1  0.40900000  0.18810000  0.85270000  1.0 -0.1799962917
C  C77  1  0.40900000  0.18810000  0.64730000  1.0 -0.1799962917
C  C78  1  0.09100000  0.68810000  0.35270000  1.0 -0.1799962917
C  C79  1  0.90900000  0.31190000  0.85270000  1.0 -0.1799962917
C  C80  1  0.59100000  0.81190000  0.14730000  1.0 -0.1799962917
C  C81  1  0.43500000  0.99290000  0.33210000  1.0 0.0613430801
C  C82  1  0.06500000  0.49290000  0.66790000  1.0 0.0613430801
C  C83  1  0.93500000  0.50710000  0.16790000  1.0 0.0613430801
C  C84  1  0.56500000  0.00710000  0.83210000  1.0 0.0613430801
C  C85  1  0.56500000  0.00710000  0.66790000  1.0 0.0613430801
C  C86  1  0.93500000  0.50710000  0.33210000  1.0 0.0613430801
C  C87  1  0.06500000  0.49290000  0.83210000  1.0 0.0613430801
C  C88  1  0.43500000  0.99290000  0.16790000  1.0 0.0613430801
C  C89  1  0.60600000  0.85140000  0.31520000  1.0 -0.0044713516
C  C90  1  0.89400000  0.35140000  0.68480000  1.0 -0.0044713516
C  C91  1  0.10600000  0.64860000  0.18480000  1.0 -0.0044713516
C  C92  1  0.39400000  0.14860000  0.81520000  1.0 -0.0044713516
C  C93  1  0.39400000  0.14860000  0.68480000  1.0 -0.0044713516
C  C94  1  0.10600000  0.64860000  0.31520000  1.0 -0.0044713516
C  C95  1  0.89400000  0.35140000  0.81520000  1.0 -0.0044713516
C  C96  1  0.60600000  0.85140000  0.18480000  1.0 -0.0044713516
C  C97  1  0.70700000  0.87670000  0.51320000  1.0 0.410052656
C  C98  1  0.79300000  0.37670000  0.48680000  1.0 0.410052656
C  C99  1  0.20700000  0.62330000  0.98680000  1.0 0.410052656
C  C100  1  0.29300000  0.12330000  0.01320000  1.0 0.410052656
C  C101  1  0.29300000  0.12330000  0.48680000  1.0 0.410052656
C  C102  1  0.20700000  0.62330000  0.51320000  1.0 0.410052656
C  C103  1  0.79300000  0.37670000  0.01320000  1.0 0.410052656
C  C104  1  0.70700000  0.87670000  0.98680000  1.0 0.410052656
C  C105  1  0.58100000  0.87800000  0.54070000  1.0 -0.1011955061
C  C106  1  0.91900000  0.37800000  0.45930000  1.0 -0.1011955061
C  C107  1  0.08100000  0.62200000  0.95930000  1.0 -0.1011955061
C  C108  1  0.41900000  0.12200000  0.04070000  1.0 -0.1011955061
C  C109  1  0.41900000  0.12200000  0.45930000  1.0 -0.1011955061
C  C110  1  0.08100000  0.62200000  0.54070000  1.0 -0.1011955061
C  C111  1  0.91900000  0.37800000  0.04070000  1.0 -0.1011955061
C  C112  1  0.58100000  0.87800000  0.95930000  1.0 -0.1011955061
C  C113  1  0.00600000  0.62300000  0.98530000  1.0 -0.2973920119
C  C114  1  0.49400000  0.12300000  0.01470000  1.0 -0.2973920119
C  C115  1  0.50600000  0.87700000  0.51470000  1.0 -0.2973920119
C  C116  1  0.99400000  0.37700000  0.48530000  1.0 -0.2973920119
C  C117  1  0.99400000  0.37700000  0.01470000  1.0 -0.2973920119
C  C118  1  0.50600000  0.87700000  0.98530000  1.0 -0.2973920119
C  C119  1  0.49400000  0.12300000  0.48530000  1.0 -0.2973920119
C  C120  1  0.00600000  0.62300000  0.51470000  1.0 -0.2973920119
N  N1  1  0.83120000  0.14490000  0.30440000  1.0 -0.2069508278
N  N2  1  0.66880000  0.64490000  0.69560000  1.0 -0.2069508278
N  N3  1  0.33120000  0.35510000  0.19560000  1.0 -0.2069508278
N  N4  1  0.16880000  0.85510000  0.80440000  1.0 -0.2069508278
N  N5  1  0.16880000  0.85510000  0.69560000  1.0 -0.2069508278
N  N6  1  0.33120000  0.35510000  0.30440000  1.0 -0.2069508278
N  N7  1  0.66880000  0.64490000  0.80440000  1.0 -0.2069508278
N  N8  1  0.83120000  0.14490000  0.19560000  1.0 -0.2069508278
N  N9  1  0.51300000  0.93790000  0.30430000  1.0 -0.1940534536
N  N10  1  0.98700000  0.43790000  0.69570000  1.0 -0.1940534536
N  N11  1  0.01300000  0.56210000  0.19570000  1.0 -0.1940534536
N  N12  1  0.48700000  0.06210000  0.80430000  1.0 -0.1940534536
N  N13  1  0.48700000  0.06210000  0.69570000  1.0 -0.1940534536
N  N14  1  0.01300000  0.56210000  0.30430000  1.0 -0.1940534536
N  N15  1  0.98700000  0.43790000  0.80430000  1.0 -0.1940534536
N  N16  1  0.51300000  0.93790000  0.19570000  1.0 -0.1940534536
Cl  Cl1  1  0.31200000  0.13620000  0.25000000  1.0 -0.5683347743
Cl  Cl2  1  0.18800000  0.63620000  0.75000000  1.0 -0.5683347743
Cl  Cl3  1  0.81200000  0.36380000  0.25000000  1.0 -0.5683347743
Cl  Cl4  1  0.68800000  0.86380000  0.75000000  1.0 -0.5683347743
O  O1  1  0.97970000  0.97210000  0.42970000  1.0 -0.8043813121
O  O2  1  0.52030000  0.47210000  0.57030000  1.0 -0.8043813121
O  O3  1  0.47970000  0.52790000  0.07030000  1.0 -0.8043813121
O  O4  1  0.02030000  0.02790000  0.92970000  1.0 -0.8043813121
O  O5  1  0.02030000  0.02790000  0.57030000  1.0 -0.8043813121
O  O6  1  0.47970000  0.52790000  0.42970000  1.0 -0.8043813121
O  O7  1  0.52030000  0.47210000  0.92970000  1.0 -0.8043813121
O  O8  1  0.97970000  0.97210000  0.07030000  1.0 -0.8043813121
O  O9  1  0.87100000  0.12340000  0.45040000  1.0 -0.8310290586
O  O10  1  0.62900000  0.62340000  0.54960000  1.0 -0.8310290586
O  O11  1  0.37100000  0.37660000  0.04960000  1.0 -0.8310290586
O  O12  1  0.12900000  0.87660000  0.95040000  1.0 -0.8310290586
O  O13  1  0.12900000  0.87660000  0.54960000  1.0 -0.8310290586
O  O14  1  0.37100000  0.37660000  0.45040000  1.0 -0.8310290586
O  O15  1  0.62900000  0.62340000  0.95040000  1.0 -0.8310290586
O  O16  1  0.87100000  0.12340000  0.04960000  1.0 -0.8310290586
O  O17  1  0.40050000  0.88370000  0.44610000  1.0 -0.8115122926
O  O18  1  0.09950000  0.38370000  0.55390000  1.0 -0.8115122926
O  O19  1  0.90050000  0.61630000  0.05390000  1.0 -0.8115122926
O  O20  1  0.59950000  0.11630000  0.94610000  1.0 -0.8115122926
O  O21  1  0.59950000  0.11630000  0.55390000  1.0 -0.8115122926
O  O22  1  0.90050000  0.61630000  0.44610000  1.0 -0.8115122926
O  O23  1  0.09950000  0.38370000  0.94610000  1.0 -0.8115122926
O  O24  1  0.40050000  0.88370000  0.05390000  1.0 -0.8115122926
O  O25  1  0.56000000  0.74300000  0.42810000  1.0 -0.8651810896
O  O26  1  0.94000000  0.24300000  0.57190000  1.0 -0.8651810896
O  O27  1  0.06000000  0.75700000  0.07190000  1.0 -0.8646799934
O  O28  1  0.44000000  0.25700000  0.92810000  1.0 -0.8646799934
O  O29  1  0.44000000  0.25700000  0.57190000  1.0 -0.8646799934
O  O30  1  0.06000000  0.75700000  0.42810000  1.0 -0.8646799934
O  O31  1  0.94000000  0.24300000  0.92810000  1.0 -0.8651810896
O  O32  1  0.56000000  0.74300000  0.07190000  1.0 -0.8651810896
O  O33  1  0.77270000  0.79200000  0.49810000  1.0 -0.9580480319
O  O34  1  0.72730000  0.29200000  0.50190000  1.0 -0.9580480319
O  O35  1  0.27270000  0.70800000  0.00190000  1.0 -0.9580480319
O  O36  1  0.22730000  0.20800000  0.99810000  1.0 -0.9580480319
O  O37  1  0.22730000  0.20800000  0.50190000  1.0 -0.9580480319
O  O38  1  0.27270000  0.70800000  0.49810000  1.0 -0.9580480319
O  O39  1  0.72730000  0.29200000  0.99810000  1.0 -0.9580480319
O  O40  1  0.77270000  0.79200000  0.00190000  1.0 -0.9580480319
O  O41  1  0.80630000  0.95620000  0.50480000  1.0 -0.981778757
O  O42  1  0.69370000  0.45620000  0.49520000  1.0 -0.981778757
O  O43  1  0.30630000  0.54380000  0.99520000  1.0 -0.981778757
O  O44  1  0.19370000  0.04380000  0.00480000  1.0 -0.981778757
O  O45  1  0.19370000  0.04380000  0.49520000  1.0 -0.981778757
O  O46  1  0.30630000  0.54380000  0.50480000  1.0 -0.981778757
O  O47  1  0.69370000  0.45620000  0.00480000  1.0 -0.981778757
O  O48  1  0.80630000  0.95620000  0.99520000  1.0 -0.981778757
