# DDEC6 charges by PACMAN v1.1 (https://github.com/mtap-research/PACMAN-charge/)
data_ECASOS_FSR_pacman
_symmetry_space_group_name_H-M   'P 1'
_cell_length_a   7.03030000
_cell_length_b   15.64080000
_cell_length_c   13.18230000
_cell_angle_alpha   90.00000000
_cell_angle_beta   110.66000000
_cell_angle_gamma   90.00000000
_symmetry_Int_Tables_number   1
_chemical_formula_structural   CuP2H10C8N5O6
_chemical_formula_sum   'Cu4 P8 H40 C32 N20 O24'
_cell_volume   1356.30157600
_cell_formula_units_Z   4
loop_
 _symmetry_equiv_pos_site_id
 _symmetry_equiv_pos_as_xyz
  1  'x, y, z'
loop_
 _atom_site_type_symbol
 _atom_site_label
 _atom_site_symmetry_multiplicity
 _atom_site_fract_x
 _atom_site_fract_y
 _atom_site_fract_z
 _atom_site_occupancy
 _atom_site_charge
Cu  Cu1  1  0.50000000  0.50000000  0.00000000  1.0 0.8946262153
Cu  Cu2  1  0.50000000  0.00000000  0.50000000  1.0 0.8946262153
Cu  Cu3  1  0.00000000  0.50000000  0.00000000  1.0 0.9110373111
Cu  Cu4  1  0.00000000  0.00000000  0.50000000  1.0 0.9110373111
P  P1  1  0.47552000  0.58620000  0.21636000  1.0 1.2581864746
P  P2  1  0.52448000  0.08620000  0.28364000  1.0 1.2581864746
P  P3  1  0.52448000  0.41380000  0.78364000  1.0 1.2581864746
P  P4  1  0.47552000  0.91380000  0.71636000  1.0 1.2581864746
P  P5  1  0.00752000  0.92586000  0.26823000  1.0 1.2328023465
P  P6  1  0.99248000  0.42586000  0.23177000  1.0 1.2328023465
P  P7  1  0.99248000  0.07414000  0.73177000  1.0 1.2328023465
P  P8  1  0.00752000  0.57414000  0.76823000  1.0 1.2328023465
H  H1  1  0.39190000  0.76760000  0.20240000  1.0 0.1080811016
H  H2  1  0.60810000  0.26760000  0.29760000  1.0 0.1080811016
H  H3  1  0.60810000  0.23240000  0.79760000  1.0 0.1080811016
H  H4  1  0.39190000  0.73240000  0.70240000  1.0 0.1080811016
H  H5  1  0.58880000  0.89000000  0.22100000  1.0 0.126534641
H  H6  1  0.41120000  0.39000000  0.27900000  1.0 0.126534641
H  H7  1  0.41120000  0.11000000  0.77900000  1.0 0.126534641
H  H8  1  0.58880000  0.61000000  0.72100000  1.0 0.126534641
H  H9  1  0.08830000  0.74490000  0.27690000  1.0 0.1080811016
H  H10  1  0.91170000  0.24490000  0.22310000  1.0 0.1080811016
H  H11  1  0.91170000  0.25510000  0.72310000  1.0 0.1080811016
H  H12  1  0.08830000  0.75510000  0.77690000  1.0 0.1080811016
H  H13  1  0.89030000  0.62260000  0.25650000  1.0 0.1214760395
H  H14  1  0.10970000  0.12260000  0.24350000  1.0 0.1214760395
H  H15  1  0.10970000  0.37740000  0.74350000  1.0 0.1214760395
H  H16  1  0.89030000  0.87740000  0.75650000  1.0 0.1214760395
H  H17  1  0.30430000  0.67510000  0.94590000  1.0 0.2945124509
H  H18  1  0.69570000  0.17510000  0.55410000  1.0 0.2945124509
H  H19  1  0.69570000  0.32490000  0.05410000  1.0 0.2945124509
H  H20  1  0.30430000  0.82490000  0.44590000  1.0 0.2945124509
H  H21  1  0.37460000  0.76550000  0.95240000  1.0 0.319321193
H  H22  1  0.62540000  0.26550000  0.54760000  1.0 0.319321193
H  H23  1  0.62540000  0.23450000  0.04760000  1.0 0.319321193
H  H24  1  0.37460000  0.73450000  0.45240000  1.0 0.319321193
H  H25  1  0.22800000  0.58900000  0.26900000  1.0 0.3889607342
H  H26  1  0.77200000  0.08900000  0.23100000  1.0 0.3889607342
H  H27  1  0.77200000  0.41100000  0.73100000  1.0 0.3889607342
H  H28  1  0.22800000  0.91100000  0.76900000  1.0 0.3889607342
H  H29  1  0.24000000  0.93100000  0.22800000  1.0 0.3600843774
H  H30  1  0.76000000  0.43100000  0.27200000  1.0 0.3600843774
H  H31  1  0.76000000  0.06900000  0.77200000  1.0 0.3600843774
H  H32  1  0.24000000  0.56900000  0.72800000  1.0 0.3600843774
H  H33  1  0.18120000  0.67760000  0.03270000  1.0 0.2945124509
H  H34  1  0.81880000  0.17760000  0.46730000  1.0 0.2945124509
H  H35  1  0.81880000  0.32240000  0.96730000  1.0 0.2945124509
H  H36  1  0.18120000  0.82240000  0.53270000  1.0 0.2945124509
H  H37  1  0.10730000  0.76750000  0.02390000  1.0 0.319321193
H  H38  1  0.89270000  0.26750000  0.47610000  1.0 0.319321193
H  H39  1  0.89270000  0.23250000  0.97610000  1.0 0.319321193
H  H40  1  0.10730000  0.73250000  0.52390000  1.0 0.319321193
C  C1  1  0.62120000  0.68280000  0.22820000  1.0 -0.1821402161
C  C2  1  0.37880000  0.18280000  0.27180000  1.0 -0.1821402161
C  C3  1  0.37880000  0.31720000  0.77180000  1.0 -0.1821402161
C  C4  1  0.62120000  0.81720000  0.72820000  1.0 -0.1821402161
C  C5  1  0.53100000  0.76290000  0.21730000  1.0 -0.0874544008
C  C6  1  0.46900000  0.26290000  0.28270000  1.0 -0.0874544008
C  C7  1  0.46900000  0.23710000  0.78270000  1.0 -0.0874544008
C  C8  1  0.53100000  0.73710000  0.71730000  1.0 -0.0874544008
C  C9  1  0.64940000  0.83640000  0.22870000  1.0 -0.0605700946
C  C10  1  0.35060000  0.33640000  0.27130000  1.0 -0.0605700946
C  C11  1  0.35060000  0.16360000  0.77130000  1.0 -0.0605700946
C  C12  1  0.64940000  0.66360000  0.72870000  1.0 -0.0605700946
C  C13  1  0.85900000  0.82950000  0.25170000  1.0 -0.1710830478
C  C14  1  0.14100000  0.32950000  0.24830000  1.0 -0.1710830478
C  C15  1  0.14100000  0.17050000  0.74830000  1.0 -0.1710830478
C  C16  1  0.85900000  0.67050000  0.75170000  1.0 -0.1710830478
C  C17  1  0.94910000  0.74960000  0.26200000  1.0 -0.0954131184
C  C18  1  0.05090000  0.24960000  0.23800000  1.0 -0.0954131184
C  C19  1  0.05090000  0.25040000  0.73800000  1.0 -0.0954131184
C  C20  1  0.94910000  0.75040000  0.76200000  1.0 -0.0954131184
C  C21  1  0.83010000  0.67630000  0.25000000  1.0 -0.0660964174
C  C22  1  0.16990000  0.17630000  0.25000000  1.0 -0.0660964174
C  C23  1  0.16990000  0.32370000  0.75000000  1.0 -0.0660964174
C  C24  1  0.83010000  0.82370000  0.75000000  1.0 -0.0660964174
C  C25  1  0.90440000  0.68680000  0.00590000  1.0 0.5042279513
C  C26  1  0.09560000  0.18680000  0.49410000  1.0 0.5042279513
C  C27  1  0.09560000  0.31320000  0.99410000  1.0 0.5042279513
C  C28  1  0.90440000  0.81320000  0.50590000  1.0 0.5042279513
C  C29  1  0.58290000  0.68590000  0.97750000  1.0 0.5042279513
C  C30  1  0.41710000  0.18590000  0.52250000  1.0 0.5042279513
C  C31  1  0.41710000  0.31410000  0.02250000  1.0 0.5042279513
C  C32  1  0.58290000  0.81410000  0.47750000  1.0 0.5042279513
N  N1  1  0.84860000  0.60630000  0.00210000  1.0 -0.3250408618
N  N2  1  0.15140000  0.10630000  0.49790000  1.0 -0.3250408618
N  N3  1  0.15140000  0.39370000  0.99790000  1.0 -0.3243182449
N  N4  1  0.84860000  0.89370000  0.50210000  1.0 -0.3250408618
N  N5  1  0.64210000  0.60570000  0.98560000  1.0 -0.3243182449
N  N6  1  0.35790000  0.10570000  0.51440000  1.0 -0.3243182449
N  N7  1  0.35790000  0.39430000  0.01440000  1.0 -0.3243182449
N  N8  1  0.64210000  0.89430000  0.48560000  1.0 -0.3243182449
N  N9  1  0.74170000  0.73930000  0.99020000  1.0 -0.4711247234
N  N10  1  0.25830000  0.23930000  0.50980000  1.0 -0.4711247234
N  N11  1  0.25830000  0.26070000  0.00980000  1.0 -0.4711247234
N  N12  1  0.74170000  0.76070000  0.49020000  1.0 -0.4711247234
N  N13  1  0.40090000  0.71160000  0.95630000  1.0 -0.5403591509
N  N14  1  0.59910000  0.21160000  0.54370000  1.0 -0.5452909915
N  N15  1  0.59910000  0.28840000  0.04370000  1.0 -0.5452909915
N  N16  1  0.40090000  0.78840000  0.45630000  1.0 -0.5452909915
N  N17  1  0.08360000  0.71350000  0.02260000  1.0 -0.5403591509
N  N18  1  0.91640000  0.21350000  0.47740000  1.0 -0.5403591509
N  N19  1  0.91640000  0.28650000  0.97740000  1.0 -0.5403591509
N  N20  1  0.08360000  0.78650000  0.52260000  1.0 -0.5403591509
O  O1  1  0.29660000  0.61529000  0.25150000  1.0 -0.5403591509
O  O2  1  0.70340000  0.11529000  0.24850000  1.0 -0.5403591509
O  O3  1  0.70340000  0.38471000  0.74850000  1.0 -0.5403591509
O  O4  1  0.29660000  0.88471000  0.75150000  1.0 -0.5403591509
O  O5  1  0.60730000  0.52049000  0.29320000  1.0 -0.6987727879
O  O6  1  0.39270000  0.02049000  0.20680000  1.0 -0.6987727879
O  O7  1  0.39270000  0.47951000  0.70680000  1.0 -0.6987727879
O  O8  1  0.60730000  0.97951000  0.79320000  1.0 -0.6987727879
O  O9  1  0.38730000  0.55717000  0.09870000  1.0 -0.7808268516
O  O10  1  0.61270000  0.05717000  0.40130000  1.0 -0.7808268516
O  O11  1  0.61270000  0.44283000  0.90130000  1.0 -0.7808268516
O  O12  1  0.38730000  0.94283000  0.59870000  1.0 -0.7808268516
O  O13  1  0.09240000  0.95324000  0.38640000  1.0 -0.7650465815
O  O14  1  0.90760000  0.45324000  0.11360000  1.0 -0.764688894
O  O15  1  0.90760000  0.04676000  0.61360000  1.0 -0.7650465815
O  O16  1  0.09240000  0.54676000  0.88640000  1.0 -0.7650465815
O  O17  1  0.87870000  0.99303000  0.19180000  1.0 -0.6928096561
O  O18  1  0.12130000  0.49303000  0.30820000  1.0 -0.6928096561
O  O19  1  0.12130000  0.00697000  0.80820000  1.0 -0.6928096561
O  O20  1  0.87870000  0.50697000  0.69180000  1.0 -0.6928096561
O  O21  1  0.18730000  0.89680000  0.23380000  1.0 -0.497958511
O  O22  1  0.81270000  0.39680000  0.26620000  1.0 -0.497958511
O  O23  1  0.81270000  0.10320000  0.76620000  1.0 -0.497958511
O  O24  1  0.18730000  0.60320000  0.73380000  1.0 -0.497958511
