# DDEC6 charges by PACMAN v1.1 (https://github.com/mtap-research/PACMAN-charge/)
data_ECEZAO01_FSR_pacman
_symmetry_space_group_name_H-M   'P 1'
_cell_length_a   11.22340000
_cell_length_b   11.22340000
_cell_length_c   6.37220000
_cell_angle_alpha   83.65910000
_cell_angle_beta   96.34090000
_cell_angle_gamma   127.09400000
_symmetry_Int_Tables_number   1
_chemical_formula_structural   Ni3H20(C8O7)2
_chemical_formula_sum   'Ni3 H20 C16 O14'
_cell_volume   635.35903690
_cell_formula_units_Z   1
loop_
 _symmetry_equiv_pos_site_id
 _symmetry_equiv_pos_as_xyz
  1  'x, y, z'
loop_
 _atom_site_type_symbol
 _atom_site_label
 _atom_site_symmetry_multiplicity
 _atom_site_fract_x
 _atom_site_fract_y
 _atom_site_fract_z
 _atom_site_occupancy
 _atom_site_charge
Ni  Ni1  1  0.15118000  0.15118000  0.50000000  1.0 1.1695068626
Ni  Ni2  1  0.84882000  0.84882000  0.50000000  1.0 1.1695068626
Ni  Ni3  1  0.00000000  0.00000000  0.00000000  1.0 1.1246224789
H  H1  1  0.13830000  0.47970000  0.07660000  1.0 0.1221528965
H  H2  1  0.47970000  0.13830000  0.92340000  1.0 0.1221528965
H  H3  1  0.86170000  0.52030000  0.92340000  1.0 0.1221528965
H  H4  1  0.52030000  0.86170000  0.07660000  1.0 0.1221528965
H  H5  1  0.10150000  0.44350000  0.78780000  1.0 0.1221528965
H  H6  1  0.44350000  0.10150000  0.21220000  1.0 0.1221528965
H  H7  1  0.89850000  0.55650000  0.21220000  1.0 0.1221528965
H  H8  1  0.55650000  0.89850000  0.78780000  1.0 0.1221528965
H  H9  1  0.92820000  0.32960000  0.79670000  1.0 0.1250537111
H  H10  1  0.32960000  0.92820000  0.20330000  1.0 0.1250537111
H  H11  1  0.07180000  0.67040000  0.20330000  1.0 0.1250537111
H  H12  1  0.67040000  0.07180000  0.79670000  1.0 0.1250537111
H  H13  1  0.90670000  0.37430000  0.28640000  1.0 0.1221528965
H  H14  1  0.37430000  0.90670000  0.71360000  1.0 0.1221528965
H  H15  1  0.09330000  0.62570000  0.71360000  1.0 0.1221528965
H  H16  1  0.62570000  0.09330000  0.28640000  1.0 0.1221528965
H  H17  1  0.07780000  0.49400000  0.33540000  1.0 0.1114182843
H  H18  1  0.49400000  0.07780000  0.66460000  1.0 0.1114182843
H  H19  1  0.92220000  0.50600000  0.66460000  1.0 0.1114182843
H  H20  1  0.50600000  0.92220000  0.33540000  1.0 0.1114182843
C  C1  1  0.03157000  0.39583000  0.07030000  1.0 -0.1066117512
C  C2  1  0.39583000  0.03157000  0.92970000  1.0 -0.1066117512
C  C3  1  0.96843000  0.60417000  0.92970000  1.0 -0.1066117512
C  C4  1  0.60417000  0.96843000  0.07030000  1.0 -0.1066117512
C  C5  1  0.01564000  0.42216000  0.85190000  1.0 -0.1425101013
C  C6  1  0.42216000  0.01564000  0.14810000  1.0 -0.1425101013
C  C7  1  0.98436000  0.57784000  0.14810000  1.0 -0.1425101013
C  C8  1  0.57784000  0.98436000  0.85190000  1.0 -0.1425101013
C  C9  1  0.99921000  0.45599000  0.22380000  1.0 -0.154374648
C  C10  1  0.45599000  0.99921000  0.77620000  1.0 -0.154374648
C  C11  1  0.00079000  0.54401000  0.77620000  1.0 -0.154374648
C  C12  1  0.54401000  0.00079000  0.22380000  1.0 -0.154374648
C  C13  1  0.06102000  0.28378000  0.14970000  1.0 0.5754136889
C  C14  1  0.28378000  0.06102000  0.85030000  1.0 0.5754136889
C  C15  1  0.93898000  0.71622000  0.85030000  1.0 0.5754136889
C  C16  1  0.71622000  0.93898000  0.14970000  1.0 0.5754136889
O  O1  1  0.07019000  0.26041000  0.34510000  1.0 -0.5375960172
O  O2  1  0.26041000  0.07019000  0.65490000  1.0 -0.5375960172
O  O3  1  0.92981000  0.73959000  0.65490000  1.0 -0.5375960172
O  O4  1  0.73959000  0.92981000  0.34510000  1.0 -0.5375960172
O  O5  1  0.07506000  0.22014000  0.01120000  1.0 -0.4975147025
O  O6  1  0.22014000  0.07506000  0.98880000  1.0 -0.4975147025
O  O7  1  0.92494000  0.77986000  0.98880000  1.0 -0.4975147025
O  O8  1  0.77986000  0.92494000  0.01120000  1.0 -0.4975147025
O  O9  1  0.97101000  0.02899000  0.68300000  1.0 -0.7612323017
O  O10  1  0.02899000  0.97101000  0.31700000  1.0 -0.7612323017
O  O11  1  0.26754000  0.33506000  0.69980000  1.0 -0.2245431544
O  O12  1  0.33506000  0.26754000  0.30020000  1.0 -0.2251923533
O  O13  1  0.73246000  0.66494000  0.30020000  1.0 -0.2251923533
O  O14  1  0.66494000  0.73246000  0.69980000  1.0 -0.2251923533
