# DDEC6 charges by PACMAN v1.1 (https://github.com/mtap-research/PACMAN-charge/)
data_ECEZAO_FSR_pacman
_symmetry_space_group_name_H-M   'P 1'
_cell_length_a   11.24290000
_cell_length_b   11.24290000
_cell_length_c   6.38050000
_cell_angle_alpha   83.64570000
_cell_angle_beta   96.35430000
_cell_angle_gamma   126.87000000
_symmetry_Int_Tables_number   1
_chemical_formula_structural   Ni3H22(C8O7)2
_chemical_formula_sum   'Ni3 H22 C16 O14'
_cell_volume   640.25096357
_cell_formula_units_Z   1
loop_
 _symmetry_equiv_pos_site_id
 _symmetry_equiv_pos_as_xyz
  1  'x, y, z'
loop_
 _atom_site_type_symbol
 _atom_site_label
 _atom_site_symmetry_multiplicity
 _atom_site_fract_x
 _atom_site_fract_y
 _atom_site_fract_z
 _atom_site_occupancy
 _atom_site_charge
Ni  Ni1  1  0.34972000  0.34972000  0.00000000  1.0 1.1380048775
Ni  Ni2  1  0.65028000  0.65028000  0.00000000  1.0 1.1380048775
Ni  Ni3  1  0.50000000  0.50000000  0.50000000  1.0 1.1099885487
H  H1  1  0.03000000  0.37600000  0.57590000  1.0 0.0503228904
H  H2  1  0.37600000  0.03000000  0.42410000  1.0 0.0503228904
H  H3  1  0.97000000  0.62400000  0.42410000  1.0 0.0429032788
H  H4  1  0.62400000  0.97000000  0.57590000  1.0 0.0503228904
H  H5  1  0.99840000  0.37940000  0.41390000  1.0 0.0503228904
H  H6  1  0.37940000  0.99840000  0.58610000  1.0 0.0562981003
H  H7  1  0.00160000  0.62060000  0.58610000  1.0 0.0562981003
H  H8  1  0.62060000  0.00160000  0.41390000  1.0 0.0503228904
H  H9  1  0.09540000  0.43500000  0.25090000  1.0 0.1273578246
H  H10  1  0.43500000  0.09540000  0.74910000  1.0 0.1273578246
H  H11  1  0.90460000  0.56500000  0.74910000  1.0 0.1273578246
H  H12  1  0.56500000  0.90460000  0.25090000  1.0 0.1273578246
H  H13  1  0.07090000  0.50750000  0.86030000  1.0 0.1273578246
H  H14  1  0.50750000  0.07090000  0.13970000  1.0 0.1273578246
H  H15  1  0.92910000  0.49250000  0.13970000  1.0 0.1273578246
H  H16  1  0.49250000  0.92910000  0.86030000  1.0 0.1273578246
H  H17  1  0.97360000  0.40300000  0.68740000  1.0 0.0861678355
H  H18  1  0.40300000  0.97360000  0.31260000  1.0 0.0861678355
H  H19  1  0.02640000  0.59700000  0.31260000  1.0 0.0861678355
H  H20  1  0.59700000  0.02640000  0.68740000  1.0 0.084609934
H  H21  1  0.57650000  0.42350000  0.84270000  1.0 0.4130610906
H  H22  1  0.42350000  0.57650000  0.15730000  1.0 0.4130610906
C  C1  1  0.10900000  0.47420000  0.57030000  1.0 -0.0975408621
C  C2  1  0.47420000  0.10900000  0.42970000  1.0 -0.0975408621
C  C3  1  0.89100000  0.52580000  0.42970000  1.0 -0.0975408621
C  C4  1  0.52580000  0.89100000  0.57030000  1.0 -0.0975408621
C  C5  1  0.08080000  0.48860000  0.35000000  1.0 -0.1062443201
C  C6  1  0.48860000  0.08080000  0.65000000  1.0 -0.1062443201
C  C7  1  0.91920000  0.51140000  0.65000000  1.0 -0.1062443201
C  C8  1  0.51140000  0.91920000  0.35000000  1.0 -0.1062443201
C  C9  1  0.04670000  0.50390000  0.72520000  1.0 -0.1062443201
C  C10  1  0.50390000  0.04670000  0.27480000  1.0 -0.1062443201
C  C11  1  0.95330000  0.49610000  0.27480000  1.0 -0.1062443201
C  C12  1  0.49610000  0.95330000  0.72520000  1.0 -0.1062443201
C  C13  1  0.21730000  0.44010000  0.64990000  1.0 0.5701575958
C  C14  1  0.44010000  0.21730000  0.35010000  1.0 0.5701575958
C  C15  1  0.78270000  0.55990000  0.35010000  1.0 0.5701575958
C  C16  1  0.55990000  0.78270000  0.64990000  1.0 0.5701575958
O  O1  1  0.24070000  0.43050000  0.84470000  1.0 -0.52955418
O  O2  1  0.43050000  0.24070000  0.15530000  1.0 -0.52955418
O  O3  1  0.75930000  0.56950000  0.15530000  1.0 -0.52955418
O  O4  1  0.56950000  0.75930000  0.84470000  1.0 -0.52955418
O  O5  1  0.28090000  0.42650000  0.51160000  1.0 -0.4953186131
O  O6  1  0.42650000  0.28090000  0.48840000  1.0 -0.4943509615
O  O7  1  0.71910000  0.57350000  0.48840000  1.0 -0.4953186131
O  O8  1  0.57350000  0.71910000  0.51160000  1.0 -0.4953186131
O  O9  1  0.52880000  0.47120000  0.81700000  1.0 -0.868291936
O  O10  1  0.47120000  0.52880000  0.18300000  1.0 -0.868291936
O  O11  1  0.16570000  0.23390000  0.19920000  1.0 -0.2966538586
O  O12  1  0.23390000  0.16570000  0.80080000  1.0 -0.2966538586
O  O13  1  0.83430000  0.76610000  0.80080000  1.0 -0.2966538586
O  O14  1  0.76610000  0.83430000  0.19920000  1.0 -0.2966538586
