# DDEC6 charges by PACMAN v1.1 (https://github.com/mtap-research/PACMAN-charge/)
data_ECIPAK02_ASR_pacman
_symmetry_space_group_name_H-M   'P 1'
_cell_length_a   13.80880000
_cell_length_b   13.80880000
_cell_length_c   13.80880000
_cell_angle_alpha   81.04690000
_cell_angle_beta   81.04690000
_cell_angle_gamma   81.04690000
_symmetry_Int_Tables_number   1
_chemical_formula_structural   CoH30C39(NO2)3
_chemical_formula_sum   'Co2 H60 C78 N6 O12'
_cell_volume   2545.92593441
_cell_formula_units_Z   2
loop_
 _symmetry_equiv_pos_site_id
 _symmetry_equiv_pos_as_xyz
  1  'x, y, z'
loop_
 _atom_site_type_symbol
 _atom_site_label
 _atom_site_symmetry_multiplicity
 _atom_site_fract_x
 _atom_site_fract_y
 _atom_site_fract_z
 _atom_site_occupancy
 _atom_site_charge
Co  Co1  1  0.81067000  0.81067000  0.81067000  1.0 0.9504744749
Co  Co2  1  0.18933000  0.18933000  0.18933000  1.0 0.9504744749
H  H1  1  0.97601000  0.40936000  0.15250000  1.0 0.1398509856
H  H2  1  0.85065000  0.32309000  0.17895000  1.0 0.1190945816
H  H3  1  0.75338000  0.44535000  0.93488000  1.0 0.1091281681
H  H4  1  0.88890000  0.52975000  0.88964000  1.0 0.1398509856
H  H5  1  0.69158000  0.30273000  0.15778000  1.0 0.1280804565
H  H6  1  0.63710000  0.37729000  0.07911000  1.0 0.1190945816
H  H7  1  0.78982000  0.14012000  0.10455000  1.0 0.1190945816
H  H8  1  0.79873000  0.02623000  0.00795000  1.0 0.1280804565
H  H9  1  0.63398000  0.20388000  0.82582000  1.0 0.1091281681
H  H10  1  0.62139000  0.32731000  0.92739000  1.0 0.1190945816
H  H11  1  0.40936000  0.15250000  0.97601000  1.0 0.1398509856
H  H12  1  0.32309000  0.17895000  0.85065000  1.0 0.1190945816
H  H13  1  0.44535000  0.93488000  0.75338000  1.0 0.1091281681
H  H14  1  0.52975000  0.88964000  0.88890000  1.0 0.1398509856
H  H15  1  0.30273000  0.15778000  0.69158000  1.0 0.1280804565
H  H16  1  0.37729000  0.07911000  0.63710000  1.0 0.1190945816
H  H17  1  0.14012000  0.10455000  0.78982000  1.0 0.1190945816
H  H18  1  0.02623000  0.00795000  0.79873000  1.0 0.1280804565
H  H19  1  0.20388000  0.82582000  0.63398000  1.0 0.1091281681
H  H20  1  0.32731000  0.92739000  0.62139000  1.0 0.1190945816
H  H21  1  0.15250000  0.97601000  0.40936000  1.0 0.1398509856
H  H22  1  0.17895000  0.85065000  0.32309000  1.0 0.1190945816
H  H23  1  0.93488000  0.75338000  0.44535000  1.0 0.1091281681
H  H24  1  0.88964000  0.88890000  0.52975000  1.0 0.1398509856
H  H25  1  0.15778000  0.69158000  0.30273000  1.0 0.1280804565
H  H26  1  0.07911000  0.63710000  0.37729000  1.0 0.1190945816
H  H27  1  0.10455000  0.78982000  0.14012000  1.0 0.1190945816
H  H28  1  0.00795000  0.79873000  0.02623000  1.0 0.1280804565
H  H29  1  0.82582000  0.63398000  0.20388000  1.0 0.1091281681
H  H30  1  0.92739000  0.62139000  0.32731000  1.0 0.1190945816
H  H31  1  0.02399000  0.59064000  0.84750000  1.0 0.1398509856
H  H32  1  0.14935000  0.67691000  0.82105000  1.0 0.1190945816
H  H33  1  0.24662000  0.55465000  0.06512000  1.0 0.1091281681
H  H34  1  0.11110000  0.47025000  0.11036000  1.0 0.1398509856
H  H35  1  0.30842000  0.69727000  0.84222000  1.0 0.1280804565
H  H36  1  0.36290000  0.62271000  0.92089000  1.0 0.1190945816
H  H37  1  0.21018000  0.85988000  0.89545000  1.0 0.1190945816
H  H38  1  0.20127000  0.97377000  0.99205000  1.0 0.1280804565
H  H39  1  0.36602000  0.79612000  0.17418000  1.0 0.1091281681
H  H40  1  0.37861000  0.67269000  0.07261000  1.0 0.1190945816
H  H41  1  0.59064000  0.84750000  0.02399000  1.0 0.1398509856
H  H42  1  0.67691000  0.82105000  0.14935000  1.0 0.1190945816
H  H43  1  0.55465000  0.06512000  0.24662000  1.0 0.1091281681
H  H44  1  0.47025000  0.11036000  0.11110000  1.0 0.1398509856
H  H45  1  0.69727000  0.84222000  0.30842000  1.0 0.1280804565
H  H46  1  0.62271000  0.92089000  0.36290000  1.0 0.1190945816
H  H47  1  0.85988000  0.89545000  0.21018000  1.0 0.1190945816
H  H48  1  0.97377000  0.99205000  0.20127000  1.0 0.1280804565
H  H49  1  0.79612000  0.17418000  0.36602000  1.0 0.1091281681
H  H50  1  0.67269000  0.07261000  0.37861000  1.0 0.1190945816
H  H51  1  0.84750000  0.02399000  0.59064000  1.0 0.1398509856
H  H52  1  0.82105000  0.14935000  0.67691000  1.0 0.1190945816
H  H53  1  0.06512000  0.24662000  0.55465000  1.0 0.1091281681
H  H54  1  0.11036000  0.11110000  0.47025000  1.0 0.1398509856
H  H55  1  0.84222000  0.30842000  0.69727000  1.0 0.1280804565
H  H56  1  0.92089000  0.36290000  0.62271000  1.0 0.1190945816
H  H57  1  0.89545000  0.21018000  0.85988000  1.0 0.1190945816
H  H58  1  0.99205000  0.20127000  0.97377000  1.0 0.1280804565
H  H59  1  0.17418000  0.36602000  0.79612000  1.0 0.1091281681
H  H60  1  0.07261000  0.37861000  0.67269000  1.0 0.1190945816
C  C1  1  0.95900000  0.47510000  0.01110000  1.0 0.0887091181
C  C2  1  0.93510000  0.41520000  0.10390000  1.0 -0.1600376476
C  C3  1  0.85780000  0.36870000  0.12210000  1.0 -0.0195141126
C  C4  1  0.80030000  0.43870000  0.97790000  1.0 0.0374640863
C  C5  1  0.88320000  0.48810000  0.94940000  1.0 -0.2103699405
C  C6  1  0.69640000  0.33100000  0.08870000  1.0 -0.2103699405
C  C7  1  0.70520000  0.24770000  0.02280000  1.0 0.0789251989
C  C8  1  0.75840000  0.15380000  0.04820000  1.0 -0.1674334689
C  C9  1  0.76210000  0.08730000  0.99100000  1.0 -0.1097288092
C  C10  1  0.71640000  0.09900000  0.90680000  1.0 -0.0587889909
C  C11  1  0.66480000  0.19100000  0.88260000  1.0 -0.1408968627
C  C12  1  0.65810000  0.26600000  0.94300000  1.0 -0.1828454618
C  C13  1  0.72510000  0.02280000  0.84140000  1.0 0.5311354737
C  C14  1  0.47510000  0.01110000  0.95900000  1.0 0.0887091181
C  C15  1  0.41520000  0.10390000  0.93510000  1.0 -0.1600376476
C  C16  1  0.36870000  0.12210000  0.85780000  1.0 -0.0195141126
C  C17  1  0.43870000  0.97790000  0.80030000  1.0 0.0374640863
C  C18  1  0.48810000  0.94940000  0.88320000  1.0 -0.2103699405
C  C19  1  0.33100000  0.08870000  0.69640000  1.0 -0.2103699405
C  C20  1  0.24770000  0.02280000  0.70520000  1.0 0.0789251989
C  C21  1  0.15380000  0.04820000  0.75840000  1.0 -0.1674334689
C  C22  1  0.08730000  0.99100000  0.76210000  1.0 -0.1097288092
C  C23  1  0.09900000  0.90680000  0.71640000  1.0 -0.0587889909
C  C24  1  0.19100000  0.88260000  0.66480000  1.0 -0.1408968627
C  C25  1  0.26600000  0.94300000  0.65810000  1.0 -0.1828454618
C  C26  1  0.02280000  0.84140000  0.72510000  1.0 0.5311354737
C  C27  1  0.01110000  0.95900000  0.47510000  1.0 0.0887091181
C  C28  1  0.10390000  0.93510000  0.41520000  1.0 -0.1600376476
C  C29  1  0.12210000  0.85780000  0.36870000  1.0 -0.0195141126
C  C30  1  0.97790000  0.80030000  0.43870000  1.0 0.0374640863
C  C31  1  0.94940000  0.88320000  0.48810000  1.0 -0.2103699405
C  C32  1  0.08870000  0.69640000  0.33100000  1.0 -0.2103699405
C  C33  1  0.02280000  0.70520000  0.24770000  1.0 0.0789251989
C  C34  1  0.04820000  0.75840000  0.15380000  1.0 -0.1674334689
C  C35  1  0.99100000  0.76210000  0.08730000  1.0 -0.1097288092
C  C36  1  0.90680000  0.71640000  0.09900000  1.0 -0.0587889909
C  C37  1  0.88260000  0.66480000  0.19100000  1.0 -0.1408968627
C  C38  1  0.94300000  0.65810000  0.26600000  1.0 -0.1828454618
C  C39  1  0.84140000  0.72510000  0.02280000  1.0 0.5311354737
C  C40  1  0.04100000  0.52490000  0.98890000  1.0 0.0887091181
C  C41  1  0.06490000  0.58480000  0.89610000  1.0 -0.1600376476
C  C42  1  0.14220000  0.63130000  0.87790000  1.0 -0.0195141126
C  C43  1  0.19970000  0.56130000  0.02210000  1.0 0.0374640863
C  C44  1  0.11680000  0.51190000  0.05060000  1.0 -0.2103699405
C  C45  1  0.30360000  0.66900000  0.91130000  1.0 -0.2103699405
C  C46  1  0.29480000  0.75230000  0.97720000  1.0 0.0789251989
C  C47  1  0.24160000  0.84620000  0.95180000  1.0 -0.1674334689
C  C48  1  0.23790000  0.91270000  0.00900000  1.0 -0.1097288092
C  C49  1  0.28360000  0.90100000  0.09320000  1.0 -0.0587889909
C  C50  1  0.33520000  0.80900000  0.11740000  1.0 -0.1408968627
C  C51  1  0.34190000  0.73400000  0.05700000  1.0 -0.1828454618
C  C52  1  0.27490000  0.97720000  0.15860000  1.0 0.5311354737
C  C53  1  0.52490000  0.98890000  0.04100000  1.0 0.0887091181
C  C54  1  0.58480000  0.89610000  0.06490000  1.0 -0.1600376476
C  C55  1  0.63130000  0.87790000  0.14220000  1.0 -0.0195141126
C  C56  1  0.56130000  0.02210000  0.19970000  1.0 0.0374640863
C  C57  1  0.51190000  0.05060000  0.11680000  1.0 -0.2103699405
C  C58  1  0.66900000  0.91130000  0.30360000  1.0 -0.2103699405
C  C59  1  0.75230000  0.97720000  0.29480000  1.0 0.0789251989
C  C60  1  0.84620000  0.95180000  0.24160000  1.0 -0.1674334689
C  C61  1  0.91270000  0.00900000  0.23790000  1.0 -0.1097288092
C  C62  1  0.90100000  0.09320000  0.28360000  1.0 -0.0587889909
C  C63  1  0.80900000  0.11740000  0.33520000  1.0 -0.1408968627
C  C64  1  0.73400000  0.05700000  0.34190000  1.0 -0.1828454618
C  C65  1  0.97720000  0.15860000  0.27490000  1.0 0.5311354737
C  C66  1  0.98890000  0.04100000  0.52490000  1.0 0.0887091181
C  C67  1  0.89610000  0.06490000  0.58480000  1.0 -0.1600376476
C  C68  1  0.87790000  0.14220000  0.63130000  1.0 -0.0195141126
C  C69  1  0.02210000  0.19970000  0.56130000  1.0 0.0374640863
C  C70  1  0.05060000  0.11680000  0.51190000  1.0 -0.2103699405
C  C71  1  0.91130000  0.30360000  0.66900000  1.0 -0.2103699405
C  C72  1  0.97720000  0.29480000  0.75230000  1.0 0.0789251989
C  C73  1  0.95180000  0.24160000  0.84620000  1.0 -0.1674334689
C  C74  1  0.00900000  0.23790000  0.91270000  1.0 -0.1097288092
C  C75  1  0.09320000  0.28360000  0.90100000  1.0 -0.0587889909
C  C76  1  0.11740000  0.33520000  0.80900000  1.0 -0.1408968627
C  C77  1  0.05700000  0.34190000  0.73400000  1.0 -0.1828454618
C  C78  1  0.15860000  0.27490000  0.97720000  1.0 0.5311354737
N  N1  1  0.78720000  0.38490000  0.06070000  1.0 0.0887091181
N  N2  1  0.38490000  0.06070000  0.78720000  1.0 0.0887091181
N  N3  1  0.06070000  0.78720000  0.38490000  1.0 0.0887091181
N  N4  1  0.21280000  0.61510000  0.93930000  1.0 0.0887091181
N  N5  1  0.61510000  0.93930000  0.21280000  1.0 0.0887091181
N  N6  1  0.93930000  0.21280000  0.61510000  1.0 0.0887091181
O  O1  1  0.75670000  0.93790000  0.87460000  1.0 -0.5514839947
O  O2  1  0.69700000  0.04490000  0.75920000  1.0 -0.5607961376
O  O3  1  0.93790000  0.87460000  0.75670000  1.0 -0.5514839947
O  O4  1  0.04490000  0.75920000  0.69700000  1.0 -0.5607961376
O  O5  1  0.87460000  0.75670000  0.93790000  1.0 -0.5514839947
O  O6  1  0.75920000  0.69700000  0.04490000  1.0 -0.5607961376
O  O7  1  0.24330000  0.06210000  0.12540000  1.0 -0.5514839947
O  O8  1  0.30300000  0.95510000  0.24080000  1.0 -0.5607961376
O  O9  1  0.06210000  0.12540000  0.24330000  1.0 -0.5514839947
O  O10  1  0.95510000  0.24080000  0.30300000  1.0 -0.5607961376
O  O11  1  0.12540000  0.24330000  0.06210000  1.0 -0.5514839947
O  O12  1  0.24080000  0.30300000  0.95510000  1.0 -0.5607961376
