# DDEC6 charges by PACMAN v1.1 (https://github.com/mtap-research/PACMAN-charge/)
data_ECIVUH_FSR_pacman
_symmetry_space_group_name_H-M   'P 1'
_cell_length_a   6.52300000
_cell_length_b   10.09200000
_cell_length_c   21.81800000
_cell_angle_alpha   90.00000000
_cell_angle_beta   90.00000000
_cell_angle_gamma   90.00000000
_symmetry_Int_Tables_number   1
_chemical_formula_structural   AgH28C18(NO2)4
_chemical_formula_sum   'Ag4 H112 C72 N16 O32'
_cell_volume   1436.28147089
_cell_formula_units_Z   4
loop_
 _symmetry_equiv_pos_site_id
 _symmetry_equiv_pos_as_xyz
  1  'x, y, z'
loop_
 _atom_site_type_symbol
 _atom_site_label
 _atom_site_symmetry_multiplicity
 _atom_site_fract_x
 _atom_site_fract_y
 _atom_site_fract_z
 _atom_site_occupancy
 _atom_site_charge
Ag  Ag1  1  0.50000000  0.55524000  0.72995000  1.0 0.2809926494
Ag  Ag2  1  0.00000000  0.05524000  0.77005000  1.0 0.2809926494
Ag  Ag3  1  0.00000000  0.94476000  0.22995000  1.0 0.2809926494
Ag  Ag4  1  0.50000000  0.44476000  0.27005000  1.0 0.2809926494
H  H1  1  0.62040000  0.76630000  0.61490000  1.0 0.1008520563
H  H2  1  0.37960000  0.76630000  0.61490000  1.0 0.1008520563
H  H3  1  0.12040000  0.26630000  0.88510000  1.0 0.1008520563
H  H4  1  0.12040000  0.73370000  0.11490000  1.0 0.1008520563
H  H5  1  0.37960000  0.23370000  0.38510000  1.0 0.1008520563
H  H6  1  0.62040000  0.23370000  0.38510000  1.0 0.1008520563
H  H7  1  0.87960000  0.73370000  0.11490000  1.0 0.1008520563
H  H8  1  0.87960000  0.26630000  0.88510000  1.0 0.1008520563
H  H9  1  0.80500000  0.80200000  0.70930000  1.0 0.0802763203
H  H10  1  0.19500000  0.80200000  0.70930000  1.0 0.0802763203
H  H11  1  0.30500000  0.30200000  0.79070000  1.0 0.0802763203
H  H12  1  0.30500000  0.69800000  0.20930000  1.0 0.0802763203
H  H13  1  0.19500000  0.19800000  0.29070000  1.0 0.0802763203
H  H14  1  0.80500000  0.19800000  0.29070000  1.0 0.0802763203
H  H15  1  0.69500000  0.69800000  0.20930000  1.0 0.0802763203
H  H16  1  0.69500000  0.30200000  0.79070000  1.0 0.0802763203
H  H17  1  0.68710000  0.82520000  0.77100000  1.0 0.0802763203
H  H18  1  0.31290000  0.82520000  0.77100000  1.0 0.0802763203
H  H19  1  0.18710000  0.32520000  0.72900000  1.0 0.0802763203
H  H20  1  0.18710000  0.67480000  0.27100000  1.0 0.0802763203
H  H21  1  0.31290000  0.17480000  0.22900000  1.0 0.0802763203
H  H22  1  0.68710000  0.17480000  0.22900000  1.0 0.0802763203
H  H23  1  0.81290000  0.67480000  0.27100000  1.0 0.0802763203
H  H24  1  0.81290000  0.32520000  0.72900000  1.0 0.0802763203
H  H25  1  0.50000000  0.02820000  0.78730000  1.0 0.1168868019
H  H26  1  0.00000000  0.52820000  0.71270000  1.0 0.1168868019
H  H27  1  0.00000000  0.47180000  0.28730000  1.0 0.1168868019
H  H28  1  0.50000000  0.97180000  0.21270000  1.0 0.1168868019
H  H29  1  0.50000000  0.13960000  0.73720000  1.0 0.0728512761
H  H30  1  0.00000000  0.63960000  0.76280000  1.0 0.0728512761
H  H31  1  0.00000000  0.36040000  0.23720000  1.0 0.0728512761
H  H32  1  0.50000000  0.86040000  0.26280000  1.0 0.0728512761
H  H33  1  0.68540000  0.10360000  0.64080000  1.0 0.0802763203
H  H34  1  0.31460000  0.10360000  0.64080000  1.0 0.0802763203
H  H35  1  0.18540000  0.60360000  0.85920000  1.0 0.0802763203
H  H36  1  0.18540000  0.39640000  0.14080000  1.0 0.0802763203
H  H37  1  0.31460000  0.89640000  0.35920000  1.0 0.0802763203
H  H38  1  0.68540000  0.89640000  0.35920000  1.0 0.0802763203
H  H39  1  0.81460000  0.39640000  0.14080000  1.0 0.0802763203
H  H40  1  0.81460000  0.60360000  0.85920000  1.0 0.0802763203
H  H41  1  0.80490000  0.97040000  0.63060000  1.0 0.1008520563
H  H42  1  0.19510000  0.97040000  0.63060000  1.0 0.1008520563
H  H43  1  0.30490000  0.47040000  0.86940000  1.0 0.1008520563
H  H44  1  0.30490000  0.52960000  0.13060000  1.0 0.1008520563
H  H45  1  0.19510000  0.02960000  0.36940000  1.0 0.1008520563
H  H46  1  0.80490000  0.02960000  0.36940000  1.0 0.1008520563
H  H47  1  0.69510000  0.52960000  0.13060000  1.0 0.1008520563
H  H48  1  0.69510000  0.47040000  0.86940000  1.0 0.1008520563
H  H49  1  0.53930000  0.30950000  0.53930000  1.0 0.0482020377
H  H50  1  0.46070000  0.30950000  0.53930000  1.0 0.0482020377
H  H51  1  0.03930000  0.80950000  0.96070000  1.0 0.0482020377
H  H52  1  0.03930000  0.19050000  0.03930000  1.0 0.0482020377
H  H53  1  0.46070000  0.69050000  0.46070000  1.0 0.0482020377
H  H54  1  0.53930000  0.69050000  0.46070000  1.0 0.0482020377
H  H55  1  0.96070000  0.19050000  0.03930000  1.0 0.0482020377
H  H56  1  0.96070000  0.80950000  0.96070000  1.0 0.0482020377
H  H57  1  0.30010000  0.29580000  0.54070000  1.0 0.0728512761
H  H58  1  0.69990000  0.29580000  0.54070000  1.0 0.0728512761
H  H59  1  0.80010000  0.79580000  0.95930000  1.0 0.0728512761
H  H60  1  0.80010000  0.20420000  0.04070000  1.0 0.0728512761
H  H61  1  0.69990000  0.70420000  0.45930000  1.0 0.0728512761
H  H62  1  0.30010000  0.70420000  0.45930000  1.0 0.0728512761
H  H63  1  0.19990000  0.20420000  0.04070000  1.0 0.0728512761
H  H64  1  0.19990000  0.79580000  0.95930000  1.0 0.0728512761
H  H65  1  0.27040000  0.51640000  0.50790000  1.0 0.0607947268
H  H66  1  0.72960000  0.51640000  0.50790000  1.0 0.0607947268
H  H67  1  0.77040000  0.01640000  0.99210000  1.0 0.0607947268
H  H68  1  0.77040000  0.98360000  0.00790000  1.0 0.0607947268
H  H69  1  0.72960000  0.48360000  0.49210000  1.0 0.0607947268
H  H70  1  0.27040000  0.48360000  0.49210000  1.0 0.0607947268
H  H71  1  0.22960000  0.98360000  0.00790000  1.0 0.0607947268
H  H72  1  0.22960000  0.01640000  0.99210000  1.0 0.0607947268
H  H73  1  0.38390000  0.42890000  0.45930000  1.0 0.0193364507
H  H74  1  0.61610000  0.42890000  0.45930000  1.0 0.0193364507
H  H75  1  0.88390000  0.92890000  0.04070000  1.0 0.0193364507
H  H76  1  0.88390000  0.07110000  0.95930000  1.0 0.0193364507
H  H77  1  0.61610000  0.57110000  0.54070000  1.0 0.0193364507
H  H78  1  0.38390000  0.57110000  0.54070000  1.0 0.0193364507
H  H79  1  0.11610000  0.07110000  0.95930000  1.0 0.0193364507
H  H80  1  0.11610000  0.92890000  0.04070000  1.0 0.0193364507
H  H81  1  0.70290000  0.51520000  0.49880000  1.0 0.0802763203
H  H82  1  0.29710000  0.51520000  0.49880000  1.0 0.0802763203
H  H83  1  0.20290000  0.01520000  0.00120000  1.0 0.0802763203
H  H84  1  0.20290000  0.98480000  0.99880000  1.0 0.0802763203
H  H85  1  0.29710000  0.48480000  0.50120000  1.0 0.0802763203
H  H86  1  0.70290000  0.48480000  0.50120000  1.0 0.0802763203
H  H87  1  0.79710000  0.98480000  0.99880000  1.0 0.0802763203
H  H88  1  0.79710000  0.01520000  0.00120000  1.0 0.0802763203
H  H89  1  0.57280000  0.61560000  0.53760000  1.0 0.0385917927
H  H90  1  0.42720000  0.61560000  0.53760000  1.0 0.0385917927
H  H91  1  0.07280000  0.11560000  0.96240000  1.0 0.0385917927
H  H92  1  0.07280000  0.88440000  0.03760000  1.0 0.0385917927
H  H93  1  0.42720000  0.38440000  0.46240000  1.0 0.0385917927
H  H94  1  0.57280000  0.38440000  0.46240000  1.0 0.0385917927
H  H95  1  0.92720000  0.88440000  0.03760000  1.0 0.0385917927
H  H96  1  0.92720000  0.11560000  0.96240000  1.0 0.0385917927
H  H97  1  0.67650000  0.72350000  0.44840000  1.0 0.0728512761
H  H98  1  0.32350000  0.72350000  0.44840000  1.0 0.0728512761
H  H99  1  0.17650000  0.22350000  0.05160000  1.0 0.0728512761
H  H100  1  0.17650000  0.77650000  0.94840000  1.0 0.0728512761
H  H101  1  0.32350000  0.27650000  0.55160000  1.0 0.0728512761
H  H102  1  0.67650000  0.27650000  0.55160000  1.0 0.0728512761
H  H103  1  0.82350000  0.77650000  0.94840000  1.0 0.0728512761
H  H104  1  0.82350000  0.22350000  0.05160000  1.0 0.0728512761
H  H105  1  0.43720000  0.70610000  0.44520000  1.0 0.0482020377
H  H106  1  0.56280000  0.70610000  0.44520000  1.0 0.0482020377
H  H107  1  0.93720000  0.20610000  0.05480000  1.0 0.0482020377
H  H108  1  0.93720000  0.79390000  0.94520000  1.0 0.0482020377
H  H109  1  0.56280000  0.29390000  0.55480000  1.0 0.0482020377
H  H110  1  0.43720000  0.29390000  0.55480000  1.0 0.0482020377
H  H111  1  0.06280000  0.79390000  0.94520000  1.0 0.0482020377
H  H112  1  0.06280000  0.20610000  0.05480000  1.0 0.0482020377
C  C1  1  0.50000000  0.80610000  0.63340000  1.0 -0.0912556426
C  C2  1  0.00000000  0.30610000  0.86660000  1.0 -0.0912556426
C  C3  1  0.00000000  0.69390000  0.13340000  1.0 -0.0912556426
C  C4  1  0.50000000  0.19390000  0.36660000  1.0 -0.0912556426
C  C5  1  0.68380000  0.84200000  0.72725000  1.0 -0.0279537426
C  C6  1  0.31620000  0.84200000  0.72725000  1.0 -0.0279537426
C  C7  1  0.18380000  0.34200000  0.77275000  1.0 -0.0279537426
C  C8  1  0.18380000  0.65800000  0.22725000  1.0 -0.0279537426
C  C9  1  0.31620000  0.15800000  0.27275000  1.0 -0.0279537426
C  C10  1  0.68380000  0.15800000  0.27275000  1.0 -0.0279537426
C  C11  1  0.81620000  0.65800000  0.22725000  1.0 -0.0279537426
C  C12  1  0.81620000  0.34200000  0.77275000  1.0 -0.0279537426
C  C13  1  0.50000000  0.04440000  0.74350000  1.0 -0.0241687
C  C14  1  0.00000000  0.54440000  0.75650000  1.0 -0.0241687
C  C15  1  0.00000000  0.45560000  0.24350000  1.0 -0.0241687
C  C16  1  0.50000000  0.95560000  0.25650000  1.0 -0.0279537426
C  C17  1  0.68370000  0.00910000  0.64909000  1.0 -0.006012251
C  C18  1  0.31630000  0.00910000  0.64909000  1.0 -0.006012251
C  C19  1  0.18370000  0.50910000  0.85091000  1.0 -0.006012251
C  C20  1  0.18370000  0.49090000  0.14909000  1.0 -0.006012251
C  C21  1  0.31630000  0.99090000  0.35091000  1.0 -0.006012251
C  C22  1  0.68370000  0.99090000  0.35091000  1.0 -0.006012251
C  C23  1  0.81630000  0.49090000  0.14909000  1.0 -0.006012251
C  C24  1  0.81630000  0.50910000  0.85091000  1.0 -0.006012251
C  C25  1  0.41300000  0.40500000  0.61330000  1.0 0.2190344789
C  C26  1  0.58700000  0.40500000  0.61330000  1.0 0.2190344789
C  C27  1  0.91300000  0.90500000  0.88670000  1.0 0.2190344789
C  C28  1  0.91300000  0.09500000  0.11330000  1.0 0.2190344789
C  C29  1  0.58700000  0.59500000  0.38670000  1.0 0.2190344789
C  C30  1  0.41300000  0.59500000  0.38670000  1.0 0.2190344789
C  C31  1  0.08700000  0.09500000  0.11330000  1.0 0.2190344789
C  C32  1  0.08700000  0.90500000  0.88670000  1.0 0.2190344789
C  C33  1  0.41300000  0.35730000  0.54660000  1.0 -0.1648238377
C  C34  1  0.58700000  0.35730000  0.54660000  1.0 -0.1648238377
C  C35  1  0.91300000  0.85730000  0.95340000  1.0 -0.1648238377
C  C36  1  0.91300000  0.14270000  0.04660000  1.0 -0.1648238377
C  C37  1  0.58700000  0.64270000  0.45340000  1.0 -0.1648238377
C  C38  1  0.41300000  0.64270000  0.45340000  1.0 -0.1648238377
C  C39  1  0.08700000  0.14270000  0.04660000  1.0 -0.1648238377
C  C40  1  0.08700000  0.85730000  0.95340000  1.0 -0.1648238377
C  C41  1  0.39600000  0.46760000  0.49990000  1.0 -0.098828599
C  C42  1  0.60400000  0.46760000  0.49990000  1.0 -0.098828599
C  C43  1  0.89600000  0.96760000  0.00010000  1.0 -0.098828599
C  C44  1  0.89600000  0.03240000  0.99990000  1.0 -0.098828599
C  C45  1  0.60400000  0.53240000  0.50010000  1.0 -0.098828599
C  C46  1  0.39600000  0.53240000  0.50010000  1.0 -0.098828599
C  C47  1  0.10400000  0.03240000  0.99990000  1.0 -0.098828599
C  C48  1  0.10400000  0.96760000  0.00010000  1.0 -0.098828599
C  C49  1  0.57500000  0.56450000  0.49990000  1.0 -0.0691887589
C  C50  1  0.42500000  0.56450000  0.49990000  1.0 -0.0691887589
C  C51  1  0.07500000  0.06450000  0.00010000  1.0 -0.0691887589
C  C52  1  0.07500000  0.93550000  0.99990000  1.0 -0.0691887589
C  C53  1  0.42500000  0.43550000  0.50010000  1.0 -0.0691887589
C  C54  1  0.57500000  0.43550000  0.50010000  1.0 -0.0691887589
C  C55  1  0.92500000  0.93550000  0.99990000  1.0 -0.0691887589
C  C56  1  0.92500000  0.06450000  0.00010000  1.0 -0.0691887589
C  C57  1  0.56700000  0.65890000  0.44540000  1.0 -0.1765973048
C  C58  1  0.43300000  0.65890000  0.44540000  1.0 -0.1765973048
C  C59  1  0.06700000  0.15890000  0.05460000  1.0 -0.1765973048
C  C60  1  0.06700000  0.84110000  0.94540000  1.0 -0.1765973048
C  C61  1  0.43300000  0.34110000  0.55460000  1.0 -0.1765973048
C  C62  1  0.56700000  0.34110000  0.55460000  1.0 -0.1765973048
C  C63  1  0.93300000  0.84110000  0.94540000  1.0 -0.1765973048
C  C64  1  0.93300000  0.15890000  0.05460000  1.0 -0.1765973048
C  C65  1  0.59100000  0.58000000  0.38560000  1.0 0.2190344789
C  C66  1  0.40900000  0.58000000  0.38560000  1.0 0.2190344789
C  C67  1  0.09100000  0.08000000  0.11440000  1.0 0.2190344789
C  C68  1  0.09100000  0.92000000  0.88560000  1.0 0.2190344789
C  C69  1  0.40900000  0.42000000  0.61440000  1.0 0.2190344789
C  C70  1  0.59100000  0.42000000  0.61440000  1.0 0.2190344789
C  C71  1  0.90900000  0.92000000  0.88560000  1.0 0.2190344789
C  C72  1  0.90900000  0.08000000  0.11440000  1.0 0.2190344789
N  N1  1  0.50000000  0.77940000  0.70070000  1.0 -0.2010200398
N  N2  1  0.00000000  0.27940000  0.79930000  1.0 -0.2010200398
N  N3  1  0.00000000  0.72060000  0.20070000  1.0 -0.2010200398
N  N4  1  0.50000000  0.22060000  0.29930000  1.0 -0.2010200398
N  N5  1  0.68920000  0.98710000  0.71649000  1.0 -0.2010200398
N  N6  1  0.31080000  0.98710000  0.71649000  1.0 -0.2010200398
N  N7  1  0.18920000  0.48710000  0.78351000  1.0 -0.1913495587
N  N8  1  0.18920000  0.51290000  0.21649000  1.0 -0.1913495587
N  N9  1  0.31080000  0.01290000  0.28351000  1.0 -0.1913495587
N  N10  1  0.68920000  0.01290000  0.28351000  1.0 -0.1913495587
N  N11  1  0.81080000  0.51290000  0.21649000  1.0 -0.1913495587
N  N12  1  0.81080000  0.48710000  0.78351000  1.0 -0.1913495587
N  N13  1  0.50000000  0.95000000  0.62150000  1.0 -0.1913495587
N  N14  1  0.00000000  0.45000000  0.87850000  1.0 -0.1913495587
N  N15  1  0.00000000  0.55000000  0.12150000  1.0 -0.1913495587
N  N16  1  0.50000000  0.05000000  0.37850000  1.0 -0.1913495587
O  O1  1  0.55100000  0.38400000  0.65070000  1.0 0.0728512761
O  O2  1  0.44900000  0.38400000  0.65070000  1.0 0.0728512761
O  O3  1  0.05100000  0.88400000  0.84930000  1.0 0.0728512761
O  O4  1  0.05100000  0.11600000  0.15070000  1.0 0.0728512761
O  O5  1  0.44900000  0.61600000  0.34930000  1.0 0.0728512761
O  O6  1  0.55100000  0.61600000  0.34930000  1.0 0.0728512761
O  O7  1  0.94900000  0.11600000  0.15070000  1.0 0.0728512761
O  O8  1  0.94900000  0.88400000  0.84930000  1.0 0.0728512761
O  O9  1  0.74100000  0.46900000  0.62720000  1.0 -0.3340090738
O  O10  1  0.25900000  0.46900000  0.62720000  1.0 -0.3340090738
O  O11  1  0.24100000  0.96900000  0.87280000  1.0 -0.3340090738
O  O12  1  0.24100000  0.03100000  0.12720000  1.0 -0.3340090738
O  O13  1  0.25900000  0.53100000  0.37280000  1.0 -0.3340090738
O  O14  1  0.74100000  0.53100000  0.37280000  1.0 -0.3340090738
O  O15  1  0.75900000  0.03100000  0.12720000  1.0 -0.3340090738
O  O16  1  0.75900000  0.96900000  0.87280000  1.0 -0.3340090738
O  O17  1  0.43400000  0.58900000  0.35510000  1.0 0.0941833144
O  O18  1  0.56600000  0.58900000  0.35510000  1.0 0.0941833144
O  O19  1  0.93400000  0.08900000  0.14490000  1.0 0.0941833144
O  O20  1  0.93400000  0.91100000  0.85510000  1.0 0.0941833144
O  O21  1  0.56600000  0.41100000  0.64490000  1.0 0.0941833144
O  O22  1  0.43400000  0.41100000  0.64490000  1.0 0.0941833144
O  O23  1  0.06600000  0.91100000  0.85510000  1.0 0.0941833144
O  O24  1  0.06600000  0.08900000  0.14490000  1.0 0.0941833144
O  O25  1  0.74400000  0.51900000  0.36870000  1.0 -0.3985570559
O  O26  1  0.25600000  0.51900000  0.36870000  1.0 -0.3985570559
O  O27  1  0.24400000  0.01900000  0.13130000  1.0 -0.3985570559
O  O28  1  0.24400000  0.98100000  0.86870000  1.0 -0.3985570559
O  O29  1  0.25600000  0.48100000  0.63130000  1.0 -0.3985570559
O  O30  1  0.74400000  0.48100000  0.63130000  1.0 -0.3985570559
O  O31  1  0.75600000  0.98100000  0.86870000  1.0 -0.3985570559
O  O32  1  0.75600000  0.01900000  0.13130000  1.0 -0.3985570559
