# DDEC6 charges by PACMAN v1.1 (https://github.com/mtap-research/PACMAN-charge/)
data_ECIWIW_ASR_pacman
_symmetry_space_group_name_H-M   'P 1'
_cell_length_a   21.15390000
_cell_length_b   21.15390000
_cell_length_c   22.92000000
_cell_angle_alpha   60.31480000
_cell_angle_beta   119.68500000
_cell_angle_gamma   94.42840000
_symmetry_Int_Tables_number   1
_chemical_formula_structural   CdH16C24(NO2)2
_chemical_formula_sum   'Cd8 H128 C192 N16 O32'
_cell_volume   7546.66490102
_cell_formula_units_Z   8
loop_
 _symmetry_equiv_pos_site_id
 _symmetry_equiv_pos_as_xyz
  1  'x, y, z'
loop_
 _atom_site_type_symbol
 _atom_site_label
 _atom_site_symmetry_multiplicity
 _atom_site_fract_x
 _atom_site_fract_y
 _atom_site_fract_z
 _atom_site_occupancy
 _atom_site_charge
Cd  Cd1  1  0.90562000  0.22146000  0.10953000  1.0 0.8465800521
Cd  Cd2  1  0.77854000  0.09438000  0.60953000  1.0 0.8465800521
Cd  Cd3  1  0.65930000  0.96598000  0.61553000  1.0 0.8465800521
Cd  Cd4  1  0.03402000  0.34070000  0.11553000  1.0 0.8437884328
Cd  Cd5  1  0.52349000  0.34605000  0.89690000  1.0 0.7999746081
Cd  Cd6  1  0.65395000  0.47651000  0.39690000  1.0 0.7999746081
Cd  Cd7  1  0.77891000  0.59415000  0.40255000  1.0 0.8465800521
Cd  Cd8  1  0.40585000  0.22109000  0.90255000  1.0 0.8465800521
H  H1  1  0.27220000  0.13980000  0.41230000  1.0 0.1110066763
H  H2  1  0.86020000  0.72780000  0.91230000  1.0 0.1110066763
H  H3  1  0.15930000  0.05730000  0.23640000  1.0 0.1200664084
H  H4  1  0.94270000  0.84070000  0.73640000  1.0 0.1200664084
H  H5  1  0.61620000  0.07140000  0.33860000  1.0 0.1200664084
H  H6  1  0.92860000  0.38380000  0.83860000  1.0 0.1200664084
H  H7  1  0.81150000  0.58610000  0.79500000  1.0 0.1200664084
H  H8  1  0.41390000  0.18850000  0.29500000  1.0 0.1200664084
H  H9  1  0.85970000  0.45950000  0.88910000  1.0 0.1200664084
H  H10  1  0.54050000  0.14030000  0.38910000  1.0 0.1200664084
H  H11  1  0.66720000  0.11320000  0.25870000  1.0 0.1110066763
H  H12  1  0.88680000  0.33280000  0.75870000  1.0 0.1110066763
H  H13  1  0.87480000  0.03560000  0.45210000  1.0 0.1110066763
H  H14  1  0.96440000  0.12520000  0.95210000  1.0 0.1110066763
H  H15  1  0.82650000  0.99030000  0.53050000  1.0 0.1308102456
H  H16  1  0.00970000  0.17350000  0.03050000  1.0 0.1308102456
H  H17  1  0.14550000  0.18090000  0.32070000  1.0 0.1200664084
H  H18  1  0.81910000  0.85450000  0.82070000  1.0 0.1200664084
H  H19  1  0.74640000  0.93360000  0.87220000  1.0 0.1200664084
H  H20  1  0.06640000  0.25360000  0.37220000  1.0 0.1200664084
H  H21  1  0.67590000  0.14630000  0.68970000  1.0 0.1308102456
H  H22  1  0.85370000  0.32410000  0.18970000  1.0 0.1308102456
H  H23  1  0.70790000  0.17410000  0.19010000  1.0 0.1200664084
H  H24  1  0.82590000  0.29210000  0.69010000  1.0 0.1200664084
H  H25  1  0.75440000  0.21560000  0.10920000  1.0 0.1110066763
H  H26  1  0.78440000  0.24560000  0.60920000  1.0 0.1110066763
H  H27  1  0.91580000  0.05600000  0.37510000  1.0 0.1308102456
H  H28  1  0.94400000  0.08420000  0.87510000  1.0 0.1308102456
H  H29  1  0.95660000  0.11220000  0.28930000  1.0 0.1110066763
H  H30  1  0.88780000  0.04340000  0.78930000  1.0 0.1110066763
H  H31  1  0.39250000  0.95550000  0.43380000  1.0 0.1381701307
H  H32  1  0.04450000  0.60750000  0.93380000  1.0 0.1381701307
H  H33  1  0.52050000  0.08250000  0.55170000  1.0 0.1200664084
H  H34  1  0.91750000  0.47950000  0.05170000  1.0 0.1200664084
H  H35  1  0.51750000  0.91870000  0.51960000  1.0 0.1110066763
H  H36  1  0.08130000  0.48250000  0.01960000  1.0 0.1110066763
H  H37  1  0.39380000  0.12840000  0.46290000  1.0 0.1308102456
H  H38  1  0.87160000  0.60620000  0.96290000  1.0 0.1308102456
H  H39  1  0.28700000  0.02200000  0.32010000  1.0 0.1110066763
H  H40  1  0.97800000  0.71300000  0.82010000  1.0 0.1110066763
H  H41  1  0.73430000  0.18710000  0.77720000  1.0 0.1110066763
H  H42  1  0.81290000  0.26570000  0.27720000  1.0 0.1110066763
H  H43  1  0.87540000  0.01940000  0.03420000  1.0 0.1308102456
H  H44  1  0.98060000  0.12460000  0.53420000  1.0 0.1308102456
H  H45  1  0.92010000  0.06710000  0.11010000  1.0 0.1200664084
H  H46  1  0.93290000  0.07990000  0.61010000  1.0 0.1200664084
H  H47  1  0.72230000  0.21530000  0.85810000  1.0 0.1308102456
H  H48  1  0.78470000  0.27770000  0.35810000  1.0 0.1308102456
H  H49  1  0.80120000  0.97400000  0.96170000  1.0 0.1200664084
H  H50  1  0.02600000  0.19880000  0.46170000  1.0 0.1200664084
H  H51  1  0.78290000  0.25790000  0.94210000  1.0 0.1025238834
H  H52  1  0.74210000  0.21710000  0.44210000  1.0 0.1025238834
H  H53  1  0.63680000  0.82420000  0.74370000  1.0 0.1200664084
H  H54  1  0.17580000  0.36320000  0.24370000  1.0 0.1200664084
H  H55  1  0.65990000  0.58490000  0.85580000  1.0 0.1110066763
H  H56  1  0.41510000  0.34010000  0.35580000  1.0 0.1110066763
H  H57  1  0.70420000  0.45620000  0.94380000  1.0 0.1110066763
H  H58  1  0.54380000  0.29580000  0.44380000  1.0 0.1110066763
H  H59  1  0.71530000  0.82410000  0.62060000  1.0 0.1200664084
H  H60  1  0.17590000  0.28470000  0.12060000  1.0 0.1200664084
H  H61  1  0.66610000  0.69710000  0.82080000  1.0 0.1308102456
H  H62  1  0.30290000  0.33390000  0.32080000  1.0 0.1308102456
H  H63  1  0.73760000  0.69680000  0.68580000  1.0 0.1381701307
H  H64  1  0.30320000  0.26240000  0.18580000  1.0 0.1381701307
H  H65  1  0.56840000  0.10400000  0.11370000  1.0 0.1200664084
H  H66  1  0.89600000  0.43160000  0.61370000  1.0 0.1200664084
H  H67  1  0.75670000  0.97410000  0.14290000  1.0 0.1110066763
H  H68  1  0.02590000  0.24330000  0.64290000  1.0 0.1110066763
H  H69  1  0.61370000  0.98010000  0.20640000  1.0 0.1110066763
H  H70  1  0.01990000  0.38630000  0.70640000  1.0 0.1200664084
H  H71  1  0.76680000  0.45860000  0.74630000  1.0 0.1110066763
H  H72  1  0.54140000  0.23320000  0.24630000  1.0 0.1110066763
H  H73  1  0.81140000  0.50820000  0.66130000  1.0 0.1200664084
H  H74  1  0.49180000  0.18860000  0.16130000  1.0 0.1200664084
H  H75  1  0.59640000  0.57680000  0.47250000  1.0 0.1200664084
H  H76  1  0.42320000  0.40360000  0.97250000  1.0 0.1200664084
H  H77  1  0.71460000  0.10280000  0.05000000  1.0 0.1200664084
H  H78  1  0.89720000  0.28540000  0.55000000  1.0 0.1200664084
H  H79  1  0.55210000  0.53870000  0.55790000  1.0 0.1110066763
H  H80  1  0.46130000  0.44790000  0.05790000  1.0 0.1110066763
H  H81  1  0.66540000  0.32860000  0.88860000  1.0 0.1110066763
H  H82  1  0.67140000  0.33460000  0.38860000  1.0 0.1110066763
H  H83  1  0.71460000  0.37860000  0.80820000  1.0 0.1308102456
H  H84  1  0.62140000  0.28540000  0.30820000  1.0 0.1308102456
H  H85  1  0.48300000  0.48120000  0.72880000  1.0 0.1110066763
H  H86  1  0.51880000  0.51700000  0.22880000  1.0 0.1110066763
H  H87  1  0.15450000  0.54950000  0.70430000  1.0 0.1110066763
H  H88  1  0.45050000  0.84550000  0.20430000  1.0 0.1110066763
H  H89  1  0.28460000  0.51260000  0.78620000  1.0 0.1308102456
H  H90  1  0.48740000  0.71540000  0.28620000  1.0 0.1308102456
H  H91  1  0.28950000  0.41270000  0.67610000  1.0 0.1308102456
H  H92  1  0.58730000  0.71050000  0.17610000  1.0 0.1308102456
H  H93  1  0.15930000  0.44970000  0.59400000  1.0 0.1025238834
H  H94  1  0.55030000  0.84070000  0.09400000  1.0 0.1025238834
H  H95  1  0.52690000  0.53770000  0.64460000  1.0 0.1308102456
H  H96  1  0.46230000  0.47310000  0.14460000  1.0 0.1308102456
H  H97  1  0.80290000  0.43230000  0.31010000  1.0 0.1200664084
H  H98  1  0.56770000  0.19710000  0.81010000  1.0 0.1200664084
H  H99  1  0.64900000  0.61680000  0.14550000  1.0 0.1308102456
H  H100  1  0.38320000  0.35100000  0.64550000  1.0 0.1308102456
H  H101  1  0.69840000  0.86880000  0.32270000  1.0 0.1381701307
H  H102  1  0.13120000  0.30160000  0.82270000  1.0 0.1381701307
H  H103  1  0.73220000  0.85880000  0.16980000  1.0 0.1308102456
H  H104  1  0.14120000  0.26780000  0.66980000  1.0 0.1308102456
H  H105  1  0.76440000  0.73440000  0.24610000  1.0 0.1200664084
H  H106  1  0.26560000  0.23560000  0.74610000  1.0 0.1200664084
H  H107  1  0.73890000  0.73770000  0.39890000  1.0 0.1110066763
H  H108  1  0.26230000  0.26110000  0.89890000  1.0 0.1110066763
H  H109  1  0.93060000  0.53380000  0.42630000  1.0 0.1200664084
H  H110  1  0.46620000  0.06940000  0.92630000  1.0 0.1200664084
H  H111  1  0.91380000  0.60220000  0.55590000  1.0 0.1200664084
H  H112  1  0.39780000  0.08620000  0.05590000  1.0 0.1200664084
H  H113  1  0.04320000  0.56320000  0.64330000  1.0 0.1200664084
H  H114  1  0.43680000  0.95680000  0.14330000  1.0 0.1200664084
H  H115  1  0.06010000  0.49490000  0.51370000  1.0 0.1308102456
H  H116  1  0.50510000  0.93990000  0.01370000  1.0 0.1308102456
H  H117  1  0.57600000  0.54860000  0.97620000  1.0 0.1308102456
H  H118  1  0.45140000  0.42400000  0.47620000  1.0 0.1308102456
H  H119  1  0.68850000  0.33930000  0.16040000  1.0 0.1200664084
H  H120  1  0.66070000  0.31150000  0.66040000  1.0 0.1200664084
H  H121  1  0.74470000  0.38910000  0.22590000  1.0 0.1025238834
H  H122  1  0.61090000  0.25530000  0.72590000  1.0 0.1025238834
H  H123  1  0.52180000  0.49860000  0.89500000  1.0 0.1110066763
H  H124  1  0.50140000  0.47820000  0.39500000  1.0 0.1110066763
H  H125  1  0.63150000  0.29350000  0.07780000  1.0 0.1025238834
H  H126  1  0.70650000  0.36850000  0.57780000  1.0 0.1025238834
H  H127  1  0.60070000  0.57690000  0.05820000  1.0 0.1110066763
H  H128  1  0.42310000  0.39930000  0.55820000  1.0 0.1110066763
C  C1  1  0.71720000  0.02300000  0.44400000  1.0 0.0141568919
C  C2  1  0.97700000  0.28280000  0.94400000  1.0 0.0141568919
C  C3  1  0.13780000  0.12100000  0.27130000  1.0 -0.0326958719
C  C4  1  0.87900000  0.86220000  0.77130000  1.0 -0.0326958719
C  C5  1  0.71040000  0.03760000  0.77120000  1.0 -0.016645753
C  C6  1  0.96240000  0.28960000  0.27120000  1.0 -0.016645753
C  C7  1  0.25020000  0.12320000  0.37640000  1.0 -0.1591352175
C  C8  1  0.87680000  0.74980000  0.87640000  1.0 -0.1591352175
C  C9  1  0.18250000  0.07430000  0.27200000  1.0 -0.0974107035
C  C10  1  0.92570000  0.81750000  0.77200000  1.0 -0.0974107035
C  C11  1  0.66880000  0.06220000  0.36180000  1.0 -0.1150092977
C  C12  1  0.93780000  0.33120000  0.86180000  1.0 -0.1150092977
C  C13  1  0.79090000  0.56010000  0.82680000  1.0 -0.1591352175
C  C14  1  0.43990000  0.20910000  0.32680000  1.0 -0.1591352175
C  C15  1  0.68350000  0.99370000  0.49620000  1.0 0.5492018538
C  C16  1  0.00630000  0.31650000  0.99620000  1.0 0.5492018538
C  C17  1  0.81820000  0.48420000  0.88140000  1.0 -0.089613353
C  C18  1  0.51580000  0.18180000  0.38140000  1.0 -0.089613353
C  C19  1  0.77450000  0.07730000  0.34390000  1.0 0.0480751943
C  C20  1  0.92270000  0.22550000  0.84390000  1.0 0.0480751943
C  C21  1  0.70010000  0.08750000  0.31440000  1.0 -0.1496604148
C  C22  1  0.91250000  0.29990000  0.81440000  1.0 -0.1496604148
C  C23  1  0.82240000  0.04100000  0.42870000  1.0 -0.1385513965
C  C24  1  0.95900000  0.17760000  0.92870000  1.0 -0.1385513965
C  C25  1  0.79360000  0.01500000  0.47490000  1.0 -0.089613353
C  C26  1  0.98500000  0.20640000  0.97490000  1.0 -0.089613353
C  C27  1  0.78620000  0.44340000  0.92490000  1.0 -0.0507444825
C  C28  1  0.55660000  0.21380000  0.42490000  1.0 -0.0507444825
C  C29  1  0.17390000  0.14650000  0.32260000  1.0 -0.0803046386
C  C30  1  0.85350000  0.82610000  0.82260000  1.0 -0.0803046386
C  C31  1  0.81860000  0.36440000  0.98970000  1.0 0.5492018538
C  C32  1  0.63560000  0.18140000  0.48970000  1.0 0.5492018538
C  C33  1  0.74440000  0.98520000  0.85330000  1.0 -0.0974107035
C  C34  1  0.01480000  0.25560000  0.35330000  1.0 -0.0974107035
C  C35  1  0.68060000  0.00880000  0.71680000  1.0 0.5492018538
C  C36  1  0.99120000  0.31940000  0.21680000  1.0 0.5492018538
C  C37  1  0.70310000  0.11090000  0.74490000  1.0 -0.089613353
C  C38  1  0.88910000  0.29690000  0.24490000  1.0 -0.089613353
C  C39  1  0.05620000  0.14040000  0.21630000  1.0 0.5605562207
C  C40  1  0.85960000  0.94380000  0.71630000  1.0 0.5605562207
C  C41  1  0.80430000  0.10630000  0.29430000  1.0 0.1200664084
C  C42  1  0.89370000  0.19570000  0.79430000  1.0 0.1200664084
C  C43  1  0.75950000  0.15730000  0.21280000  1.0 -0.2114823657
C  C44  1  0.84270000  0.24050000  0.71280000  1.0 -0.2114823657
C  C45  1  0.78810000  0.18370000  0.16470000  1.0 0.0617200051
C  C46  1  0.81630000  0.21190000  0.66470000  1.0 0.0617200051
C  C47  1  0.88050000  0.08990000  0.32060000  1.0 -0.2114823657
C  C48  1  0.91010000  0.11950000  0.82060000  1.0 -0.2114823657
C  C49  1  0.90440000  0.12280000  0.26790000  1.0 0.1025238834
C  C50  1  0.87720000  0.09560000  0.76790000  1.0 0.1025238834
C  C51  1  0.41750000  0.98390000  0.45660000  1.0 -0.1900920394
C  C52  1  0.01610000  0.58250000  0.95660000  1.0 -0.1900920394
C  C53  1  0.49370000  0.05630000  0.52670000  1.0 0.1025238834
C  C54  1  0.94370000  0.50630000  0.02670000  1.0 0.1025238834
C  C55  1  0.37690000  0.04810000  0.43580000  1.0 0.1110066763
C  C56  1  0.95190000  0.62310000  0.93580000  1.0 0.1110066763
C  C57  1  0.49180000  0.96180000  0.50850000  1.0 0.0686008268
C  C58  1  0.03820000  0.50820000  0.00850000  1.0 0.0686008268
C  C59  1  0.29690000  0.07450000  0.37950000  1.0 0.0686008268
C  C60  1  0.92550000  0.70310000  0.87950000  1.0 0.0686008268
C  C61  1  0.41750000  0.08450000  0.47340000  1.0 -0.2003856738
C  C62  1  0.91550000  0.58250000  0.97340000  1.0 -0.2003856738
C  C63  1  0.25890000  0.05230000  0.32280000  1.0 -0.1591352175
C  C64  1  0.94770000  0.74110000  0.82280000  1.0 -0.1591352175
C  C65  1  0.73440000  0.13560000  0.79690000  1.0 -0.1591352175
C  C66  1  0.86440000  0.26560000  0.29690000  1.0 -0.1591352175
C  C67  1  0.76630000  0.08590000  0.87790000  1.0 0.0617200051
C  C68  1  0.91410000  0.23370000  0.37790000  1.0 0.0617200051
C  C69  1  0.85390000  0.06930000  0.01270000  1.0 -0.2003856738
C  C70  1  0.93070000  0.14610000  0.51270000  1.0 -0.2003856738
C  C71  1  0.79710000  0.11050000  0.93580000  1.0 0.1200664084
C  C72  1  0.88950000  0.20290000  0.43580000  1.0 0.1200664084
C  C73  1  0.87910000  0.09810000  0.05770000  1.0 0.0903846574
C  C74  1  0.90190000  0.12090000  0.55770000  1.0 0.0903846574
C  C75  1  0.76500000  0.18440000  0.90920000  1.0 -0.1900920394
C  C76  1  0.81560000  0.23500000  0.40920000  1.0 -0.1900920394
C  C77  1  0.77480000  0.00940000  0.90640000  1.0 -0.1591352175
C  C78  1  0.99060000  0.22520000  0.40640000  1.0 -0.1591352175
C  C79  1  0.79890000  0.20710000  0.96120000  1.0 0.0449454141
C  C80  1  0.79290000  0.20110000  0.46120000  1.0 0.0449454141
C  C81  1  0.66010000  0.79770000  0.73330000  1.0 0.0903846574
C  C82  1  0.20230000  0.33990000  0.23330000  1.0 0.0903846574
C  C83  1  0.70000000  0.55940000  0.86200000  1.0 -0.1685434042
C  C84  1  0.44060000  0.30000000  0.36200000  1.0 -0.1685434042
C  C85  1  0.73400000  0.59840000  0.81830000  1.0 0.0686008268
C  C86  1  0.40160000  0.26600000  0.31830000  1.0 0.0686008268
C  C87  1  0.72670000  0.48290000  0.91430000  1.0 -0.0974107035
C  C88  1  0.51710000  0.27330000  0.41430000  1.0 -0.0974107035
C  C89  1  0.70860000  0.68100000  0.76520000  1.0 0.1110066763
C  C90  1  0.31900000  0.29140000  0.26520000  1.0 0.1110066763
C  C91  1  0.70400000  0.79800000  0.66080000  1.0 0.0617200051
C  C92  1  0.20200000  0.29600000  0.16080000  1.0 0.0617200051
C  C93  1  0.67650000  0.72130000  0.77990000  1.0 -0.2003856738
C  C94  1  0.27870000  0.32350000  0.27990000  1.0 -0.2003856738
C  C95  1  0.71950000  0.72230000  0.70080000  1.0 -0.1900920394
C  C96  1  0.27770000  0.28050000  0.20080000  1.0 -0.1900920394
C  C97  1  0.70520000  0.54400000  0.55670000  1.0 -0.0650137636
C  C98  1  0.45600000  0.29480000  0.05670000  1.0 -0.0650137636
C  C99  1  0.72850000  0.52990000  0.24060000  1.0 -0.0507444825
C  C100  1  0.47010000  0.27150000  0.74060000  1.0 -0.0507444825
C  C101  1  0.60750000  0.07830000  0.11880000  1.0 -0.1067616043
C  C102  1  0.92170000  0.39250000  0.61880000  1.0 -0.1067616043
C  C103  1  0.71780000  0.00080000  0.13700000  1.0 -0.1685434042
C  C104  1  0.99920000  0.28220000  0.63700000  1.0 -0.1685434042
C  C105  1  0.63410000  0.00370000  0.17400000  1.0 -0.1496604148
C  C106  1  0.99630000  0.36590000  0.67400000  1.0 -0.1496604148
C  C107  1  0.63430000  0.11830000  0.07000000  1.0 -0.016645753
C  C108  1  0.88170000  0.36570000  0.57000000  1.0 -0.016645753
C  C109  1  0.73270000  0.48330000  0.69080000  1.0 -0.1591352175
C  C110  1  0.51670000  0.26730000  0.19080000  1.0 -0.1591352175
C  C111  1  0.62420000  0.46120000  0.71300000  1.0 0.1110066763
C  C112  1  0.53880000  0.37580000  0.21300000  1.0 0.1110066763
C  C113  1  0.75960000  0.51080000  0.64140000  1.0 -0.0974107035
C  C114  1  0.48920000  0.24040000  0.14140000  1.0 -0.0974107035
C  C115  1  0.65230000  0.49130000  0.65970000  1.0 0.0686008268
C  C116  1  0.50870000  0.34770000  0.15970000  1.0 0.0686008268
C  C117  1  0.63090000  0.55350000  0.52790000  1.0 -0.0803046386
C  C118  1  0.44650000  0.36910000  0.02790000  1.0 -0.0803046386
C  C119  1  0.68900000  0.96140000  0.18440000  1.0 0.0686008268
C  C120  1  0.03860000  0.31100000  0.68440000  1.0 0.0686008268
C  C121  1  0.60370000  0.20070000  0.01110000  1.0 0.5302236792
C  C122  1  0.79930000  0.39630000  0.51110000  1.0 0.5302236792
C  C123  1  0.76350000  0.55330000  0.29580000  1.0 0.5382973033
C  C124  1  0.44670000  0.23650000  0.79580000  1.0 0.5382973033
C  C125  1  0.69250000  0.07830000  0.08040000  1.0 -0.0974107035
C  C126  1  0.92170000  0.30750000  0.58040000  1.0 -0.0974107035
C  C127  1  0.73170000  0.57190000  0.50380000  1.0 0.5382973033
C  C128  1  0.42810000  0.26830000  0.00380000  1.0 0.5302236792
C  C129  1  0.60430000  0.52890000  0.57940000  1.0 -0.1496604148
C  C130  1  0.47110000  0.39570000  0.07940000  1.0 -0.1496604148
C  C131  1  0.63540000  0.37120000  0.83700000  1.0 0.1110066763
C  C132  1  0.62880000  0.36460000  0.33700000  1.0 0.1110066763
C  C133  1  0.66550000  0.40070000  0.78850000  1.0 -0.2003856738
C  C134  1  0.59930000  0.33450000  0.28850000  1.0 -0.2003856738
C  C135  1  0.53090000  0.45910000  0.74540000  1.0 0.0686008268
C  C136  1  0.54090000  0.46910000  0.24540000  1.0 0.0686008268
C  C137  1  0.14470000  0.50310000  0.64140000  1.0 0.0480751943
C  C138  1  0.49690000  0.85530000  0.14140000  1.0 0.0480751943
C  C139  1  0.18190000  0.52170000  0.69850000  1.0 -0.1496604148
C  C140  1  0.47830000  0.81810000  0.19850000  1.0 -0.1496604148
C  C141  1  0.25920000  0.49980000  0.74730000  1.0 -0.1067616043
C  C142  1  0.50020000  0.74080000  0.24730000  1.0 -0.1067616043
C  C143  1  0.29930000  0.45910000  0.73890000  1.0 -0.004827301
C  C144  1  0.54090000  0.70070000  0.23890000  1.0 -0.004827301
C  C145  1  0.26210000  0.44050000  0.68180000  1.0 -0.0974107035
C  C146  1  0.55950000  0.73790000  0.18180000  1.0 -0.0974107035
C  C147  1  0.18480000  0.46240000  0.63310000  1.0 -0.1496604148
C  C148  1  0.53760000  0.81520000  0.13310000  1.0 -0.1496604148
C  C149  1  0.55640000  0.49260000  0.69380000  1.0 -0.2003856738
C  C150  1  0.50740000  0.44360000  0.19380000  1.0 -0.2003856738
C  C151  1  0.75870000  0.46290000  0.26010000  1.0 -0.1067616043
C  C152  1  0.53710000  0.24130000  0.76010000  1.0 -0.1067616043
C  C153  1  0.67150000  0.56810000  0.16480000  1.0 -0.089613353
C  C154  1  0.43190000  0.32850000  0.66480000  1.0 -0.089613353
C  C155  1  0.71210000  0.88110000  0.23590000  1.0 0.1110066763
C  C156  1  0.11890000  0.28790000  0.73590000  1.0 0.1110066763
C  C157  1  0.71270000  0.84330000  0.30520000  1.0 -0.2114823657
C  C158  1  0.15670000  0.28730000  0.80520000  1.0 -0.2114823657
C  C159  1  0.73220000  0.83580000  0.21740000  1.0 -0.2003856738
C  C160  1  0.16420000  0.26780000  0.71740000  1.0 -0.2003856738
C  C161  1  0.75140000  0.76140000  0.26310000  1.0 0.0617200051
C  C162  1  0.23860000  0.24860000  0.76310000  1.0 0.0617200051
C  C163  1  0.73610000  0.76350000  0.34970000  1.0 0.1110066763
C  C164  1  0.23650000  0.26390000  0.84970000  1.0 0.1110066763
C  C165  1  0.95340000  0.53980000  0.47030000  1.0 0.0796038138
C  C166  1  0.46020000  0.04660000  0.97030000  1.0 0.0796038138
C  C167  1  0.94340000  0.58040000  0.54730000  1.0 0.0796038138
C  C168  1  0.41960000  0.05660000  0.04730000  1.0 0.0796038138
C  C169  1  0.02030000  0.55730000  0.59920000  1.0 -0.2003856738
C  C170  1  0.44270000  0.97970000  0.09920000  1.0 -0.2003856738
C  C171  1  0.06380000  0.52540000  0.58670000  1.0 0.1110066763
C  C172  1  0.47460000  0.93620000  0.08670000  1.0 0.1110066763
C  C173  1  0.03040000  0.51660000  0.52230000  1.0 -0.2003856738
C  C174  1  0.48340000  0.96960000  0.02230000  1.0 -0.2003856738
C  C175  1  0.58890000  0.49630000  0.99910000  1.0 -0.2114823657
C  C176  1  0.50370000  0.41110000  0.49910000  1.0 -0.2114823657
C  C177  1  0.66800000  0.47720000  0.13220000  1.0 0.0617200051
C  C178  1  0.52280000  0.33200000  0.63220000  1.0 0.0617200051
C  C179  1  0.63790000  0.44930000  0.08090000  1.0 0.1110066763
C  C180  1  0.55070000  0.36210000  0.58090000  1.0 0.1110066763
C  C181  1  0.65390000  0.37370000  0.10600000  1.0 -0.2003856738
C  C182  1  0.62630000  0.34610000  0.60600000  1.0 -0.2003856738
C  C183  1  0.72470000  0.43870000  0.20660000  1.0 -0.1685434042
C  C184  1  0.56130000  0.27530000  0.70660000  1.0 -0.1591352175
C  C185  1  0.55800000  0.46580000  0.94950000  1.0 0.0903846574
C  C186  1  0.53420000  0.44200000  0.44950000  1.0 0.0903846574
C  C187  1  0.62210000  0.34570000  0.05610000  1.0 0.0796038138
C  C188  1  0.65430000  0.37790000  0.55610000  1.0 0.0796038138
C  C189  1  0.64110000  0.54430000  0.11070000  1.0 -0.1685434042
C  C190  1  0.45570000  0.35890000  0.61070000  1.0 -0.1685434042
C  C191  1  0.39480000  0.42900000  0.79090000  1.0 0.5302236792
C  C192  1  0.57100000  0.60520000  0.29090000  1.0 0.5302236792
N  N1  1  0.86150000  0.16690000  0.19170000  1.0 -0.2395407233
N  N2  1  0.83310000  0.13850000  0.69170000  1.0 -0.2395407233
N  N3  1  0.53130000  0.99670000  0.54530000  1.0 -0.2292281785
N  N4  1  0.00330000  0.46870000  0.04530000  1.0 -0.2292281785
N  N5  1  0.85430000  0.16330000  0.03850000  1.0 -0.2292281785
N  N6  1  0.83670000  0.14570000  0.53850000  1.0 -0.2292281785
N  N7  1  0.67270000  0.83910000  0.67550000  1.0 -0.2566647354
N  N8  1  0.16090000  0.32730000  0.17550000  1.0 -0.2566647354
N  N9  1  0.57000000  0.39780000  0.81650000  1.0 -0.2210618082
N  N10  1  0.60220000  0.43000000  0.31650000  1.0 -0.2210618082
N  N11  1  0.75340000  0.72320000  0.33050000  1.0 -0.2292281785
N  N12  1  0.27680000  0.24660000  0.83050000  1.0 -0.2292281785
N  N13  1  0.91000000  0.57160000  0.48290000  1.0 -0.269520295
N  N14  1  0.42840000  0.09000000  0.98290000  1.0 -0.269520295
N  N15  1  0.57730000  0.39370000  0.97580000  1.0 -0.2566647354
N  N16  1  0.60630000  0.42270000  0.47580000  1.0 -0.2566647354
O  O1  1  0.73130000  0.97150000  0.56940000  1.0 -0.5736453954
O  O2  1  0.02850000  0.26870000  0.06940000  1.0 -0.5736453954
O  O3  1  0.87850000  0.33390000  0.00100000  1.0 -0.5807531896
O  O4  1  0.66610000  0.12150000  0.50100000  1.0 -0.5807531896
O  O5  1  0.78520000  0.32660000  0.02250000  1.0 -0.540509415
O  O6  1  0.67340000  0.21480000  0.52250000  1.0 -0.540509415
O  O7  1  0.02170000  0.19530000  0.20710000  1.0 -0.5807531896
O  O8  1  0.80470000  0.97830000  0.70710000  1.0 -0.5807531896
O  O9  1  0.02450000  0.10330000  0.18710000  1.0 -0.5501765433
O  O10  1  0.89670000  0.97550000  0.68710000  1.0 -0.5501765433
O  O11  1  0.66200000  0.05460000  0.64610000  1.0 -0.5501765433
O  O12  1  0.94540000  0.33800000  0.14610000  1.0 -0.5501765433
O  O13  1  0.67650000  0.94330000  0.74000000  1.0 -0.5276343945
O  O14  1  0.05670000  0.32350000  0.24000000  1.0 -0.5276343945
O  O15  1  0.61870000  0.99430000  0.46820000  1.0 -0.517930353
O  O16  1  0.00570000  0.38130000  0.96820000  1.0 -0.517930353
O  O17  1  0.63960000  0.23480000  0.97940000  1.0 -0.5148473504
O  O18  1  0.76520000  0.36040000  0.47940000  1.0 -0.517930353
O  O19  1  0.80370000  0.57830000  0.53240000  1.0 -0.6160619381
O  O20  1  0.42170000  0.19630000  0.03240000  1.0 -0.6146139029
O  O21  1  0.54420000  0.22980000  0.99110000  1.0 -0.4754015926
O  O22  1  0.77020000  0.45580000  0.49110000  1.0 -0.4754015926
O  O23  1  0.68730000  0.59390000  0.43030000  1.0 -0.5736453954
O  O24  1  0.40610000  0.31270000  0.93030000  1.0 -0.5736453954
O  O25  1  0.41370000  0.36790000  0.80130000  1.0 -0.517930353
O  O26  1  0.63210000  0.58630000  0.30130000  1.0 -0.517930353
O  O27  1  0.77270000  0.51510000  0.35990000  1.0 -0.4865600142
O  O28  1  0.48490000  0.22730000  0.85990000  1.0 -0.4865600142
O  O29  1  0.75810000  0.62370000  0.26460000  1.0 -0.5501765433
O  O30  1  0.37630000  0.24190000  0.76460000  1.0 -0.5501765433
O  O31  1  0.41000000  0.46820000  0.81530000  1.0 -0.4559210661
O  O32  1  0.53180000  0.59000000  0.31530000  1.0 -0.4559210661
