# DDEC6 charges by PACMAN v1.1 (https://github.com/mtap-research/PACMAN-charge/)
data_ECIYEU01_FSR_pacman
_symmetry_space_group_name_H-M   'P 1'
_cell_length_a   10.35110000
_cell_length_b   13.57920000
_cell_length_c   17.46550000
_cell_angle_alpha   90.00000000
_cell_angle_beta   90.00000000
_cell_angle_gamma   90.00000000
_symmetry_Int_Tables_number   1
_chemical_formula_structural   Al3P3O13
_chemical_formula_sum   'Al24 P24 O104'
_cell_volume   2454.94469143
_cell_formula_units_Z   8
loop_
 _symmetry_equiv_pos_site_id
 _symmetry_equiv_pos_as_xyz
  1  'x, y, z'
loop_
 _atom_site_type_symbol
 _atom_site_label
 _atom_site_symmetry_multiplicity
 _atom_site_fract_x
 _atom_site_fract_y
 _atom_site_fract_z
 _atom_site_occupancy
 _atom_site_charge
Al  Al1  1  0.87450000  0.43905000  0.60690000  1.0 1.7713664276
Al  Al2  1  0.12550000  0.06095000  0.10690000  1.0 1.7713664276
Al  Al3  1  0.37450000  0.56095000  0.89310000  1.0 1.7713664276
Al  Al4  1  0.62550000  0.93905000  0.39310000  1.0 1.7713664276
Al  Al5  1  0.12550000  0.56095000  0.39310000  1.0 1.7713664276
Al  Al6  1  0.87450000  0.93905000  0.89310000  1.0 1.7713664276
Al  Al7  1  0.62550000  0.43905000  0.10690000  1.0 1.7713664276
Al  Al8  1  0.37450000  0.06095000  0.60690000  1.0 1.7713664276
Al  Al9  1  0.82670000  0.51595000  0.80027000  1.0 1.7713664276
Al  Al10  1  0.17330000  0.98405000  0.30027000  1.0 1.7713664276
Al  Al11  1  0.32670000  0.48405000  0.69973000  1.0 1.7713664276
Al  Al12  1  0.67330000  0.01595000  0.19973000  1.0 1.7713664276
Al  Al13  1  0.17330000  0.48405000  0.19973000  1.0 1.7713664276
Al  Al14  1  0.82670000  0.01595000  0.69973000  1.0 1.7713664276
Al  Al15  1  0.67330000  0.51595000  0.30027000  1.0 1.7713664276
Al  Al16  1  0.32670000  0.98405000  0.80027000  1.0 1.7713664276
Al  Al17  1  0.63290000  0.76147000  0.69486000  1.0 1.7778147859
Al  Al18  1  0.36710000  0.73853000  0.19486000  1.0 1.7778147859
Al  Al19  1  0.13290000  0.23853000  0.80514000  1.0 1.7778147859
Al  Al20  1  0.86710000  0.26147000  0.30514000  1.0 1.7778147859
Al  Al21  1  0.36710000  0.23853000  0.30514000  1.0 1.7778147859
Al  Al22  1  0.63290000  0.26147000  0.80514000  1.0 1.7778147859
Al  Al23  1  0.86710000  0.76147000  0.19486000  1.0 1.7778147859
Al  Al24  1  0.13290000  0.73853000  0.69486000  1.0 1.7778147859
P  P1  1  0.86704000  0.43302000  0.42290000  1.0 1.5608864677
P  P2  1  0.13296000  0.06698000  0.92290000  1.0 1.5677744004
P  P3  1  0.36704000  0.56698000  0.07710000  1.0 1.5677744004
P  P4  1  0.63296000  0.93302000  0.57710000  1.0 1.5677744004
P  P5  1  0.13296000  0.56698000  0.57710000  1.0 1.5677744004
P  P6  1  0.86704000  0.93302000  0.07710000  1.0 1.5608864677
P  P7  1  0.63296000  0.43302000  0.92290000  1.0 1.5677744004
P  P8  1  0.36704000  0.06698000  0.42290000  1.0 1.5677744004
P  P9  1  0.62678000  0.53332000  0.66933000  1.0 1.5523904728
P  P10  1  0.37322000  0.96668000  0.16933000  1.0 1.5523904728
P  P11  1  0.12678000  0.46668000  0.83067000  1.0 1.5608864677
P  P12  1  0.87322000  0.03332000  0.33067000  1.0 1.5523904728
P  P13  1  0.37322000  0.46668000  0.33067000  1.0 1.5523904728
P  P14  1  0.62678000  0.03332000  0.83067000  1.0 1.5523904728
P  P15  1  0.87322000  0.53332000  0.16933000  1.0 1.5523904728
P  P16  1  0.12678000  0.96668000  0.66933000  1.0 1.5523904728
P  P17  1  0.87363000  0.24700000  0.70648000  1.0 1.5919014019
P  P18  1  0.12637000  0.25300000  0.20648000  1.0 1.5919014019
P  P19  1  0.37363000  0.75300000  0.79352000  1.0 1.5919014019
P  P20  1  0.62637000  0.74700000  0.29352000  1.0 1.5919014019
P  P21  1  0.12637000  0.75300000  0.29352000  1.0 1.5919014019
P  P22  1  0.87363000  0.74700000  0.79352000  1.0 1.5919014019
P  P23  1  0.62637000  0.24700000  0.20648000  1.0 1.5919014019
P  P24  1  0.37363000  0.25300000  0.70648000  1.0 1.5919014019
O  O1  1  0.91120000  0.34120000  0.37770000  1.0 -0.7682291018
O  O2  1  0.08880000  0.15880000  0.87770000  1.0 -0.7682291018
O  O3  1  0.41120000  0.65880000  0.12230000  1.0 -0.7682291018
O  O4  1  0.58880000  0.84120000  0.62230000  1.0 -0.7682291018
O  O5  1  0.08880000  0.65880000  0.62230000  1.0 -0.7682291018
O  O6  1  0.91120000  0.84120000  0.12230000  1.0 -0.7682291018
O  O7  1  0.58880000  0.34120000  0.87770000  1.0 -0.7682291018
O  O8  1  0.41120000  0.15880000  0.37770000  1.0 -0.7682291018
O  O9  1  0.73980000  0.46880000  0.38880000  1.0 -0.7682291018
O  O10  1  0.26020000  0.03120000  0.88880000  1.0 -0.7682291018
O  O11  1  0.23980000  0.53120000  0.11120000  1.0 -0.7682291018
O  O12  1  0.76020000  0.96880000  0.61120000  1.0 -0.7682291018
O  O13  1  0.26020000  0.53120000  0.61120000  1.0 -0.7682291018
O  O14  1  0.73980000  0.96880000  0.11120000  1.0 -0.7682291018
O  O15  1  0.76020000  0.46880000  0.88880000  1.0 -0.7682291018
O  O16  1  0.23980000  0.03120000  0.38880000  1.0 -0.7682291018
O  O17  1  0.84680000  0.40290000  0.50610000  1.0 -0.7916684607
O  O18  1  0.15320000  0.09710000  0.00610000  1.0 -0.7916684607
O  O19  1  0.34680000  0.59710000  0.99390000  1.0 -0.7916684607
O  O20  1  0.65320000  0.90290000  0.49390000  1.0 -0.7916684607
O  O21  1  0.15320000  0.59710000  0.49390000  1.0 -0.7916684607
O  O22  1  0.84680000  0.90290000  0.99390000  1.0 -0.7916684607
O  O23  1  0.65320000  0.40290000  0.00610000  1.0 -0.7916684607
O  O24  1  0.34680000  0.09710000  0.50610000  1.0 -0.7916684607
O  O25  1  0.97000000  0.51300000  0.41710000  1.0 -0.7617808032
O  O26  1  0.03000000  0.98700000  0.91710000  1.0 -0.7617808032
O  O27  1  0.47000000  0.48700000  0.08290000  1.0 -0.7617808032
O  O28  1  0.53000000  0.01300000  0.58290000  1.0 -0.7617808032
O  O29  1  0.03000000  0.48700000  0.58290000  1.0 -0.7617808032
O  O30  1  0.97000000  0.01300000  0.08290000  1.0 -0.7617808032
O  O31  1  0.53000000  0.51300000  0.91710000  1.0 -0.7617808032
O  O32  1  0.47000000  0.98700000  0.41710000  1.0 -0.7617808032
O  O33  1  0.71020000  0.48090000  0.60910000  1.0 -0.7617808032
O  O34  1  0.28980000  0.01910000  0.10910000  1.0 -0.7617808032
O  O35  1  0.21020000  0.51910000  0.89090000  1.0 -0.7617808032
O  O36  1  0.78980000  0.98090000  0.39090000  1.0 -0.7617808032
O  O37  1  0.28980000  0.51910000  0.39090000  1.0 -0.7617808032
O  O38  1  0.71020000  0.98090000  0.89090000  1.0 -0.7617808032
O  O39  1  0.78980000  0.48090000  0.10910000  1.0 -0.7617808032
O  O40  1  0.21020000  0.01910000  0.60910000  1.0 -0.7617808032
O  O41  1  0.66570000  0.50560000  0.75110000  1.0 -0.7617808032
O  O42  1  0.33430000  0.99440000  0.25110000  1.0 -0.7617808032
O  O43  1  0.16570000  0.49440000  0.74890000  1.0 -0.7617808032
O  O44  1  0.83430000  0.00560000  0.24890000  1.0 -0.7617808032
O  O45  1  0.33430000  0.49440000  0.24890000  1.0 -0.7617808032
O  O46  1  0.66570000  0.00560000  0.74890000  1.0 -0.7617808032
O  O47  1  0.83430000  0.50560000  0.25110000  1.0 -0.7617808032
O  O48  1  0.16570000  0.99440000  0.75110000  1.0 -0.7617808032
O  O49  1  0.64440000  0.64400000  0.65610000  1.0 -0.7916684607
O  O50  1  0.35560000  0.85600000  0.15610000  1.0 -0.7916684607
O  O51  1  0.14440000  0.35600000  0.84390000  1.0 -0.7916684607
O  O52  1  0.85560000  0.14400000  0.34390000  1.0 -0.7916684607
O  O53  1  0.35560000  0.35600000  0.34390000  1.0 -0.7916684607
O  O54  1  0.64440000  0.14400000  0.84390000  1.0 -0.7916684607
O  O55  1  0.85560000  0.64400000  0.15610000  1.0 -0.7916684607
O  O56  1  0.14440000  0.85600000  0.65610000  1.0 -0.7916684607
O  O57  1  0.48710000  0.50440000  0.65500000  1.0 -0.7099456834
O  O58  1  0.51290000  0.99560000  0.15500000  1.0 -0.7099456834
O  O59  1  0.98710000  0.49560000  0.84500000  1.0 -0.7099456834
O  O60  1  0.01290000  0.00440000  0.34500000  1.0 -0.7099456834
O  O61  1  0.51290000  0.49560000  0.34500000  1.0 -0.7099456834
O  O62  1  0.48710000  0.00440000  0.84500000  1.0 -0.7099456834
O  O63  1  0.01290000  0.50440000  0.15500000  1.0 -0.7099456834
O  O64  1  0.98710000  0.99560000  0.65500000  1.0 -0.7099456834
O  O65  1  0.82040000  0.14690000  0.68510000  1.0 -0.777531189
O  O66  1  0.17960000  0.35310000  0.18510000  1.0 -0.777531189
O  O67  1  0.32040000  0.85310000  0.81490000  1.0 -0.777531189
O  O68  1  0.67960000  0.64690000  0.31490000  1.0 -0.777531189
O  O69  1  0.17960000  0.85310000  0.31490000  1.0 -0.777531189
O  O70  1  0.82040000  0.64690000  0.81490000  1.0 -0.777531189
O  O71  1  0.67960000  0.14690000  0.18510000  1.0 -0.777531189
O  O72  1  0.32040000  0.35310000  0.68510000  1.0 -0.777531189
O  O73  1  0.01300000  0.23780000  0.73550000  1.0 -0.777531189
O  O74  1  0.98700000  0.26220000  0.23550000  1.0 -0.777531189
O  O75  1  0.51300000  0.76220000  0.76450000  1.0 -0.777531189
O  O76  1  0.48700000  0.73780000  0.26450000  1.0 -0.777531189
O  O77  1  0.98700000  0.76220000  0.26450000  1.0 -0.777531189
O  O78  1  0.01300000  0.73780000  0.76450000  1.0 -0.777531189
O  O79  1  0.48700000  0.23780000  0.23550000  1.0 -0.777531189
O  O80  1  0.51300000  0.26220000  0.73550000  1.0 -0.777531189
O  O81  1  0.87650000  0.31120000  0.63460000  1.0 -0.7412348735
O  O82  1  0.12350000  0.18880000  0.13460000  1.0 -0.7412348735
O  O83  1  0.37650000  0.68880000  0.86540000  1.0 -0.7412348735
O  O84  1  0.62350000  0.81120000  0.36540000  1.0 -0.7412348735
O  O85  1  0.12350000  0.68880000  0.36540000  1.0 -0.7412348735
O  O86  1  0.87650000  0.81120000  0.86540000  1.0 -0.7412348735
O  O87  1  0.62350000  0.31120000  0.13460000  1.0 -0.7412348735
O  O88  1  0.37650000  0.18880000  0.63460000  1.0 -0.7412348735
O  O89  1  0.78630000  0.29390000  0.76860000  1.0 -0.8235799419
O  O90  1  0.21370000  0.20610000  0.26860000  1.0 -0.8235799419
O  O91  1  0.28630000  0.70610000  0.73140000  1.0 -0.8235799419
O  O92  1  0.71370000  0.79390000  0.23140000  1.0 -0.8235799419
O  O93  1  0.21370000  0.70610000  0.23140000  1.0 -0.8235799419
O  O94  1  0.78630000  0.79390000  0.73140000  1.0 -0.8235799419
O  O95  1  0.71370000  0.29390000  0.26860000  1.0 -0.8235799419
O  O96  1  0.28630000  0.20610000  0.76860000  1.0 -0.8235799419
O  O97  1  0.90160000  0.49020000  0.70660000  1.0 -0.7969935211
O  O98  1  0.09840000  0.00980000  0.20660000  1.0 -0.7969935211
O  O99  1  0.40160000  0.50980000  0.79340000  1.0 -0.7969935211
O  O100  1  0.59840000  0.99020000  0.29340000  1.0 -0.7969935211
O  O101  1  0.09840000  0.50980000  0.29340000  1.0 -0.7969935211
O  O102  1  0.90160000  0.99020000  0.79340000  1.0 -0.7969935211
O  O103  1  0.59840000  0.49020000  0.20660000  1.0 -0.7969935211
O  O104  1  0.40160000  0.00980000  0.70660000  1.0 -0.7969935211
