# DDEC6 charges by PACMAN v1.1 (https://github.com/mtap-research/PACMAN-charge/)
data_ECNPYR01_FSR_pacman
_symmetry_space_group_name_H-M   'P 1'
_cell_length_a   7.59000000
_cell_length_b   7.59000000
_cell_length_c   7.72500000
_cell_angle_alpha   90.00000000
_cell_angle_beta   90.00000000
_cell_angle_gamma   90.00000000
_symmetry_Int_Tables_number   1
_chemical_formula_structural   CdNi(CN)12
_chemical_formula_sum   'Cd1 Ni1 C12 N12'
_cell_volume   445.02257250
_cell_formula_units_Z   1
loop_
 _symmetry_equiv_pos_site_id
 _symmetry_equiv_pos_as_xyz
  1  'x, y, z'
loop_
 _atom_site_type_symbol
 _atom_site_label
 _atom_site_symmetry_multiplicity
 _atom_site_fract_x
 _atom_site_fract_y
 _atom_site_fract_z
 _atom_site_occupancy
 _atom_site_charge
Cd  Cd1  1  0.00000000  0.00000000  0.00000000  1.0 0.5009799657
Ni  Ni1  1  0.50000000  0.50000000  0.00000000  1.0 0.0612656084
C  C1  1  0.32790000  0.32790000  0.00000000  1.0 0.165749198
C  C2  1  0.67210000  0.32790000  0.00000000  1.0 0.165749198
C  C3  1  0.32790000  0.67210000  0.00000000  1.0 0.165749198
C  C4  1  0.67210000  0.67210000  0.00000000  1.0 0.164676523
C  C5  1  0.89200000  0.00000000  0.40200000  1.0 0.0159010646
C  C6  1  0.00000000  0.89200000  0.40200000  1.0 0.0107936544
C  C7  1  0.00000000  0.89200000  0.59800000  1.0 0.0107936544
C  C8  1  0.00000000  0.10800000  0.40200000  1.0 0.0107936544
C  C9  1  0.10800000  0.00000000  0.40200000  1.0 0.0107936544
C  C10  1  0.89200000  0.00000000  0.59800000  1.0 0.0159010646
C  C11  1  0.10800000  0.00000000  0.59800000  1.0 0.0107936544
C  C12  1  0.00000000  0.10800000  0.59800000  1.0 0.0107936544
N  N1  1  0.22100000  0.22100000  0.00000000  1.0 -0.226751698
N  N2  1  0.77900000  0.22100000  0.00000000  1.0 -0.226751698
N  N3  1  0.22100000  0.77900000  0.00000000  1.0 -0.226751698
N  N4  1  0.77900000  0.77900000  0.00000000  1.0 -0.226751698
N  N5  1  0.03300000  0.00000000  0.29900000  1.0 -0.0517158693
N  N6  1  0.00000000  0.03300000  0.29900000  1.0 -0.0517158693
N  N7  1  0.00000000  0.03300000  0.70100000  1.0 -0.0517158693
N  N8  1  0.00000000  0.96700000  0.29900000  1.0 -0.0517158693
N  N9  1  0.96700000  0.00000000  0.29900000  1.0 -0.0517158693
N  N10  1  0.03300000  0.00000000  0.70100000  1.0 -0.0517158693
N  N11  1  0.96700000  0.00000000  0.70100000  1.0 -0.0517158693
N  N12  1  0.00000000  0.96700000  0.70100000  1.0 -0.0517158693
