# DDEC6 charges by PACMAN v1.1 (https://github.com/mtap-research/PACMAN-charge/)
data_ECUDEM_FSR_pacman
_symmetry_space_group_name_H-M   'P 1'
_cell_length_a   8.43100000
_cell_length_b   10.84100000
_cell_length_c   11.11400000
_cell_angle_alpha   64.43000000
_cell_angle_beta   80.44000000
_cell_angle_gamma   73.82000000
_symmetry_Int_Tables_number   1
_chemical_formula_structural   SmH9(C3O2)4
_chemical_formula_sum   'Sm2 H18 C24 O16'
_cell_volume   878.80739114
_cell_formula_units_Z   2
loop_
 _symmetry_equiv_pos_site_id
 _symmetry_equiv_pos_as_xyz
  1  'x, y, z'
loop_
 _atom_site_type_symbol
 _atom_site_label
 _atom_site_symmetry_multiplicity
 _atom_site_fract_x
 _atom_site_fract_y
 _atom_site_fract_z
 _atom_site_occupancy
 _atom_site_charge
Sm  Sm1  1  0.25138000  0.99629000  0.99777000  1.0 2.1324189206
Sm  Sm2  1  0.74862000  0.00371000  0.00223000  1.0 2.1324189206
H  H1  1  0.24920000  0.04620000  0.48120000  1.0 0.1375580964
H  H2  1  0.75080000  0.95380000  0.51880000  1.0 0.1375580964
H  H3  1  0.90240000  0.39380000  0.47970000  1.0 0.1375580964
H  H4  1  0.09760000  0.60620000  0.52030000  1.0 0.1375580964
H  H5  1  0.23730000  0.43060000  0.17590000  1.0 0.1614512487
H  H6  1  0.76270000  0.56940000  0.82410000  1.0 0.1654596646
H  H7  1  0.47250000  0.23800000  0.18420000  1.0 0.1614512487
H  H8  1  0.52750000  0.76200000  0.81580000  1.0 0.1614512487
H  H9  1  0.49110000  0.09160000  0.31200000  1.0 0.1614512487
H  H10  1  0.50890000  0.90840000  0.68800000  1.0 0.1614512487
H  H11  1  0.97710000  0.03560000  0.62440000  1.0 0.1654596646
H  H12  1  0.02290000  0.96440000  0.37560000  1.0 0.1654596646
H  H13  1  0.88110000  0.17440000  0.64800000  1.0 0.1654596646
H  H14  1  0.11890000  0.82560000  0.35200000  1.0 0.1654596646
H  H15  1  0.93280000  0.62630000  0.32500000  1.0 0.1302782347
H  H16  1  0.06720000  0.37370000  0.67500000  1.0 0.1302782347
H  H17  1  0.06950000  0.64560000  0.20460000  1.0 0.1523931076
H  H18  1  0.93050000  0.35440000  0.79540000  1.0 0.1523931076
C  C1  1  0.26900000  0.23200000  0.31720000  1.0 0.193866839
C  C2  1  0.73100000  0.76800000  0.68280000  1.0 0.193866839
C  C3  1  0.20300000  0.14450000  0.44090000  1.0 -0.1987282634
C  C4  1  0.79700000  0.85550000  0.55910000  1.0 -0.1987282634
C  C5  1  0.06800000  0.20900000  0.50080000  1.0 0.1614512487
C  C6  1  0.93200000  0.79100000  0.49920000  1.0 0.1614512487
C  C7  1  0.99800000  0.35300000  0.43900000  1.0 -0.1987282634
C  C8  1  0.00200000  0.64700000  0.56100000  1.0 -0.1987282634
C  C9  1  0.06600000  0.43900000  0.31940000  1.0 0.1614512487
C  C10  1  0.93400000  0.56100000  0.68060000  1.0 0.1614512487
C  C11  1  0.19500000  0.37500000  0.26100000  1.0 -0.1987282634
C  C12  1  0.80500000  0.62500000  0.73900000  1.0 -0.1987282634
C  C13  1  0.41300000  0.16500000  0.24500000  1.0 -0.3972149591
C  C14  1  0.58700000  0.83500000  0.75500000  1.0 -0.3972149591
C  C15  1  0.36400000  0.10100000  0.16630000  1.0 0.6963010927
C  C16  1  0.63600000  0.89900000  0.83370000  1.0 0.6963010927
C  C17  1  0.99100000  0.12100000  0.63000000  1.0 -0.388719658
C  C18  1  0.00900000  0.87900000  0.37000000  1.0 -0.388719658
C  C19  1  0.11250000  0.07700000  0.74700000  1.0 0.6623865267
C  C20  1  0.88750000  0.92300000  0.25300000  1.0 0.6623865267
C  C21  1  0.98300000  0.59400000  0.25400000  1.0 -0.3705860028
C  C22  1  0.01700000  0.40600000  0.74600000  1.0 -0.3705860028
C  C23  1  0.85100000  0.63300000  0.15900000  1.0 0.6963010927
C  C24  1  0.14900000  0.36700000  0.84100000  1.0 0.6963010927
O  O1  1  0.47170000  0.06120000  0.08600000  1.0 -0.6782457779
O  O2  1  0.52830000  0.93880000  0.91400000  1.0 -0.6782457779
O  O3  1  0.22000000  0.08690000  0.17610000  1.0 -0.5478633145
O  O4  1  0.78000000  0.91310000  0.82390000  1.0 -0.5478633145
O  O5  1  0.29270000  0.00950000  0.77230000  1.0 -0.6458054284
O  O6  1  0.70730000  0.99050000  0.22770000  1.0 -0.6458054284
O  O7  1  0.99910000  0.05120000  0.86890000  1.0 -0.7916841904
O  O8  1  0.00090000  0.94880000  0.13110000  1.0 -0.7916841904
O  O9  1  0.78500000  0.76280000  0.11150000  1.0 -0.6782457779
O  O10  1  0.21500000  0.23720000  0.88850000  1.0 -0.6782457779
O  O11  1  0.81700000  0.54200000  0.13900000  1.0 -0.4202353905
O  O12  1  0.18300000  0.45800000  0.86100000  1.0 -0.4202353905
O  O13  1  0.24420000  0.77710000  0.98720000  1.0 -0.2907126049
O  O14  1  0.75580000  0.22290000  0.01280000  1.0 -0.300335596
O  O15  1  0.38600000  0.78790000  0.19320000  1.0 -0.2689323972
O  O16  1  0.61400000  0.21210000  0.80680000  1.0 -0.2689323972
