# DDEC6 charges by PACMAN v1.1 (https://github.com/mtap-research/PACMAN-charge/)
data_ECUFAL_FSR_pacman
_symmetry_space_group_name_H-M   'P 1'
_cell_length_a   12.92390000
_cell_length_b   12.92390000
_cell_length_c   9.53300000
_cell_angle_alpha   90.00000000
_cell_angle_beta   90.00000000
_cell_angle_gamma   92.44570000
_symmetry_Int_Tables_number   1
_chemical_formula_structural   CsU3P4H8C4O23
_chemical_formula_sum   'Cs2 U6 P8 H16 C8 O46'
_cell_volume   1590.81983336
_cell_formula_units_Z   2
loop_
 _symmetry_equiv_pos_site_id
 _symmetry_equiv_pos_as_xyz
  1  'x, y, z'
loop_
 _atom_site_type_symbol
 _atom_site_label
 _atom_site_symmetry_multiplicity
 _atom_site_fract_x
 _atom_site_fract_y
 _atom_site_fract_z
 _atom_site_occupancy
 _atom_site_charge
Cs  Cs1  1  0.98530000  0.98530000  0.93340000  1.0 0.9741778046
Cs  Cs2  1  0.01470000  0.01470000  0.43340000  1.0 0.9741778046
U  U1  1  0.68145000  0.09771000  0.85718000  1.0 2.5667005151
U  U2  1  0.31855000  0.90229000  0.35718000  1.0 2.5667005151
U  U3  1  0.90229000  0.31855000  0.35718000  1.0 2.5667005151
U  U4  1  0.09771000  0.68145000  0.85718000  1.0 2.5667005151
U  U5  1  0.20744000  0.20744000  0.68480000  1.0 2.5878089636
U  U6  1  0.79256000  0.79256000  0.18480000  1.0 2.5878089636
P  P1  1  0.22840000  0.92940000  0.72930000  1.0 1.3105491072
P  P2  1  0.77160000  0.07060000  0.22930000  1.0 1.3105491072
P  P3  1  0.07060000  0.77160000  0.22930000  1.0 1.3105491072
P  P4  1  0.92940000  0.22840000  0.72930000  1.0 1.3105491072
P  P5  1  0.42960000  0.03720000  0.66340000  1.0 1.3182004362
P  P6  1  0.57040000  0.96280000  0.16340000  1.0 1.3182004362
P  P7  1  0.96280000  0.57040000  0.16340000  1.0 1.3182004362
P  P8  1  0.03720000  0.42960000  0.66340000  1.0 1.3182004362
H  H1  1  0.41290000  0.80950000  0.68600000  1.0 0.1390268288
H  H2  1  0.58710000  0.19050000  0.18600000  1.0 0.1390268288
H  H3  1  0.19050000  0.58710000  0.18600000  1.0 0.1390268288
H  H4  1  0.80950000  0.41290000  0.68600000  1.0 0.1390268288
H  H5  1  0.48610000  0.84810000  0.80800000  1.0 0.1489867687
H  H6  1  0.51390000  0.15190000  0.30800000  1.0 0.1489867687
H  H7  1  0.15190000  0.51390000  0.30800000  1.0 0.1489867687
H  H8  1  0.84810000  0.48610000  0.80800000  1.0 0.1489867687
H  H9  1  0.37940000  0.79160000  0.84250000  1.0 0.1564532004
H  H10  1  0.62060000  0.20840000  0.34250000  1.0 0.1564532004
H  H11  1  0.20840000  0.62060000  0.34250000  1.0 0.1564532004
H  H12  1  0.79160000  0.37940000  0.84250000  1.0 0.1564532004
H  H13  1  0.42730000  0.99530000  0.94480000  1.0 0.3685045212
H  H14  1  0.57270000  0.00470000  0.44480000  1.0 0.3685045212
H  H15  1  0.00470000  0.57270000  0.44480000  1.0 0.3685045212
H  H16  1  0.99530000  0.42730000  0.94480000  1.0 0.3685045212
C  C1  1  0.36380000  0.94140000  0.77910000  1.0 -0.1957443834
C  C2  1  0.63620000  0.05860000  0.27910000  1.0 -0.1957443834
C  C3  1  0.05860000  0.63620000  0.27910000  1.0 -0.1940011934
C  C4  1  0.94140000  0.36380000  0.77910000  1.0 -0.1940011934
C  C5  1  0.41520000  0.83820000  0.77890000  1.0 -0.399573873
C  C6  1  0.58480000  0.16180000  0.27890000  1.0 -0.399573873
C  C7  1  0.16180000  0.58480000  0.27890000  1.0 -0.399573873
C  C8  1  0.83820000  0.41520000  0.77890000  1.0 -0.399573873
O  O1  1  0.73250000  0.97810000  0.81090000  1.0 -0.6777799607
O  O2  1  0.26750000  0.02190000  0.31090000  1.0 -0.6777799607
O  O3  1  0.02190000  0.26750000  0.31090000  1.0 -0.6777799607
O  O4  1  0.97810000  0.73250000  0.81090000  1.0 -0.6777799607
O  O5  1  0.53540000  0.05860000  0.72450000  1.0 -0.7421070129
O  O6  1  0.46460000  0.94140000  0.22450000  1.0 -0.7421070129
O  O7  1  0.94140000  0.46460000  0.22450000  1.0 -0.7421070129
O  O8  1  0.05860000  0.53540000  0.72450000  1.0 -0.7421070129
O  O9  1  0.17390000  0.84670000  0.81980000  1.0 -0.7725009203
O  O10  1  0.82610000  0.15330000  0.31980000  1.0 -0.7725009203
O  O11  1  0.15330000  0.82610000  0.31980000  1.0 -0.7725009203
O  O12  1  0.84670000  0.17390000  0.81980000  1.0 -0.7725009203
O  O13  1  0.18030000  0.03370000  0.74960000  1.0 -0.8482394845
O  O14  1  0.81970000  0.96630000  0.24960000  1.0 -0.8482394845
O  O15  1  0.96630000  0.81970000  0.24960000  1.0 -0.8482394845
O  O16  1  0.03370000  0.18030000  0.74960000  1.0 -0.8482394845
O  O17  1  0.63220000  0.22100000  0.89820000  1.0 -0.6481191546
O  O18  1  0.36780000  0.77900000  0.39820000  1.0 -0.6481191546
O  O19  1  0.77900000  0.36780000  0.39820000  1.0 -0.6481191546
O  O20  1  0.22100000  0.63220000  0.89820000  1.0 -0.6481191546
O  O21  1  0.69670000  0.15870000  0.60880000  1.0 -0.0497082316
O  O22  1  0.30330000  0.84130000  0.10880000  1.0 -0.0580685169
O  O23  1  0.84130000  0.30330000  0.10880000  1.0 -0.0497082316
O  O24  1  0.15870000  0.69670000  0.60880000  1.0 -0.0580685169
O  O25  1  0.43490000  0.98510000  0.51630000  1.0 -0.7782087207
O  O26  1  0.56510000  0.01490000  0.01630000  1.0 -0.7782087207
O  O27  1  0.01490000  0.56510000  0.01630000  1.0 -0.7782087207
O  O28  1  0.98510000  0.43490000  0.51630000  1.0 -0.7782087207
O  O29  1  0.36930000  0.13470000  0.65920000  1.0 -0.7572165907
O  O30  1  0.63070000  0.86530000  0.15920000  1.0 -0.7572165907
O  O31  1  0.86530000  0.63070000  0.15920000  1.0 -0.7572165907
O  O32  1  0.13470000  0.36930000  0.65920000  1.0 -0.7572165907
O  O33  1  0.24310000  0.24310000  0.85600000  1.0 -0.6337248117
O  O34  1  0.75690000  0.75690000  0.35600000  1.0 -0.6337248117
O  O35  1  0.22990000  0.89770000  0.57520000  1.0 -0.7873484373
O  O36  1  0.77010000  0.10230000  0.07520000  1.0 -0.7873484373
O  O37  1  0.10230000  0.77010000  0.07520000  1.0 -0.7873484373
O  O38  1  0.89770000  0.22990000  0.57520000  1.0 -0.7873484373
O  O39  1  0.33940000  0.33940000  0.59600000  1.0 -0.1351569474
O  O40  1  0.66060000  0.66060000  0.09600000  1.0 -0.1335710466
O  O41  1  0.17580000  0.17580000  0.50390000  1.0 -0.7330147058
O  O42  1  0.82420000  0.82420000  0.00390000  1.0 -0.7421070129
O  O43  1  0.36700000  0.98420000  0.92100000  1.0 -0.3767346099
O  O44  1  0.63300000  0.01580000  0.42100000  1.0 -0.3767346099
O  O45  1  0.01580000  0.63300000  0.42100000  1.0 -0.3767346099
O  O46  1  0.98420000  0.36700000  0.92100000  1.0 -0.3767346099
