# DDEC6 charges by PACMAN v1.1 (https://github.com/mtap-research/PACMAN-charge/)
data_ECUFEP_FSR_pacman
_symmetry_space_group_name_H-M   'P 1'
_cell_length_a   12.93570000
_cell_length_b   12.93570000
_cell_length_c   9.49260000
_cell_angle_alpha   90.00000000
_cell_angle_beta   90.00000000
_cell_angle_gamma   92.37390000
_symmetry_Int_Tables_number   1
_chemical_formula_structural   U3AgP4H8C4O25
_chemical_formula_sum   'U6 Ag2 P8 H16 C8 O50'
_cell_volume   1587.05574058
_cell_formula_units_Z   2
loop_
 _symmetry_equiv_pos_site_id
 _symmetry_equiv_pos_as_xyz
  1  'x, y, z'
loop_
 _atom_site_type_symbol
 _atom_site_label
 _atom_site_symmetry_multiplicity
 _atom_site_fract_x
 _atom_site_fract_y
 _atom_site_fract_z
 _atom_site_occupancy
 _atom_site_charge
U  U1  1  0.09751000  0.68187000  0.73537000  1.0 2.5590272505
U  U2  1  0.90249000  0.31813000  0.23537000  1.0 2.5590272505
U  U3  1  0.31813000  0.90249000  0.23537000  1.0 2.5590272505
U  U4  1  0.68187000  0.09751000  0.73537000  1.0 2.5590272505
U  U5  1  0.20891000  0.20891000  0.90490000  1.0 2.5379567106
U  U6  1  0.79109000  0.79109000  0.40490000  1.0 2.5379567106
Ag  Ag1  1  0.99660000  0.99660000  0.91700000  1.0 0.6481870671
Ag  Ag2  1  0.00340000  0.00340000  0.41700000  1.0 0.6481870671
P  P1  1  0.22920000  0.93000000  0.86100000  1.0 1.301682647
P  P2  1  0.77080000  0.07000000  0.36100000  1.0 1.301682647
P  P3  1  0.07000000  0.77080000  0.36100000  1.0 1.301682647
P  P4  1  0.93000000  0.22920000  0.86100000  1.0 1.301682647
P  P5  1  0.42990000  0.03770000  0.92840000  1.0 1.3191620369
P  P6  1  0.57010000  0.96230000  0.42840000  1.0 1.3191620369
P  P7  1  0.96230000  0.57010000  0.42840000  1.0 1.3191620369
P  P8  1  0.03770000  0.42990000  0.92840000  1.0 1.3191620369
H  H1  1  0.41190000  0.81190000  0.91020000  1.0 0.1286744137
H  H2  1  0.58810000  0.18810000  0.41020000  1.0 0.1286744137
H  H3  1  0.18810000  0.58810000  0.41020000  1.0 0.1286744137
H  H4  1  0.81190000  0.41190000  0.91020000  1.0 0.1286744137
H  H5  1  0.48430000  0.84610000  0.78470000  1.0 0.1439582069
H  H6  1  0.51570000  0.15390000  0.28470000  1.0 0.1439582069
H  H7  1  0.15390000  0.51570000  0.28470000  1.0 0.1439582069
H  H8  1  0.84610000  0.48430000  0.78470000  1.0 0.1439582069
H  H9  1  0.37610000  0.79170000  0.75450000  1.0 0.1496517171
H  H10  1  0.62390000  0.20830000  0.25450000  1.0 0.1496517171
H  H11  1  0.20830000  0.62390000  0.25450000  1.0 0.1496517171
H  H12  1  0.79170000  0.37610000  0.75450000  1.0 0.1496517171
H  H13  1  0.41160000  0.03480000  0.66666667  1.0 0.362917382
H  H14  1  0.58840000  0.96520000  0.16667000  1.0 0.362917382
H  H15  1  0.96520000  0.58840000  0.16667000  1.0 0.362917382
H  H16  1  0.03480000  0.41160000  0.66666667  1.0 0.362917382
C  C1  1  0.36510000  0.94290000  0.81280000  1.0 -0.2080728154
C  C2  1  0.63490000  0.05710000  0.31280000  1.0 -0.2080728154
C  C3  1  0.05710000  0.63490000  0.31280000  1.0 -0.2080728154
C  C4  1  0.94290000  0.36510000  0.81280000  1.0 -0.2080728154
C  C5  1  0.41380000  0.83860000  0.81580000  1.0 -0.405939449
C  C6  1  0.58620000  0.16140000  0.31580000  1.0 -0.405939449
C  C7  1  0.16140000  0.58620000  0.31580000  1.0 -0.405939449
C  C8  1  0.83860000  0.41380000  0.81580000  1.0 -0.405939449
O  O1  1  0.21880000  0.63160000  0.69190000  1.0 -0.6331205558
O  O2  1  0.78120000  0.36840000  0.19190000  1.0 -0.6331205558
O  O3  1  0.36840000  0.78120000  0.19190000  1.0 -0.6331205558
O  O4  1  0.63160000  0.21880000  0.69190000  1.0 -0.6331205558
O  O5  1  0.15960000  0.69860000  0.98090000  1.0 -0.1297078229
O  O6  1  0.84040000  0.30140000  0.48090000  1.0 -0.1297078229
O  O7  1  0.30140000  0.84040000  0.48090000  1.0 -0.1297078229
O  O8  1  0.69860000  0.15960000  0.98090000  1.0 -0.1297078229
O  O9  1  0.17880000  0.84640000  0.77120000  1.0 -0.7185487311
O  O10  1  0.82120000  0.15360000  0.27120000  1.0 -0.7185487311
O  O11  1  0.15360000  0.82120000  0.27120000  1.0 -0.7185487311
O  O12  1  0.84640000  0.17880000  0.77120000  1.0 -0.7185487311
O  O13  1  0.18090000  0.03410000  0.84010000  1.0 -0.8041907589
O  O14  1  0.81910000  0.96590000  0.34010000  1.0 -0.8041907589
O  O15  1  0.96590000  0.81910000  0.34010000  1.0 -0.8058963459
O  O16  1  0.03410000  0.18090000  0.84010000  1.0 -0.8041907589
O  O17  1  0.43370000  0.98610000  0.07380000  1.0 -0.7794581692
O  O18  1  0.56630000  0.01390000  0.57380000  1.0 -0.7794581692
O  O19  1  0.01390000  0.56630000  0.57380000  1.0 -0.7794581692
O  O20  1  0.98610000  0.43370000  0.07380000  1.0 -0.7794581692
O  O21  1  0.36760000  0.13440000  0.93240000  1.0 -0.7794581692
O  O22  1  0.63240000  0.86560000  0.43240000  1.0 -0.7794581692
O  O23  1  0.86560000  0.63240000  0.43240000  1.0 -0.7794581692
O  O24  1  0.13440000  0.36760000  0.93240000  1.0 -0.7794581692
O  O25  1  0.23010000  0.89970000  0.01600000  1.0 -0.7588936727
O  O26  1  0.76990000  0.10030000  0.51600000  1.0 -0.7588936727
O  O27  1  0.10030000  0.76990000  0.51600000  1.0 -0.7588936727
O  O28  1  0.89970000  0.23010000  0.01600000  1.0 -0.7588936727
O  O29  1  0.18090000  0.18090000  0.07800000  1.0 -0.5844028037
O  O30  1  0.81910000  0.81910000  0.57800000  1.0 -0.5877507966
O  O31  1  0.97680000  0.73340000  0.78330000  1.0 -0.7306612055
O  O32  1  0.02320000  0.26660000  0.28330000  1.0 -0.7306612055
O  O33  1  0.26660000  0.02320000  0.28330000  1.0 -0.7306612055
O  O34  1  0.73340000  0.97680000  0.78330000  1.0 -0.7306612055
O  O35  1  0.53580000  0.05820000  0.86840000  1.0 -0.7501938086
O  O36  1  0.46420000  0.94180000  0.36840000  1.0 -0.7501938086
O  O37  1  0.94180000  0.46420000  0.36840000  1.0 -0.7501938086
O  O38  1  0.05820000  0.53580000  0.86840000  1.0 -0.7501938086
O  O39  1  0.34130000  0.34130000  0.98200000  1.0 -0.2401257198
O  O40  1  0.65870000  0.65870000  0.48200000  1.0 -0.2401257198
O  O41  1  0.24100000  0.24100000  0.72390000  1.0 -0.6772627275
O  O42  1  0.75900000  0.75900000  0.22390000  1.0 -0.6772627275
O  O43  1  0.36900000  0.98600000  0.66940000  1.0 -0.3689504902
O  O44  1  0.63100000  0.01400000  0.16940000  1.0 -0.3689504902
O  O45  1  0.01400000  0.63100000  0.16940000  1.0 -0.3689504902
O  O46  1  0.98600000  0.36900000  0.66940000  1.0 -0.3689504902
O  O47  1  0.88480000  0.88480000  0.82800000  1.0 1.2490626533
O  O48  1  0.11520000  0.11520000  0.32800000  1.0 1.2449837882
O  O49  1  0.97590000  0.97590000  0.68300000  1.0 -0.7306612055
O  O50  1  0.02410000  0.02410000  0.18300000  1.0 -0.7185487311
