# DDEC6 charges by PACMAN v1.1 (https://github.com/mtap-research/PACMAN-charge/)
data_ECUTON_ASR_pacman
_symmetry_space_group_name_H-M   'P 1'
_cell_length_a   9.41700000
_cell_length_b   13.12800000
_cell_length_c   18.49060000
_cell_angle_alpha   90.00000000
_cell_angle_beta   120.61600000
_cell_angle_gamma   90.00000000
_symmetry_Int_Tables_number   1
_chemical_formula_structural   ZnH15C16N7O4
_chemical_formula_sum   'Zn4 H60 C64 N28 O16'
_cell_volume   1967.26744149
_cell_formula_units_Z   4
loop_
 _symmetry_equiv_pos_site_id
 _symmetry_equiv_pos_as_xyz
  1  'x, y, z'
loop_
 _atom_site_type_symbol
 _atom_site_label
 _atom_site_symmetry_multiplicity
 _atom_site_fract_x
 _atom_site_fract_y
 _atom_site_fract_z
 _atom_site_occupancy
 _atom_site_charge
Zn  Zn1  1  0.96753000  0.33006000  0.19900000  1.0 0.7536639861
Zn  Zn2  1  0.03247000  0.83006000  0.30100000  1.0 0.7536639861
Zn  Zn3  1  0.03247000  0.66994000  0.80100000  1.0 0.7536639861
Zn  Zn4  1  0.96753000  0.16994000  0.69900000  1.0 0.7536639861
H  H1  1  0.47500000  0.30330000  0.97070000  1.0 0.1205108626
H  H2  1  0.52500000  0.80330000  0.52930000  1.0 0.1205108626
H  H3  1  0.52500000  0.69670000  0.02930000  1.0 0.1205108626
H  H4  1  0.47500000  0.19670000  0.47070000  1.0 0.1205108626
H  H5  1  0.00780000  0.39190000  0.89020000  1.0 0.1205108626
H  H6  1  0.99220000  0.89190000  0.60980000  1.0 0.1205108626
H  H7  1  0.99220000  0.60810000  0.10980000  1.0 0.1205108626
H  H8  1  0.00780000  0.10810000  0.39020000  1.0 0.1205108626
H  H9  1  0.38200000  0.48530000  0.11280000  1.0 0.1291254124
H  H10  1  0.61800000  0.98530000  0.38720000  1.0 0.1291254124
H  H11  1  0.61800000  0.51470000  0.88720000  1.0 0.1291254124
H  H12  1  0.38200000  0.01470000  0.61280000  1.0 0.1291254124
H  H13  1  0.13710000  0.62720000  0.39020000  1.0 0.1015589371
H  H14  1  0.86290000  0.12720000  0.10980000  1.0 0.1015589371
H  H15  1  0.86290000  0.37280000  0.60980000  1.0 0.1015589371
H  H16  1  0.13710000  0.87280000  0.89020000  1.0 0.1015589371
H  H17  1  0.84570000  0.24960000  0.02260000  1.0 0.1291254124
H  H18  1  0.15430000  0.74960000  0.47740000  1.0 0.1291254124
H  H19  1  0.15430000  0.75040000  0.97740000  1.0 0.1291254124
H  H20  1  0.84570000  0.25040000  0.52260000  1.0 0.1291254124
H  H21  1  0.30390000  0.45310000  0.27720000  1.0 0.1291254124
H  H22  1  0.69610000  0.95310000  0.22280000  1.0 0.1291254124
H  H23  1  0.69610000  0.54690000  0.72280000  1.0 0.1291254124
H  H24  1  0.30390000  0.04690000  0.77720000  1.0 0.1291254124
H  H25  1  0.42540000  0.58460000  0.51370000  1.0 0.1015589371
H  H26  1  0.57460000  0.08460000  0.98630000  1.0 0.1015589371
H  H27  1  0.57460000  0.41540000  0.48630000  1.0 0.1015589371
H  H28  1  0.42540000  0.91540000  0.01370000  1.0 0.1015589371
H  H29  1  0.60770000  0.58350000  0.53300000  1.0 0.1106548971
H  H30  1  0.39230000  0.08350000  0.96700000  1.0 0.1106548971
H  H31  1  0.39230000  0.41650000  0.46700000  1.0 0.1106548971
H  H32  1  0.60770000  0.91650000  0.03300000  1.0 0.1106548971
H  H33  1  0.51780000  0.57160000  0.39170000  1.0 0.1205108626
H  H34  1  0.48220000  0.07160000  0.10830000  1.0 0.1205108626
H  H35  1  0.48220000  0.42840000  0.60830000  1.0 0.1205108626
H  H36  1  0.51780000  0.92840000  0.89170000  1.0 0.1205108626
H  H37  1  0.43870000  0.66780000  0.40790000  1.0 0.1205108626
H  H38  1  0.56130000  0.16780000  0.09210000  1.0 0.1205108626
H  H39  1  0.56130000  0.33220000  0.59210000  1.0 0.1205108626
H  H40  1  0.43870000  0.83220000  0.90790000  1.0 0.1205108626
H  H41  1  0.30500000  0.26930000  0.19840000  1.0 0.1205108626
H  H42  1  0.69500000  0.76930000  0.30160000  1.0 0.1205108626
H  H43  1  0.69500000  0.73070000  0.80160000  1.0 0.1205108626
H  H44  1  0.30500000  0.23070000  0.69840000  1.0 0.1205108626
H  H45  1  0.90130000  0.16660000  0.90730000  1.0 0.1291254124
H  H46  1  0.09870000  0.66666667  0.59270000  1.0 0.1291254124
H  H47  1  0.09870000  0.83340000  0.09270000  1.0 0.1291254124
H  H48  1  0.90130000  0.33340000  0.40730000  1.0 0.1291254124
H  H49  1  0.08150000  0.12600000  0.94240000  1.0 0.1291254124
H  H50  1  0.91850000  0.62600000  0.55760000  1.0 0.1291254124
H  H51  1  0.91850000  0.87400000  0.05760000  1.0 0.1291254124
H  H52  1  0.08150000  0.37400000  0.44240000  1.0 0.1291254124
H  H53  1  0.89990000  0.99260000  0.91560000  1.0 0.1106548971
H  H54  1  0.10010000  0.49260000  0.58440000  1.0 0.1106548971
H  H55  1  0.10010000  0.00740000  0.08440000  1.0 0.1106548971
H  H56  1  0.89990000  0.50740000  0.41560000  1.0 0.1106548971
H  H57  1  0.85000000  0.03980000  0.97700000  1.0 0.1015589371
H  H58  1  0.15000000  0.53980000  0.52300000  1.0 0.1015589371
H  H59  1  0.15000000  0.96020000  0.02300000  1.0 0.1015589371
H  H60  1  0.85000000  0.46020000  0.47700000  1.0 0.1015589371
C  C1  1  0.40060000  0.33870000  0.98030000  1.0 -0.1396216982
C  C2  1  0.59940000  0.83870000  0.51970000  1.0 -0.1396216982
C  C3  1  0.59940000  0.66130000  0.01970000  1.0 -0.1396216982
C  C4  1  0.40060000  0.16130000  0.48030000  1.0 -0.1396216982
C  C5  1  0.63670000  0.38690000  0.12260000  1.0 0.5469234492
C  C6  1  0.36330000  0.88690000  0.37740000  1.0 0.5469234492
C  C7  1  0.36330000  0.61310000  0.87740000  1.0 0.5446729055
C  C8  1  0.63670000  0.11310000  0.62260000  1.0 0.5469234492
C  C9  1  0.23020000  0.33670000  0.91840000  1.0 -0.0109492928
C  C10  1  0.76980000  0.83670000  0.58160000  1.0 -0.0109492928
C  C11  1  0.76980000  0.66330000  0.08160000  1.0 -0.0109492928
C  C12  1  0.23020000  0.16330000  0.41840000  1.0 -0.0109492928
C  C13  1  0.45770000  0.39170000  0.05370000  1.0 -0.0109492928
C  C14  1  0.54230000  0.89170000  0.44630000  1.0 -0.0109492928
C  C15  1  0.54230000  0.60830000  0.94630000  1.0 -0.0109492928
C  C16  1  0.45770000  0.10830000  0.55370000  1.0 -0.0109492928
C  C17  1  0.17360000  0.27570000  0.84050000  1.0 0.5469234492
C  C18  1  0.82640000  0.77570000  0.65950000  1.0 0.5469234492
C  C19  1  0.82640000  0.72430000  0.15950000  1.0 0.5469234492
C  C20  1  0.17360000  0.22430000  0.34050000  1.0 0.5469234492
C  C21  1  0.11970000  0.39160000  0.93060000  1.0 -0.1678968117
C  C22  1  0.88030000  0.89160000  0.56940000  1.0 -0.1678968117
C  C23  1  0.88030000  0.60840000  0.06940000  1.0 -0.1678968117
C  C24  1  0.11970000  0.10840000  0.43060000  1.0 -0.1678968117
C  C25  1  0.17930000  0.44610000  0.00440000  1.0 0.1578592175
C  C26  1  0.82070000  0.94610000  0.49560000  1.0 0.1578592175
C  C27  1  0.82070000  0.55390000  0.99560000  1.0 0.1578592175
C  C28  1  0.17930000  0.05390000  0.50440000  1.0 0.1547301701
C  C29  1  0.34540000  0.44680000  0.06430000  1.0 -0.1678968117
C  C30  1  0.65460000  0.94680000  0.43570000  1.0 -0.1678968117
C  C31  1  0.65460000  0.55320000  0.93570000  1.0 -0.1678968117
C  C32  1  0.34540000  0.05320000  0.56430000  1.0 -0.1678968117
C  C33  1  0.14160000  0.58040000  0.35360000  1.0 0.0725826351
C  C34  1  0.85840000  0.08040000  0.14640000  1.0 0.0725826351
C  C35  1  0.85840000  0.41960000  0.64640000  1.0 0.0725826351
C  C36  1  0.14160000  0.91960000  0.85360000  1.0 0.0725826351
C  C37  1  0.96000000  0.24350000  0.05330000  1.0 0.0725826351
C  C38  1  0.04000000  0.74350000  0.44670000  1.0 0.0725826351
C  C39  1  0.04000000  0.75650000  0.94670000  1.0 0.0725826351
C  C40  1  0.96000000  0.25650000  0.55330000  1.0 0.0725826351
C  C41  1  0.23210000  0.48380000  0.29120000  1.0 0.0866097762
C  C42  1  0.76790000  0.98380000  0.20880000  1.0 0.0866097762
C  C43  1  0.76790000  0.51620000  0.70880000  1.0 0.0866097762
C  C44  1  0.23210000  0.01620000  0.79120000  1.0 0.0866097762
C  C45  1  0.49780000  0.55700000  0.49560000  1.0 -0.1961334804
C  C46  1  0.50220000  0.05700000  0.00440000  1.0 -0.1961334804
C  C47  1  0.50220000  0.44300000  0.50440000  1.0 -0.1961334804
C  C48  1  0.49780000  0.94300000  0.99560000  1.0 -0.1961334804
C  C49  1  0.44090000  0.59390000  0.40870000  1.0 -0.1261998964
C  C50  1  0.55910000  0.09390000  0.09130000  1.0 -0.1261998964
C  C51  1  0.55910000  0.40610000  0.59130000  1.0 -0.1261998964
C  C52  1  0.44090000  0.90610000  0.90870000  1.0 -0.1261998964
C  C53  1  0.21040000  0.25300000  0.14790000  1.0 0.1578592175
C  C54  1  0.78960000  0.75300000  0.35210000  1.0 0.1578592175
C  C55  1  0.78960000  0.74700000  0.85210000  1.0 0.1578592175
C  C56  1  0.21040000  0.24700000  0.64790000  1.0 0.1578592175
C  C57  1  0.99380000  0.13350000  0.95490000  1.0 -0.1540802167
C  C58  1  0.00620000  0.63350000  0.54510000  1.0 -0.1540802167
C  C59  1  0.00620000  0.86650000  0.04510000  1.0 -0.1540802167
C  C60  1  0.99380000  0.36650000  0.45490000  1.0 -0.1540802167
C  C61  1  0.94160000  0.03030000  0.96760000  1.0 -0.1871776515
C  C62  1  0.05840000  0.53030000  0.53240000  1.0 -0.1871776515
C  C63  1  0.05840000  0.96970000  0.03240000  1.0 -0.1871776515
C  C64  1  0.94160000  0.46970000  0.46760000  1.0 -0.1871776515
N  N1  1  0.01960000  0.52570000  0.29580000  1.0 -0.1396216982
N  N2  1  0.98040000  0.02570000  0.20420000  1.0 -0.1396216982
N  N3  1  0.98040000  0.47430000  0.70420000  1.0 -0.1396216982
N  N4  1  0.01960000  0.97430000  0.79580000  1.0 -0.1396216982
N  N5  1  0.05750000  0.28090000  0.12860000  1.0 -0.3190152728
N  N6  1  0.94250000  0.78090000  0.37140000  1.0 -0.3190152728
N  N7  1  0.94250000  0.71910000  0.87140000  1.0 -0.3190152728
N  N8  1  0.05750000  0.21910000  0.62860000  1.0 -0.3190152728
N  N9  1  0.05040000  0.19580000  0.02830000  1.0 0.1578592175
N  N10  1  0.94960000  0.69580000  0.47170000  1.0 0.1578592175
N  N11  1  0.94960000  0.80420000  0.97170000  1.0 0.1578592175
N  N12  1  0.05040000  0.30420000  0.52830000  1.0 0.1578592175
N  N13  1  0.07170000  0.46230000  0.25550000  1.0 -0.1793913328
N  N14  1  0.92830000  0.96230000  0.24450000  1.0 -0.1793913328
N  N15  1  0.92830000  0.53770000  0.74450000  1.0 -0.1793913328
N  N16  1  0.07170000  0.03770000  0.75550000  1.0 -0.1793913328
N  N17  1  0.07510000  0.50630000  0.02310000  1.0 -0.1243874682
N  N18  1  0.92490000  0.00630000  0.47690000  1.0 -0.1243874682
N  N19  1  0.92490000  0.49370000  0.97690000  1.0 -0.1243874682
N  N20  1  0.07510000  0.99370000  0.52310000  1.0 -0.1243874682
N  N21  1  0.27410000  0.55430000  0.34870000  1.0 0.0412261999
N  N22  1  0.72590000  0.05430000  0.15130000  1.0 0.0412261999
N  N23  1  0.72590000  0.44570000  0.65130000  1.0 0.0412261999
N  N24  1  0.27410000  0.94570000  0.84870000  1.0 0.0412261999
N  N25  1  0.21230000  0.20120000  0.08900000  1.0 -0.2480594972
N  N26  1  0.78770000  0.70120000  0.41100000  1.0 -0.2480594972
N  N27  1  0.78770000  0.79880000  0.91100000  1.0 -0.2480594972
N  N28  1  0.21230000  0.29880000  0.58900000  1.0 -0.2480594972
O  O1  1  0.73410000  0.33730000  0.10850000  1.0 -0.5603066493
O  O2  1  0.26590000  0.83730000  0.39150000  1.0 -0.5603066493
O  O3  1  0.26590000  0.66270000  0.89150000  1.0 -0.5603066493
O  O4  1  0.73410000  0.16270000  0.60850000  1.0 -0.5603066493
O  O5  1  0.01690000  0.25910000  0.79400000  1.0 -0.5603066493
O  O6  1  0.98310000  0.75910000  0.70600000  1.0 -0.5603066493
O  O7  1  0.98310000  0.74090000  0.20600000  1.0 -0.5603066493
O  O8  1  0.01690000  0.24090000  0.29400000  1.0 -0.5603066493
O  O9  1  0.27670000  0.24190000  0.82530000  1.0 -0.5603066493
O  O10  1  0.72330000  0.74190000  0.67470000  1.0 -0.5603066493
O  O11  1  0.72330000  0.75810000  0.17470000  1.0 -0.5603066493
O  O12  1  0.27670000  0.25810000  0.32530000  1.0 -0.5603066493
O  O13  1  0.68290000  0.42730000  0.19040000  1.0 -0.5146124968
O  O14  1  0.31710000  0.92730000  0.30960000  1.0 -0.5146124968
O  O15  1  0.31710000  0.57270000  0.80960000  1.0 -0.5146124968
O  O16  1  0.68290000  0.07270000  0.69040000  1.0 -0.5146124968
