# DDEC6 charges by PACMAN v1.1 (https://github.com/mtap-research/PACMAN-charge/)
data_EDATOT_ASR_pacman
_symmetry_space_group_name_H-M   'P 1'
_cell_length_a   21.01000000
_cell_length_b   15.98800000
_cell_length_c   30.30400000
_cell_angle_alpha   90.00000000
_cell_angle_beta   133.55300000
_cell_angle_gamma   90.00000000
_symmetry_Int_Tables_number   1
_chemical_formula_structural   MnCr(CO2)6
_chemical_formula_sum   'Mn8 Cr8 C48 O96'
_cell_volume   7377.35653286
_cell_formula_units_Z   8
loop_
 _symmetry_equiv_pos_site_id
 _symmetry_equiv_pos_as_xyz
  1  'x, y, z'
loop_
 _atom_site_type_symbol
 _atom_site_label
 _atom_site_symmetry_multiplicity
 _atom_site_fract_x
 _atom_site_fract_y
 _atom_site_fract_z
 _atom_site_occupancy
 _atom_site_charge
Mn  Mn1  1  0.62415000  0.51540000  0.75532000  1.0 0.9831722235
Mn  Mn2  1  0.37585000  0.01540000  0.74468000  1.0 0.9831722235
Mn  Mn3  1  0.37585000  0.48460000  0.24468000  1.0 0.9831722235
Mn  Mn4  1  0.62415000  0.98460000  0.25532000  1.0 0.9831722235
Mn  Mn5  1  0.13256000  0.75120000  0.87387000  1.0 1.0081205523
Mn  Mn6  1  0.86744000  0.25120000  0.62613000  1.0 1.0081205523
Mn  Mn7  1  0.86744000  0.24880000  0.12613000  1.0 1.0081205523
Mn  Mn8  1  0.13256000  0.74880000  0.37387000  1.0 1.0081205523
Cr  Cr1  1  0.87877000  0.50670000  0.75211000  1.0 1.2000909602
Cr  Cr2  1  0.12123000  0.00670000  0.74789000  1.0 1.2000909602
Cr  Cr3  1  0.12123000  0.49330000  0.24789000  1.0 1.2000909602
Cr  Cr4  1  0.87877000  0.99330000  0.25211000  1.0 1.2000909602
Cr  Cr5  1  0.37551000  0.76192000  0.62278000  1.0 1.1930813646
Cr  Cr6  1  0.62449000  0.26192000  0.87722000  1.0 1.2086634095
Cr  Cr7  1  0.62449000  0.23808000  0.37722000  1.0 1.2086634095
Cr  Cr8  1  0.37551000  0.73808000  0.12278000  1.0 1.2086634095
C  C1  1  0.96190000  0.65490000  0.78840000  1.0 0.5404060339
C  C2  1  0.03810000  0.15490000  0.71160000  1.0 0.5404060339
C  C3  1  0.03810000  0.34510000  0.21160000  1.0 0.5404060339
C  C4  1  0.96190000  0.84510000  0.28840000  1.0 0.5404060339
C  C5  1  0.03670000  0.59270000  0.82410000  1.0 0.5469382262
C  C6  1  0.96330000  0.09270000  0.67590000  1.0 0.5469382262
C  C7  1  0.96330000  0.40730000  0.17590000  1.0 0.5469382262
C  C8  1  0.03670000  0.90730000  0.32410000  1.0 0.5469382262
C  C9  1  0.87420000  0.35200000  0.71400000  1.0 0.5603945633
C  C10  1  0.12580000  0.85200000  0.78600000  1.0 0.5603945633
C  C11  1  0.12580000  0.64800000  0.28600000  1.0 0.5603945633
C  C12  1  0.87420000  0.14800000  0.21400000  1.0 0.5603945633
C  C13  1  0.87180000  0.41380000  0.67340000  1.0 0.5603945633
C  C14  1  0.12820000  0.91380000  0.82660000  1.0 0.5603945633
C  C15  1  0.12820000  0.58620000  0.32660000  1.0 0.5603945633
C  C16  1  0.87180000  0.08620000  0.17340000  1.0 0.5603945633
C  C17  1  0.72190000  0.51400000  0.72090000  1.0 0.4787424808
C  C18  1  0.27810000  0.01400000  0.77910000  1.0 0.4787424808
C  C19  1  0.27810000  0.48600000  0.27910000  1.0 0.4787424808
C  C20  1  0.72190000  0.98600000  0.22090000  1.0 0.4787424808
C  C21  1  0.78470000  0.52030000  0.78750000  1.0 0.4697341999
C  C22  1  0.21530000  0.02030000  0.71250000  1.0 0.4697341999
C  C23  1  0.21530000  0.47970000  0.21250000  1.0 0.4697341999
C  C24  1  0.78470000  0.97970000  0.28750000  1.0 0.4697341999
C  C25  1  0.45440000  0.60110000  0.66800000  1.0 0.5926518446
C  C26  1  0.54560000  0.10110000  0.83200000  1.0 0.5926518446
C  C27  1  0.54560000  0.39890000  0.33200000  1.0 0.5926518446
C  C28  1  0.45440000  0.89890000  0.16800000  1.0 0.5926518446
C  C29  1  0.53500000  0.68000000  0.70850000  1.0 0.6011900609
C  C30  1  0.46500000  0.18000000  0.79150000  1.0 0.6011900609
C  C31  1  0.46500000  0.32000000  0.29150000  1.0 0.6011900609
C  C32  1  0.53500000  0.82000000  0.20850000  1.0 0.6011900609
C  C33  1  0.62800000  0.41730000  0.83770000  1.0 0.4787424808
C  C34  1  0.37200000  0.91730000  0.66230000  1.0 0.4787424808
C  C35  1  0.37200000  0.58270000  0.16230000  1.0 0.4787424808
C  C36  1  0.62800000  0.08270000  0.33770000  1.0 0.4787424808
C  C37  1  0.62600000  0.35580000  0.80100000  1.0 0.4697341999
C  C38  1  0.37400000  0.85580000  0.69900000  1.0 0.4697341999
C  C39  1  0.37400000  0.64420000  0.19900000  1.0 0.4697341999
C  C40  1  0.62600000  0.14420000  0.30100000  1.0 0.4697341999
C  C41  1  0.29260000  0.74210000  0.00490000  1.0 0.4314309811
C  C42  1  0.70740000  0.24210000  0.49510000  1.0 0.4314309811
C  C43  1  0.70740000  0.25790000  0.99510000  1.0 0.4314309811
C  C44  1  0.29260000  0.75790000  0.50490000  1.0 0.4314309811
C  C45  1  0.22220000  0.74130000  0.00210000  1.0 0.4388080692
C  C46  1  0.77780000  0.24130000  0.49790000  1.0 0.4388080692
C  C47  1  0.77780000  0.25870000  0.99790000  1.0 0.4388080692
C  C48  1  0.22220000  0.75870000  0.50210000  1.0 0.4388080692
O  O1  1  0.00560000  0.51810000  0.81240000  1.0 -0.5374438906
O  O2  1  0.99440000  0.01810000  0.68760000  1.0 -0.5374438906
O  O3  1  0.99440000  0.48190000  0.18760000  1.0 -0.5374438906
O  O4  1  0.00560000  0.98190000  0.31240000  1.0 -0.5374438906
O  O5  1  0.88890000  0.63230000  0.75380000  1.0 -0.4502627451
O  O6  1  0.11110000  0.13230000  0.74620000  1.0 -0.4502627451
O  O7  1  0.11110000  0.36770000  0.24620000  1.0 -0.4502627451
O  O8  1  0.88890000  0.86770000  0.25380000  1.0 -0.4555353666
O  O9  1  0.99340000  0.72830000  0.80790000  1.0 -0.4196815597
O  O10  1  0.00660000  0.22830000  0.69210000  1.0 -0.4196815597
O  O11  1  0.00660000  0.27170000  0.19210000  1.0 -0.4196815597
O  O12  1  0.99340000  0.77170000  0.30790000  1.0 -0.4196815597
O  O13  1  0.11280000  0.61410000  0.85790000  1.0 -0.3511434341
O  O14  1  0.88720000  0.11410000  0.64210000  1.0 -0.3511434341
O  O15  1  0.88720000  0.38590000  0.14210000  1.0 -0.3511434341
O  O16  1  0.11280000  0.88590000  0.35790000  1.0 -0.3511434341
O  O17  1  0.88100000  0.38430000  0.75080000  1.0 -0.4502627451
O  O18  1  0.11900000  0.88430000  0.74920000  1.0 -0.4502627451
O  O19  1  0.11900000  0.61570000  0.24920000  1.0 -0.4502627451
O  O20  1  0.88100000  0.11570000  0.25080000  1.0 -0.4502627451
O  O21  1  0.87570000  0.48300000  0.68440000  1.0 -0.4418172906
O  O22  1  0.12430000  0.98300000  0.81560000  1.0 -0.4418172906
O  O23  1  0.12430000  0.51700000  0.31560000  1.0 -0.4418172906
O  O24  1  0.87570000  0.01700000  0.18440000  1.0 -0.4418172906
O  O25  1  0.86440000  0.27550000  0.69660000  1.0 -0.4502627451
O  O26  1  0.13560000  0.77550000  0.80340000  1.0 -0.4502627451
O  O27  1  0.13560000  0.72450000  0.30340000  1.0 -0.4502627451
O  O28  1  0.86440000  0.22450000  0.19660000  1.0 -0.4502627451
O  O29  1  0.87160000  0.38740000  0.63360000  1.0 -0.3872453938
O  O30  1  0.12840000  0.88740000  0.86640000  1.0 -0.3872453938
O  O31  1  0.12840000  0.61260000  0.36640000  1.0 -0.3872453938
O  O32  1  0.87160000  0.11260000  0.13360000  1.0 -0.3872453938
O  O33  1  0.75090000  0.51530000  0.69510000  1.0 -0.5218163674
O  O34  1  0.24910000  0.01530000  0.80490000  1.0 -0.5218163674
O  O35  1  0.24910000  0.48470000  0.30490000  1.0 -0.5286813641
O  O36  1  0.75090000  0.98470000  0.19510000  1.0 -0.5286813641
O  O37  1  0.86450000  0.51410000  0.80630000  1.0 -0.5138868386
O  O38  1  0.13550000  0.01410000  0.69370000  1.0 -0.5138868386
O  O39  1  0.13550000  0.48590000  0.19370000  1.0 -0.5138868386
O  O40  1  0.86450000  0.98590000  0.30630000  1.0 -0.5138868386
O  O41  1  0.63930000  0.51330000  0.69190000  1.0 -0.4196815597
O  O42  1  0.36070000  0.01330000  0.80810000  1.0 -0.4196815597
O  O43  1  0.36070000  0.48670000  0.30810000  1.0 -0.4196815597
O  O44  1  0.63930000  0.98670000  0.19190000  1.0 -0.4196815597
O  O45  1  0.76750000  0.52700000  0.81840000  1.0 -0.3405299976
O  O46  1  0.23250000  0.02700000  0.68160000  1.0 -0.3405299976
O  O47  1  0.23250000  0.47300000  0.18160000  1.0 -0.3405299976
O  O48  1  0.76750000  0.97300000  0.31840000  1.0 -0.3405299976
O  O49  1  0.38090000  0.63650000  0.62910000  1.0 -0.5286813641
O  O50  1  0.61910000  0.13650000  0.87090000  1.0 -0.5286813641
O  O51  1  0.61910000  0.36350000  0.37090000  1.0 -0.5286813641
O  O52  1  0.38090000  0.86350000  0.12910000  1.0 -0.5286813641
O  O53  1  0.50530000  0.75210000  0.68920000  1.0 -0.5005227471
O  O54  1  0.49470000  0.25210000  0.81080000  1.0 -0.5005227471
O  O55  1  0.49470000  0.24790000  0.31080000  1.0 -0.5005227471
O  O56  1  0.50530000  0.74790000  0.18920000  1.0 -0.5005227471
O  O57  1  0.48180000  0.53450000  0.68270000  1.0 -0.2894156942
O  O58  1  0.51820000  0.03450000  0.81730000  1.0 -0.2894156942
O  O59  1  0.51820000  0.46550000  0.31730000  1.0 -0.2894156942
O  O60  1  0.48180000  0.96550000  0.18270000  1.0 -0.2894156942
O  O61  1  0.61020000  0.65550000  0.75280000  1.0 -0.3346813465
O  O62  1  0.38980000  0.15550000  0.74720000  1.0 -0.3405299976
O  O63  1  0.38980000  0.34450000  0.24720000  1.0 -0.3405299976
O  O64  1  0.61020000  0.84450000  0.25280000  1.0 -0.3346813465
O  O65  1  0.61950000  0.38260000  0.87310000  1.0 -0.5286813641
O  O66  1  0.38050000  0.88260000  0.62690000  1.0 -0.5286813641
O  O67  1  0.38050000  0.61740000  0.12690000  1.0 -0.5286813641
O  O68  1  0.61950000  0.11740000  0.37310000  1.0 -0.5286813641
O  O69  1  0.63250000  0.27940000  0.81620000  1.0 -0.5218163674
O  O70  1  0.36750000  0.77940000  0.68380000  1.0 -0.5218163674
O  O71  1  0.36750000  0.72060000  0.18380000  1.0 -0.5218163674
O  O72  1  0.63250000  0.22060000  0.31620000  1.0 -0.5218163674
O  O73  1  0.62790000  0.49640000  0.83050000  1.0 -0.4004812001
O  O74  1  0.37210000  0.99640000  0.66950000  1.0 -0.4004812001
O  O75  1  0.37210000  0.50360000  0.16950000  1.0 -0.4004812001
O  O76  1  0.62790000  0.00360000  0.33050000  1.0 -0.4004812001
O  O77  1  0.62240000  0.37640000  0.76070000  1.0 -0.3684952998
O  O78  1  0.37760000  0.87640000  0.73930000  1.0 -0.3684952998
O  O79  1  0.37760000  0.62360000  0.23930000  1.0 -0.3684952998
O  O80  1  0.62240000  0.12360000  0.26070000  1.0 -0.3684952998
O  O81  1  0.37040000  0.74470000  0.05610000  1.0 -0.4907863432
O  O82  1  0.62960000  0.24470000  0.44390000  1.0 -0.4907863432
O  O83  1  0.62960000  0.25530000  0.94390000  1.0 -0.4907863432
O  O84  1  0.37040000  0.75530000  0.55610000  1.0 -0.4907863432
O  O85  1  0.27530000  0.74080000  0.95440000  1.0 -0.4073315346
O  O86  1  0.72470000  0.24080000  0.54560000  1.0 -0.4073315346
O  O87  1  0.72470000  0.25920000  0.04560000  1.0 -0.4073315346
O  O88  1  0.27530000  0.75920000  0.45440000  1.0 -0.4073315346
O  O89  1  0.25090000  0.74050000  0.05580000  1.0 -0.5005227471
O  O90  1  0.74910000  0.24050000  0.44420000  1.0 -0.5005227471
O  O91  1  0.74910000  0.25950000  0.94420000  1.0 -0.5005227471
O  O92  1  0.25090000  0.75950000  0.55580000  1.0 -0.5005227471
O  O93  1  0.14190000  0.74640000  0.95000000  1.0 -0.4004812001
O  O94  1  0.85810000  0.24640000  0.55000000  1.0 -0.4073315346
O  O95  1  0.85810000  0.25360000  0.05000000  1.0 -0.4004812001
O  O96  1  0.14190000  0.75360000  0.45000000  1.0 -0.4004812001
