# DDEC6 charges by PACMAN v1.1 (https://github.com/mtap-research/PACMAN-charge/)
data_EDECOG_ASR_pacman
_symmetry_space_group_name_H-M   'P 1'
_cell_length_a   20.27850000
_cell_length_b   20.27850000
_cell_length_c   20.27850000
_cell_angle_alpha   109.06800000
_cell_angle_beta   109.06800000
_cell_angle_gamma   110.28100000
_symmetry_Int_Tables_number   1
_chemical_formula_structural   NiAu3(CN)6
_chemical_formula_sum   'Ni8 Au24 C48 N48'
_cell_volume   6418.28311677
_cell_formula_units_Z   8
loop_
 _symmetry_equiv_pos_site_id
 _symmetry_equiv_pos_as_xyz
  1  'x, y, z'
loop_
 _atom_site_type_symbol
 _atom_site_label
 _atom_site_symmetry_multiplicity
 _atom_site_fract_x
 _atom_site_fract_y
 _atom_site_fract_z
 _atom_site_occupancy
 _atom_site_charge
Ni  Ni1  1  0.14110000  0.87969000  0.74259000  1.0 0.9579439127
Ni  Ni2  1  0.64851000  0.89110000  0.76141000  1.0 0.9579439127
Ni  Ni3  1  0.13710000  0.39851000  0.25741000  1.0 0.9579439127
Ni  Ni4  1  0.12969000  0.88710000  0.23859000  1.0 0.9579439127
Ni  Ni5  1  0.63710000  0.37969000  0.73859000  1.0 0.9579439127
Ni  Ni6  1  0.62969000  0.39110000  0.24259000  1.0 0.9579439127
Ni  Ni7  1  0.64110000  0.89851000  0.26141000  1.0 0.9579439127
Ni  Ni8  1  0.14851000  0.38710000  0.75741000  1.0 0.9579439127
Au  Au1  1  0.14154000  0.91653000  0.50467000  1.0 -0.0481948339
Au  Au2  1  0.88687000  0.89154000  0.72501000  1.0 -0.0481948339
Au  Au3  1  0.41186000  0.63687000  0.49533000  1.0 -0.0481948339
Au  Au4  1  0.16653000  0.16186000  0.27499000  1.0 -0.0481948339
Au  Au5  1  0.91186000  0.41653000  0.77499000  1.0 -0.0481948339
Au  Au6  1  0.66653000  0.39154000  0.00467000  1.0 -0.0481948339
Au  Au7  1  0.64154000  0.13687000  0.22501000  1.0 -0.0481948339
Au  Au8  1  0.38687000  0.66186000  0.99533000  1.0 -0.0481948339
Au  Au9  1  0.12986000  0.83453000  0.97359000  1.0 -0.036825711
Au  Au10  1  0.40627000  0.87986000  0.79533000  1.0 -0.036825711
Au  Au11  1  0.86094000  0.15627000  0.02641000  1.0 -0.036825711
Au  Au12  1  0.08453000  0.61094000  0.20467000  1.0 -0.0342648082
Au  Au13  1  0.36094000  0.33453000  0.70467000  1.0 -0.036825711
Au  Au14  1  0.58453000  0.37986000  0.47359000  1.0 -0.036825711
Au  Au15  1  0.62986000  0.65627000  0.29533000  1.0 -0.036825711
Au  Au16  1  0.90627000  0.11094000  0.52641000  1.0 -0.036825711
Au  Au17  1  0.91169000  0.61096000  0.48905000  1.0 -0.036825711
Au  Au18  1  0.67264000  0.66169000  0.80073000  1.0 -0.0342648082
Au  Au19  1  0.12191000  0.42264000  0.51095000  1.0 -0.0342648082
Au  Au20  1  0.86096000  0.87191000  0.19927000  1.0 -0.036825711
Au  Au21  1  0.62191000  0.11096000  0.69927000  1.0 -0.0342648082
Au  Au22  1  0.36096000  0.16169000  0.98905000  1.0 -0.0342648082
Au  Au23  1  0.41169000  0.92264000  0.30073000  1.0 -0.0342648082
Au  Au24  1  0.17264000  0.37191000  0.01095000  1.0 -0.0342648082
C  C1  1  0.14250000  0.91020000  0.59990000  1.0 0.2280827948
C  C2  1  0.79260000  0.89250000  0.73230000  1.0 0.2280827948
C  C3  1  0.31030000  0.54260000  0.40010000  1.0 0.2280827948
C  C4  1  0.16020000  0.06030000  0.26770000  1.0 0.2280827948
C  C5  1  0.81030000  0.41020000  0.76770000  1.0 0.2280827948
C  C6  1  0.66020000  0.39250000  0.09990000  1.0 0.2280827948
C  C7  1  0.64250000  0.04260000  0.23230000  1.0 0.2280827948
C  C8  1  0.29260000  0.56030000  0.90010000  1.0 0.2280827948
C  C9  1  0.12930000  0.83360000  0.87750000  1.0 0.2500779093
C  C10  1  0.50180000  0.87930000  0.79570000  1.0 0.2500779093
C  C11  1  0.95610000  0.25180000  0.12250000  1.0 0.2500779093
C  C12  1  0.08360000  0.70610000  0.20430000  1.0 0.2500779093
C  C13  1  0.45610000  0.33360000  0.70430000  1.0 0.2500779093
C  C14  1  0.58360000  0.37930000  0.37750000  1.0 0.2500779093
C  C15  1  0.62930000  0.75180000  0.29570000  1.0 0.2500779093
C  C16  1  0.00180000  0.20610000  0.62250000  1.0 0.2500779093
C  C17  1  0.01030000  0.70290000  0.58940000  1.0 0.2583001368
C  C18  1  0.67090000  0.76030000  0.80740000  1.0 0.2583001368
C  C19  1  0.11350000  0.42090000  0.41060000  1.0 0.2583001368
C  C20  1  0.95290000  0.86350000  0.19260000  1.0 0.2583001368
C  C21  1  0.61350000  0.20290000  0.69260000  1.0 0.2583001368
C  C22  1  0.45290000  0.26030000  0.08940000  1.0 0.2583001368
C  C23  1  0.51030000  0.92090000  0.30740000  1.0 0.2583001368
C  C24  1  0.17090000  0.36350000  0.91060000  1.0 0.2583001368
C  C25  1  0.26900000  0.05650000  0.89250000  1.0 0.2435269916
C  C26  1  0.62650000  0.01900000  0.71250000  1.0 0.2435269916
C  C27  1  0.16400000  0.37650000  0.10750000  1.0 0.2500779093
C  C28  1  0.30650000  0.91400000  0.28750000  1.0 0.2500779093
C  C29  1  0.66400000  0.55650000  0.78750000  1.0 0.2435269916
C  C30  1  0.80650000  0.51900000  0.39250000  1.0 0.2500779093
C  C31  1  0.76900000  0.87650000  0.21250000  1.0 0.2500779093
C  C32  1  0.12650000  0.41400000  0.60750000  1.0 0.2435269916
C  C33  1  0.30160000  0.87370000  0.78130000  1.0 0.2500779093
C  C34  1  0.77030000  0.05160000  0.92790000  1.0 0.2500779093
C  C35  1  0.09240000  0.52030000  0.21870000  1.0 0.2500779093
C  C36  1  0.12370000  0.84240000  0.07210000  1.0 0.2500779093
C  C37  1  0.59240000  0.37370000  0.57210000  1.0 0.2500779093
C  C38  1  0.62370000  0.55160000  0.28130000  1.0 0.2500779093
C  C39  1  0.80160000  0.02030000  0.42790000  1.0 0.2500779093
C  C40  1  0.27030000  0.34240000  0.71870000  1.0 0.2500779093
C  C41  1  0.98040000  0.88570000  0.72690000  1.0 0.2875348256
C  C42  1  0.50350000  0.73040000  0.59470000  1.0 0.2875348256
C  C43  1  0.15880000  0.25350000  0.27310000  1.0 0.2875348256
C  C44  1  0.13570000  0.90880000  0.40530000  1.0 0.2875348256
C  C45  1  0.65880000  0.38570000  0.90530000  1.0 0.2875348256
C  C46  1  0.63570000  0.23040000  0.22690000  1.0 0.2875348256
C  C47  1  0.48040000  0.75350000  0.09470000  1.0 0.2875348256
C  C48  1  0.00350000  0.40880000  0.77310000  1.0 0.2875348256
N  N1  1  0.14600000  0.90840000  0.65740000  1.0 -0.3901046123
N  N2  1  0.73860000  0.89600000  0.73760000  1.0 -0.3901046123
N  N3  1  0.25100000  0.48860000  0.34260000  1.0 -0.3901046123
N  N4  1  0.15840000  0.00100000  0.26240000  1.0 -0.3901046123
N  N5  1  0.75100000  0.40840000  0.76240000  1.0 -0.3901046123
N  N6  1  0.65840000  0.39600000  0.15740000  1.0 -0.3901046123
N  N7  1  0.64600000  0.98860000  0.23760000  1.0 -0.3901046123
N  N8  1  0.23860000  0.50100000  0.84260000  1.0 -0.3901046123
N  N9  1  0.13330000  0.84490000  0.82640000  1.0 -0.370800006
N  N10  1  0.55690000  0.88330000  0.78840000  1.0 -0.370800006
N  N11  1  0.01850000  0.30690000  0.17360000  1.0 -0.370800006
N  N12  1  0.09490000  0.76850000  0.21160000  1.0 -0.370800006
N  N13  1  0.51850000  0.34490000  0.71160000  1.0 -0.370800006
N  N14  1  0.59490000  0.38330000  0.32640000  1.0 -0.370800006
N  N15  1  0.63330000  0.80690000  0.28840000  1.0 -0.370800006
N  N16  1  0.05690000  0.26850000  0.67360000  1.0 -0.370800006
N  N17  1  0.06400000  0.76220000  0.64840000  1.0 -0.3901046123
N  N18  1  0.66560000  0.81400000  0.80180000  1.0 -0.3901046123
N  N19  1  0.11380000  0.41560000  0.35160000  1.0 -0.3901046123
N  N20  1  0.01220000  0.86380000  0.19820000  1.0 -0.3901046123
N  N21  1  0.61380000  0.26220000  0.69820000  1.0 -0.3901046123
N  N22  1  0.51220000  0.31400000  0.14840000  1.0 -0.3901046123
N  N23  1  0.56400000  0.91560000  0.30180000  1.0 -0.3901046123
N  N24  1  0.16560000  0.36380000  0.85160000  1.0 -0.3901046123
N  N25  1  0.21820000  0.99780000  0.83560000  1.0 -0.3804459027
N  N26  1  0.63260000  0.96820000  0.72040000  1.0 -0.3804459027
N  N27  1  0.16220000  0.38260000  0.16440000  1.0 -0.3804459027
N  N28  1  0.24780000  0.91220000  0.27960000  1.0 -0.3804459027
N  N29  1  0.66220000  0.49780000  0.77960000  1.0 -0.3804459027
N  N30  1  0.74780000  0.46820000  0.33560000  1.0 -0.3804459027
N  N31  1  0.71820000  0.88260000  0.22040000  1.0 -0.3804459027
N  N32  1  0.13260000  0.41220000  0.66440000  1.0 -0.3804459027
N  N33  1  0.24160000  0.86950000  0.76230000  1.0 -0.370800006
N  N34  1  0.72930000  0.99160000  0.87210000  1.0 -0.370800006
N  N35  1  0.10720000  0.47930000  0.23770000  1.0 -0.3804459027
N  N36  1  0.11950000  0.85720000  0.12790000  1.0 -0.3804459027
N  N37  1  0.60720000  0.36950000  0.62790000  1.0 -0.370800006
N  N38  1  0.61950000  0.49160000  0.26230000  1.0 -0.370800006
N  N39  1  0.74160000  0.97930000  0.37210000  1.0 -0.370800006
N  N40  1  0.22930000  0.35720000  0.73770000  1.0 -0.370800006
N  N41  1  0.04070000  0.88510000  0.72680000  1.0 -0.454299427
N  N42  1  0.56390000  0.79070000  0.65560000  1.0 -0.454299427
N  N43  1  0.15830000  0.31390000  0.27320000  1.0 -0.454299427
N  N44  1  0.13510000  0.90830000  0.34440000  1.0 -0.4562868885
N  N45  1  0.65830000  0.38510000  0.84440000  1.0 -0.454299427
N  N46  1  0.63510000  0.29070000  0.22680000  1.0 -0.454299427
N  N47  1  0.54070000  0.81390000  0.15560000  1.0 -0.454299427
N  N48  1  0.06390000  0.40830000  0.77320000  1.0 -0.454299427
