# DDEC6 charges by PACMAN v1.1 (https://github.com/mtap-research/PACMAN-charge/)
data_EDIKEH_ion_pacman
_symmetry_space_group_name_H-M   'P 1'
_cell_length_a   8.22930000
_cell_length_b   9.73860000
_cell_length_c   9.75430000
_cell_angle_alpha   119.25900000
_cell_angle_beta   107.64300000
_cell_angle_gamma   84.66600000
_symmetry_Int_Tables_number   1
_chemical_formula_structural   YH10C7NO9
_chemical_formula_sum   'Y2 H20 C14 N2 O18'
_cell_volume   648.48293973
_cell_formula_units_Z   2
loop_
 _symmetry_equiv_pos_site_id
 _symmetry_equiv_pos_as_xyz
  1  'x, y, z'
loop_
 _atom_site_type_symbol
 _atom_site_label
 _atom_site_symmetry_multiplicity
 _atom_site_fract_x
 _atom_site_fract_y
 _atom_site_fract_z
 _atom_site_occupancy
 _atom_site_charge
Y  Y1  1  0.32960000  0.15870000  0.78680000  1.0 1.6772193626
Y  Y2  1  0.67040000  0.84130000  0.21320000  1.0 1.6772193626
H  H1  1  0.07900000  0.28100000  0.98300000  1.0 0.3307205157
H  H2  1  0.92100000  0.71900000  0.01700000  1.0 0.3307205157
H  H3  1  0.05890000  0.32510000  0.87180000  1.0 0.305775793
H  H4  1  0.94110000  0.67490000  0.12820000  1.0 0.305775793
H  H5  1  0.00780000  0.59190000  0.71590000  1.0 0.2863366918
H  H6  1  0.99220000  0.40810000  0.28410000  1.0 0.2863366918
H  H7  1  0.02460000  0.74000000  0.71720000  1.0 0.305775793
H  H8  1  0.97540000  0.26000000  0.28280000  1.0 0.305775793
H  H9  1  0.17700000  0.63050000  0.52950000  1.0 0.1319445201
H  H10  1  0.82300000  0.36950000  0.47050000  1.0 0.1319445201
H  H11  1  0.26900000  0.60570000  0.68140000  1.0 0.1407154814
H  H12  1  0.73100000  0.39430000  0.31860000  1.0 0.1407154814
H  H13  1  0.85600000  0.64160000  0.45400000  1.0 0.1113927305
H  H14  1  0.14400000  0.35840000  0.54600000  1.0 0.1113927305
H  H15  1  0.71630000  0.76230000  0.65180000  1.0 0.1582261228
H  H16  1  0.28370000  0.23770000  0.34820000  1.0 0.1582261228
H  H17  1  0.59850000  0.62530000  0.49060000  1.0 0.1582261228
H  H18  1  0.40150000  0.37470000  0.50940000  1.0 0.1582261228
H  H19  1  0.68870000  0.60050000  0.64260000  1.0 0.1319445201
H  H20  1  0.31130000  0.39950000  0.35740000  1.0 0.1319445201
C  C1  1  0.55700000  0.07650000  0.54110000  1.0 0.4898800419
C  C2  1  0.44300000  0.92350000  0.45890000  1.0 0.4898800419
C  C3  1  0.42710000  0.02400000  0.03920000  1.0 0.4898800419
C  C4  1  0.57290000  0.97600000  0.96080000  1.0 0.4898800419
C  C5  1  0.00710000  0.05650000  0.46740000  1.0 0.4748670773
C  C6  1  0.99290000  0.94350000  0.53260000  1.0 0.4748670773
C  C7  1  0.55810000  0.47600000  0.06350000  1.0 0.4898800419
C  C8  1  0.44190000  0.52400000  0.93650000  1.0 0.4898800419
C  C9  1  0.16620000  0.57790000  0.58920000  1.0 -0.1475846155
C  C10  1  0.83380000  0.42210000  0.41080000  1.0 -0.1475846155
C  C11  1  0.84960000  0.59140000  0.51840000  1.0 0.1113927305
C  C12  1  0.15040000  0.40860000  0.48160000  1.0 0.1113927305
C  C13  1  0.70010000  0.65000000  0.58140000  1.0 -0.4650658055
C  C14  1  0.29990000  0.35000000  0.41860000  1.0 -0.4647592886
N  N1  1  0.01220000  0.63450000  0.65330000  1.0 -0.227784632
N  N2  1  0.98780000  0.36550000  0.34670000  1.0 -0.227784632
O  O1  1  0.30980000  0.09320000  0.98810000  1.0 -0.5408025666
O  O2  1  0.69020000  0.90680000  0.01190000  1.0 -0.5408025666
O  O3  1  0.53000000  0.33950000  0.03690000  1.0 -0.5632509772
O  O4  1  0.47000000  0.66050000  0.96310000  1.0 -0.5632509772
O  O5  1  0.11830000  0.17160000  0.56140000  1.0 -0.5632509772
O  O6  1  0.88170000  0.82840000  0.43860000  1.0 -0.5632509772
O  O7  1  0.43980000  0.99180000  0.15320000  1.0 -0.5408025666
O  O8  1  0.56020000  0.00820000  0.84680000  1.0 -0.5408025666
O  O9  1  0.53680000  0.18800000  0.67320000  1.0 -0.5504662975
O  O10  1  0.46320000  0.81200000  0.32680000  1.0 -0.5504662975
O  O11  1  0.91310000  0.02800000  0.32890000  1.0 -0.5504662975
O  O12  1  0.08690000  0.97200000  0.67110000  1.0 -0.5504662975
O  O13  1  0.67020000  0.57770000  0.18110000  1.0 -0.5408025666
O  O14  1  0.32980000  0.42230000  0.81890000  1.0 -0.5408025666
O  O15  1  0.11260000  0.30520000  0.91710000  1.0 -0.5632509772
O  O16  1  0.88740000  0.69480000  0.08290000  1.0 -0.5632509772
O  O17  1  0.65960000  0.07830000  0.47020000  1.0 -0.5408025666
O  O18  1  0.34040000  0.92170000  0.52980000  1.0 -0.5408025666
