# DDEC6 charges by PACMAN v1.1 (https://github.com/mtap-research/PACMAN-charge/)
data_EDOYOL_ASR_pacman
_symmetry_space_group_name_H-M   'P 1'
_cell_length_a   13.04690000
_cell_length_b   14.12600000
_cell_length_c   19.10440000
_cell_angle_alpha   90.00000000
_cell_angle_beta   131.95300000
_cell_angle_gamma   90.00000000
_symmetry_Int_Tables_number   1
_chemical_formula_structural   CoPO4
_chemical_formula_sum   'Co20 P20 O80'
_cell_volume   2618.50799524
_cell_formula_units_Z   20
loop_
 _symmetry_equiv_pos_site_id
 _symmetry_equiv_pos_as_xyz
  1  'x, y, z'
loop_
 _atom_site_type_symbol
 _atom_site_label
 _atom_site_symmetry_multiplicity
 _atom_site_fract_x
 _atom_site_fract_y
 _atom_site_fract_z
 _atom_site_occupancy
 _atom_site_charge
Co  Co1  1  0.03241000  0.12332000  0.26302000  1.0 1.2492462188
Co  Co2  1  0.03241000  0.87668000  0.76302000  1.0 1.2492462188
Co  Co3  1  0.37533000  0.99903000  0.31871000  1.0 1.2492462188
Co  Co4  1  0.37533000  0.00097000  0.81871000  1.0 1.2492462188
Co  Co5  1  0.04004000  0.87217000  0.28350000  1.0 1.2414377719
Co  Co6  1  0.04004000  0.12783000  0.78350000  1.0 1.2492462188
Co  Co7  1  0.51464000  0.00824000  0.67085000  1.0 1.2577640603
Co  Co8  1  0.51464000  0.99176000  0.17085000  1.0 1.2577640603
Co  Co9  1  0.79976000  0.02064000  0.41433000  1.0 1.2316506495
Co  Co10  1  0.79976000  0.97936000  0.91433000  1.0 1.2414377719
Co  Co11  1  0.57133000  0.62470000  0.31763000  1.0 1.2231828958
Co  Co12  1  0.57133000  0.37530000  0.81763000  1.0 1.2231828958
Co  Co13  1  0.52427000  0.37874000  0.30324000  1.0 1.2577640603
Co  Co14  1  0.52427000  0.62126000  0.80324000  1.0 1.2577640603
Co  Co15  1  0.21861000  0.53225000  0.27137000  1.0 1.2231828958
Co  Co16  1  0.21861000  0.46775000  0.77137000  1.0 1.2231828958
Co  Co17  1  0.07473000  0.48494000  0.41552000  1.0 1.2577640603
Co  Co18  1  0.07473000  0.51506000  0.91552000  1.0 1.2577640603
Co  Co19  1  0.79100000  0.48211000  0.16890000  1.0 1.2316506495
Co  Co20  1  0.79100000  0.51789000  0.66890000  1.0 1.2316506495
P  P1  1  0.04614000  0.98387000  0.14303000  1.0 1.4111040324
P  P2  1  0.04614000  0.01613000  0.64303000  1.0 1.4111040324
P  P3  1  0.29464000  0.99777000  0.43721000  1.0 1.3942897111
P  P4  1  0.29464000  0.00223000  0.93721000  1.0 1.3967883378
P  P5  1  0.52983000  0.14551000  0.30124000  1.0 1.4281658236
P  P6  1  0.52983000  0.85449000  0.80124000  1.0 1.4281658236
P  P7  1  0.82432000  0.01270000  0.26139000  1.0 1.4281658236
P  P8  1  0.82432000  0.98730000  0.76139000  1.0 1.4281658236
P  P9  1  0.58171000  0.85867000  0.33134000  1.0 1.3598042518
P  P10  1  0.58171000  0.14133000  0.83134000  1.0 1.3542704374
P  P11  1  0.29208000  0.53381000  0.14634000  1.0 1.3759496003
P  P12  1  0.29208000  0.46619000  0.64634000  1.0 1.3729264528
P  P13  1  0.53865000  0.50924000  0.43940000  1.0 1.4281658236
P  P14  1  0.53865000  0.49076000  0.93940000  1.0 1.4281658236
P  P15  1  0.75774000  0.48275000  0.31834000  1.0 1.4281658236
P  P16  1  0.75774000  0.51725000  0.81834000  1.0 1.4216355274
P  P17  1  0.03555000  0.64452000  0.28721000  1.0 1.4111040324
P  P18  1  0.03555000  0.35548000  0.78721000  1.0 1.4111040324
P  P19  1  0.03650000  0.36006000  0.25666000  1.0 1.4216355274
P  P20  1  0.03650000  0.63994000  0.75666000  1.0 1.4216355274
O  O1  1  0.04450000  0.89080000  0.18410000  1.0 -0.6976035229
O  O2  1  0.04450000  0.10920000  0.68410000  1.0 -0.6976035229
O  O3  1  0.97070000  0.06350000  0.14710000  1.0 -0.6976035229
O  O4  1  0.97070000  0.93650000  0.64710000  1.0 -0.6910252978
O  O5  1  0.19570000  0.01100000  0.19470000  1.0 -0.6704382552
O  O6  1  0.19570000  0.98900000  0.69470000  1.0 -0.6704382552
O  O7  1  0.20230000  0.91010000  0.40690000  1.0 -0.6704382552
O  O8  1  0.20230000  0.08990000  0.90690000  1.0 -0.6704382552
O  O9  1  0.21290000  0.08030000  0.37060000  1.0 -0.7369629353
O  O10  1  0.21290000  0.91970000  0.87060000  1.0 -0.7369629353
O  O11  1  0.40230000  0.97150000  0.43110000  1.0 -0.6368134469
O  O12  1  0.40230000  0.02850000  0.93110000  1.0 -0.6368134469
O  O13  1  0.36240000  0.02460000  0.53710000  1.0 -0.6004525632
O  O14  1  0.36240000  0.97540000  0.03710000  1.0 -0.6004525632
O  O15  1  0.45340000  0.08330000  0.21240000  1.0 -0.7228112728
O  O16  1  0.45340000  0.91670000  0.71240000  1.0 -0.7228112728
O  O17  1  0.68750000  0.13690000  0.36610000  1.0 -0.6976035229
O  O18  1  0.68750000  0.86310000  0.86610000  1.0 -0.6976035229
O  O19  1  0.48780000  0.11050000  0.35610000  1.0 -0.632691583
O  O20  1  0.48780000  0.88950000  0.85610000  1.0 -0.6368134469
O  O21  1  0.48510000  0.24720000  0.27100000  1.0 -0.5898025145
O  O22  1  0.48510000  0.75280000  0.77100000  1.0 -0.5898025145
O  O23  1  0.66820000  0.02640000  0.18370000  1.0 -0.6515158226
O  O24  1  0.66820000  0.97360000  0.68370000  1.0 -0.6515158226
O  O25  1  0.86920000  0.98530000  0.35510000  1.0 -0.6811161647
O  O26  1  0.86920000  0.01470000  0.85510000  1.0 -0.6811161647
O  O27  1  0.89410000  0.10580000  0.27210000  1.0 -0.6515158226
O  O28  1  0.89410000  0.89420000  0.77210000  1.0 -0.6515158226
O  O29  1  0.86680000  0.93430000  0.22940000  1.0 -0.6704382552
O  O30  1  0.86680000  0.06570000  0.72940000  1.0 -0.6704382552
O  O31  1  0.55830000  0.87780000  0.24200000  1.0 -0.7106968572
O  O32  1  0.55830000  0.12220000  0.74200000  1.0 -0.7106968572
O  O33  1  0.97380000  0.96630000  0.04010000  1.0 -0.5829360247
O  O34  1  0.97380000  0.03370000  0.54010000  1.0 -0.5829360247
O  O35  1  0.69720000  0.91960000  0.41400000  1.0 -0.6910252978
O  O36  1  0.69720000  0.08040000  0.91400000  1.0 -0.6910252978
O  O37  1  0.44760000  0.87820000  0.31270000  1.0 -0.6515158226
O  O38  1  0.44760000  0.12180000  0.81270000  1.0 -0.6515158226
O  O39  1  0.62200000  0.75470000  0.36160000  1.0 -0.5898025145
O  O40  1  0.62200000  0.24530000  0.86160000  1.0 -0.5898025145
O  O41  1  0.62810000  0.56670000  0.43010000  1.0 -0.7106968572
O  O42  1  0.62810000  0.43330000  0.93010000  1.0 -0.7106968572
O  O43  1  0.38040000  0.62270000  0.20250000  1.0 -0.6811161647
O  O44  1  0.38040000  0.37730000  0.70250000  1.0 -0.6811161647
O  O45  1  0.23030000  0.54370000  0.04520000  1.0 -0.6004525632
O  O46  1  0.23030000  0.45630000  0.54520000  1.0 -0.6004525632
O  O47  1  0.17990000  0.52820000  0.15100000  1.0 -0.658400626
O  O48  1  0.17990000  0.47180000  0.65100000  1.0 -0.658400626
O  O49  1  0.38390000  0.44750000  0.18760000  1.0 -0.7106968572
O  O50  1  0.38390000  0.55250000  0.68760000  1.0 -0.7106968572
O  O51  1  0.50570000  0.41220000  0.39230000  1.0 -0.6976035229
O  O52  1  0.50570000  0.58780000  0.89230000  1.0 -0.6976035229
O  O53  1  0.40180000  0.56230000  0.39060000  1.0 -0.6704382552
O  O54  1  0.40180000  0.43770000  0.89060000  1.0 -0.6704382552
O  O55  1  0.70360000  0.41060000  0.34770000  1.0 -0.6704382552
O  O56  1  0.70360000  0.58940000  0.84770000  1.0 -0.6704382552
O  O57  1  0.91260000  0.48970000  0.40050000  1.0 -0.658400626
O  O58  1  0.91260000  0.51030000  0.90050000  1.0 -0.658400626
O  O59  1  0.69300000  0.58020000  0.29960000  1.0 -0.6704382552
O  O60  1  0.69300000  0.41980000  0.79960000  1.0 -0.6704382552
O  O61  1  0.72130000  0.44590000  0.22870000  1.0 -0.6704382552
O  O62  1  0.72130000  0.55410000  0.72870000  1.0 -0.6704382552
O  O63  1  0.61130000  0.49840000  0.54240000  1.0 -0.5898025145
O  O64  1  0.61130000  0.50160000  0.04240000  1.0 -0.5898025145
O  O65  1  0.89480000  0.59770000  0.21580000  1.0 -0.6976035229
O  O66  1  0.89480000  0.40230000  0.71580000  1.0 -0.6976035229
O  O67  1  0.11120000  0.64390000  0.25140000  1.0 -0.6368134469
O  O68  1  0.11120000  0.35610000  0.75140000  1.0 -0.6368134469
O  O69  1  0.00680000  0.74650000  0.29730000  1.0 -0.5829360247
O  O70  1  0.00680000  0.25350000  0.79730000  1.0 -0.5829360247
O  O71  1  0.12330000  0.59360000  0.38220000  1.0 -0.6976035229
O  O72  1  0.12330000  0.40640000  0.88220000  1.0 -0.6976035229
O  O73  1  0.02850000  0.37810000  0.33150000  1.0 -0.7341150254
O  O74  1  0.02850000  0.62190000  0.83150000  1.0 -0.7369629353
O  O75  1  0.15840000  0.41180000  0.27920000  1.0 -0.6811161647
O  O76  1  0.15840000  0.58820000  0.77920000  1.0 -0.6811161647
O  O77  1  0.05770000  0.25510000  0.25160000  1.0 -0.6004525632
O  O78  1  0.05770000  0.74490000  0.75160000  1.0 -0.6004525632
O  O79  1  0.89860000  0.39150000  0.16070000  1.0 -0.658400626
O  O80  1  0.89860000  0.60850000  0.66070000  1.0 -0.658400626
