# DDEC6 charges by PACMAN v1.1 (https://github.com/mtap-research/PACMAN-charge/)
data_EDUSOL_ASR_pacman
_symmetry_space_group_name_H-M   'P 1'
_cell_length_a   18.22340000
_cell_length_b   18.22340000
_cell_length_c   18.22340000
_cell_angle_alpha   60.00000000
_cell_angle_beta   60.00000000
_cell_angle_gamma   60.00000000
_symmetry_Int_Tables_number   1
_chemical_formula_structural   Zn4C36Br24O13
_chemical_formula_sum   'Zn8 C72 Br48 O26'
_cell_volume   4279.30485084
_cell_formula_units_Z   2
loop_
 _symmetry_equiv_pos_site_id
 _symmetry_equiv_pos_as_xyz
  1  'x, y, z'
loop_
 _atom_site_type_symbol
 _atom_site_label
 _atom_site_symmetry_multiplicity
 _atom_site_fract_x
 _atom_site_fract_y
 _atom_site_fract_z
 _atom_site_occupancy
 _atom_site_charge
Zn  Zn1  1  0.20659000  0.20659000  0.20659000  1.0 0.9397969354
Zn  Zn2  1  0.79341000  0.79341000  0.61977000  1.0 0.9397969354
Zn  Zn3  1  0.79341000  0.61977000  0.79341000  1.0 0.9397969354
Zn  Zn4  1  0.61977000  0.79341000  0.79341000  1.0 0.9397969354
Zn  Zn5  1  0.79341000  0.79341000  0.79341000  1.0 0.9397969354
Zn  Zn6  1  0.20659000  0.20659000  0.38023000  1.0 0.9397969354
Zn  Zn7  1  0.20659000  0.38023000  0.20659000  1.0 0.9397969354
Zn  Zn8  1  0.38023000  0.20659000  0.20659000  1.0 0.9397969354
C  C1  1  0.11060000  0.11060000  0.38940000  1.0 0.5134739438
C  C2  1  0.38940000  0.11060000  0.11060000  1.0 0.5134739438
C  C3  1  0.11060000  0.38940000  0.11060000  1.0 0.5134739438
C  C4  1  0.88940000  0.88940000  0.61060000  1.0 0.5134739438
C  C5  1  0.61060000  0.61060000  0.88940000  1.0 0.5134739438
C  C6  1  0.61060000  0.88940000  0.61060000  1.0 0.5134739438
C  C7  1  0.88940000  0.61060000  0.88940000  1.0 0.5134739438
C  C8  1  0.88940000  0.61060000  0.61060000  1.0 0.5134739438
C  C9  1  0.61060000  0.88940000  0.88940000  1.0 0.5134739438
C  C10  1  0.38940000  0.38940000  0.11060000  1.0 0.5134739438
C  C11  1  0.38940000  0.11060000  0.38940000  1.0 0.5134739438
C  C12  1  0.11060000  0.38940000  0.38940000  1.0 0.5134739438
C  C13  1  0.05500000  0.05500000  0.44500000  1.0 -0.0535329888
C  C14  1  0.44500000  0.05500000  0.05500000  1.0 -0.0535329888
C  C15  1  0.05500000  0.44500000  0.05500000  1.0 -0.0535329888
C  C16  1  0.94500000  0.94500000  0.55500000  1.0 -0.0535329888
C  C17  1  0.55500000  0.55500000  0.94500000  1.0 -0.0535329888
C  C18  1  0.55500000  0.94500000  0.55500000  1.0 -0.0535329888
C  C19  1  0.94500000  0.55500000  0.94500000  1.0 -0.0535329888
C  C20  1  0.94500000  0.55500000  0.55500000  1.0 -0.0535329888
C  C21  1  0.55500000  0.94500000  0.94500000  1.0 -0.0535329888
C  C22  1  0.44500000  0.44500000  0.05500000  1.0 -0.0535329888
C  C23  1  0.44500000  0.05500000  0.44500000  1.0 -0.0535329888
C  C24  1  0.05500000  0.44500000  0.44500000  1.0 -0.0535329888
C  C25  1  0.05190000  0.00070000  0.41910000  1.0 0.0060787066
C  C26  1  0.41910000  0.05190000  0.00070000  1.0 0.0060787066
C  C27  1  0.00070000  0.41910000  0.05190000  1.0 0.0060787066
C  C28  1  0.94810000  0.99930000  0.47170000  1.0 0.0060787066
C  C29  1  0.58090000  0.47170000  0.99930000  1.0 0.0060787066
C  C30  1  0.47170000  0.58090000  0.94810000  1.0 0.0060787066
C  C31  1  0.58090000  0.94810000  0.47170000  1.0 0.0060787066
C  C32  1  0.47170000  0.99930000  0.58090000  1.0 0.0060787066
C  C33  1  0.99930000  0.47170000  0.94810000  1.0 0.0060787066
C  C34  1  0.99930000  0.58090000  0.47170000  1.0 0.0060787066
C  C35  1  0.94810000  0.47170000  0.58090000  1.0 0.0060787066
C  C36  1  0.47170000  0.94810000  0.99930000  1.0 0.0060787066
C  C37  1  0.99930000  0.94810000  0.47170000  1.0 0.0060787066
C  C38  1  0.58090000  0.47170000  0.94810000  1.0 0.0060787066
C  C39  1  0.47170000  0.58090000  0.99930000  1.0 0.0060787066
C  C40  1  0.47170000  0.99930000  0.94810000  1.0 0.0060787066
C  C41  1  0.94810000  0.58090000  0.47170000  1.0 0.0060787066
C  C42  1  0.99930000  0.47170000  0.58090000  1.0 0.0060787066
C  C43  1  0.94810000  0.47170000  0.99930000  1.0 0.0060787066
C  C44  1  0.47170000  0.94810000  0.58090000  1.0 0.0060787066
C  C45  1  0.58090000  0.99930000  0.47170000  1.0 0.0060787066
C  C46  1  0.00070000  0.05190000  0.41910000  1.0 0.0060787066
C  C47  1  0.05190000  0.41910000  0.00070000  1.0 0.0060787066
C  C48  1  0.41910000  0.00070000  0.05190000  1.0 0.0060787066
C  C49  1  0.94810000  0.99930000  0.58090000  1.0 0.0060787066
C  C50  1  0.58090000  0.94810000  0.99930000  1.0 0.0060787066
C  C51  1  0.99930000  0.58090000  0.94810000  1.0 0.0060787066
C  C52  1  0.05190000  0.00070000  0.52830000  1.0 0.0060787066
C  C53  1  0.41910000  0.52830000  0.00070000  1.0 0.0060787066
C  C54  1  0.52830000  0.41910000  0.05190000  1.0 0.0060787066
C  C55  1  0.41910000  0.05190000  0.52830000  1.0 0.0060787066
C  C56  1  0.52830000  0.00070000  0.41910000  1.0 0.0060787066
C  C57  1  0.00070000  0.52830000  0.05190000  1.0 0.0060787066
C  C58  1  0.00070000  0.41910000  0.52830000  1.0 0.0060787066
C  C59  1  0.05190000  0.52830000  0.41910000  1.0 0.0060787066
C  C60  1  0.52830000  0.05190000  0.00070000  1.0 0.0060787066
C  C61  1  0.00070000  0.05190000  0.52830000  1.0 0.0060787066
C  C62  1  0.41910000  0.52830000  0.05190000  1.0 0.0060787066
C  C63  1  0.52830000  0.41910000  0.00070000  1.0 0.0060787066
C  C64  1  0.52830000  0.00070000  0.05190000  1.0 0.0060787066
C  C65  1  0.05190000  0.41910000  0.52830000  1.0 0.0060787066
C  C66  1  0.00070000  0.52830000  0.41910000  1.0 0.0060787066
C  C67  1  0.05190000  0.52830000  0.00070000  1.0 0.0060787066
C  C68  1  0.52830000  0.05190000  0.41910000  1.0 0.0060787066
C  C69  1  0.41910000  0.00070000  0.52830000  1.0 0.0060787066
C  C70  1  0.99930000  0.94810000  0.58090000  1.0 0.0060787066
C  C71  1  0.94810000  0.58090000  0.99930000  1.0 0.0060787066
C  C72  1  0.58090000  0.99930000  0.94810000  1.0 0.0060787066
Br  Br1  1  0.12940000  0.97380000  0.29900000  1.0 0.0038522212
Br  Br2  1  0.29900000  0.12940000  0.97380000  1.0 0.0038522212
Br  Br3  1  0.97380000  0.29900000  0.12940000  1.0 0.0060787066
Br  Br4  1  0.87060000  0.02620000  0.40220000  1.0 0.0038522212
Br  Br5  1  0.70100000  0.40220000  0.02620000  1.0 0.0060787066
Br  Br6  1  0.40220000  0.70100000  0.87060000  1.0 0.0038522212
Br  Br7  1  0.70100000  0.87060000  0.40220000  1.0 0.0038522212
Br  Br8  1  0.40220000  0.02620000  0.70100000  1.0 0.0038522212
Br  Br9  1  0.02620000  0.40220000  0.87060000  1.0 0.0038522212
Br  Br10  1  0.02620000  0.70100000  0.40220000  1.0 0.0038522212
Br  Br11  1  0.87060000  0.40220000  0.70100000  1.0 0.0060787066
Br  Br12  1  0.40220000  0.87060000  0.02620000  1.0 0.0038522212
Br  Br13  1  0.02620000  0.87060000  0.40220000  1.0 0.0038522212
Br  Br14  1  0.70100000  0.40220000  0.87060000  1.0 0.0038522212
Br  Br15  1  0.40220000  0.70100000  0.02620000  1.0 0.0060787066
Br  Br16  1  0.40220000  0.02620000  0.87060000  1.0 0.0038522212
Br  Br17  1  0.87060000  0.70100000  0.40220000  1.0 0.0038522212
Br  Br18  1  0.02620000  0.40220000  0.70100000  1.0 0.0038522212
Br  Br19  1  0.87060000  0.40220000  0.02620000  1.0 0.0060787066
Br  Br20  1  0.40220000  0.87060000  0.70100000  1.0 0.0038522212
Br  Br21  1  0.70100000  0.02620000  0.40220000  1.0 0.0038522212
Br  Br22  1  0.97380000  0.12940000  0.29900000  1.0 0.0038522212
Br  Br23  1  0.12940000  0.29900000  0.97380000  1.0 0.0038522212
Br  Br24  1  0.29900000  0.97380000  0.12940000  1.0 0.0038522212
Br  Br25  1  0.87060000  0.02620000  0.70100000  1.0 0.0060787066
Br  Br26  1  0.70100000  0.87060000  0.02620000  1.0 0.0060787066
Br  Br27  1  0.02620000  0.70100000  0.87060000  1.0 0.0038522212
Br  Br28  1  0.12940000  0.97380000  0.59780000  1.0 0.0038522212
Br  Br29  1  0.29900000  0.59780000  0.97380000  1.0 0.0038522212
Br  Br30  1  0.59780000  0.29900000  0.12940000  1.0 0.0038522212
Br  Br31  1  0.29900000  0.12940000  0.59780000  1.0 0.0038522212
Br  Br32  1  0.59780000  0.97380000  0.29900000  1.0 0.0038522212
Br  Br33  1  0.97380000  0.59780000  0.12940000  1.0 0.0060787066
Br  Br34  1  0.97380000  0.29900000  0.59780000  1.0 0.0060787066
Br  Br35  1  0.12940000  0.59780000  0.29900000  1.0 0.0038522212
Br  Br36  1  0.59780000  0.12940000  0.97380000  1.0 0.0038522212
Br  Br37  1  0.97380000  0.12940000  0.59780000  1.0 0.0060787066
Br  Br38  1  0.29900000  0.59780000  0.12940000  1.0 0.0038522212
Br  Br39  1  0.59780000  0.29900000  0.97380000  1.0 0.0038522212
Br  Br40  1  0.59780000  0.97380000  0.12940000  1.0 0.0038522212
Br  Br41  1  0.12940000  0.29900000  0.59780000  1.0 0.0038522212
Br  Br42  1  0.97380000  0.59780000  0.29900000  1.0 0.0038522212
Br  Br43  1  0.12940000  0.59780000  0.97380000  1.0 0.0038522212
Br  Br44  1  0.59780000  0.12940000  0.29900000  1.0 0.0038522212
Br  Br45  1  0.29900000  0.97380000  0.59780000  1.0 0.0038522212
Br  Br46  1  0.02620000  0.87060000  0.70100000  1.0 0.0038522212
Br  Br47  1  0.87060000  0.70100000  0.02620000  1.0 0.0060787066
Br  Br48  1  0.70100000  0.02620000  0.87060000  1.0 0.0038522212
O  O1  1  0.25000000  0.25000000  0.25000000  1.0 -1.0218321424
O  O2  1  0.75000000  0.75000000  0.75000000  1.0 -1.0218321424
O  O3  1  0.13380000  0.13380000  0.30620000  1.0 -0.4789657721
O  O4  1  0.30620000  0.13380000  0.13380000  1.0 -0.4789657721
O  O5  1  0.13380000  0.30620000  0.13380000  1.0 -0.4789657721
O  O6  1  0.86620000  0.86620000  0.57380000  1.0 -0.4789657721
O  O7  1  0.69380000  0.57380000  0.86620000  1.0 -0.4789657721
O  O8  1  0.57380000  0.69380000  0.86620000  1.0 -0.4789657721
O  O9  1  0.69380000  0.86620000  0.57380000  1.0 -0.4789657721
O  O10  1  0.57380000  0.86620000  0.69380000  1.0 -0.4789657721
O  O11  1  0.86620000  0.57380000  0.86620000  1.0 -0.4789657721
O  O12  1  0.86620000  0.69380000  0.57380000  1.0 -0.4789657721
O  O13  1  0.86620000  0.57380000  0.69380000  1.0 -0.4789657721
O  O14  1  0.57380000  0.86620000  0.86620000  1.0 -0.4789657721
O  O15  1  0.86620000  0.86620000  0.69380000  1.0 -0.4789657721
O  O16  1  0.69380000  0.86620000  0.86620000  1.0 -0.4789657721
O  O17  1  0.86620000  0.69380000  0.86620000  1.0 -0.4789657721
O  O18  1  0.13380000  0.13380000  0.42620000  1.0 -0.4789657721
O  O19  1  0.30620000  0.42620000  0.13380000  1.0 -0.4789657721
O  O20  1  0.42620000  0.30620000  0.13380000  1.0 -0.4789657721
O  O21  1  0.30620000  0.13380000  0.42620000  1.0 -0.4789657721
O  O22  1  0.42620000  0.13380000  0.30620000  1.0 -0.4789657721
O  O23  1  0.13380000  0.42620000  0.13380000  1.0 -0.4789657721
O  O24  1  0.13380000  0.30620000  0.42620000  1.0 -0.4789657721
O  O25  1  0.13380000  0.42620000  0.30620000  1.0 -0.4789657721
O  O26  1  0.42620000  0.13380000  0.13380000  1.0 -0.4789657721
