# DDEC6 charges by PACMAN v1.1 (https://github.com/mtap-research/PACMAN-charge/)
data_EDUSUR_ASR_pacman
_symmetry_space_group_name_H-M   'P 1'
_cell_length_a   18.20550000
_cell_length_b   18.20550000
_cell_length_c   18.20550000
_cell_angle_alpha   60.00000000
_cell_angle_beta   60.00000000
_cell_angle_gamma   60.00000000
_symmetry_Int_Tables_number   1
_chemical_formula_structural   Zn4C24N12O13
_chemical_formula_sum   'Zn8 C48 N24 O26'
_cell_volume   4266.70714548
_cell_formula_units_Z   2
loop_
 _symmetry_equiv_pos_site_id
 _symmetry_equiv_pos_as_xyz
  1  'x, y, z'
loop_
 _atom_site_type_symbol
 _atom_site_label
 _atom_site_symmetry_multiplicity
 _atom_site_fract_x
 _atom_site_fract_y
 _atom_site_fract_z
 _atom_site_occupancy
 _atom_site_charge
Zn  Zn1  1  0.11974000  0.29342000  0.29342000  1.0 0.9726587989
Zn  Zn2  1  0.29342000  0.11974000  0.29342000  1.0 0.9726587989
Zn  Zn3  1  0.29342000  0.29342000  0.11974000  1.0 0.9726587989
Zn  Zn4  1  0.88026000  0.70658000  0.70658000  1.0 0.9726587989
Zn  Zn5  1  0.70658000  0.70658000  0.70658000  1.0 0.9726587989
Zn  Zn6  1  0.70658000  0.70658000  0.88026000  1.0 0.9726587989
Zn  Zn7  1  0.70658000  0.88026000  0.70658000  1.0 0.9726587989
Zn  Zn8  1  0.29342000  0.29342000  0.29342000  1.0 0.9726587989
C  C1  1  0.11050000  0.11050000  0.38950000  1.0 0.6210130287
C  C2  1  0.38950000  0.11050000  0.11050000  1.0 0.6210130287
C  C3  1  0.11050000  0.38950000  0.11050000  1.0 0.6210130287
C  C4  1  0.88950000  0.88950000  0.61050000  1.0 0.6210130287
C  C5  1  0.61050000  0.61050000  0.88950000  1.0 0.6210130287
C  C6  1  0.61050000  0.88950000  0.61050000  1.0 0.6210130287
C  C7  1  0.88950000  0.61050000  0.88950000  1.0 0.6210130287
C  C8  1  0.88950000  0.61050000  0.61050000  1.0 0.6210130287
C  C9  1  0.61050000  0.88950000  0.88950000  1.0 0.6210130287
C  C10  1  0.38950000  0.38950000  0.11050000  1.0 0.6210130287
C  C11  1  0.11050000  0.38950000  0.38950000  1.0 0.6210130287
C  C12  1  0.38950000  0.11050000  0.38950000  1.0 0.6210130287
C  C13  1  0.05570000  0.05570000  0.44430000  1.0 -0.2241356017
C  C14  1  0.44430000  0.05570000  0.05570000  1.0 -0.2241356017
C  C15  1  0.05570000  0.44430000  0.05570000  1.0 -0.2241356017
C  C16  1  0.94430000  0.94430000  0.55570000  1.0 -0.2241356017
C  C17  1  0.55570000  0.55570000  0.94430000  1.0 -0.2241356017
C  C18  1  0.55570000  0.94430000  0.55570000  1.0 -0.2241356017
C  C19  1  0.94430000  0.55570000  0.94430000  1.0 -0.2241356017
C  C20  1  0.94430000  0.55570000  0.55570000  1.0 -0.2241356017
C  C21  1  0.55570000  0.94430000  0.94430000  1.0 -0.2241356017
C  C22  1  0.44430000  0.44430000  0.05570000  1.0 -0.2241356017
C  C23  1  0.05570000  0.44430000  0.44430000  1.0 -0.2241356017
C  C24  1  0.44430000  0.05570000  0.44430000  1.0 -0.2241356017
C  C25  1  0.96460000  0.08860000  0.47340000  1.0 0.1416958808
C  C26  1  0.47340000  0.96460000  0.08860000  1.0 0.1416958808
C  C27  1  0.08860000  0.47340000  0.96460000  1.0 0.1416958808
C  C28  1  0.03540000  0.91140000  0.52660000  1.0 0.1416958808
C  C29  1  0.52660000  0.52660000  0.91140000  1.0 0.1416958808
C  C30  1  0.52660000  0.52660000  0.03540000  1.0 0.1416958808
C  C31  1  0.52660000  0.03540000  0.52660000  1.0 0.1416958808
C  C32  1  0.52660000  0.91140000  0.52660000  1.0 0.1416958808
C  C33  1  0.91140000  0.52660000  0.03540000  1.0 0.1416958808
C  C34  1  0.91140000  0.52660000  0.52660000  1.0 0.1416958808
C  C35  1  0.03540000  0.52660000  0.52660000  1.0 0.1416958808
C  C36  1  0.52660000  0.03540000  0.91140000  1.0 0.1416958808
C  C37  1  0.08860000  0.96460000  0.47340000  1.0 0.1416958808
C  C38  1  0.47340000  0.47340000  0.96460000  1.0 0.1416958808
C  C39  1  0.47340000  0.47340000  0.08860000  1.0 0.1416958808
C  C40  1  0.47340000  0.08860000  0.96460000  1.0 0.1416958808
C  C41  1  0.96460000  0.47340000  0.47340000  1.0 0.1416958808
C  C42  1  0.08860000  0.47340000  0.47340000  1.0 0.1416958808
C  C43  1  0.96460000  0.47340000  0.08860000  1.0 0.1416958808
C  C44  1  0.47340000  0.96460000  0.47340000  1.0 0.1416958808
C  C45  1  0.47340000  0.08860000  0.47340000  1.0 0.1416958808
C  C46  1  0.91140000  0.03540000  0.52660000  1.0 0.1416958808
C  C47  1  0.03540000  0.52660000  0.91140000  1.0 0.1416958808
C  C48  1  0.52660000  0.91140000  0.03540000  1.0 0.1416958808
N  N1  1  0.91200000  0.18280000  0.45260000  1.0 -0.0732785403
N  N2  1  0.45260000  0.91200000  0.18280000  1.0 -0.0732785403
N  N3  1  0.18280000  0.45260000  0.91200000  1.0 -0.0732785403
N  N4  1  0.08800000  0.81720000  0.54740000  1.0 -0.0732785403
N  N5  1  0.54740000  0.54740000  0.81720000  1.0 -0.0732785403
N  N6  1  0.54740000  0.54740000  0.08800000  1.0 -0.0732785403
N  N7  1  0.54740000  0.08800000  0.54740000  1.0 -0.0732785403
N  N8  1  0.54740000  0.81720000  0.54740000  1.0 -0.0732785403
N  N9  1  0.81720000  0.54740000  0.08800000  1.0 -0.0732785403
N  N10  1  0.81720000  0.54740000  0.54740000  1.0 -0.0732785403
N  N11  1  0.08800000  0.54740000  0.54740000  1.0 -0.0732785403
N  N12  1  0.54740000  0.08800000  0.81720000  1.0 -0.0732785403
N  N13  1  0.18280000  0.91200000  0.45260000  1.0 -0.0732785403
N  N14  1  0.45260000  0.45260000  0.91200000  1.0 -0.0732785403
N  N15  1  0.45260000  0.45260000  0.18280000  1.0 -0.0732785403
N  N16  1  0.45260000  0.18280000  0.91200000  1.0 -0.0732785403
N  N17  1  0.91200000  0.45260000  0.45260000  1.0 -0.0732785403
N  N18  1  0.18280000  0.45260000  0.45260000  1.0 -0.0732785403
N  N19  1  0.91200000  0.45260000  0.18280000  1.0 -0.0732785403
N  N20  1  0.45260000  0.91200000  0.45260000  1.0 -0.0732785403
N  N21  1  0.45260000  0.18280000  0.45260000  1.0 -0.0732785403
N  N22  1  0.81720000  0.08800000  0.54740000  1.0 -0.0732785403
N  N23  1  0.08800000  0.54740000  0.81720000  1.0 -0.0732785403
N  N24  1  0.54740000  0.81720000  0.08800000  1.0 -0.0732785403
O  O1  1  0.07260000  0.19540000  0.36600000  1.0 -0.5036050943
O  O2  1  0.36600000  0.07260000  0.19540000  1.0 -0.5036050943
O  O3  1  0.19540000  0.36600000  0.07260000  1.0 -0.5036050943
O  O4  1  0.92740000  0.80460000  0.63400000  1.0 -0.5036050943
O  O5  1  0.63400000  0.63400000  0.80460000  1.0 -0.5036050943
O  O6  1  0.63400000  0.63400000  0.92740000  1.0 -0.5036050943
O  O7  1  0.63400000  0.92740000  0.63400000  1.0 -0.5036050943
O  O8  1  0.63400000  0.80460000  0.63400000  1.0 -0.5036050943
O  O9  1  0.80460000  0.63400000  0.92740000  1.0 -0.5036050943
O  O10  1  0.80460000  0.63400000  0.63400000  1.0 -0.5036050943
O  O11  1  0.92740000  0.63400000  0.63400000  1.0 -0.5036050943
O  O12  1  0.63400000  0.92740000  0.80460000  1.0 -0.5036050943
O  O13  1  0.19540000  0.07260000  0.36600000  1.0 -0.5036050943
O  O14  1  0.36600000  0.36600000  0.07260000  1.0 -0.5036050943
O  O15  1  0.36600000  0.36600000  0.19540000  1.0 -0.5036050943
O  O16  1  0.36600000  0.19540000  0.07260000  1.0 -0.5036050943
O  O17  1  0.07260000  0.36600000  0.36600000  1.0 -0.5036050943
O  O18  1  0.19540000  0.36600000  0.36600000  1.0 -0.5036050943
O  O19  1  0.07260000  0.36600000  0.19540000  1.0 -0.5036050943
O  O20  1  0.36600000  0.07260000  0.36600000  1.0 -0.5036050943
O  O21  1  0.36600000  0.19540000  0.36600000  1.0 -0.5036050943
O  O22  1  0.80460000  0.92740000  0.63400000  1.0 -0.5036050943
O  O23  1  0.92740000  0.63400000  0.80460000  1.0 -0.5036050943
O  O24  1  0.63400000  0.80460000  0.92740000  1.0 -0.5036050943
O  O25  1  0.25000000  0.25000000  0.25000000  1.0 -1.0496467121
O  O26  1  0.75000000  0.75000000  0.75000000  1.0 -1.0496467121
