# DDEC6 charges by PACMAN v1.1 (https://github.com/mtap-research/PACMAN-charge/)
data_EDUTUS_FSR_pacman
_symmetry_space_group_name_H-M   'P 1'
_cell_length_a   21.27790000
_cell_length_b   21.27790000
_cell_length_c   21.27790000
_cell_angle_alpha   60.00000000
_cell_angle_beta   60.00000000
_cell_angle_gamma   60.00000000
_symmetry_Int_Tables_number   1
_chemical_formula_structural   Zn4C60O13
_chemical_formula_sum   'Zn8 C120 O26'
_cell_volume   6811.94750773
_cell_formula_units_Z   2
loop_
 _symmetry_equiv_pos_site_id
 _symmetry_equiv_pos_as_xyz
  1  'x, y, z'
loop_
 _atom_site_type_symbol
 _atom_site_label
 _atom_site_symmetry_multiplicity
 _atom_site_fract_x
 _atom_site_fract_y
 _atom_site_fract_z
 _atom_site_occupancy
 _atom_site_charge
Zn  Zn1  1  0.28718000  0.13846000  0.28718000  1.0 0.9257697909
Zn  Zn2  1  0.28718000  0.28718000  0.13846000  1.0 0.9257697909
Zn  Zn3  1  0.13846000  0.28718000  0.28718000  1.0 0.9257697909
Zn  Zn4  1  0.71282000  0.86154000  0.71282000  1.0 0.9244138151
Zn  Zn5  1  0.71282000  0.71282000  0.86154000  1.0 0.9244138151
Zn  Zn6  1  0.71282000  0.71282000  0.71282000  1.0 0.9244138151
Zn  Zn7  1  0.86154000  0.71282000  0.71282000  1.0 0.9244138151
Zn  Zn8  1  0.28718000  0.28718000  0.28718000  1.0 0.9257697909
C  C1  1  0.36750000  0.13250000  0.13250000  1.0 0.4810222883
C  C2  1  0.13250000  0.36750000  0.13250000  1.0 0.4810222883
C  C3  1  0.13250000  0.13250000  0.36750000  1.0 0.4810222883
C  C4  1  0.63250000  0.86750000  0.63250000  1.0 0.4810222883
C  C5  1  0.86750000  0.63250000  0.86750000  1.0 0.4810222883
C  C6  1  0.86750000  0.63250000  0.63250000  1.0 0.4810222883
C  C7  1  0.63250000  0.86750000  0.86750000  1.0 0.4810222883
C  C8  1  0.86750000  0.86750000  0.63250000  1.0 0.4810222883
C  C9  1  0.63250000  0.63250000  0.86750000  1.0 0.4810222883
C  C10  1  0.36750000  0.13250000  0.36750000  1.0 0.4810222883
C  C11  1  0.13250000  0.36750000  0.36750000  1.0 0.4810222883
C  C12  1  0.36750000  0.36750000  0.13250000  1.0 0.4810222883
C  C13  1  0.41670000  0.08330000  0.08330000  1.0 -0.0408648719
C  C14  1  0.08330000  0.41670000  0.08330000  1.0 -0.0408648719
C  C15  1  0.08330000  0.08330000  0.41670000  1.0 -0.0408648719
C  C16  1  0.58330000  0.91670000  0.58330000  1.0 -0.0408648719
C  C17  1  0.91670000  0.58330000  0.91670000  1.0 -0.0408648719
C  C18  1  0.91670000  0.58330000  0.58330000  1.0 -0.0408648719
C  C19  1  0.58330000  0.91670000  0.91670000  1.0 -0.0408648719
C  C20  1  0.91670000  0.91670000  0.58330000  1.0 -0.0408648719
C  C21  1  0.58330000  0.58330000  0.91670000  1.0 -0.0408648719
C  C22  1  0.41670000  0.08330000  0.41670000  1.0 -0.0408648719
C  C23  1  0.08330000  0.41670000  0.41670000  1.0 -0.0408648719
C  C24  1  0.41670000  0.41670000  0.08330000  1.0 -0.0408648719
C  C25  1  0.43010000  0.00590000  0.13390000  1.0 -0.0091796668
C  C26  1  0.13390000  0.43010000  0.00590000  1.0 -0.0091796668
C  C27  1  0.00590000  0.13390000  0.43010000  1.0 -0.0091796668
C  C28  1  0.56990000  0.99410000  0.56990000  1.0 -0.0091796668
C  C29  1  0.86610000  0.56990000  0.99410000  1.0 -0.0034297718
C  C30  1  0.56990000  0.86610000  0.56990000  1.0 -0.0091796668
C  C31  1  0.86610000  0.56990000  0.56990000  1.0 -0.0091796668
C  C32  1  0.56990000  0.99410000  0.86610000  1.0 -0.0091796668
C  C33  1  0.99410000  0.56990000  0.56990000  1.0 -0.0091796668
C  C34  1  0.99410000  0.86610000  0.56990000  1.0 -0.0091796668
C  C35  1  0.56990000  0.56990000  0.86610000  1.0 -0.0091796668
C  C36  1  0.56990000  0.56990000  0.99410000  1.0 -0.0034297718
C  C37  1  0.56990000  0.86610000  0.99410000  1.0 -0.0034297718
C  C38  1  0.99410000  0.56990000  0.86610000  1.0 -0.0091796668
C  C39  1  0.86610000  0.99410000  0.56990000  1.0 -0.0091796668
C  C40  1  0.00590000  0.43010000  0.13390000  1.0 -0.0091796668
C  C41  1  0.43010000  0.13390000  0.00590000  1.0 -0.0091796668
C  C42  1  0.13390000  0.00590000  0.43010000  1.0 -0.0091796668
C  C43  1  0.43010000  0.00590000  0.43010000  1.0 -0.0091796668
C  C44  1  0.43010000  0.13390000  0.43010000  1.0 -0.0091796668
C  C45  1  0.13390000  0.43010000  0.43010000  1.0 -0.0091796668
C  C46  1  0.00590000  0.43010000  0.43010000  1.0 -0.0091796668
C  C47  1  0.43010000  0.43010000  0.13390000  1.0 -0.0091796668
C  C48  1  0.43010000  0.43010000  0.00590000  1.0 -0.0091796668
C  C49  1  0.47520000  0.94380000  0.10580000  1.0 -0.0254341695
C  C50  1  0.10580000  0.47520000  0.94380000  1.0 -0.0254341695
C  C51  1  0.94380000  0.10580000  0.47520000  1.0 -0.0186299242
C  C52  1  0.52480000  0.05620000  0.52480000  1.0 -0.0254341695
C  C53  1  0.89420000  0.52480000  0.05620000  1.0 -0.0254341695
C  C54  1  0.52480000  0.89420000  0.52480000  1.0 -0.0186299242
C  C55  1  0.89420000  0.52480000  0.52480000  1.0 -0.0254341695
C  C56  1  0.52480000  0.05620000  0.89420000  1.0 -0.0254341695
C  C57  1  0.05620000  0.52480000  0.52480000  1.0 -0.0254341695
C  C58  1  0.05620000  0.89420000  0.52480000  1.0 -0.0254341695
C  C59  1  0.52480000  0.52480000  0.89420000  1.0 -0.0186299242
C  C60  1  0.52480000  0.52480000  0.05620000  1.0 -0.0254341695
C  C61  1  0.52480000  0.89420000  0.05620000  1.0 -0.0254341695
C  C62  1  0.05620000  0.52480000  0.89420000  1.0 -0.0254341695
C  C63  1  0.89420000  0.05620000  0.52480000  1.0 -0.0186299242
C  C64  1  0.94380000  0.47520000  0.10580000  1.0 -0.0254341695
C  C65  1  0.47520000  0.10580000  0.94380000  1.0 -0.0186299242
C  C66  1  0.10580000  0.94380000  0.47520000  1.0 -0.0254341695
C  C67  1  0.47520000  0.94380000  0.47520000  1.0 -0.0186299242
C  C68  1  0.47520000  0.10580000  0.47520000  1.0 -0.0186299242
C  C69  1  0.10580000  0.47520000  0.47520000  1.0 -0.0186299242
C  C70  1  0.94380000  0.47520000  0.47520000  1.0 -0.0186299242
C  C71  1  0.47520000  0.47520000  0.10580000  1.0 -0.0254341695
C  C72  1  0.47520000  0.47520000  0.94380000  1.0 -0.0254341695
C  C73  1  0.50700000  0.96120000  0.02480000  1.0 0.0431233737
C  C74  1  0.02480000  0.50700000  0.96120000  1.0 0.0493426974
C  C75  1  0.96120000  0.02480000  0.50700000  1.0 0.0431233737
C  C76  1  0.49300000  0.03880000  0.49300000  1.0 0.0493426974
C  C77  1  0.97520000  0.49300000  0.03880000  1.0 0.0431233737
C  C78  1  0.49300000  0.97520000  0.49300000  1.0 0.0431233737
C  C79  1  0.97520000  0.49300000  0.49300000  1.0 0.0493426974
C  C80  1  0.49300000  0.03880000  0.97520000  1.0 0.0431233737
C  C81  1  0.03880000  0.49300000  0.49300000  1.0 0.0431233737
C  C82  1  0.03880000  0.97520000  0.49300000  1.0 0.0431233737
C  C83  1  0.49300000  0.49300000  0.97520000  1.0 0.0431233737
C  C84  1  0.49300000  0.49300000  0.03880000  1.0 0.0431233737
C  C85  1  0.49300000  0.97520000  0.03880000  1.0 0.0431233737
C  C86  1  0.03880000  0.49300000  0.97520000  1.0 0.0431233737
C  C87  1  0.97520000  0.03880000  0.49300000  1.0 0.0493426974
C  C88  1  0.96120000  0.50700000  0.02480000  1.0 0.0493426974
C  C89  1  0.50700000  0.02480000  0.96120000  1.0 0.0493426974
C  C90  1  0.02480000  0.96120000  0.50700000  1.0 0.0431233737
C  C91  1  0.50700000  0.96120000  0.50700000  1.0 0.0431233737
C  C92  1  0.50700000  0.02480000  0.50700000  1.0 0.0431233737
C  C93  1  0.02480000  0.50700000  0.50700000  1.0 0.0431233737
C  C94  1  0.96120000  0.50700000  0.50700000  1.0 0.0431233737
C  C95  1  0.50700000  0.50700000  0.02480000  1.0 0.0493426974
C  C96  1  0.50700000  0.50700000  0.96120000  1.0 0.0493426974
C  C97  1  0.44670000  0.00730000  0.09930000  1.0 -0.0091796668
C  C98  1  0.09930000  0.44670000  0.00730000  1.0 -0.0186299242
C  C99  1  0.00730000  0.09930000  0.44670000  1.0 -0.0186299242
C  C100  1  0.55330000  0.99270000  0.55330000  1.0 -0.0186299242
C  C101  1  0.90070000  0.55330000  0.99270000  1.0 -0.0186299242
C  C102  1  0.55330000  0.90070000  0.55330000  1.0 -0.0091796668
C  C103  1  0.90070000  0.55330000  0.55330000  1.0 -0.0186299242
C  C104  1  0.55330000  0.99270000  0.90070000  1.0 -0.0186299242
C  C105  1  0.99270000  0.55330000  0.55330000  1.0 -0.0091796668
C  C106  1  0.99270000  0.90070000  0.55330000  1.0 -0.0091796668
C  C107  1  0.55330000  0.55330000  0.90070000  1.0 -0.0186299242
C  C108  1  0.55330000  0.55330000  0.99270000  1.0 -0.0186299242
C  C109  1  0.55330000  0.90070000  0.99270000  1.0 -0.0186299242
C  C110  1  0.99270000  0.55330000  0.90070000  1.0 -0.0186299242
C  C111  1  0.90070000  0.99270000  0.55330000  1.0 -0.0186299242
C  C112  1  0.00730000  0.44670000  0.09930000  1.0 -0.0186299242
C  C113  1  0.44670000  0.09930000  0.00730000  1.0 -0.0091796668
C  C114  1  0.09930000  0.00730000  0.44670000  1.0 -0.0091796668
C  C115  1  0.44670000  0.00730000  0.44670000  1.0 -0.0091796668
C  C116  1  0.44670000  0.09930000  0.44670000  1.0 -0.0186299242
C  C117  1  0.09930000  0.44670000  0.44670000  1.0 -0.0091796668
C  C118  1  0.00730000  0.44670000  0.44670000  1.0 -0.0186299242
C  C119  1  0.44670000  0.44670000  0.09930000  1.0 -0.0186299242
C  C120  1  0.44670000  0.44670000  0.00730000  1.0 -0.0091796668
O  O1  1  0.25000000  0.25000000  0.25000000  1.0 -0.959837541
O  O2  1  0.75000000  0.75000000  0.75000000  1.0 -0.959837541
O  O3  1  0.34770000  0.10150000  0.20310000  1.0 -0.4473260454
O  O4  1  0.20310000  0.34770000  0.10150000  1.0 -0.4473260454
O  O5  1  0.10150000  0.20310000  0.34770000  1.0 -0.4473260454
O  O6  1  0.65230000  0.89850000  0.65230000  1.0 -0.4473260454
O  O7  1  0.79690000  0.65230000  0.89850000  1.0 -0.4473260454
O  O8  1  0.65230000  0.79690000  0.65230000  1.0 -0.4448548109
O  O9  1  0.79690000  0.65230000  0.65230000  1.0 -0.4473260454
O  O10  1  0.65230000  0.89850000  0.79690000  1.0 -0.4473260454
O  O11  1  0.89850000  0.65230000  0.65230000  1.0 -0.4473260454
O  O12  1  0.89850000  0.79690000  0.65230000  1.0 -0.4473260454
O  O13  1  0.65230000  0.65230000  0.79690000  1.0 -0.4473260454
O  O14  1  0.65230000  0.65230000  0.89850000  1.0 -0.4473260454
O  O15  1  0.65230000  0.79690000  0.89850000  1.0 -0.4473260454
O  O16  1  0.89850000  0.65230000  0.79690000  1.0 -0.4473260454
O  O17  1  0.79690000  0.89850000  0.65230000  1.0 -0.4473260454
O  O18  1  0.10150000  0.34770000  0.20310000  1.0 -0.4473260454
O  O19  1  0.34770000  0.20310000  0.10150000  1.0 -0.4473260454
O  O20  1  0.20310000  0.10150000  0.34770000  1.0 -0.4473260454
O  O21  1  0.34770000  0.10150000  0.34770000  1.0 -0.4473260454
O  O22  1  0.34770000  0.20310000  0.34770000  1.0 -0.4473260454
O  O23  1  0.20310000  0.34770000  0.34770000  1.0 -0.4473260454
O  O24  1  0.10150000  0.34770000  0.34770000  1.0 -0.4473260454
O  O25  1  0.34770000  0.34770000  0.20310000  1.0 -0.4473260454
O  O26  1  0.34770000  0.34770000  0.10150000  1.0 -0.4473260454
