# DDEC6 charges by PACMAN v1.1 (https://github.com/mtap-research/PACMAN-charge/)
data_EDUVAA_ASR_pacman
_symmetry_space_group_name_H-M   'P 1'
_cell_length_a   17.14690000
_cell_length_b   23.32220000
_cell_length_c   25.25520000
_cell_angle_alpha   90.00000000
_cell_angle_beta   90.00000000
_cell_angle_gamma   90.00000000
_symmetry_Int_Tables_number   1
_chemical_formula_structural   Zn4H28C46O13
_chemical_formula_sum   'Zn16 H112 C184 O52'
_cell_volume   10099.64113514
_cell_formula_units_Z   4
loop_
 _symmetry_equiv_pos_site_id
 _symmetry_equiv_pos_as_xyz
  1  'x, y, z'
loop_
 _atom_site_type_symbol
 _atom_site_label
 _atom_site_symmetry_multiplicity
 _atom_site_fract_x
 _atom_site_fract_y
 _atom_site_fract_z
 _atom_site_occupancy
 _atom_site_charge
Zn  Zn1  1  0.20808000  0.58190000  0.50000000  1.0 0.9379895052
Zn  Zn2  1  0.29192000  0.08190000  0.00000000  1.0 0.9379895052
Zn  Zn3  1  0.20198000  0.71798000  0.50000000  1.0 0.9579857906
Zn  Zn4  1  0.29802000  0.21798000  0.00000000  1.0 0.9579857906
Zn  Zn5  1  0.33571000  0.65179000  0.43722000  1.0 0.9489348998
Zn  Zn6  1  0.16429000  0.15179000  0.06278000  1.0 0.9489348998
Zn  Zn7  1  0.16429000  0.15179000  0.93722000  1.0 0.9489348998
Zn  Zn8  1  0.33571000  0.65179000  0.56278000  1.0 0.9489348998
Zn  Zn9  1  0.70808000  0.91810000  0.00000000  1.0 0.9379895052
Zn  Zn10  1  0.79192000  0.41810000  0.50000000  1.0 0.9379895052
Zn  Zn11  1  0.70198000  0.78202000  0.00000000  1.0 0.9579857906
Zn  Zn12  1  0.79802000  0.28202000  0.50000000  1.0 0.9579857906
Zn  Zn13  1  0.83571000  0.84821000  0.93722000  1.0 0.9489348998
Zn  Zn14  1  0.83571000  0.84821000  0.06278000  1.0 0.9489348998
Zn  Zn15  1  0.66429000  0.34821000  0.43722000  1.0 0.9489348998
Zn  Zn16  1  0.66429000  0.34821000  0.56278000  1.0 0.9489348998
H  H1  1  0.33280000  0.34230000  0.88310000  1.0 0.1211462024
H  H2  1  0.16720000  0.84230000  0.61690000  1.0 0.1211462024
H  H3  1  0.16720000  0.84230000  0.38310000  1.0 0.1211462024
H  H4  1  0.33280000  0.34230000  0.11690000  1.0 0.1211462024
H  H5  1  0.34420000  0.40510000  0.81130000  1.0 0.1102357182
H  H6  1  0.15580000  0.90510000  0.68870000  1.0 0.1102357182
H  H7  1  0.15580000  0.90510000  0.31130000  1.0 0.1102357182
H  H8  1  0.34420000  0.40510000  0.18870000  1.0 0.1102357182
H  H9  1  0.15140000  0.33850000  0.74790000  1.0 0.1102357182
H  H10  1  0.34860000  0.83850000  0.75210000  1.0 0.1102357182
H  H11  1  0.34860000  0.83850000  0.24790000  1.0 0.1102357182
H  H12  1  0.15140000  0.33850000  0.25210000  1.0 0.1102357182
H  H13  1  0.15800000  0.26520000  0.80820000  1.0 0.1211462024
H  H14  1  0.34200000  0.76520000  0.69180000  1.0 0.1211462024
H  H15  1  0.34200000  0.76520000  0.30820000  1.0 0.1211462024
H  H16  1  0.15800000  0.26520000  0.19180000  1.0 0.1211462024
H  H17  1  0.17770000  0.38430000  0.68420000  1.0 0.1211462024
H  H18  1  0.32230000  0.88430000  0.81580000  1.0 0.1211462024
H  H19  1  0.32230000  0.88430000  0.18420000  1.0 0.1211462024
H  H20  1  0.17770000  0.38430000  0.31580000  1.0 0.1211462024
H  H21  1  0.19080000  0.44460000  0.61000000  1.0 0.1102357182
H  H22  1  0.30920000  0.94460000  0.89000000  1.0 0.1102357182
H  H23  1  0.30920000  0.94460000  0.11000000  1.0 0.1102357182
H  H24  1  0.19080000  0.44460000  0.39000000  1.0 0.1102357182
H  H25  1  0.32510000  0.54730000  0.69790000  1.0 0.1211462024
H  H26  1  0.17490000  0.04730000  0.80210000  1.0 0.1211462024
H  H27  1  0.17490000  0.04730000  0.19790000  1.0 0.1211462024
H  H28  1  0.32510000  0.54730000  0.30210000  1.0 0.1211462024
H  H29  1  0.32340000  0.47830000  0.76410000  1.0 0.1102357182
H  H30  1  0.17660000  0.97830000  0.73590000  1.0 0.1102357182
H  H31  1  0.17660000  0.97830000  0.26410000  1.0 0.1102357182
H  H32  1  0.32340000  0.47830000  0.23590000  1.0 0.1102357182
H  H33  1  0.57900000  0.69540000  0.43320000  1.0 0.1102357182
H  H34  1  0.92100000  0.19540000  0.06680000  1.0 0.1102357182
H  H35  1  0.92100000  0.19540000  0.93320000  1.0 0.1102357182
H  H36  1  0.57900000  0.69540000  0.56680000  1.0 0.1102357182
H  H37  1  0.70960000  0.69330000  0.43050000  1.0 0.1039775406
H  H38  1  0.79040000  0.19330000  0.06950000  1.0 0.1039775406
H  H39  1  0.79040000  0.19330000  0.93050000  1.0 0.1039775406
H  H40  1  0.70960000  0.69330000  0.56950000  1.0 0.1039775406
H  H41  1  0.82610000  0.72700000  0.50000000  1.0 0.1211462024
H  H42  1  0.67390000  0.22700000  0.00000000  1.0 0.1211462024
H  H43  1  0.96450000  0.72650000  0.50000000  1.0 0.1211462024
H  H44  1  0.53550000  0.22650000  0.00000000  1.0 0.1211462024
H  H45  1  0.95820000  0.55760000  0.50000000  1.0 0.1278308948
H  H46  1  0.54180000  0.05760000  0.00000000  1.0 0.1278308948
H  H47  1  0.82420000  0.55860000  0.50000000  1.0 0.1278308948
H  H48  1  0.67580000  0.05860000  0.00000000  1.0 0.1278308948
H  H49  1  0.58290000  0.61180000  0.42980000  1.0 0.1102357182
H  H50  1  0.91710000  0.11180000  0.07020000  1.0 0.1102357182
H  H51  1  0.91710000  0.11180000  0.92980000  1.0 0.1102357182
H  H52  1  0.58290000  0.61180000  0.57020000  1.0 0.1102357182
H  H53  1  0.71240000  0.61100000  0.43240000  1.0 0.1102357182
H  H54  1  0.78760000  0.11100000  0.06760000  1.0 0.1102357182
H  H55  1  0.78760000  0.11100000  0.93240000  1.0 0.1102357182
H  H56  1  0.71240000  0.61100000  0.56760000  1.0 0.1102357182
H  H57  1  0.83280000  0.15770000  0.38310000  1.0 0.1211462024
H  H58  1  0.83280000  0.15770000  0.61690000  1.0 0.1211462024
H  H59  1  0.66720000  0.65770000  0.88310000  1.0 0.1211462024
H  H60  1  0.66720000  0.65770000  0.11690000  1.0 0.1211462024
H  H61  1  0.84420000  0.09490000  0.31130000  1.0 0.1102357182
H  H62  1  0.84420000  0.09490000  0.68870000  1.0 0.1102357182
H  H63  1  0.65580000  0.59490000  0.81130000  1.0 0.1102357182
H  H64  1  0.65580000  0.59490000  0.18870000  1.0 0.1102357182
H  H65  1  0.65140000  0.16150000  0.24790000  1.0 0.1102357182
H  H66  1  0.65140000  0.16150000  0.75210000  1.0 0.1102357182
H  H67  1  0.84860000  0.66150000  0.74790000  1.0 0.1102357182
H  H68  1  0.84860000  0.66150000  0.25210000  1.0 0.1102357182
H  H69  1  0.65800000  0.23480000  0.30820000  1.0 0.1211462024
H  H70  1  0.65800000  0.23480000  0.69180000  1.0 0.1211462024
H  H71  1  0.84200000  0.73480000  0.80820000  1.0 0.1211462024
H  H72  1  0.84200000  0.73480000  0.19180000  1.0 0.1211462024
H  H73  1  0.67770000  0.11570000  0.18420000  1.0 0.1211462024
H  H74  1  0.67770000  0.11570000  0.81580000  1.0 0.1211462024
H  H75  1  0.82230000  0.61570000  0.68420000  1.0 0.1211462024
H  H76  1  0.82230000  0.61570000  0.31580000  1.0 0.1211462024
H  H77  1  0.69080000  0.05540000  0.11000000  1.0 0.1102357182
H  H78  1  0.69080000  0.05540000  0.89000000  1.0 0.1102357182
H  H79  1  0.80920000  0.55540000  0.61000000  1.0 0.1102357182
H  H80  1  0.80920000  0.55540000  0.39000000  1.0 0.1102357182
H  H81  1  0.82510000  0.95270000  0.19790000  1.0 0.1211462024
H  H82  1  0.82510000  0.95270000  0.80210000  1.0 0.1211462024
H  H83  1  0.67490000  0.45270000  0.69790000  1.0 0.1211462024
H  H84  1  0.67490000  0.45270000  0.30210000  1.0 0.1211462024
H  H85  1  0.82340000  0.02170000  0.26410000  1.0 0.1102357182
H  H86  1  0.82340000  0.02170000  0.73590000  1.0 0.1102357182
H  H87  1  0.67660000  0.52170000  0.76410000  1.0 0.1102357182
H  H88  1  0.67660000  0.52170000  0.23590000  1.0 0.1102357182
H  H89  1  0.07900000  0.80460000  0.93320000  1.0 0.1102357182
H  H90  1  0.07900000  0.80460000  0.06680000  1.0 0.1102357182
H  H91  1  0.42100000  0.30460000  0.43320000  1.0 0.1102357182
H  H92  1  0.42100000  0.30460000  0.56680000  1.0 0.1102357182
H  H93  1  0.20960000  0.80670000  0.93050000  1.0 0.1039775406
H  H94  1  0.20960000  0.80670000  0.06950000  1.0 0.1039775406
H  H95  1  0.29040000  0.30670000  0.43050000  1.0 0.1039775406
H  H96  1  0.29040000  0.30670000  0.56950000  1.0 0.1039775406
H  H97  1  0.32610000  0.77300000  0.00000000  1.0 0.1211462024
H  H98  1  0.17390000  0.27300000  0.50000000  1.0 0.1211462024
H  H99  1  0.46450000  0.77350000  0.00000000  1.0 0.1211462024
H  H100  1  0.03550000  0.27350000  0.50000000  1.0 0.1211462024
H  H101  1  0.45820000  0.94240000  0.00000000  1.0 0.1278308948
H  H102  1  0.04180000  0.44240000  0.50000000  1.0 0.1278308948
H  H103  1  0.32420000  0.94140000  0.00000000  1.0 0.1278308948
H  H104  1  0.17580000  0.44140000  0.50000000  1.0 0.1278308948
H  H105  1  0.08290000  0.88820000  0.92980000  1.0 0.1102357182
H  H106  1  0.08290000  0.88820000  0.07020000  1.0 0.1102357182
H  H107  1  0.41710000  0.38820000  0.42980000  1.0 0.1102357182
H  H108  1  0.41710000  0.38820000  0.57020000  1.0 0.1102357182
H  H109  1  0.21240000  0.88900000  0.93240000  1.0 0.1102357182
H  H110  1  0.21240000  0.88900000  0.06760000  1.0 0.1102357182
H  H111  1  0.28760000  0.38900000  0.43240000  1.0 0.1102357182
H  H112  1  0.28760000  0.38900000  0.56760000  1.0 0.1102357182
C  C1  1  0.24040000  0.29910000  0.85580000  1.0 -0.0896627417
C  C2  1  0.25960000  0.79910000  0.64420000  1.0 -0.0896627417
C  C3  1  0.25960000  0.79910000  0.35580000  1.0 -0.0896627417
C  C4  1  0.24040000  0.29910000  0.14420000  1.0 -0.0896627417
C  C5  1  0.29660000  0.33990000  0.85480000  1.0 -0.0839198866
C  C6  1  0.20340000  0.83990000  0.64520000  1.0 -0.0896627417
C  C7  1  0.20340000  0.83990000  0.35480000  1.0 -0.0896627417
C  C8  1  0.29660000  0.33990000  0.14520000  1.0 -0.0839198866
C  C9  1  0.30190000  0.37880000  0.81210000  1.0 -0.1549294422
C  C10  1  0.19810000  0.87880000  0.68790000  1.0 -0.1549294422
C  C11  1  0.19810000  0.87880000  0.31210000  1.0 -0.1549294422
C  C12  1  0.30190000  0.37880000  0.18790000  1.0 -0.1635194097
C  C13  1  0.24910000  0.38000000  0.77240000  1.0 0.0837644408
C  C14  1  0.25090000  0.88000000  0.72760000  1.0 0.0837644408
C  C15  1  0.25090000  0.88000000  0.27240000  1.0 0.0837644408
C  C16  1  0.24910000  0.38000000  0.22760000  1.0 0.0837644408
C  C17  1  0.19160000  0.33830000  0.77380000  1.0 -0.1635194097
C  C18  1  0.30840000  0.83830000  0.72620000  1.0 -0.1635194097
C  C19  1  0.30840000  0.83830000  0.27380000  1.0 -0.1635194097
C  C20  1  0.19160000  0.33830000  0.22620000  1.0 -0.1635194097
C  C21  1  0.19230000  0.29700000  0.81190000  1.0 -0.0839198866
C  C22  1  0.30770000  0.79700000  0.68810000  1.0 -0.0839198866
C  C23  1  0.30770000  0.79700000  0.31190000  1.0 -0.0839198866
C  C24  1  0.19230000  0.29700000  0.18810000  1.0 -0.0839198866
C  C25  1  0.25590000  0.42110000  0.72820000  1.0 0.074672429
C  C26  1  0.24410000  0.92110000  0.77180000  1.0 0.074672429
C  C27  1  0.24410000  0.92110000  0.22820000  1.0 0.074672429
C  C28  1  0.25590000  0.42110000  0.27180000  1.0 0.074672429
C  C29  1  0.21360000  0.41520000  0.68580000  1.0 -0.1635194097
C  C30  1  0.28640000  0.91520000  0.81420000  1.0 -0.1635194097
C  C31  1  0.28640000  0.91520000  0.18580000  1.0 -0.1635194097
C  C32  1  0.21360000  0.41520000  0.31420000  1.0 -0.1635194097
C  C33  1  0.21860000  0.45300000  0.64160000  1.0 -0.0980135108
C  C34  1  0.28140000  0.95300000  0.85840000  1.0 -0.0980135108
C  C35  1  0.28140000  0.95300000  0.14160000  1.0 -0.0980135108
C  C36  1  0.21860000  0.45300000  0.35840000  1.0 -0.0980135108
C  C37  1  0.26390000  0.50180000  0.64500000  1.0 -0.0528341425
C  C38  1  0.23610000  0.00180000  0.85500000  1.0 -0.0528341425
C  C39  1  0.23610000  0.00180000  0.14500000  1.0 -0.0528341425
C  C40  1  0.26390000  0.50180000  0.35500000  1.0 -0.0528341425
C  C41  1  0.29870000  0.51210000  0.69210000  1.0 -0.0896627417
C  C42  1  0.20130000  0.01210000  0.80790000  1.0 -0.0896627417
C  C43  1  0.20130000  0.01210000  0.19210000  1.0 -0.0896627417
C  C44  1  0.29870000  0.51210000  0.30790000  1.0 -0.0896627417
C  C45  1  0.29580000  0.47090000  0.73220000  1.0 -0.1858776539
C  C46  1  0.20420000  0.97090000  0.76780000  1.0 -0.1858776539
C  C47  1  0.20420000  0.97090000  0.23220000  1.0 -0.1858776539
C  C48  1  0.29580000  0.47090000  0.26780000  1.0 -0.1858776539
C  C49  1  0.23750000  0.25800000  0.89850000  1.0 0.5883519789
C  C50  1  0.26250000  0.75800000  0.60150000  1.0 0.5883519789
C  C51  1  0.26250000  0.75800000  0.39850000  1.0 0.5883519789
C  C52  1  0.23750000  0.25800000  0.10150000  1.0 0.5883519789
C  C53  1  0.26640000  0.54310000  0.60090000  1.0 0.5883519789
C  C54  1  0.23360000  0.04310000  0.89910000  1.0 0.5883519789
C  C55  1  0.23360000  0.04310000  0.10090000  1.0 0.5883519789
C  C56  1  0.26640000  0.54310000  0.39910000  1.0 0.5883519789
C  C57  1  0.47360000  0.65660000  0.50000000  1.0 0.574545455
C  C58  1  0.02640000  0.15660000  0.00000000  1.0 0.574545455
C  C59  1  0.56550000  0.65340000  0.50000000  1.0 -0.0373768919
C  C60  1  0.93450000  0.15340000  0.00000000  1.0 -0.0373768919
C  C61  1  0.60640000  0.67690000  0.46110000  1.0 -0.0528341425
C  C62  1  0.89360000  0.17690000  0.03890000  1.0 -0.0581045776
C  C63  1  0.89360000  0.17690000  0.96110000  1.0 -0.0581045776
C  C64  1  0.60640000  0.67690000  0.53890000  1.0 -0.0528341425
C  C65  1  0.68280000  0.67560000  0.45920000  1.0 -0.0581045776
C  C66  1  0.81720000  0.17560000  0.04080000  1.0 -0.0581045776
C  C67  1  0.81720000  0.17560000  0.95920000  1.0 -0.0581045776
C  C68  1  0.68280000  0.67560000  0.54080000  1.0 -0.0581045776
C  C69  1  0.72520000  0.64780000  0.50000000  1.0 -0.0064857702
C  C70  1  0.77480000  0.14780000  0.00000000  1.0 -0.0064857702
C  C71  1  0.81180000  0.64290000  0.50000000  1.0 0.0443232787
C  C72  1  0.68820000  0.14290000  0.00000000  1.0 0.0443232787
C  C73  1  0.85290000  0.69130000  0.50000000  1.0 -0.1635194097
C  C74  1  0.64710000  0.19130000  0.00000000  1.0 -0.1635194097
C  C75  1  0.93690000  0.69110000  0.50000000  1.0 -0.0896627417
C  C76  1  0.56310000  0.19110000  0.00000000  1.0 -0.0896627417
C  C77  1  0.97620000  0.64200000  0.50000000  1.0 -0.0373768919
C  C78  1  0.52380000  0.14200000  0.00000000  1.0 -0.0373768919
C  C79  1  0.93230000  0.59360000  0.50000000  1.0 -0.0896627417
C  C80  1  0.56770000  0.09360000  0.00000000  1.0 -0.0896627417
C  C81  1  0.85170000  0.59400000  0.50000000  1.0 -0.1635194097
C  C82  1  0.64830000  0.09400000  0.00000000  1.0 -0.1635194097
C  C83  1  0.06150000  0.64350000  0.50000000  1.0 0.5883519789
C  C84  1  0.43850000  0.14350000  0.00000000  1.0 0.5883519789
C  C85  1  0.60900000  0.62840000  0.45920000  1.0 -0.0681849642
C  C86  1  0.89100000  0.12840000  0.04080000  1.0 -0.0681849642
C  C87  1  0.89100000  0.12840000  0.95920000  1.0 -0.0681849642
C  C88  1  0.60900000  0.62840000  0.54080000  1.0 -0.0681849642
C  C89  1  0.68500000  0.62760000  0.46130000  1.0 -0.0681849642
C  C90  1  0.81500000  0.12760000  0.03870000  1.0 -0.0681849642
C  C91  1  0.81500000  0.12760000  0.96130000  1.0 -0.0681849642
C  C92  1  0.68500000  0.62760000  0.53870000  1.0 -0.0681849642
C  C93  1  0.74040000  0.20090000  0.35580000  1.0 -0.0896627417
C  C94  1  0.74040000  0.20090000  0.64420000  1.0 -0.0896627417
C  C95  1  0.75960000  0.70090000  0.85580000  1.0 -0.0896627417
C  C96  1  0.75960000  0.70090000  0.14420000  1.0 -0.0896627417
C  C97  1  0.79660000  0.16010000  0.35480000  1.0 -0.0839198866
C  C98  1  0.79660000  0.16010000  0.64520000  1.0 -0.0839198866
C  C99  1  0.70340000  0.66010000  0.85480000  1.0 -0.0839198866
C  C100  1  0.70340000  0.66010000  0.14520000  1.0 -0.0839198866
C  C101  1  0.80190000  0.12120000  0.31210000  1.0 -0.1635194097
C  C102  1  0.80190000  0.12120000  0.68790000  1.0 -0.1549294422
C  C103  1  0.69810000  0.62120000  0.81210000  1.0 -0.1635194097
C  C104  1  0.69810000  0.62120000  0.18790000  1.0 -0.1635194097
C  C105  1  0.74910000  0.12000000  0.27240000  1.0 0.0837644408
C  C106  1  0.74910000  0.12000000  0.72760000  1.0 0.0837644408
C  C107  1  0.75090000  0.62000000  0.77240000  1.0 0.0851821472
C  C108  1  0.75090000  0.62000000  0.22760000  1.0 0.0851821472
C  C109  1  0.69160000  0.16170000  0.27380000  1.0 -0.1635194097
C  C110  1  0.69160000  0.16170000  0.72620000  1.0 -0.1635194097
C  C111  1  0.80840000  0.66170000  0.77380000  1.0 -0.1635194097
C  C112  1  0.80840000  0.66170000  0.22620000  1.0 -0.1635194097
C  C113  1  0.69230000  0.20300000  0.31190000  1.0 -0.0839198866
C  C114  1  0.69230000  0.20300000  0.68810000  1.0 -0.0839198866
C  C115  1  0.80770000  0.70300000  0.81190000  1.0 -0.0839198866
C  C116  1  0.80770000  0.70300000  0.18810000  1.0 -0.0839198866
C  C117  1  0.75590000  0.07890000  0.22820000  1.0 0.074672429
C  C118  1  0.75590000  0.07890000  0.77180000  1.0 0.074672429
C  C119  1  0.74410000  0.57890000  0.72820000  1.0 0.074672429
C  C120  1  0.74410000  0.57890000  0.27180000  1.0 0.074672429
C  C121  1  0.71360000  0.08480000  0.18580000  1.0 -0.1635194097
C  C122  1  0.71360000  0.08480000  0.81420000  1.0 -0.1635194097
C  C123  1  0.78640000  0.58480000  0.68580000  1.0 -0.1635194097
C  C124  1  0.78640000  0.58480000  0.31420000  1.0 -0.1635194097
C  C125  1  0.71860000  0.04700000  0.14160000  1.0 -0.0980135108
C  C126  1  0.71860000  0.04700000  0.85840000  1.0 -0.0980135108
C  C127  1  0.78140000  0.54700000  0.64160000  1.0 -0.0980135108
C  C128  1  0.78140000  0.54700000  0.35840000  1.0 -0.0980135108
C  C129  1  0.76390000  0.99820000  0.14500000  1.0 -0.0528341425
C  C130  1  0.76390000  0.99820000  0.85500000  1.0 -0.0528341425
C  C131  1  0.73610000  0.49820000  0.64500000  1.0 -0.0528341425
C  C132  1  0.73610000  0.49820000  0.35500000  1.0 -0.0528341425
C  C133  1  0.79870000  0.98790000  0.19210000  1.0 -0.0896627417
C  C134  1  0.79870000  0.98790000  0.80790000  1.0 -0.0896627417
C  C135  1  0.70130000  0.48790000  0.69210000  1.0 -0.0896627417
C  C136  1  0.70130000  0.48790000  0.30790000  1.0 -0.0896627417
C  C137  1  0.79580000  0.02910000  0.23220000  1.0 -0.1858776539
C  C138  1  0.79580000  0.02910000  0.76780000  1.0 -0.1858776539
C  C139  1  0.70420000  0.52910000  0.73220000  1.0 -0.1838918904
C  C140  1  0.70420000  0.52910000  0.26780000  1.0 -0.1838918904
C  C141  1  0.73750000  0.24200000  0.39850000  1.0 0.5883519789
C  C142  1  0.73750000  0.24200000  0.60150000  1.0 0.5883519789
C  C143  1  0.76250000  0.74200000  0.89850000  1.0 0.5883519789
C  C144  1  0.76250000  0.74200000  0.10150000  1.0 0.5883519789
C  C145  1  0.76640000  0.95690000  0.10090000  1.0 0.5883519789
C  C146  1  0.76640000  0.95690000  0.89910000  1.0 0.5883519789
C  C147  1  0.73360000  0.45690000  0.60090000  1.0 0.5883519789
C  C148  1  0.73360000  0.45690000  0.39910000  1.0 0.5883519789
C  C149  1  0.97360000  0.84340000  0.00000000  1.0 0.574545455
C  C150  1  0.52640000  0.34340000  0.50000000  1.0 0.5755966028
C  C151  1  0.06550000  0.84660000  0.00000000  1.0 -0.0373768919
C  C152  1  0.43450000  0.34660000  0.50000000  1.0 -0.0373768919
C  C153  1  0.10640000  0.82310000  0.96110000  1.0 -0.0528341425
C  C154  1  0.10640000  0.82310000  0.03890000  1.0 -0.0528341425
C  C155  1  0.39360000  0.32310000  0.46110000  1.0 -0.0581045776
C  C156  1  0.39360000  0.32310000  0.53890000  1.0 -0.0581045776
C  C157  1  0.18280000  0.82440000  0.95920000  1.0 -0.0581045776
C  C158  1  0.18280000  0.82440000  0.04080000  1.0 -0.0581045776
C  C159  1  0.31720000  0.32440000  0.45920000  1.0 -0.0581045776
C  C160  1  0.31720000  0.32440000  0.54080000  1.0 -0.0581045776
C  C161  1  0.22520000  0.85220000  0.00000000  1.0 -0.0064857702
C  C162  1  0.27480000  0.35220000  0.50000000  1.0 -0.0064857702
C  C163  1  0.31180000  0.85710000  0.00000000  1.0 0.0443232787
C  C164  1  0.18820000  0.35710000  0.50000000  1.0 0.0443232787
C  C165  1  0.35290000  0.80870000  0.00000000  1.0 -0.1635194097
C  C166  1  0.14710000  0.30870000  0.50000000  1.0 -0.1635194097
C  C167  1  0.43690000  0.80890000  0.00000000  1.0 -0.0980135108
C  C168  1  0.06310000  0.30890000  0.50000000  1.0 -0.0980135108
C  C169  1  0.47620000  0.85800000  0.00000000  1.0 -0.0373768919
C  C170  1  0.02380000  0.35800000  0.50000000  1.0 -0.0373768919
C  C171  1  0.43230000  0.90640000  0.00000000  1.0 -0.0896627417
C  C172  1  0.06770000  0.40640000  0.50000000  1.0 -0.0896627417
C  C173  1  0.35170000  0.90600000  0.00000000  1.0 -0.1635194097
C  C174  1  0.14830000  0.40600000  0.50000000  1.0 -0.1635194097
C  C175  1  0.56150000  0.85650000  0.00000000  1.0 0.5883519789
C  C176  1  0.93850000  0.35650000  0.50000000  1.0 0.5883519789
C  C177  1  0.10900000  0.87160000  0.95920000  1.0 -0.0681849642
C  C178  1  0.10900000  0.87160000  0.04080000  1.0 -0.0681849642
C  C179  1  0.39100000  0.37160000  0.45920000  1.0 -0.0681849642
C  C180  1  0.39100000  0.37160000  0.54080000  1.0 -0.0681849642
C  C181  1  0.18500000  0.87240000  0.96130000  1.0 -0.0681849642
C  C182  1  0.18500000  0.87240000  0.03870000  1.0 -0.0681849642
C  C183  1  0.31500000  0.37240000  0.46130000  1.0 -0.0681849642
C  C184  1  0.31500000  0.37240000  0.53870000  1.0 -0.0681849642
O  O1  1  0.26950000  0.65120000  0.50000000  1.0 -1.0361600498
O  O2  1  0.23050000  0.15120000  0.00000000  1.0 -1.0361600498
O  O3  1  0.18710000  0.21770000  0.89390000  1.0 -0.5481044451
O  O4  1  0.31290000  0.71770000  0.60610000  1.0 -0.5481044451
O  O5  1  0.31290000  0.71770000  0.39390000  1.0 -0.5481044451
O  O6  1  0.18710000  0.21770000  0.10610000  1.0 -0.5481044451
O  O7  1  0.28380000  0.26350000  0.93720000  1.0 -0.5391581905
O  O8  1  0.21620000  0.76350000  0.56280000  1.0 -0.5391581905
O  O9  1  0.21620000  0.76350000  0.43720000  1.0 -0.5391581905
O  O10  1  0.28380000  0.26350000  0.06280000  1.0 -0.5391581905
O  O11  1  0.22580000  0.53293000  0.56071000  1.0 -0.5391581905
O  O12  1  0.27420000  0.03293000  0.93929000  1.0 -0.5391581905
O  O13  1  0.27420000  0.03293000  0.06071000  1.0 -0.5391581905
O  O14  1  0.22580000  0.53293000  0.43929000  1.0 -0.5391581905
O  O15  1  0.30790000  0.58670000  0.60690000  1.0 -0.521263426
O  O16  1  0.19210000  0.08670000  0.89310000  1.0 -0.521263426
O  O17  1  0.19210000  0.08670000  0.10690000  1.0 -0.521263426
O  O18  1  0.30790000  0.58670000  0.39310000  1.0 -0.521263426
O  O19  1  0.44370000  0.65420000  0.45490000  1.0 -0.521263426
O  O20  1  0.05630000  0.15420000  0.04510000  1.0 -0.521263426
O  O21  1  0.05630000  0.15420000  0.95490000  1.0 -0.521263426
O  O22  1  0.44370000  0.65420000  0.54510000  1.0 -0.521263426
O  O23  1  0.09550000  0.59440000  0.50000000  1.0 -0.5391581905
O  O24  1  0.40450000  0.09440000  0.00000000  1.0 -0.5391581905
O  O25  1  0.09590000  0.69210000  0.50000000  1.0 -0.5481044451
O  O26  1  0.40410000  0.19210000  0.00000000  1.0 -0.5391581905
O  O27  1  0.76950000  0.84880000  0.00000000  1.0 -1.0361600498
O  O28  1  0.73050000  0.34880000  0.50000000  1.0 -1.0361600498
O  O29  1  0.68710000  0.28230000  0.39390000  1.0 -0.5481044451
O  O30  1  0.68710000  0.28230000  0.60610000  1.0 -0.5481044451
O  O31  1  0.81290000  0.78230000  0.89390000  1.0 -0.5481044451
O  O32  1  0.81290000  0.78230000  0.10610000  1.0 -0.5481044451
O  O33  1  0.78380000  0.23650000  0.43720000  1.0 -0.5391581905
O  O34  1  0.78380000  0.23650000  0.56280000  1.0 -0.5391581905
O  O35  1  0.71620000  0.73650000  0.93720000  1.0 -0.5391581905
O  O36  1  0.71620000  0.73650000  0.06280000  1.0 -0.5391581905
O  O37  1  0.72580000  0.96707000  0.06071000  1.0 -0.5391581905
O  O38  1  0.72580000  0.96707000  0.93929000  1.0 -0.5391581905
O  O39  1  0.77420000  0.46707000  0.56071000  1.0 -0.5391581905
O  O40  1  0.77420000  0.46707000  0.43929000  1.0 -0.5391581905
O  O41  1  0.80790000  0.91330000  0.10690000  1.0 -0.521263426
O  O42  1  0.80790000  0.91330000  0.89310000  1.0 -0.521263426
O  O43  1  0.69210000  0.41330000  0.60690000  1.0 -0.521263426
O  O44  1  0.69210000  0.41330000  0.39310000  1.0 -0.521263426
O  O45  1  0.94370000  0.84580000  0.95490000  1.0 -0.521263426
O  O46  1  0.94370000  0.84580000  0.04510000  1.0 -0.521263426
O  O47  1  0.55630000  0.34580000  0.45490000  1.0 -0.521263426
O  O48  1  0.55630000  0.34580000  0.54510000  1.0 -0.521263426
O  O49  1  0.59550000  0.90560000  0.00000000  1.0 -0.5391581905
O  O50  1  0.90450000  0.40560000  0.50000000  1.0 -0.5391581905
O  O51  1  0.59590000  0.80790000  0.00000000  1.0 -0.5391581905
O  O52  1  0.90410000  0.30790000  0.50000000  1.0 -0.5481044451
