# DDEC6 charges by PACMAN v1.1 (https://github.com/mtap-research/PACMAN-charge/)
data_EDUVII_ASR_pacman
_symmetry_space_group_name_H-M   'P 1'
_cell_length_a   24.24010000
_cell_length_b   24.24010000
_cell_length_c   24.24010000
_cell_angle_alpha   60.00000000
_cell_angle_beta   60.00000000
_cell_angle_gamma   60.00000000
_symmetry_Int_Tables_number   1
_chemical_formula_structural   Zn4H12C66O13
_chemical_formula_sum   'Zn8 H24 C132 O26'
_cell_volume   10071.36240025
_cell_formula_units_Z   2
loop_
 _symmetry_equiv_pos_site_id
 _symmetry_equiv_pos_as_xyz
  1  'x, y, z'
loop_
 _atom_site_type_symbol
 _atom_site_label
 _atom_site_symmetry_multiplicity
 _atom_site_fract_x
 _atom_site_fract_y
 _atom_site_fract_z
 _atom_site_occupancy
 _atom_site_charge
Zn  Zn1  1  0.21728000  0.21728000  0.21728000  1.0 0.9119936057
Zn  Zn2  1  0.78272000  0.78272000  0.65184000  1.0 0.9119936057
Zn  Zn3  1  0.78272000  0.65184000  0.78272000  1.0 0.9119936057
Zn  Zn4  1  0.65184000  0.78272000  0.78272000  1.0 0.9119936057
Zn  Zn5  1  0.78272000  0.78272000  0.78272000  1.0 0.9119936057
Zn  Zn6  1  0.21728000  0.21728000  0.34816000  1.0 0.9119936057
Zn  Zn7  1  0.21728000  0.34816000  0.21728000  1.0 0.9119936057
Zn  Zn8  1  0.34816000  0.21728000  0.21728000  1.0 0.9119936057
H  H1  1  0.09230000  0.09230000  0.32650000  1.0 0.1243620313
H  H2  1  0.32650000  0.09230000  0.09230000  1.0 0.1243620313
H  H3  1  0.09230000  0.32650000  0.09230000  1.0 0.1243620313
H  H4  1  0.90770000  0.90770000  0.51110000  1.0 0.1243620313
H  H5  1  0.67350000  0.51110000  0.90770000  1.0 0.1243620313
H  H6  1  0.51110000  0.67350000  0.90770000  1.0 0.1243620313
H  H7  1  0.67350000  0.90770000  0.51110000  1.0 0.1243620313
H  H8  1  0.51110000  0.90770000  0.67350000  1.0 0.1243620313
H  H9  1  0.90770000  0.51110000  0.90770000  1.0 0.1243620313
H  H10  1  0.90770000  0.67350000  0.51110000  1.0 0.1243620313
H  H11  1  0.90770000  0.51110000  0.67350000  1.0 0.1243620313
H  H12  1  0.51110000  0.90770000  0.90770000  1.0 0.1243620313
H  H13  1  0.90770000  0.90770000  0.67350000  1.0 0.1243620313
H  H14  1  0.67350000  0.90770000  0.90770000  1.0 0.1243620313
H  H15  1  0.90770000  0.67350000  0.90770000  1.0 0.1243620313
H  H16  1  0.09230000  0.09230000  0.48890000  1.0 0.1243620313
H  H17  1  0.32650000  0.48890000  0.09230000  1.0 0.1243620313
H  H18  1  0.48890000  0.32650000  0.09230000  1.0 0.1243620313
H  H19  1  0.32650000  0.09230000  0.48890000  1.0 0.1243620313
H  H20  1  0.48890000  0.09230000  0.32650000  1.0 0.1243620313
H  H21  1  0.09230000  0.48890000  0.09230000  1.0 0.1243620313
H  H22  1  0.09230000  0.32650000  0.48890000  1.0 0.1243620313
H  H23  1  0.09230000  0.48890000  0.32650000  1.0 0.1243620313
H  H24  1  0.48890000  0.09230000  0.09230000  1.0 0.1243620313
C  C1  1  0.14590000  0.14590000  0.35410000  1.0 0.5867059358
C  C2  1  0.35410000  0.14590000  0.14590000  1.0 0.5867059358
C  C3  1  0.14590000  0.35410000  0.14590000  1.0 0.5867059358
C  C4  1  0.85410000  0.85410000  0.64590000  1.0 0.5867059358
C  C5  1  0.64590000  0.64590000  0.85410000  1.0 0.5867059358
C  C6  1  0.64590000  0.85410000  0.64590000  1.0 0.5867059358
C  C7  1  0.85410000  0.64590000  0.85410000  1.0 0.5867059358
C  C8  1  0.85410000  0.64590000  0.64590000  1.0 0.5867059358
C  C9  1  0.64590000  0.85410000  0.85410000  1.0 0.5867059358
C  C10  1  0.35410000  0.35410000  0.14590000  1.0 0.5867059358
C  C11  1  0.35410000  0.14590000  0.35410000  1.0 0.5867059358
C  C12  1  0.14590000  0.35410000  0.35410000  1.0 0.5867059358
C  C13  1  0.10240000  0.10240000  0.39760000  1.0 -0.027742905
C  C14  1  0.39760000  0.10240000  0.10240000  1.0 -0.027742905
C  C15  1  0.10240000  0.39760000  0.10240000  1.0 -0.027742905
C  C16  1  0.89760000  0.89760000  0.60240000  1.0 -0.027742905
C  C17  1  0.60240000  0.60240000  0.89760000  1.0 -0.027742905
C  C18  1  0.60240000  0.89760000  0.60240000  1.0 -0.027742905
C  C19  1  0.89760000  0.60240000  0.89760000  1.0 -0.027742905
C  C20  1  0.89760000  0.60240000  0.60240000  1.0 -0.027742905
C  C21  1  0.60240000  0.89760000  0.89760000  1.0 -0.027742905
C  C22  1  0.39760000  0.39760000  0.10240000  1.0 -0.027742905
C  C23  1  0.39760000  0.10240000  0.39760000  1.0 -0.027742905
C  C24  1  0.10240000  0.39760000  0.39760000  1.0 -0.027742905
C  C25  1  0.07930000  0.07930000  0.37410000  1.0 -0.1680921132
C  C26  1  0.37410000  0.07930000  0.07930000  1.0 -0.1680921132
C  C27  1  0.07930000  0.37410000  0.07930000  1.0 -0.1680921132
C  C28  1  0.92070000  0.92070000  0.53270000  1.0 -0.1680921132
C  C29  1  0.62590000  0.53270000  0.92070000  1.0 -0.1637889764
C  C30  1  0.53270000  0.62590000  0.92070000  1.0 -0.1680921132
C  C31  1  0.62590000  0.92070000  0.53270000  1.0 -0.1680921132
C  C32  1  0.53270000  0.92070000  0.62590000  1.0 -0.1680921132
C  C33  1  0.92070000  0.53270000  0.92070000  1.0 -0.1680921132
C  C34  1  0.92070000  0.62590000  0.53270000  1.0 -0.1637889764
C  C35  1  0.92070000  0.53270000  0.62590000  1.0 -0.1680921132
C  C36  1  0.53270000  0.92070000  0.92070000  1.0 -0.1680921132
C  C37  1  0.92070000  0.92070000  0.62590000  1.0 -0.1680921132
C  C38  1  0.62590000  0.92070000  0.92070000  1.0 -0.1680921132
C  C39  1  0.92070000  0.62590000  0.92070000  1.0 -0.1637889764
C  C40  1  0.07930000  0.07930000  0.46730000  1.0 -0.1680921132
C  C41  1  0.37410000  0.46730000  0.07930000  1.0 -0.1680921132
C  C42  1  0.46730000  0.37410000  0.07930000  1.0 -0.1680921132
C  C43  1  0.37410000  0.07930000  0.46730000  1.0 -0.1680921132
C  C44  1  0.46730000  0.07930000  0.37410000  1.0 -0.1680921132
C  C45  1  0.07930000  0.46730000  0.07930000  1.0 -0.1680921132
C  C46  1  0.07930000  0.37410000  0.46730000  1.0 -0.1680921132
C  C47  1  0.07930000  0.46730000  0.37410000  1.0 -0.1680921132
C  C48  1  0.46730000  0.07930000  0.07930000  1.0 -0.1680921132
C  C49  1  0.03870000  0.03870000  0.41370000  1.0 0.1043760383
C  C50  1  0.41370000  0.03870000  0.03870000  1.0 0.105335311
C  C51  1  0.03870000  0.41370000  0.03870000  1.0 0.105335311
C  C52  1  0.96130000  0.96130000  0.49110000  1.0 0.105335311
C  C53  1  0.58630000  0.49110000  0.96130000  1.0 0.1043760383
C  C54  1  0.49110000  0.58630000  0.96130000  1.0 0.1043760383
C  C55  1  0.58630000  0.96130000  0.49110000  1.0 0.105335311
C  C56  1  0.49110000  0.96130000  0.58630000  1.0 0.105335311
C  C57  1  0.96130000  0.49110000  0.96130000  1.0 0.105335311
C  C58  1  0.96130000  0.58630000  0.49110000  1.0 0.105335311
C  C59  1  0.96130000  0.49110000  0.58630000  1.0 0.105335311
C  C60  1  0.49110000  0.96130000  0.96130000  1.0 0.105335311
C  C61  1  0.96130000  0.96130000  0.58630000  1.0 0.105335311
C  C62  1  0.58630000  0.96130000  0.96130000  1.0 0.105335311
C  C63  1  0.96130000  0.58630000  0.96130000  1.0 0.105335311
C  C64  1  0.03870000  0.03870000  0.50890000  1.0 0.105335311
C  C65  1  0.41370000  0.50890000  0.03870000  1.0 0.105335311
C  C66  1  0.50890000  0.41370000  0.03870000  1.0 0.105335311
C  C67  1  0.41370000  0.03870000  0.50890000  1.0 0.105335311
C  C68  1  0.50890000  0.03870000  0.41370000  1.0 0.105335311
C  C69  1  0.03870000  0.50890000  0.03870000  1.0 0.105335311
C  C70  1  0.03870000  0.41370000  0.50890000  1.0 0.105335311
C  C71  1  0.03870000  0.50890000  0.41370000  1.0 0.1043760383
C  C72  1  0.50890000  0.03870000  0.03870000  1.0 0.105335311
C  C73  1  0.02030000  0.02030000  0.47970000  1.0 -0.036050878
C  C74  1  0.47970000  0.02030000  0.02030000  1.0 -0.036050878
C  C75  1  0.02030000  0.47970000  0.02030000  1.0 -0.036050878
C  C76  1  0.97970000  0.97970000  0.52030000  1.0 -0.027742905
C  C77  1  0.52030000  0.52030000  0.97970000  1.0 -0.036050878
C  C78  1  0.52030000  0.97970000  0.52030000  1.0 -0.027742905
C  C79  1  0.97970000  0.52030000  0.97970000  1.0 -0.027742905
C  C80  1  0.97970000  0.52030000  0.52030000  1.0 -0.027742905
C  C81  1  0.52030000  0.97970000  0.97970000  1.0 -0.036050878
C  C82  1  0.47970000  0.47970000  0.02030000  1.0 -0.027742905
C  C83  1  0.47970000  0.02030000  0.47970000  1.0 -0.036050878
C  C84  1  0.02030000  0.47970000  0.47970000  1.0 -0.036050878
C  C85  1  0.03950000  0.99750000  0.38450000  1.0 -0.0212018098
C  C86  1  0.38450000  0.03950000  0.99750000  1.0 -0.0212018098
C  C87  1  0.99750000  0.38450000  0.03950000  1.0 -0.0212018098
C  C88  1  0.96050000  0.00250000  0.42150000  1.0 -0.0212018098
C  C89  1  0.61550000  0.42150000  0.00250000  1.0 -0.0212018098
C  C90  1  0.42150000  0.61550000  0.96050000  1.0 -0.027742905
C  C91  1  0.61550000  0.96050000  0.42150000  1.0 -0.0212018098
C  C92  1  0.42150000  0.00250000  0.61550000  1.0 -0.0212018098
C  C93  1  0.00250000  0.42150000  0.96050000  1.0 -0.0212018098
C  C94  1  0.00250000  0.61550000  0.42150000  1.0 -0.0212018098
C  C95  1  0.96050000  0.42150000  0.61550000  1.0 -0.0212018098
C  C96  1  0.42150000  0.96050000  0.00250000  1.0 -0.0212018098
C  C97  1  0.00250000  0.96050000  0.42150000  1.0 -0.0212018098
C  C98  1  0.61550000  0.42150000  0.96050000  1.0 -0.027742905
C  C99  1  0.42150000  0.61550000  0.00250000  1.0 -0.0212018098
C  C100  1  0.42150000  0.00250000  0.96050000  1.0 -0.0212018098
C  C101  1  0.96050000  0.61550000  0.42150000  1.0 -0.0212018098
C  C102  1  0.00250000  0.42150000  0.61550000  1.0 -0.027742905
C  C103  1  0.96050000  0.42150000  0.00250000  1.0 -0.0212018098
C  C104  1  0.42150000  0.96050000  0.61550000  1.0 -0.027742905
C  C105  1  0.61550000  0.00250000  0.42150000  1.0 -0.0212018098
C  C106  1  0.99750000  0.03950000  0.38450000  1.0 -0.0212018098
C  C107  1  0.03950000  0.38450000  0.99750000  1.0 -0.0212018098
C  C108  1  0.38450000  0.99750000  0.03950000  1.0 -0.0212018098
C  C109  1  0.96050000  0.00250000  0.61550000  1.0 -0.027742905
C  C110  1  0.61550000  0.96050000  0.00250000  1.0 -0.0212018098
C  C111  1  0.00250000  0.61550000  0.96050000  1.0 -0.027742905
C  C112  1  0.03950000  0.99750000  0.57850000  1.0 -0.0212018098
C  C113  1  0.38450000  0.57850000  0.99750000  1.0 -0.027742905
C  C114  1  0.57850000  0.38450000  0.03950000  1.0 -0.0212018098
C  C115  1  0.38450000  0.03950000  0.57850000  1.0 -0.027742905
C  C116  1  0.57850000  0.99750000  0.38450000  1.0 -0.0212018098
C  C117  1  0.99750000  0.57850000  0.03950000  1.0 -0.0212018098
C  C118  1  0.99750000  0.38450000  0.57850000  1.0 -0.0212018098
C  C119  1  0.03950000  0.57850000  0.38450000  1.0 -0.0212018098
C  C120  1  0.57850000  0.03950000  0.99750000  1.0 -0.0212018098
C  C121  1  0.99750000  0.03950000  0.57850000  1.0 -0.027742905
C  C122  1  0.38450000  0.57850000  0.03950000  1.0 -0.0212018098
C  C123  1  0.57850000  0.38450000  0.99750000  1.0 -0.0212018098
C  C124  1  0.57850000  0.99750000  0.03950000  1.0 -0.0212018098
C  C125  1  0.03950000  0.38450000  0.57850000  1.0 -0.0212018098
C  C126  1  0.99750000  0.57850000  0.38450000  1.0 -0.0212018098
C  C127  1  0.03950000  0.57850000  0.99750000  1.0 -0.027742905
C  C128  1  0.57850000  0.03950000  0.38450000  1.0 -0.0212018098
C  C129  1  0.38450000  0.99750000  0.57850000  1.0 -0.0212018098
C  C130  1  0.00250000  0.96050000  0.61550000  1.0 -0.0212018098
C  C131  1  0.96050000  0.61550000  0.00250000  1.0 -0.0212018098
C  C132  1  0.61550000  0.00250000  0.96050000  1.0 -0.0212018098
O  O1  1  0.25000000  0.25000000  0.25000000  1.0 -1.0351735226
O  O2  1  0.75000000  0.75000000  0.75000000  1.0 -1.0351735226
O  O3  1  0.16230000  0.16230000  0.29370000  1.0 -0.4977744789
O  O4  1  0.29370000  0.16230000  0.16230000  1.0 -0.4977744789
O  O5  1  0.16230000  0.29370000  0.16230000  1.0 -0.4977744789
O  O6  1  0.83770000  0.83770000  0.61830000  1.0 -0.4977744789
O  O7  1  0.70630000  0.61830000  0.83770000  1.0 -0.4977744789
O  O8  1  0.61830000  0.70630000  0.83770000  1.0 -0.4977744789
O  O9  1  0.70630000  0.83770000  0.61830000  1.0 -0.4977744789
O  O10  1  0.61830000  0.83770000  0.70630000  1.0 -0.4977744789
O  O11  1  0.83770000  0.61830000  0.83770000  1.0 -0.4977744789
O  O12  1  0.83770000  0.70630000  0.61830000  1.0 -0.4977744789
O  O13  1  0.83770000  0.61830000  0.70630000  1.0 -0.4977744789
O  O14  1  0.61830000  0.83770000  0.83770000  1.0 -0.4977744789
O  O15  1  0.83770000  0.83770000  0.70630000  1.0 -0.4977744789
O  O16  1  0.70630000  0.83770000  0.83770000  1.0 -0.4977744789
O  O17  1  0.83770000  0.70630000  0.83770000  1.0 -0.4977744789
O  O18  1  0.16230000  0.16230000  0.38170000  1.0 -0.4977744789
O  O19  1  0.29370000  0.38170000  0.16230000  1.0 -0.4977744789
O  O20  1  0.38170000  0.29370000  0.16230000  1.0 -0.4977744789
O  O21  1  0.29370000  0.16230000  0.38170000  1.0 -0.4977744789
O  O22  1  0.38170000  0.16230000  0.29370000  1.0 -0.4977744789
O  O23  1  0.16230000  0.38170000  0.16230000  1.0 -0.4977744789
O  O24  1  0.16230000  0.29370000  0.38170000  1.0 -0.4977744789
O  O25  1  0.16230000  0.38170000  0.29370000  1.0 -0.4977744789
O  O26  1  0.38170000  0.16230000  0.16230000  1.0 -0.4977744789
