# DDEC6 charges by PACMAN v1.1 (https://github.com/mtap-research/PACMAN-charge/)
data_EDUVUU_ASR_pacman
_symmetry_space_group_name_H-M   'P 1'
_cell_length_a   18.58440000
_cell_length_b   18.58440000
_cell_length_c   18.58440000
_cell_angle_alpha   109.47100000
_cell_angle_beta   109.47100000
_cell_angle_gamma   109.47100000
_symmetry_Int_Tables_number   1
_chemical_formula_structural   Zn8C96O25
_chemical_formula_sum   'Zn8 C96 O25'
_cell_volume   4941.14148912
_cell_formula_units_Z   1
loop_
 _symmetry_equiv_pos_site_id
 _symmetry_equiv_pos_as_xyz
  1  'x, y, z'
loop_
 _atom_site_type_symbol
 _atom_site_label
 _atom_site_symmetry_multiplicity
 _atom_site_fract_x
 _atom_site_fract_y
 _atom_site_fract_z
 _atom_site_occupancy
 _atom_site_charge
Zn  Zn1  1  0.10414000  0.10414000  0.10414000  1.0 0.519360806
Zn  Zn2  1  0.00000000  0.00000000  0.10414000  1.0 0.519360806
Zn  Zn3  1  0.00000000  0.10414000  0.00000000  1.0 0.519360806
Zn  Zn4  1  0.10414000  0.00000000  0.00000000  1.0 0.519360806
Zn  Zn5  1  0.00000000  0.00000000  0.89586000  1.0 0.519360806
Zn  Zn6  1  0.00000000  0.89586000  0.00000000  1.0 0.519360806
Zn  Zn7  1  0.89586000  0.00000000  0.00000000  1.0 0.519360806
Zn  Zn8  1  0.89586000  0.89586000  0.89586000  1.0 0.519360806
C  C1  1  0.23390000  0.23390000  0.00000000  1.0 -0.0573656791
C  C2  1  0.00000000  0.23390000  0.23390000  1.0 -0.0573656791
C  C3  1  0.23390000  0.00000000  0.23390000  1.0 -0.0573656791
C  C4  1  0.76610000  0.76610000  0.00000000  1.0 -0.0573656791
C  C5  1  0.76610000  0.00000000  0.76610000  1.0 -0.0573656791
C  C6  1  0.00000000  0.76610000  0.76610000  1.0 -0.0573656791
C  C7  1  0.16620000  0.16620000  0.00000000  1.0 0.4132191171
C  C8  1  0.00000000  0.16620000  0.16620000  1.0 0.4132191171
C  C9  1  0.16620000  0.00000000  0.16620000  1.0 0.4132191171
C  C10  1  0.83380000  0.83380000  0.00000000  1.0 0.4132191171
C  C11  1  0.83380000  0.00000000  0.83380000  1.0 0.4132191171
C  C12  1  0.00000000  0.83380000  0.83380000  1.0 0.4132191171
C  C13  1  0.36470000  0.36470000  0.00000000  1.0 -0.0313236191
C  C14  1  0.00000000  0.36470000  0.36470000  1.0 -0.0313236191
C  C15  1  0.36470000  0.00000000  0.36470000  1.0 -0.0313236191
C  C16  1  0.63530000  0.63530000  0.00000000  1.0 -0.0313236191
C  C17  1  0.63530000  0.00000000  0.63530000  1.0 -0.0313236191
C  C18  1  0.00000000  0.63530000  0.63530000  1.0 -0.0313236191
C  C19  1  0.43430000  0.43430000  0.00000000  1.0 0.1833693861
C  C20  1  0.00000000  0.43430000  0.43430000  1.0 0.1833693861
C  C21  1  0.43430000  0.00000000  0.43430000  1.0 0.1833693861
C  C22  1  0.56570000  0.56570000  0.00000000  1.0 0.1833693861
C  C23  1  0.56570000  0.00000000  0.56570000  1.0 0.1833693861
C  C24  1  0.00000000  0.56570000  0.56570000  1.0 0.1833693861
C  C25  1  0.30630000  0.22850000  0.00000000  1.0 0.0071836437
C  C26  1  0.00000000  0.30630000  0.22850000  1.0 0.0071836437
C  C27  1  0.22850000  0.00000000  0.30630000  1.0 0.0071836437
C  C28  1  0.69370000  0.77150000  0.00000000  1.0 0.0071836437
C  C29  1  0.30630000  0.30630000  0.07780000  1.0 0.0071836437
C  C30  1  0.22850000  0.22850000  0.92220000  1.0 0.0071836437
C  C31  1  0.22850000  0.92220000  0.22850000  1.0 0.0071836437
C  C32  1  0.30630000  0.07780000  0.30630000  1.0 0.0071836437
C  C33  1  0.77150000  0.00000000  0.69370000  1.0 0.0071836437
C  C34  1  0.07780000  0.30630000  0.30630000  1.0 0.0071836437
C  C35  1  0.92220000  0.22850000  0.22850000  1.0 0.0071836437
C  C36  1  0.00000000  0.69370000  0.77150000  1.0 0.0071836437
C  C37  1  0.22850000  0.30630000  0.00000000  1.0 0.0071836437
C  C38  1  0.77150000  0.77150000  0.07780000  1.0 0.0071836437
C  C39  1  0.69370000  0.69370000  0.92220000  1.0 0.0071836437
C  C40  1  0.00000000  0.22850000  0.30630000  1.0 0.0071836437
C  C41  1  0.07780000  0.77150000  0.77150000  1.0 0.0071836437
C  C42  1  0.92220000  0.69370000  0.69370000  1.0 0.0071836437
C  C43  1  0.30630000  0.00000000  0.22850000  1.0 0.0071836437
C  C44  1  0.77150000  0.07780000  0.77150000  1.0 0.0071836437
C  C45  1  0.69370000  0.92220000  0.69370000  1.0 0.0071836437
C  C46  1  0.77150000  0.69370000  0.00000000  1.0 0.0071836437
C  C47  1  0.69370000  0.00000000  0.77150000  1.0 0.0071836437
C  C48  1  0.00000000  0.77150000  0.69370000  1.0 0.0071836437
C  C49  1  0.36920000  0.29520000  0.00000000  1.0 -0.0216827196
C  C50  1  0.00000000  0.36920000  0.29520000  1.0 -0.0313236191
C  C51  1  0.29520000  0.00000000  0.36920000  1.0 -0.0313236191
C  C52  1  0.63080000  0.70480000  0.00000000  1.0 -0.0313236191
C  C53  1  0.36920000  0.36920000  0.07400000  1.0 -0.0313236191
C  C54  1  0.29520000  0.29520000  0.92600000  1.0 -0.0313236191
C  C55  1  0.29520000  0.92600000  0.29520000  1.0 -0.0313236191
C  C56  1  0.36920000  0.07400000  0.36920000  1.0 -0.0313236191
C  C57  1  0.70480000  0.00000000  0.63080000  1.0 -0.0313236191
C  C58  1  0.07400000  0.36920000  0.36920000  1.0 -0.0313236191
C  C59  1  0.92600000  0.29520000  0.29520000  1.0 -0.0313236191
C  C60  1  0.00000000  0.63080000  0.70480000  1.0 -0.0313236191
C  C61  1  0.29520000  0.36920000  0.00000000  1.0 -0.0313236191
C  C62  1  0.70480000  0.70480000  0.07400000  1.0 -0.0313236191
C  C63  1  0.63080000  0.63080000  0.92600000  1.0 -0.0313236191
C  C64  1  0.00000000  0.29520000  0.36920000  1.0 -0.0313236191
C  C65  1  0.07400000  0.70480000  0.70480000  1.0 -0.0313236191
C  C66  1  0.92600000  0.63080000  0.63080000  1.0 -0.0313236191
C  C67  1  0.36920000  0.00000000  0.29520000  1.0 -0.0313236191
C  C68  1  0.70480000  0.07400000  0.70480000  1.0 -0.0313236191
C  C69  1  0.63080000  0.92600000  0.63080000  1.0 -0.0313236191
C  C70  1  0.70480000  0.63080000  0.00000000  1.0 -0.0313236191
C  C71  1  0.63080000  0.00000000  0.70480000  1.0 -0.0313236191
C  C72  1  0.00000000  0.70480000  0.63080000  1.0 -0.0313236191
C  C73  1  0.40520000  0.46710000  0.93810000  1.0 -0.0354473413
C  C74  1  0.93810000  0.40520000  0.46710000  1.0 -0.0313236191
C  C75  1  0.46710000  0.93810000  0.40520000  1.0 -0.0313236191
C  C76  1  0.53290000  0.47100000  0.93810000  1.0 -0.0313236191
C  C77  1  0.46710000  0.40520000  0.93810000  1.0 -0.0354473413
C  C78  1  0.46710000  0.52900000  0.06190000  1.0 -0.0313236191
C  C79  1  0.52900000  0.06190000  0.46710000  1.0 -0.0313236191
C  C80  1  0.40520000  0.93810000  0.46710000  1.0 -0.0313236191
C  C81  1  0.47100000  0.93810000  0.53290000  1.0 -0.0313236191
C  C82  1  0.93810000  0.46710000  0.40520000  1.0 -0.0313236191
C  C83  1  0.06190000  0.46710000  0.52900000  1.0 -0.0313236191
C  C84  1  0.93810000  0.53290000  0.47100000  1.0 -0.0313236191
C  C85  1  0.52900000  0.46710000  0.06190000  1.0 -0.0313236191
C  C86  1  0.47100000  0.53290000  0.93810000  1.0 -0.0313236191
C  C87  1  0.59480000  0.53290000  0.06190000  1.0 -0.0313236191
C  C88  1  0.06190000  0.52900000  0.46710000  1.0 -0.0313236191
C  C89  1  0.93810000  0.47100000  0.53290000  1.0 -0.0313236191
C  C90  1  0.06190000  0.59480000  0.53290000  1.0 -0.0313236191
C  C91  1  0.46710000  0.06190000  0.52900000  1.0 -0.0313236191
C  C92  1  0.53290000  0.93810000  0.47100000  1.0 -0.0313236191
C  C93  1  0.53290000  0.06190000  0.59480000  1.0 -0.0313236191
C  C94  1  0.53290000  0.59480000  0.06190000  1.0 -0.0313236191
C  C95  1  0.59480000  0.06190000  0.53290000  1.0 -0.0313236191
C  C96  1  0.06190000  0.53290000  0.59480000  1.0 -0.0313236191
O  O1  1  0.00000000  0.00000000  0.00000000  1.0 -0.6836983681
O  O2  1  0.17880000  0.17880000  0.07800000  1.0 -0.2164024327
O  O3  1  0.07800000  0.17880000  0.17880000  1.0 -0.2164024327
O  O4  1  0.17880000  0.07800000  0.17880000  1.0 -0.2164024327
O  O5  1  0.89920000  0.89920000  0.07800000  1.0 -0.2164024327
O  O6  1  0.10080000  0.17880000  0.00000000  1.0 -0.2164024327
O  O7  1  0.17880000  0.10080000  0.00000000  1.0 -0.2164024327
O  O8  1  0.10080000  0.00000000  0.17880000  1.0 -0.2164024327
O  O9  1  0.17880000  0.00000000  0.10080000  1.0 -0.2164024327
O  O10  1  0.89920000  0.07800000  0.89920000  1.0 -0.2164024327
O  O11  1  0.00000000  0.10080000  0.17880000  1.0 -0.2164024327
O  O12  1  0.00000000  0.17880000  0.10080000  1.0 -0.2164024327
O  O13  1  0.07800000  0.89920000  0.89920000  1.0 -0.2147998036
O  O14  1  0.10080000  0.10080000  0.92200000  1.0 -0.2164024327
O  O15  1  0.89920000  0.82120000  0.00000000  1.0 -0.2164024327
O  O16  1  0.82120000  0.89920000  0.00000000  1.0 -0.2164024327
O  O17  1  0.92200000  0.10080000  0.10080000  1.0 -0.2164024327
O  O18  1  0.00000000  0.89920000  0.82120000  1.0 -0.2164024327
O  O19  1  0.00000000  0.82120000  0.89920000  1.0 -0.2147998036
O  O20  1  0.10080000  0.92200000  0.10080000  1.0 -0.2164024327
O  O21  1  0.82120000  0.00000000  0.89920000  1.0 -0.2147998036
O  O22  1  0.89920000  0.00000000  0.82120000  1.0 -0.2164024327
O  O23  1  0.82120000  0.82120000  0.92200000  1.0 -0.2164024327
O  O24  1  0.82120000  0.92200000  0.82120000  1.0 -0.2164024327
O  O25  1  0.92200000  0.82120000  0.82120000  1.0 -0.2164024327
