# DDEC6 charges by PACMAN v1.1 (https://github.com/mtap-research/PACMAN-charge/)
data_EDUWAB_FSR_pacman
_symmetry_space_group_name_H-M   'P 1'
_cell_length_a   21.49030000
_cell_length_b   21.49030000
_cell_length_c   21.49030000
_cell_angle_alpha   90.00000000
_cell_angle_beta   90.00000000
_cell_angle_gamma   90.00000000
_symmetry_Int_Tables_number   1
_chemical_formula_structural   Zn8C104O33
_chemical_formula_sum   'Zn8 C104 O33'
_cell_volume   9924.92959289
_cell_formula_units_Z   1
loop_
 _symmetry_equiv_pos_site_id
 _symmetry_equiv_pos_as_xyz
  1  'x, y, z'
loop_
 _atom_site_type_symbol
 _atom_site_label
 _atom_site_symmetry_multiplicity
 _atom_site_fract_x
 _atom_site_fract_y
 _atom_site_fract_z
 _atom_site_occupancy
 _atom_site_charge
Zn  Zn1  1  0.44795000  0.44795000  0.44795000  1.0 0.5363505998
Zn  Zn2  1  0.44795000  0.44795000  0.55205000  1.0 0.5363505998
Zn  Zn3  1  0.44795000  0.55205000  0.44795000  1.0 0.5363505998
Zn  Zn4  1  0.55205000  0.44795000  0.44795000  1.0 0.5363505998
Zn  Zn5  1  0.55205000  0.55205000  0.44795000  1.0 0.5363505998
Zn  Zn6  1  0.55205000  0.44795000  0.55205000  1.0 0.5363505998
Zn  Zn7  1  0.44795000  0.55205000  0.55205000  1.0 0.5363505998
Zn  Zn8  1  0.55205000  0.55205000  0.55205000  1.0 0.5363505998
C  C1  1  0.50000000  0.50000000  0.33090000  1.0 0.3833250123
C  C2  1  0.33090000  0.50000000  0.50000000  1.0 0.3833250123
C  C3  1  0.50000000  0.33090000  0.50000000  1.0 0.3833250123
C  C4  1  0.50000000  0.50000000  0.66910000  1.0 0.3833250123
C  C5  1  0.50000000  0.66910000  0.50000000  1.0 0.3833250123
C  C6  1  0.66910000  0.50000000  0.50000000  1.0 0.3833250123
C  C7  1  0.50000000  0.50000000  0.26670000  1.0 -0.077736053
C  C8  1  0.26670000  0.50000000  0.50000000  1.0 -0.077736053
C  C9  1  0.50000000  0.26670000  0.50000000  1.0 -0.077736053
C  C10  1  0.50000000  0.50000000  0.73330000  1.0 -0.077736053
C  C11  1  0.50000000  0.73330000  0.50000000  1.0 -0.077736053
C  C12  1  0.73330000  0.50000000  0.50000000  1.0 -0.077736053
C  C13  1  0.46012000  0.46012000  0.23490000  1.0 -0.0045689373
C  C14  1  0.23490000  0.46012000  0.46012000  1.0 -0.0045689373
C  C15  1  0.46012000  0.23490000  0.46012000  1.0 -0.0045689373
C  C16  1  0.46012000  0.46012000  0.76510000  1.0 -0.0045689373
C  C17  1  0.46012000  0.53988000  0.23490000  1.0 -0.0045689373
C  C18  1  0.53988000  0.46012000  0.23490000  1.0 -0.0045689373
C  C19  1  0.46012000  0.23490000  0.53988000  1.0 -0.0045689373
C  C20  1  0.53988000  0.23490000  0.46012000  1.0 -0.0045689373
C  C21  1  0.46012000  0.76510000  0.46012000  1.0 -0.0045689373
C  C22  1  0.23490000  0.46012000  0.53988000  1.0 -0.0045689373
C  C23  1  0.23490000  0.53988000  0.46012000  1.0 -0.0045689373
C  C24  1  0.76510000  0.46012000  0.46012000  1.0 -0.0045689373
C  C25  1  0.53988000  0.53988000  0.23490000  1.0 -0.0045689373
C  C26  1  0.53988000  0.46012000  0.76510000  1.0 -0.0045689373
C  C27  1  0.46012000  0.53988000  0.76510000  1.0 -0.0045689373
C  C28  1  0.23490000  0.53988000  0.53988000  1.0 -0.0045689373
C  C29  1  0.76510000  0.53988000  0.46012000  1.0 -0.0045689373
C  C30  1  0.76510000  0.46012000  0.53988000  1.0 -0.0045689373
C  C31  1  0.53988000  0.23490000  0.53988000  1.0 -0.0045689373
C  C32  1  0.46012000  0.76510000  0.53988000  1.0 -0.0045689373
C  C33  1  0.53988000  0.76510000  0.46012000  1.0 -0.0045689373
C  C34  1  0.53988000  0.53988000  0.76510000  1.0 -0.0045689373
C  C35  1  0.53988000  0.76510000  0.53988000  1.0 -0.0045689373
C  C36  1  0.76510000  0.53988000  0.53988000  1.0 -0.0045689373
C  C37  1  0.46021000  0.46021000  0.16990000  1.0 -0.0292138138
C  C38  1  0.16990000  0.46021000  0.46021000  1.0 -0.0292138138
C  C39  1  0.46021000  0.16990000  0.46021000  1.0 -0.0292138138
C  C40  1  0.46021000  0.46021000  0.83010000  1.0 -0.0292138138
C  C41  1  0.46021000  0.53979000  0.16990000  1.0 -0.0292138138
C  C42  1  0.53979000  0.46021000  0.16990000  1.0 -0.0292138138
C  C43  1  0.46021000  0.16990000  0.53979000  1.0 -0.0292138138
C  C44  1  0.53979000  0.16990000  0.46021000  1.0 -0.0292138138
C  C45  1  0.46021000  0.83010000  0.46021000  1.0 -0.0292138138
C  C46  1  0.16990000  0.46021000  0.53979000  1.0 -0.0292138138
C  C47  1  0.16990000  0.53979000  0.46021000  1.0 -0.0292138138
C  C48  1  0.83010000  0.46021000  0.46021000  1.0 -0.0292138138
C  C49  1  0.53979000  0.53979000  0.16990000  1.0 -0.0292138138
C  C50  1  0.53979000  0.46021000  0.83010000  1.0 -0.0292138138
C  C51  1  0.46021000  0.53979000  0.83010000  1.0 -0.0292138138
C  C52  1  0.16990000  0.53979000  0.53979000  1.0 -0.0292138138
C  C53  1  0.83010000  0.53979000  0.46021000  1.0 -0.0292138138
C  C54  1  0.83010000  0.46021000  0.53979000  1.0 -0.0292138138
C  C55  1  0.53979000  0.16990000  0.53979000  1.0 -0.0292138138
C  C56  1  0.46021000  0.83010000  0.53979000  1.0 -0.0292138138
C  C57  1  0.53979000  0.83010000  0.46021000  1.0 -0.0292138138
C  C58  1  0.53979000  0.53979000  0.83010000  1.0 -0.0292138138
C  C59  1  0.53979000  0.83010000  0.53979000  1.0 -0.0292138138
C  C60  1  0.83010000  0.53979000  0.53979000  1.0 -0.0292138138
C  C61  1  0.50000000  0.50000000  0.13690000  1.0 0.0500448612
C  C62  1  0.13690000  0.50000000  0.50000000  1.0 0.0500448612
C  C63  1  0.50000000  0.13690000  0.50000000  1.0 0.0500448612
C  C64  1  0.50000000  0.50000000  0.86310000  1.0 0.0500448612
C  C65  1  0.50000000  0.86310000  0.50000000  1.0 0.0500448612
C  C66  1  0.86310000  0.50000000  0.50000000  1.0 0.0500448612
C  C67  1  0.50000000  0.50000000  0.06590000  1.0 0.0402101681
C  C68  1  0.06590000  0.50000000  0.50000000  1.0 0.0402101681
C  C69  1  0.50000000  0.06590000  0.50000000  1.0 0.0402101681
C  C70  1  0.50000000  0.50000000  0.93410000  1.0 0.0402101681
C  C71  1  0.50000000  0.93410000  0.50000000  1.0 0.0402101681
C  C72  1  0.93410000  0.50000000  0.50000000  1.0 0.0402101681
C  C73  1  0.44360000  0.50000000  0.03270000  1.0 -0.0292138138
C  C74  1  0.03270000  0.44360000  0.50000000  1.0 -0.0292138138
C  C75  1  0.50000000  0.03270000  0.44360000  1.0 -0.0292138138
C  C76  1  0.50000000  0.44360000  0.96730000  1.0 -0.0292138138
C  C77  1  0.50000000  0.55640000  0.03270000  1.0 -0.0292138138
C  C78  1  0.50000000  0.44360000  0.03270000  1.0 -0.0292138138
C  C79  1  0.44360000  0.03270000  0.50000000  1.0 -0.0292138138
C  C80  1  0.55640000  0.03270000  0.50000000  1.0 -0.0292138138
C  C81  1  0.44360000  0.96730000  0.50000000  1.0 -0.0292138138
C  C82  1  0.03270000  0.50000000  0.55640000  1.0 -0.0292138138
C  C83  1  0.03270000  0.50000000  0.44360000  1.0 -0.0292138138
C  C84  1  0.96730000  0.50000000  0.44360000  1.0 -0.0292138138
C  C85  1  0.55640000  0.50000000  0.03270000  1.0 -0.0292138138
C  C86  1  0.55640000  0.50000000  0.96730000  1.0 -0.0292138138
C  C87  1  0.44360000  0.50000000  0.96730000  1.0 -0.0292138138
C  C88  1  0.03270000  0.55640000  0.50000000  1.0 -0.0292138138
C  C89  1  0.96730000  0.55640000  0.50000000  1.0 -0.0292138138
C  C90  1  0.96730000  0.44360000  0.50000000  1.0 -0.0292138138
C  C91  1  0.50000000  0.03270000  0.55640000  1.0 -0.0292138138
C  C92  1  0.50000000  0.96730000  0.55640000  1.0 -0.0292138138
C  C93  1  0.50000000  0.96730000  0.44360000  1.0 -0.0292138138
C  C94  1  0.50000000  0.55640000  0.96730000  1.0 -0.0292138138
C  C95  1  0.55640000  0.96730000  0.50000000  1.0 -0.0292138138
C  C96  1  0.96730000  0.50000000  0.55640000  1.0 -0.0292138138
C  C97  1  0.35400000  0.35400000  0.35400000  1.0 0.5063538619
C  C98  1  0.35400000  0.35400000  0.64600000  1.0 0.5063538619
C  C99  1  0.35400000  0.64600000  0.35400000  1.0 0.5063538619
C  C100  1  0.64600000  0.35400000  0.35400000  1.0 0.5063538619
C  C101  1  0.64600000  0.64600000  0.35400000  1.0 0.5063538619
C  C102  1  0.64600000  0.35400000  0.64600000  1.0 0.5063538619
C  C103  1  0.35400000  0.64600000  0.64600000  1.0 0.5063538619
C  C104  1  0.64600000  0.64600000  0.64600000  1.0 0.5063538619
O  O1  1  0.50000000  0.50000000  0.50000000  1.0 -0.7479894838
O  O2  1  0.46580000  0.46580000  0.36200000  1.0 -0.1445699602
O  O3  1  0.36200000  0.46580000  0.46580000  1.0 -0.1445699602
O  O4  1  0.46580000  0.36200000  0.46580000  1.0 -0.1445699602
O  O5  1  0.46580000  0.46580000  0.63800000  1.0 -0.1445699602
O  O6  1  0.46580000  0.53420000  0.36200000  1.0 -0.1445699602
O  O7  1  0.53420000  0.46580000  0.36200000  1.0 -0.1445699602
O  O8  1  0.46580000  0.36200000  0.53420000  1.0 -0.1445699602
O  O9  1  0.53420000  0.36200000  0.46580000  1.0 -0.1445699602
O  O10  1  0.46580000  0.63800000  0.46580000  1.0 -0.1445699602
O  O11  1  0.36200000  0.46580000  0.53420000  1.0 -0.1445699602
O  O12  1  0.36200000  0.53420000  0.46580000  1.0 -0.1445699602
O  O13  1  0.63800000  0.46580000  0.46580000  1.0 -0.1445699602
O  O14  1  0.53420000  0.53420000  0.36200000  1.0 -0.1445699602
O  O15  1  0.53420000  0.46580000  0.63800000  1.0 -0.1445699602
O  O16  1  0.46580000  0.53420000  0.63800000  1.0 -0.1445699602
O  O17  1  0.36200000  0.53420000  0.53420000  1.0 -0.1445699602
O  O18  1  0.63800000  0.53420000  0.46580000  1.0 -0.1445699602
O  O19  1  0.63800000  0.46580000  0.53420000  1.0 -0.1445699602
O  O20  1  0.53420000  0.36200000  0.53420000  1.0 -0.1445699602
O  O21  1  0.46580000  0.63800000  0.53420000  1.0 -0.1445699602
O  O22  1  0.53420000  0.63800000  0.46580000  1.0 -0.1445699602
O  O23  1  0.53420000  0.53420000  0.63800000  1.0 -0.1445699602
O  O24  1  0.53420000  0.63800000  0.53420000  1.0 -0.1445699602
O  O25  1  0.63800000  0.53420000  0.53420000  1.0 -0.1445699602
O  O26  1  0.39100000  0.39100000  0.39100000  1.0 -0.6233891926
O  O27  1  0.39100000  0.39100000  0.60900000  1.0 -0.6233891926
O  O28  1  0.39100000  0.60900000  0.39100000  1.0 -0.6233891926
O  O29  1  0.60900000  0.39100000  0.39100000  1.0 -0.6233891926
O  O30  1  0.60900000  0.60900000  0.39100000  1.0 -0.6233891926
O  O31  1  0.60900000  0.39100000  0.60900000  1.0 -0.6233891926
O  O32  1  0.39100000  0.60900000  0.60900000  1.0 -0.6233891926
O  O33  1  0.60900000  0.60900000  0.60900000  1.0 -0.6233891926
