# DDEC6 charges by PACMAN v1.1 (https://github.com/mtap-research/PACMAN-charge/)
data_EFAJON_ion_pacman
_symmetry_space_group_name_H-M   'P 1'
_cell_length_a   11.80290000
_cell_length_b   12.67760000
_cell_length_c   14.62020000
_cell_angle_alpha   92.46400000
_cell_angle_beta   104.86600000
_cell_angle_gamma   96.17500000
_symmetry_Int_Tables_number   1
_chemical_formula_structural   Dy2H58C27N3Cl3O28
_chemical_formula_sum   'Dy4 H116 C54 N6 Cl6 O56'
_cell_volume   2096.48457391
_cell_formula_units_Z   2
loop_
 _symmetry_equiv_pos_site_id
 _symmetry_equiv_pos_as_xyz
  1  'x, y, z'
loop_
 _atom_site_type_symbol
 _atom_site_label
 _atom_site_symmetry_multiplicity
 _atom_site_fract_x
 _atom_site_fract_y
 _atom_site_fract_z
 _atom_site_occupancy
 _atom_site_charge
Dy  Dy1  1  0.86161000  0.52004000  0.87175000  1.0 2.0173322111
Dy  Dy2  1  0.66259000  0.57749000  0.58406000  1.0 1.9345901757
Dy  Dy3  1  0.13839000  0.47996000  0.12825000  1.0 2.0173322111
Dy  Dy4  1  0.33741000  0.42251000  0.41594000  1.0 1.9345901757
H  H1  1  0.61940000  0.52140000  0.89820000  1.0 0.3696453497
H  H2  1  0.68550000  0.47600000  0.98340000  1.0 0.3696453497
H  H3  1  0.71660000  0.29770000  0.88410000  1.0 0.219603449
H  H4  1  0.71480000  0.63150000  0.41210000  1.0 0.3639994711
H  H5  1  0.58890000  0.61280000  0.38930000  1.0 0.3639994711
H  H6  1  0.79920000  0.72850000  0.96910000  1.0 0.2506186962
H  H7  1  0.93490000  0.77480000  0.17330000  1.0 0.151592113
H  H8  1  0.85640000  0.68880000  0.21470000  1.0 0.1573350131
H  H9  1  0.75260000  0.79600000  0.53470000  1.0 0.4067863971
H  H10  1  0.66620000  0.81890000  0.60080000  1.0 0.4172340482
H  H11  1  0.69510000  0.69190000  0.08240000  1.0 0.118926391
H  H12  1  0.73850000  0.80980000  0.13090000  1.0 0.118926391
H  H13  1  0.87390000  0.16660000  0.07060000  1.0 0.0901700528
H  H14  1  0.76310000  0.22750000  0.07370000  1.0 0.0901700528
H  H15  1  0.23640000  0.72210000  0.70320000  1.0 0.2655230164
H  H16  1  0.42090000  0.78700000  0.56430000  1.0 0.1573350131
H  H17  1  0.40270000  0.71390000  0.64680000  1.0 0.171658054
H  H18  1  0.52430000  0.24580000  0.65440000  1.0 0.0796121931
H  H19  1  0.48760000  0.29080000  0.74520000  1.0 0.0901700528
H  H20  1  0.57710000  0.82760000  0.80070000  1.0 0.151592113
H  H21  1  0.71380000  0.87330000  0.82890000  1.0 0.1395973954
H  H22  1  0.64260000  0.88170000  0.96380000  1.0 0.118926391
H  H23  1  0.59590000  0.75740000  0.94860000  1.0 0.118926391
H  H24  1  0.81250000  0.15150000  0.90290000  1.0 0.1009502515
H  H25  1  0.71370000  0.09400000  0.94720000  1.0 0.1009502515
H  H26  1  0.52490000  0.16600000  0.92970000  1.0 0.1009502515
H  H27  1  0.50980000  0.28110000  0.89070000  1.0 0.0713797472
H  H28  1  0.59590000  0.27010000  0.99310000  1.0 0.0796121931
H  H29  1  0.84940000  0.93960000  0.05370000  1.0 0.1395973954
H  H30  1  0.87370000  0.90470000  0.95470000  1.0 0.1395973954
H  H31  1  0.94450000  0.85960000  0.05050000  1.0 0.1395973954
H  H32  1  0.26550000  0.84790000  0.58970000  1.0 0.1116676591
H  H33  1  0.20090000  0.75640000  0.50930000  1.0 0.118926391
H  H34  1  0.56830000  0.12550000  0.77410000  1.0 0.0901700528
H  H35  1  0.69000000  0.17760000  0.75680000  1.0 0.0713797472
H  H36  1  0.05790000  0.50300000  0.69010000  1.0 0.118926391
H  H37  1  0.08120000  0.62100000  0.73850000  1.0 0.118926391
H  H38  1  0.13910000  0.87600000  0.67100000  1.0 0.1281314082
H  H39  1  0.03730000  0.80950000  0.58850000  1.0 0.0796121931
H  H40  1  0.05220000  0.78290000  0.69670000  1.0 0.0901700528
H  H41  1  0.83100000  0.20040000  0.10400000  1.0 0.0796121931
H  H42  1  0.85240000  0.15910000  0.00580000  1.0 0.0619091106
H  H43  1  0.58810000  0.21810000  0.69210000  1.0 0.0796121931
H  H44  1  0.47540000  0.28110000  0.68020000  1.0 0.0619091106
H  H45  1  0.00970000  0.75620000  0.57940000  1.0 0.1009502515
H  H46  1  0.07920000  0.83890000  0.66830000  1.0 0.0796121931
H  H47  1  0.18410000  0.56910000  0.59950000  1.0 0.1281314082
H  H48  1  0.08580000  0.58520000  0.65500000  1.0 0.0619091106
H  H49  1  0.06430000  0.61360000  0.54670000  1.0 0.1116676591
H  H50  1  0.08180000  0.63260000  0.72880000  1.0 0.118926391
H  H51  1  0.02760000  0.72720000  0.77250000  1.0 0.1116676591
H  H52  1  0.51570000  0.30420000  0.85650000  1.0 0.0796121931
H  H53  1  0.49000000  0.18030000  0.82070000  1.0 0.0901700528
H  H54  1  0.63860000  0.14100000  0.99250000  1.0 0.0901700528
H  H55  1  0.64630000  0.26680000  0.01650000  1.0 0.0796121931
H  H56  1  0.73120000  0.16900000  0.77790000  1.0 0.0901700528
H  H57  1  0.67020000  0.07830000  0.82870000  1.0 0.1116676591
H  H58  1  0.79860000  0.13780000  0.88090000  1.0 0.1009502515
H  H59  1  0.38060000  0.47860000  0.10180000  1.0 0.3696453497
H  H60  1  0.31450000  0.52400000  0.01660000  1.0 0.3696453497
H  H61  1  0.28340000  0.70230000  0.11590000  1.0 0.219603449
H  H62  1  0.28520000  0.36850000  0.58790000  1.0 0.3639994711
H  H63  1  0.41110000  0.38720000  0.61070000  1.0 0.3639994711
H  H64  1  0.20080000  0.27150000  0.03090000  1.0 0.2506186962
H  H65  1  0.06510000  0.22520000  0.82670000  1.0 0.151592113
H  H66  1  0.14360000  0.31120000  0.78530000  1.0 0.1573350131
H  H67  1  0.24740000  0.20400000  0.46530000  1.0 0.4067863971
H  H68  1  0.33380000  0.18110000  0.39920000  1.0 0.4172340482
H  H69  1  0.30490000  0.30810000  0.91760000  1.0 0.1116676591
H  H70  1  0.26150000  0.19020000  0.86910000  1.0 0.118926391
H  H71  1  0.12610000  0.83340000  0.92940000  1.0 0.0901700528
H  H72  1  0.23690000  0.77250000  0.92630000  1.0 0.0901700528
H  H73  1  0.76360000  0.27790000  0.29680000  1.0 0.2655230164
H  H74  1  0.57910000  0.21300000  0.43570000  1.0 0.1573350131
H  H75  1  0.59730000  0.28610000  0.35320000  1.0 0.171658054
H  H76  1  0.47570000  0.75420000  0.34560000  1.0 0.0796121931
H  H77  1  0.51240000  0.70920000  0.25480000  1.0 0.0901700528
H  H78  1  0.42290000  0.17240000  0.19930000  1.0 0.151592113
H  H79  1  0.28620000  0.12670000  0.17110000  1.0 0.1395973954
H  H80  1  0.35740000  0.11830000  0.03620000  1.0 0.118926391
H  H81  1  0.40410000  0.24260000  0.05140000  1.0 0.118926391
H  H82  1  0.18750000  0.84850000  0.09710000  1.0 0.1009502515
H  H83  1  0.28630000  0.90600000  0.05280000  1.0 0.1009502515
H  H84  1  0.47510000  0.83400000  0.07030000  1.0 0.1009502515
H  H85  1  0.49020000  0.71890000  0.10930000  1.0 0.0713797472
H  H86  1  0.40410000  0.72990000  0.00690000  1.0 0.0796121931
H  H87  1  0.15060000  0.06040000  0.94630000  1.0 0.1395973954
H  H88  1  0.12630000  0.09530000  0.04530000  1.0 0.1395973954
H  H89  1  0.05550000  0.14040000  0.94950000  1.0 0.1395973954
H  H90  1  0.73450000  0.15210000  0.41030000  1.0 0.1116676591
H  H91  1  0.79910000  0.24360000  0.49070000  1.0 0.118926391
H  H92  1  0.43170000  0.87450000  0.22590000  1.0 0.0901700528
H  H93  1  0.31000000  0.82240000  0.24320000  1.0 0.0713797472
H  H94  1  0.94210000  0.49700000  0.30990000  1.0 0.1116676591
H  H95  1  0.91880000  0.37900000  0.26150000  1.0 0.118926391
H  H96  1  0.86090000  0.12400000  0.32900000  1.0 0.1281314082
H  H97  1  0.96270000  0.19050000  0.41150000  1.0 0.0796121931
H  H98  1  0.94780000  0.21710000  0.30330000  1.0 0.0901700528
H  H99  1  0.16900000  0.79960000  0.89600000  1.0 0.0796121931
H  H100  1  0.14760000  0.84090000  0.99420000  1.0 0.0619091106
H  H101  1  0.41190000  0.78190000  0.30790000  1.0 0.0796121931
H  H102  1  0.52460000  0.71890000  0.31980000  1.0 0.0619091106
H  H103  1  0.99030000  0.24380000  0.42060000  1.0 0.1009502515
H  H104  1  0.92080000  0.16110000  0.33170000  1.0 0.0796121931
H  H105  1  0.81590000  0.43090000  0.40050000  1.0 0.1281314082
H  H106  1  0.91420000  0.41480000  0.34500000  1.0 0.0619091106
H  H107  1  0.93570000  0.38640000  0.45330000  1.0 0.1116676591
H  H108  1  0.91820000  0.36740000  0.27120000  1.0 0.118926391
H  H109  1  0.97240000  0.27280000  0.22750000  1.0 0.1116676591
H  H110  1  0.48430000  0.69580000  0.14350000  1.0 0.0796121931
H  H111  1  0.51000000  0.81970000  0.17930000  1.0 0.0901700528
H  H112  1  0.36140000  0.85900000  0.00750000  1.0 0.0901700528
H  H113  1  0.35370000  0.73320000  0.98350000  1.0 0.0796121931
H  H114  1  0.26880000  0.83100000  0.22210000  1.0 0.0901700528
H  H115  1  0.32980000  0.92170000  0.17130000  1.0 0.1116676591
H  H116  1  0.20140000  0.86220000  0.11910000  1.0 0.1009502515
C  C1  1  0.87290000  0.71290000  0.15540000  1.0 -0.3515285488
C  C2  1  0.36490000  0.63250000  0.51800000  1.0 0.6712564677
C  C3  1  0.89400000  0.32230000  0.03340000  1.0 0.5188967436
C  C4  1  0.76040000  0.75100000  0.09470000  1.0 -0.0411229991
C  C5  1  0.82080000  0.21590000  0.03680000  1.0 -0.2631553263
C  C6  1  0.92240000  0.62480000  0.11150000  1.0 0.6785578479
C  C7  1  0.68450000  0.71330000  0.79170000  1.0 0.6980717331
C  C8  1  0.36750000  0.72920000  0.58030000  1.0 -0.3515285488
C  C9  1  0.55560000  0.27610000  0.72080000  1.0 -0.2503108531
C  C10  1  0.63290000  0.37980000  0.72200000  1.0 0.5907013863
C  C11  1  0.65660000  0.81330000  0.83630000  1.0 -0.3515285488
C  C12  1  0.65940000  0.81170000  0.94160000  1.0 -0.0411229991
C  C13  1  0.91700000  0.58570000  0.64820000  1.0 0.3281013071
C  C14  1  0.75470000  0.16410000  0.93950000  1.0 -0.069452405
C  C15  1  0.56540000  0.23730000  0.92820000  1.0 -0.1506399959
C  C16  1  0.86860000  0.88110000  0.01660000  1.0 -0.3551468402
C  C17  1  0.25040000  0.76980000  0.57550000  1.0 -0.0411229991
C  C18  1  0.62210000  0.19260000  0.78120000  1.0 -0.0307669938
C  C19  1  0.12380000  0.61360000  0.60740000  1.0 -0.1804458301
C  C20  1  0.04750000  0.57790000  0.67760000  1.0 -0.1804458301
C  C21  1  0.09430000  0.80600000  0.65000000  1.0 -0.1130444482
C  C22  1  0.06700000  0.76400000  0.64300000  1.0 -0.0760067441
C  C23  1  0.90330000  0.63000000  0.67020000  1.0 0.3281013071
C  C24  1  0.02600000  0.68600000  0.71290000  1.0 -0.1731122285
C  C25  1  0.54600000  0.24600000  0.82600000  1.0 -0.0531895012
C  C26  1  0.68000000  0.21100000  0.98610000  1.0 -0.0553590767
C  C27  1  0.72100000  0.14600000  0.83900000  1.0 -0.1804458301
C  C28  1  0.12710000  0.28710000  0.84460000  1.0 -0.3515285488
C  C29  1  0.63510000  0.36750000  0.48200000  1.0 0.6712564677
C  C30  1  0.10600000  0.67770000  0.96660000  1.0 0.5188967436
C  C31  1  0.23960000  0.24900000  0.90530000  1.0 -0.0411229991
C  C32  1  0.17920000  0.78410000  0.96320000  1.0 -0.2631553263
C  C33  1  0.07760000  0.37520000  0.88850000  1.0 0.6785578479
C  C34  1  0.31550000  0.28670000  0.20830000  1.0 0.6980717331
C  C35  1  0.63250000  0.27080000  0.41970000  1.0 -0.3515285488
C  C36  1  0.44440000  0.72390000  0.27920000  1.0 -0.2503108531
C  C37  1  0.36710000  0.62020000  0.27800000  1.0 0.5907013863
C  C38  1  0.34340000  0.18670000  0.16370000  1.0 -0.3515285488
C  C39  1  0.34060000  0.18830000  0.05840000  1.0 -0.0411229991
C  C40  1  0.08300000  0.41430000  0.35180000  1.0 0.3281013071
C  C41  1  0.24530000  0.83590000  0.06050000  1.0 -0.069452405
C  C42  1  0.43460000  0.76270000  0.07180000  1.0 -0.1506399959
C  C43  1  0.13140000  0.11890000  0.98340000  1.0 -0.3515285488
C  C44  1  0.74960000  0.23020000  0.42450000  1.0 -0.0411229991
C  C45  1  0.37790000  0.80740000  0.21880000  1.0 -0.0307669938
C  C46  1  0.87620000  0.38640000  0.39260000  1.0 -0.1804458301
C  C47  1  0.95250000  0.42210000  0.32240000  1.0 -0.1804458301
C  C48  1  0.90570000  0.19400000  0.35000000  1.0 -0.1130444482
C  C49  1  0.93300000  0.23600000  0.35700000  1.0 -0.0760067441
C  C50  1  0.09670000  0.37000000  0.32980000  1.0 0.3281013071
C  C51  1  0.97400000  0.31400000  0.28710000  1.0 -0.1731122285
C  C52  1  0.45400000  0.75400000  0.17400000  1.0 -0.0531895012
C  C53  1  0.32000000  0.78900000  0.01390000  1.0 -0.0553590767
C  C54  1  0.27900000  0.85400000  0.16100000  1.0 -0.1804458301
N  N1  1  0.66590000  0.22920000  0.88410000  1.0 0.0512479804
N  N2  1  0.77360000  0.78820000  0.00260000  1.0 0.0086756382
N  N3  1  0.18030000  0.72450000  0.63940000  1.0 -0.014142504
N  N4  1  0.33410000  0.77080000  0.11590000  1.0 0.0512479804
N  N5  1  0.22640000  0.21180000  0.99740000  1.0 0.0086756382
N  N6  1  0.81970000  0.27550000  0.36060000  1.0 -0.014142504
Cl  Cl1  1  0.09980000  0.02110000  0.25950000  1.0 1.0823161751
Cl  Cl2  1  0.63320000  0.04380000  0.17742000  1.0 0.6900658756
Cl  Cl3  1  0.62879000  0.45929000  0.16524000  1.0 0.8911357671
Cl  Cl4  1  0.90020000  0.97890000  0.74050000  1.0 1.0903577953
Cl  Cl5  1  0.36680000  0.95620000  0.82258000  1.0 0.6785578479
Cl  Cl6  1  0.37121000  0.54071000  0.83476000  1.0 0.8911357671
O  O1  1  0.86440000  0.37200000  0.96280000  1.0 -0.6251706332
O  O2  1  0.99940000  0.57990000  0.16520000  1.0 -0.6510141343
O  O3  1  0.88150000  0.60120000  0.02320000  1.0 -0.690219149
O  O4  1  0.64390000  0.69210000  0.70560000  1.0 -0.6409630031
O  O5  1  0.58560000  0.45380000  0.67590000  1.0 -0.6510141343
O  O6  1  0.67320000  0.47490000  0.91880000  1.0 -0.7812924236
O  O7  1  0.75220000  0.65980000  0.84740000  1.0 -0.6741012186
O  O8  1  0.46110000  0.58880000  0.52800000  1.0 -0.7236134857
O  O9  1  0.27480000  0.59170000  0.45840000  1.0 -0.608811453
O  O10  1  0.85400000  0.56770000  0.71120000  1.0 -0.451371938
O  O11  1  0.73880000  0.38630000  0.76780000  1.0 -0.6409630031
O  O12  1  0.98020000  0.34830000  0.10420000  1.0 -0.6246561855
O  O13  1  0.65460000  0.58830000  0.41970000  1.0 -0.7595590204
O  O14  1  0.86900000  0.60800000  0.56600000  1.0 -0.1380463988
O  O15  1  0.67410000  0.76260000  0.54850000  1.0 -0.8372260183
O  O16  1  0.85500000  0.64200000  0.58540000  1.0 -0.134269461
O  O17  1  0.13560000  0.62800000  0.03720000  1.0 -0.6251706332
O  O18  1  0.00060000  0.42010000  0.83480000  1.0 -0.6510141343
O  O19  1  0.11850000  0.39880000  0.97680000  1.0 -0.690219149
O  O20  1  0.35610000  0.30790000  0.29440000  1.0 -0.6409630031
O  O21  1  0.41440000  0.54620000  0.32410000  1.0 -0.6510141343
O  O22  1  0.32680000  0.52510000  0.08120000  1.0 -0.7812924236
O  O23  1  0.24780000  0.34020000  0.15260000  1.0 -0.6741012186
O  O24  1  0.53890000  0.41120000  0.47200000  1.0 -0.7236134857
O  O25  1  0.72520000  0.40830000  0.54160000  1.0 -0.608811453
O  O26  1  0.14600000  0.43230000  0.28880000  1.0 -0.451371938
O  O27  1  0.26120000  0.61370000  0.23220000  1.0 -0.6409630031
O  O28  1  0.01980000  0.65170000  0.89580000  1.0 -0.6251706332
O  O29  1  0.34540000  0.41170000  0.58030000  1.0 -0.7595590204
O  O30  1  0.13100000  0.39200000  0.43400000  1.0 -0.1380463988
O  O31  1  0.32590000  0.23740000  0.45150000  1.0 -0.8372260183
O  O32  1  0.14500000  0.35800000  0.41460000  1.0 -0.1380463988
O  O33  1  0.21730000  0.05820000  0.31990000  1.0 -0.5170990825
O  O34  1  0.10810000  0.93530000  0.20990000  1.0 -0.416798696
O  O35  1  0.07000000  0.11010000  0.20450000  1.0 -0.4989807457
O  O36  1  0.02500000  0.00170000  0.31790000  1.0 -0.451371938
O  O37  1  0.65230000  0.15870000  0.19340000  1.0 -0.5170990825
O  O38  1  0.51810000  0.01670000  0.11820000  1.0 -0.4577041492
O  O39  1  0.70260000  0.01480000  0.12270000  1.0 -0.4577041492
O  O40  1  0.64910000  0.98290000  0.25600000  1.0 -0.4822176509
O  O41  1  0.72140000  0.44730000  0.12110000  1.0 -0.4989807457
O  O42  1  0.62200000  0.56700000  0.18980000  1.0 -0.4822176509
O  O43  1  0.52100000  0.41170000  0.10410000  1.0 -0.4822176509
O  O44  1  0.65260000  0.40420000  0.24980000  1.0 -0.4822176509
O  O45  1  0.78270000  0.94180000  0.68010000  1.0 -0.5170990825
O  O46  1  0.89190000  0.06470000  0.79010000  1.0 -0.416798696
O  O47  1  0.93000000  0.88990000  0.79550000  1.0 -0.4989807457
O  O48  1  0.97500000  0.99830000  0.68210000  1.0 -0.451371938
O  O49  1  0.34770000  0.84130000  0.80660000  1.0 -0.5170990825
O  O50  1  0.48190000  0.98330000  0.88180000  1.0 -0.4577041492
O  O51  1  0.29740000  0.98520000  0.87730000  1.0 -0.4577041492
O  O52  1  0.35090000  0.01710000  0.74400000  1.0 -0.4822176509
O  O53  1  0.27860000  0.55270000  0.87890000  1.0 -0.4989807457
O  O54  1  0.37800000  0.43300000  0.81020000  1.0 -0.4822176509
O  O55  1  0.47900000  0.58830000  0.89590000  1.0 -0.4822176509
O  O56  1  0.34740000  0.59580000  0.75020000  1.0 -0.4822176509
