# DDEC6 charges by PACMAN v1.1 (https://github.com/mtap-research/PACMAN-charge/)
data_EFAJAA_ASR_pacman
_symmetry_space_group_name_H-M   'P 1'
_cell_length_a   16.75840000
_cell_length_b   16.75840000
_cell_length_c   16.75840000
_cell_angle_alpha   66.95190000
_cell_angle_beta   66.95190000
_cell_angle_gamma   66.95190000
_symmetry_Int_Tables_number   1
_chemical_formula_structural   CuH8C14NO4
_chemical_formula_sum   'Cu6 H48 C84 N6 O24'
_cell_volume   3824.12556782
_cell_formula_units_Z   6
loop_
 _symmetry_equiv_pos_site_id
 _symmetry_equiv_pos_as_xyz
  1  'x, y, z'
loop_
 _atom_site_type_symbol
 _atom_site_label
 _atom_site_symmetry_multiplicity
 _atom_site_fract_x
 _atom_site_fract_y
 _atom_site_fract_z
 _atom_site_occupancy
 _atom_site_charge
Cu  Cu1  1  0.57615000  0.99333000  0.01326000  1.0 0.8718682699
Cu  Cu2  1  0.99333000  0.01326000  0.57615000  1.0 0.8718682699
Cu  Cu3  1  0.01326000  0.57615000  0.99333000  1.0 0.8718682699
Cu  Cu4  1  0.42385000  0.98674000  0.00667000  1.0 0.8718682699
Cu  Cu5  1  0.00667000  0.42385000  0.98674000  1.0 0.8718682699
Cu  Cu6  1  0.98674000  0.00667000  0.42385000  1.0 0.8718682699
H  H1  1  0.27750000  0.99170000  0.50740000  1.0 0.1202795777
H  H2  1  0.50160000  0.97440000  0.29520000  1.0 0.1127372435
H  H3  1  0.26710000  0.97290000  0.27710000  1.0 0.1378310927
H  H4  1  0.48970000  0.89490000  0.66770000  1.0 0.0935100762
H  H5  1  0.58910000  0.07160000  0.43480000  1.0 0.1330820576
H  H6  1  0.38470000  0.81890000  0.58020000  1.0 0.1378310927
H  H7  1  0.41990000  0.80140000  0.66330000  1.0 0.1330820576
H  H8  1  0.32790000  0.87780000  0.65040000  1.0 0.1378310927
H  H9  1  0.99170000  0.50740000  0.27750000  1.0 0.1202795777
H  H10  1  0.97440000  0.29520000  0.50160000  1.0 0.1127372435
H  H11  1  0.97290000  0.27710000  0.26710000  1.0 0.1378310927
H  H12  1  0.89490000  0.66770000  0.48970000  1.0 0.0935100762
H  H13  1  0.07160000  0.43480000  0.58910000  1.0 0.1330820576
H  H14  1  0.81890000  0.58020000  0.38470000  1.0 0.1378310927
H  H15  1  0.80140000  0.66330000  0.41990000  1.0 0.1378310927
H  H16  1  0.87780000  0.65040000  0.32790000  1.0 0.1378310927
H  H17  1  0.50740000  0.27750000  0.99170000  1.0 0.1202795777
H  H18  1  0.29520000  0.50160000  0.97440000  1.0 0.1127372435
H  H19  1  0.27710000  0.26710000  0.97290000  1.0 0.1378310927
H  H20  1  0.66770000  0.48970000  0.89490000  1.0 0.0935100762
H  H21  1  0.43480000  0.58910000  0.07160000  1.0 0.1330820576
H  H22  1  0.58020000  0.38470000  0.81890000  1.0 0.1378310927
H  H23  1  0.66330000  0.41990000  0.80140000  1.0 0.1330820576
H  H24  1  0.65040000  0.32790000  0.87780000  1.0 0.1378310927
H  H25  1  0.72250000  0.49260000  0.00830000  1.0 0.1202795777
H  H26  1  0.49840000  0.70480000  0.02560000  1.0 0.1127372435
H  H27  1  0.73290000  0.72290000  0.02710000  1.0 0.1378310927
H  H28  1  0.51030000  0.33230000  0.10510000  1.0 0.0935100762
H  H29  1  0.41090000  0.56520000  0.92840000  1.0 0.1330820576
H  H30  1  0.61530000  0.41980000  0.18110000  1.0 0.1378310927
H  H31  1  0.58010000  0.33670000  0.19860000  1.0 0.1330820576
H  H32  1  0.67210000  0.34960000  0.12220000  1.0 0.1378310927
H  H33  1  0.00830000  0.72250000  0.49260000  1.0 0.1202795777
H  H34  1  0.02560000  0.49840000  0.70480000  1.0 0.1127372435
H  H35  1  0.02710000  0.73290000  0.72290000  1.0 0.1378310927
H  H36  1  0.10510000  0.51030000  0.33230000  1.0 0.0935100762
H  H37  1  0.92840000  0.41090000  0.56520000  1.0 0.1330820576
H  H38  1  0.18110000  0.61530000  0.41980000  1.0 0.1378310927
H  H39  1  0.19860000  0.58010000  0.33670000  1.0 0.1378310927
H  H40  1  0.12220000  0.67210000  0.34960000  1.0 0.1378310927
H  H41  1  0.49260000  0.00830000  0.72250000  1.0 0.1202795777
H  H42  1  0.70480000  0.02560000  0.49840000  1.0 0.1127372435
H  H43  1  0.72290000  0.02710000  0.73290000  1.0 0.1378310927
H  H44  1  0.33230000  0.10510000  0.51030000  1.0 0.0935100762
H  H45  1  0.56520000  0.92840000  0.41090000  1.0 0.1330820576
H  H46  1  0.41980000  0.18110000  0.61530000  1.0 0.1378310927
H  H47  1  0.33670000  0.19860000  0.58010000  1.0 0.1378310927
H  H48  1  0.34960000  0.12220000  0.67210000  1.0 0.1378310927
C  C1  1  0.15949000  0.98802000  0.43781000  1.0 0.5809135608
C  C2  1  0.25832000  0.97831000  0.40011000  1.0 -0.0125061928
C  C3  1  0.30719000  0.98456000  0.44834000  1.0 -0.1680024417
C  C4  1  0.39502000  0.98042000  0.41172000  1.0 0.058149689
C  C5  1  0.43990000  0.97525000  0.32170000  1.0 -0.1838240303
C  C6  1  0.39024000  0.97146000  0.27246000  1.0 -0.0043465601
C  C7  1  0.30037000  0.97402000  0.31102000  1.0 -0.1062418411
C  C8  1  0.43624000  0.97057000  0.17485000  1.0 0.5896870069
C  C9  1  0.45046000  0.96676000  0.47236000  1.0 0.0272092007
C  C10  1  0.44245000  0.91795000  0.56005000  1.0 0.0019602678
C  C11  1  0.49217000  0.92837000  0.60647000  1.0 -0.0963370132
C  C12  1  0.54565000  0.99065000  0.55785000  1.0 0.1127372435
C  C13  1  0.54950000  0.03450000  0.46890000  1.0 -0.0276499102
C  C14  1  0.38885000  0.84765000  0.61885000  1.0 -0.4362577525
C  C15  1  0.98802000  0.43781000  0.15949000  1.0 0.5809135608
C  C16  1  0.97831000  0.40011000  0.25832000  1.0 -0.0125061928
C  C17  1  0.98456000  0.44834000  0.30719000  1.0 -0.1680024417
C  C18  1  0.98042000  0.41172000  0.39502000  1.0 0.058149689
C  C19  1  0.97525000  0.32170000  0.43990000  1.0 -0.1838240303
C  C20  1  0.97146000  0.27246000  0.39024000  1.0 -0.0043465601
C  C21  1  0.97402000  0.31102000  0.30037000  1.0 -0.1062418411
C  C22  1  0.97057000  0.17485000  0.43624000  1.0 0.5896870069
C  C23  1  0.96676000  0.47236000  0.45046000  1.0 0.0272092007
C  C24  1  0.91795000  0.56005000  0.44245000  1.0 0.0019602678
C  C25  1  0.92837000  0.60647000  0.49217000  1.0 -0.0963370132
C  C26  1  0.99065000  0.55785000  0.54565000  1.0 0.1003317413
C  C27  1  0.03450000  0.46890000  0.54950000  1.0 -0.0276499102
C  C28  1  0.84765000  0.61885000  0.38885000  1.0 -0.4362577525
C  C29  1  0.43781000  0.15949000  0.98802000  1.0 0.5809135608
C  C30  1  0.40011000  0.25832000  0.97831000  1.0 -0.0125061928
C  C31  1  0.44834000  0.30719000  0.98456000  1.0 -0.1680024417
C  C32  1  0.41172000  0.39502000  0.98042000  1.0 0.058149689
C  C33  1  0.32170000  0.43990000  0.97525000  1.0 -0.1838240303
C  C34  1  0.27246000  0.39024000  0.97146000  1.0 -0.0043465601
C  C35  1  0.31102000  0.30037000  0.97402000  1.0 -0.1062418411
C  C36  1  0.17485000  0.43624000  0.97057000  1.0 0.5896870069
C  C37  1  0.47236000  0.45046000  0.96676000  1.0 0.0272092007
C  C38  1  0.56005000  0.44245000  0.91795000  1.0 0.0019602678
C  C39  1  0.60647000  0.49217000  0.92837000  1.0 -0.0963370132
C  C40  1  0.55785000  0.54565000  0.99065000  1.0 0.1003317413
C  C41  1  0.46890000  0.54950000  0.03450000  1.0 -0.0276499102
C  C42  1  0.61885000  0.38885000  0.84765000  1.0 -0.4362577525
C  C43  1  0.84051000  0.56219000  0.01198000  1.0 0.5809135608
C  C44  1  0.74168000  0.59989000  0.02169000  1.0 -0.0125061928
C  C45  1  0.69281000  0.55166000  0.01544000  1.0 -0.1680024417
C  C46  1  0.60498000  0.58828000  0.01958000  1.0 0.058149689
C  C47  1  0.56010000  0.67830000  0.02475000  1.0 -0.1838240303
C  C48  1  0.60976000  0.72754000  0.02854000  1.0 -0.0043465601
C  C49  1  0.69963000  0.68898000  0.02598000  1.0 -0.1062418411
C  C50  1  0.56376000  0.82515000  0.02943000  1.0 0.5896870069
C  C51  1  0.54954000  0.52764000  0.03324000  1.0 0.0272092007
C  C52  1  0.55755000  0.43995000  0.08205000  1.0 0.0019602678
C  C53  1  0.50783000  0.39353000  0.07163000  1.0 -0.0916844459
C  C54  1  0.45435000  0.44215000  0.00935000  1.0 0.1003317413
C  C55  1  0.45050000  0.53110000  0.96550000  1.0 -0.02350444
C  C56  1  0.61115000  0.38115000  0.15235000  1.0 -0.4362577525
C  C57  1  0.01198000  0.84051000  0.56219000  1.0 0.5809135608
C  C58  1  0.02169000  0.74168000  0.59989000  1.0 -0.0125061928
C  C59  1  0.01544000  0.69281000  0.55166000  1.0 -0.1680024417
C  C60  1  0.01958000  0.60498000  0.58828000  1.0 0.058149689
C  C61  1  0.02475000  0.56010000  0.67830000  1.0 -0.1838240303
C  C62  1  0.02854000  0.60976000  0.72754000  1.0 -0.0043465601
C  C63  1  0.02598000  0.69963000  0.68898000  1.0 -0.1062418411
C  C64  1  0.02943000  0.56376000  0.82515000  1.0 0.5896870069
C  C65  1  0.03324000  0.54954000  0.52764000  1.0 0.0272092007
C  C66  1  0.08205000  0.55755000  0.43995000  1.0 0.0019602678
C  C67  1  0.07163000  0.50783000  0.39353000  1.0 -0.0916844459
C  C68  1  0.00935000  0.45435000  0.44215000  1.0 0.1003317413
C  C69  1  0.96550000  0.45050000  0.53110000  1.0 -0.0276499102
C  C70  1  0.15235000  0.61115000  0.38115000  1.0 -0.4362577525
C  C71  1  0.56219000  0.01198000  0.84051000  1.0 0.5809135608
C  C72  1  0.59989000  0.02169000  0.74168000  1.0 -0.0125061928
C  C73  1  0.55166000  0.01544000  0.69281000  1.0 -0.1680024417
C  C74  1  0.58828000  0.01958000  0.60498000  1.0 0.058149689
C  C75  1  0.67830000  0.02475000  0.56010000  1.0 -0.1838240303
C  C76  1  0.72754000  0.02854000  0.60976000  1.0 -0.0043465601
C  C77  1  0.68898000  0.02598000  0.69963000  1.0 -0.1062418411
C  C78  1  0.82515000  0.02943000  0.56376000  1.0 0.5896870069
C  C79  1  0.52764000  0.03324000  0.54954000  1.0 0.0272092007
C  C80  1  0.43995000  0.08205000  0.55755000  1.0 0.0019602678
C  C81  1  0.39353000  0.07163000  0.50783000  1.0 -0.0963370132
C  C82  1  0.44215000  0.00935000  0.45435000  1.0 0.1003317413
C  C83  1  0.53110000  0.96550000  0.45050000  1.0 -0.0276499102
C  C84  1  0.38115000  0.15235000  0.61115000  1.0 -0.4362577525
N  N1  1  0.50063000  0.02713000  0.42923000  1.0 -0.1224255475
N  N2  1  0.02713000  0.42923000  0.50063000  1.0 -0.1224255475
N  N3  1  0.42923000  0.50063000  0.02713000  1.0 -0.125979461
N  N4  1  0.49937000  0.57077000  0.97287000  1.0 -0.1224255475
N  N5  1  0.97287000  0.49937000  0.57077000  1.0 -0.1224255475
N  N6  1  0.57077000  0.97287000  0.49937000  1.0 -0.1224255475
O  O1  1  0.11675000  0.98995000  0.39036000  1.0 -0.5183238514
O  O2  1  0.12361000  0.99339000  0.51959000  1.0 -0.5371208417
O  O3  1  0.38695000  0.96853000  0.13612000  1.0 -0.5183238514
O  O4  1  0.51443000  0.97787000  0.14138000  1.0 -0.5110357431
O  O5  1  0.98995000  0.39036000  0.11675000  1.0 -0.5183238514
O  O6  1  0.99339000  0.51959000  0.12361000  1.0 -0.5371208417
O  O7  1  0.96853000  0.13612000  0.38695000  1.0 -0.5183238514
O  O8  1  0.97787000  0.14138000  0.51443000  1.0 -0.5110357431
O  O9  1  0.39036000  0.11675000  0.98995000  1.0 -0.5183238514
O  O10  1  0.51959000  0.12361000  0.99339000  1.0 -0.5371208417
O  O11  1  0.13612000  0.38695000  0.96853000  1.0 -0.5183238514
O  O12  1  0.14138000  0.51443000  0.97787000  1.0 -0.5110357431
O  O13  1  0.88325000  0.60964000  0.01005000  1.0 -0.5183238514
O  O14  1  0.87639000  0.48041000  0.00661000  1.0 -0.5371208417
O  O15  1  0.61305000  0.86388000  0.03147000  1.0 -0.5183238514
O  O16  1  0.48557000  0.85862000  0.02213000  1.0 -0.5110357431
O  O17  1  0.01005000  0.88325000  0.60964000  1.0 -0.5183238514
O  O18  1  0.00661000  0.87639000  0.48041000  1.0 -0.5371208417
O  O19  1  0.03147000  0.61305000  0.86388000  1.0 -0.5183238514
O  O20  1  0.02213000  0.48557000  0.85862000  1.0 -0.5110357431
O  O21  1  0.60964000  0.01005000  0.88325000  1.0 -0.5183238514
O  O22  1  0.48041000  0.00661000  0.87639000  1.0 -0.5371208417
O  O23  1  0.86388000  0.03147000  0.61305000  1.0 -0.5183238514
O  O24  1  0.85862000  0.02213000  0.48557000  1.0 -0.5110357431
