# DDEC6 charges by PACMAN v1.1 (https://github.com/mtap-research/PACMAN-charge/)
data_EFANIM_ASR_pacman
_symmetry_space_group_name_H-M   'P 1'
_cell_length_a   15.90510000
_cell_length_b   15.90510000
_cell_length_c   15.90510000
_cell_angle_alpha   71.41940000
_cell_angle_beta   71.41940000
_cell_angle_gamma   71.41940000
_symmetry_Int_Tables_number   1
_chemical_formula_structural   CuH11C18(NO)6
_chemical_formula_sum   'Cu6 H66 C108 N36 O36'
_cell_volume   3507.90583297
_cell_formula_units_Z   6
loop_
 _symmetry_equiv_pos_site_id
 _symmetry_equiv_pos_as_xyz
  1  'x, y, z'
loop_
 _atom_site_type_symbol
 _atom_site_label
 _atom_site_symmetry_multiplicity
 _atom_site_fract_x
 _atom_site_fract_y
 _atom_site_fract_z
 _atom_site_occupancy
 _atom_site_charge
Cu  Cu1  1  0.95435000  0.52040000  0.95435000  1.0 0.7119472321
Cu  Cu2  1  0.52040000  0.95435000  0.95435000  1.0 0.7119472321
Cu  Cu3  1  0.95435000  0.95435000  0.52040000  1.0 0.7119472321
Cu  Cu4  1  0.04565000  0.04565000  0.47960000  1.0 0.7119472321
Cu  Cu5  1  0.47960000  0.04565000  0.04565000  1.0 0.7119472321
Cu  Cu6  1  0.04565000  0.47960000  0.04565000  1.0 0.7119472321
H  H1  1  0.65900000  0.24790000  0.88080000  1.0 0.1311059938
H  H2  1  0.79900000  0.36700000  0.73300000  1.0 0.1419238445
H  H3  1  0.75520000  0.54120000  0.69020000  1.0 0.0884077247
H  H4  1  0.91410000  0.64210000  0.76610000  1.0 0.104022875
H  H5  1  0.80060000  0.43960000  0.94560000  1.0 0.1192469134
H  H6  1  0.24790000  0.88080000  0.65900000  1.0 0.1311059938
H  H7  1  0.36700000  0.73300000  0.79900000  1.0 0.1419238445
H  H8  1  0.54120000  0.69020000  0.75520000  1.0 0.0884077247
H  H9  1  0.64210000  0.76610000  0.91410000  1.0 0.104022875
H  H10  1  0.43960000  0.94560000  0.80060000  1.0 0.1192469134
H  H11  1  0.88080000  0.65900000  0.24790000  1.0 0.1311059938
H  H12  1  0.73300000  0.79900000  0.36700000  1.0 0.1419238445
H  H13  1  0.69020000  0.75520000  0.54120000  1.0 0.0884077247
H  H14  1  0.76610000  0.91410000  0.64210000  1.0 0.104022875
H  H15  1  0.94560000  0.80060000  0.43960000  1.0 0.1192469134
H  H16  1  0.34100000  0.11920000  0.75210000  1.0 0.1311059938
H  H17  1  0.20100000  0.26700000  0.63300000  1.0 0.1419238445
H  H18  1  0.24480000  0.30980000  0.45880000  1.0 0.0884077247
H  H19  1  0.08590000  0.23390000  0.35790000  1.0 0.104022875
H  H20  1  0.19940000  0.05440000  0.56040000  1.0 0.1192469134
H  H21  1  0.75210000  0.34100000  0.11920000  1.0 0.1311059938
H  H22  1  0.63300000  0.20100000  0.26700000  1.0 0.1419238445
H  H23  1  0.45880000  0.24480000  0.30980000  1.0 0.0884077247
H  H24  1  0.35790000  0.08590000  0.23390000  1.0 0.104022875
H  H25  1  0.56040000  0.19940000  0.05440000  1.0 0.1192469134
H  H26  1  0.11920000  0.75210000  0.34100000  1.0 0.1311059938
H  H27  1  0.26700000  0.63300000  0.20100000  1.0 0.1419238445
H  H28  1  0.30980000  0.45880000  0.24480000  1.0 0.0884077247
H  H29  1  0.23390000  0.35790000  0.08590000  1.0 0.104022875
H  H30  1  0.05440000  0.56040000  0.19940000  1.0 0.1192469134
H  H31  1  0.34100000  0.75210000  0.11920000  1.0 0.1311059938
H  H32  1  0.20100000  0.63300000  0.26700000  1.0 0.1419238445
H  H33  1  0.24480000  0.45880000  0.30980000  1.0 0.0884077247
H  H34  1  0.08590000  0.35790000  0.23390000  1.0 0.104022875
H  H35  1  0.19940000  0.56040000  0.05440000  1.0 0.1192469134
H  H36  1  0.75210000  0.11920000  0.34100000  1.0 0.1311059938
H  H37  1  0.63300000  0.26700000  0.20100000  1.0 0.1419238445
H  H38  1  0.45880000  0.30980000  0.24480000  1.0 0.0884077247
H  H39  1  0.35790000  0.23390000  0.08590000  1.0 0.104022875
H  H40  1  0.56040000  0.05440000  0.19940000  1.0 0.1192469134
H  H41  1  0.11920000  0.34100000  0.75210000  1.0 0.1311059938
H  H42  1  0.26700000  0.20100000  0.63300000  1.0 0.1419238445
H  H43  1  0.30980000  0.24480000  0.45880000  1.0 0.0884077247
H  H44  1  0.23390000  0.08590000  0.35790000  1.0 0.104022875
H  H45  1  0.05440000  0.19940000  0.56040000  1.0 0.1192469134
H  H46  1  0.65900000  0.88080000  0.24790000  1.0 0.1311059938
H  H47  1  0.79900000  0.73300000  0.36700000  1.0 0.1419238445
H  H48  1  0.75520000  0.69020000  0.54120000  1.0 0.0884077247
H  H49  1  0.91410000  0.76610000  0.64210000  1.0 0.104022875
H  H50  1  0.80060000  0.94560000  0.43960000  1.0 0.1192469134
H  H51  1  0.24790000  0.65900000  0.88080000  1.0 0.1311059938
H  H52  1  0.36700000  0.79900000  0.73300000  1.0 0.1419238445
H  H53  1  0.54120000  0.75520000  0.69020000  1.0 0.0884077247
H  H54  1  0.64210000  0.91410000  0.76610000  1.0 0.104022875
H  H55  1  0.43960000  0.80060000  0.94560000  1.0 0.1192469134
H  H56  1  0.88080000  0.24790000  0.65900000  1.0 0.1311059938
H  H57  1  0.73300000  0.36700000  0.79900000  1.0 0.1419238445
H  H58  1  0.69020000  0.54120000  0.75520000  1.0 0.0884077247
H  H59  1  0.76610000  0.64210000  0.91410000  1.0 0.104022875
H  H60  1  0.94560000  0.43960000  0.80060000  1.0 0.1192469134
H  H61  1  0.75270000  0.03630000  0.75270000  1.0 0.1311059938
H  H62  1  0.03630000  0.75270000  0.75270000  1.0 0.1311059938
H  H63  1  0.75270000  0.75270000  0.03630000  1.0 0.1311059938
H  H64  1  0.24730000  0.24730000  0.96370000  1.0 0.1311059938
H  H65  1  0.96370000  0.24730000  0.24730000  1.0 0.1311059938
H  H66  1  0.24730000  0.96370000  0.24730000  1.0 0.1311059938
C  C1  1  0.70000000  0.22030000  0.83560000  1.0 -0.244625394
C  C2  1  0.69300000  0.13380000  0.82860000  1.0 -0.0278121111
C  C3  1  0.62280000  0.08980000  0.89480000  1.0 0.5572060045
C  C4  1  0.72690000  0.41090000  0.83290000  1.0 0.1311059938
C  C5  1  0.76690000  0.47790000  0.82190000  1.0 -0.0278121111
C  C6  1  0.80970000  0.47870000  0.88870000  1.0 0.0712255236
C  C7  1  0.87860000  0.60160000  0.78060000  1.0 0.1621052532
C  C8  1  0.78160000  0.54160000  0.73360000  1.0 0.0076508892
C  C9  1  0.22030000  0.83560000  0.70000000  1.0 -0.244625394
C  C10  1  0.13380000  0.82860000  0.69300000  1.0 -0.0278121111
C  C11  1  0.08980000  0.89480000  0.62280000  1.0 0.5572060045
C  C12  1  0.41090000  0.83290000  0.72690000  1.0 0.1311059938
C  C13  1  0.47790000  0.82190000  0.76690000  1.0 -0.0278121111
C  C14  1  0.47870000  0.88870000  0.80970000  1.0 0.0712255236
C  C15  1  0.60160000  0.78060000  0.87860000  1.0 0.1621052532
C  C16  1  0.54160000  0.73360000  0.78160000  1.0 0.0076508892
C  C17  1  0.83560000  0.70000000  0.22030000  1.0 -0.244625394
C  C18  1  0.82860000  0.69300000  0.13380000  1.0 -0.0278121111
C  C19  1  0.89480000  0.62280000  0.08980000  1.0 0.5572060045
C  C20  1  0.83290000  0.72690000  0.41090000  1.0 0.1311059938
C  C21  1  0.82190000  0.76690000  0.47790000  1.0 -0.0278121111
C  C22  1  0.88870000  0.80970000  0.47870000  1.0 0.0712255236
C  C23  1  0.78060000  0.87860000  0.60160000  1.0 0.1621052532
C  C24  1  0.73360000  0.78160000  0.54160000  1.0 0.0076508892
C  C25  1  0.30000000  0.16440000  0.77970000  1.0 -0.244625394
C  C26  1  0.30700000  0.17140000  0.86620000  1.0 -0.0278121111
C  C27  1  0.37720000  0.10520000  0.91020000  1.0 0.5572060045
C  C28  1  0.27310000  0.16710000  0.58910000  1.0 0.1311059938
C  C29  1  0.23310000  0.17810000  0.52210000  1.0 -0.0278121111
C  C30  1  0.19030000  0.11130000  0.52130000  1.0 0.0712255236
C  C31  1  0.12140000  0.21940000  0.39840000  1.0 0.1621052532
C  C32  1  0.21840000  0.26640000  0.45840000  1.0 0.0076508892
C  C33  1  0.77970000  0.30000000  0.16440000  1.0 -0.244625394
C  C34  1  0.86620000  0.30700000  0.17140000  1.0 -0.0278121111
C  C35  1  0.91020000  0.37720000  0.10520000  1.0 0.5572060045
C  C36  1  0.58910000  0.27310000  0.16710000  1.0 0.1311059938
C  C37  1  0.52210000  0.23310000  0.17810000  1.0 -0.0278121111
C  C38  1  0.52130000  0.19030000  0.11130000  1.0 0.0712255236
C  C39  1  0.39840000  0.12140000  0.21940000  1.0 0.1621052532
C  C40  1  0.45840000  0.21840000  0.26640000  1.0 0.0076508892
C  C41  1  0.16440000  0.77970000  0.30000000  1.0 -0.244625394
C  C42  1  0.17140000  0.86620000  0.30700000  1.0 -0.0278121111
C  C43  1  0.10520000  0.91020000  0.37720000  1.0 0.5572060045
C  C44  1  0.16710000  0.58910000  0.27310000  1.0 0.1311059938
C  C45  1  0.17810000  0.52210000  0.23310000  1.0 -0.0278121111
C  C46  1  0.11130000  0.52130000  0.19030000  1.0 0.0712255236
C  C47  1  0.21940000  0.39840000  0.12140000  1.0 0.1621052532
C  C48  1  0.26640000  0.45840000  0.21840000  1.0 0.0076508892
C  C49  1  0.30000000  0.77970000  0.16440000  1.0 -0.244625394
C  C50  1  0.30700000  0.86620000  0.17140000  1.0 -0.0278121111
C  C51  1  0.37720000  0.91020000  0.10520000  1.0 0.5572060045
C  C52  1  0.27310000  0.58910000  0.16710000  1.0 0.1311059938
C  C53  1  0.23310000  0.52210000  0.17810000  1.0 -0.0278121111
C  C54  1  0.19030000  0.52130000  0.11130000  1.0 0.0712255236
C  C55  1  0.12140000  0.39840000  0.21940000  1.0 0.1621052532
C  C56  1  0.21840000  0.45840000  0.26640000  1.0 0.0076508892
C  C57  1  0.77970000  0.16440000  0.30000000  1.0 -0.244625394
C  C58  1  0.86620000  0.17140000  0.30700000  1.0 -0.0278121111
C  C59  1  0.91020000  0.10520000  0.37720000  1.0 0.5572060045
C  C60  1  0.58910000  0.16710000  0.27310000  1.0 0.1311059938
C  C61  1  0.52210000  0.17810000  0.23310000  1.0 -0.0278121111
C  C62  1  0.52130000  0.11130000  0.19030000  1.0 0.0712255236
C  C63  1  0.39840000  0.21940000  0.12140000  1.0 0.1621052532
C  C64  1  0.45840000  0.26640000  0.21840000  1.0 0.0076508892
C  C65  1  0.16440000  0.30000000  0.77970000  1.0 -0.244625394
C  C66  1  0.17140000  0.30700000  0.86620000  1.0 -0.0278121111
C  C67  1  0.10520000  0.37720000  0.91020000  1.0 0.5572060045
C  C68  1  0.16710000  0.27310000  0.58910000  1.0 0.1311059938
C  C69  1  0.17810000  0.23310000  0.52210000  1.0 -0.0278121111
C  C70  1  0.11130000  0.19030000  0.52130000  1.0 0.0712255236
C  C71  1  0.21940000  0.12140000  0.39840000  1.0 0.1621052532
C  C72  1  0.26640000  0.21840000  0.45840000  1.0 0.0076508892
C  C73  1  0.70000000  0.83560000  0.22030000  1.0 -0.244625394
C  C74  1  0.69300000  0.82860000  0.13380000  1.0 -0.0278121111
C  C75  1  0.62280000  0.89480000  0.08980000  1.0 0.5572060045
C  C76  1  0.72690000  0.83290000  0.41090000  1.0 0.1311059938
C  C77  1  0.76690000  0.82190000  0.47790000  1.0 -0.0278121111
C  C78  1  0.80970000  0.88870000  0.47870000  1.0 0.0712255236
C  C79  1  0.87860000  0.78060000  0.60160000  1.0 0.1621052532
C  C80  1  0.78160000  0.73360000  0.54160000  1.0 0.0076508892
C  C81  1  0.22030000  0.70000000  0.83560000  1.0 -0.2453721766
C  C82  1  0.13380000  0.69300000  0.82860000  1.0 -0.0278121111
C  C83  1  0.08980000  0.62280000  0.89480000  1.0 0.5572060045
C  C84  1  0.41090000  0.72690000  0.83290000  1.0 0.1311059938
C  C85  1  0.47790000  0.76690000  0.82190000  1.0 -0.0278121111
C  C86  1  0.47870000  0.80970000  0.88870000  1.0 0.0712255236
C  C87  1  0.60160000  0.87860000  0.78060000  1.0 0.1621052532
C  C88  1  0.54160000  0.78160000  0.73360000  1.0 0.0076508892
C  C89  1  0.83560000  0.22030000  0.70000000  1.0 -0.244625394
C  C90  1  0.82860000  0.13380000  0.69300000  1.0 -0.0278121111
C  C91  1  0.89480000  0.08980000  0.62280000  1.0 0.5572060045
C  C92  1  0.83290000  0.41090000  0.72690000  1.0 0.1311059938
C  C93  1  0.82190000  0.47790000  0.76690000  1.0 -0.0278121111
C  C94  1  0.88870000  0.47870000  0.80970000  1.0 0.0712255236
C  C95  1  0.78060000  0.60160000  0.87860000  1.0 0.1621052532
C  C96  1  0.73360000  0.54160000  0.78160000  1.0 0.0076508892
C  C97  1  0.77110000  0.26410000  0.77110000  1.0 0.2034706618
C  C98  1  0.75700000  0.09100000  0.75700000  1.0 -0.1414499287
C  C99  1  0.26410000  0.77110000  0.77110000  1.0 0.2034706618
C  C100  1  0.09100000  0.75700000  0.75700000  1.0 -0.1414499287
C  C101  1  0.77110000  0.77110000  0.26410000  1.0 0.2034706618
C  C102  1  0.75700000  0.75700000  0.09100000  1.0 -0.1414499287
C  C103  1  0.22890000  0.22890000  0.73590000  1.0 0.2034706618
C  C104  1  0.24300000  0.24300000  0.90900000  1.0 -0.1414499287
C  C105  1  0.73590000  0.22890000  0.22890000  1.0 0.2034706618
C  C106  1  0.90900000  0.24300000  0.24300000  1.0 -0.1414499287
C  C107  1  0.22890000  0.73590000  0.22890000  1.0 0.2034706618
C  C108  1  0.24300000  0.90900000  0.24300000  1.0 -0.1414499287
N  N1  1  0.75200000  0.35400000  0.77800000  1.0 0.0009081028
N  N2  1  0.86550000  0.54150000  0.86850000  1.0 -0.182601456
N  N3  1  0.83940000  0.60340000  0.71240000  1.0 -0.182601456
N  N4  1  0.35400000  0.77800000  0.75200000  1.0 0.0009081028
N  N5  1  0.54150000  0.86850000  0.86550000  1.0 -0.182601456
N  N6  1  0.60340000  0.71240000  0.83940000  1.0 -0.182601456
N  N7  1  0.77800000  0.75200000  0.35400000  1.0 0.0009081028
N  N8  1  0.86850000  0.86550000  0.54150000  1.0 -0.182601456
N  N9  1  0.71240000  0.83940000  0.60340000  1.0 -0.182601456
N  N10  1  0.24800000  0.22200000  0.64600000  1.0 0.0009081028
N  N11  1  0.13450000  0.13150000  0.45850000  1.0 -0.182601456
N  N12  1  0.16060000  0.28760000  0.39660000  1.0 -0.182601456
N  N13  1  0.64600000  0.24800000  0.22200000  1.0 0.0009081028
N  N14  1  0.45850000  0.13450000  0.13150000  1.0 -0.182601456
N  N15  1  0.39660000  0.16060000  0.28760000  1.0 -0.182601456
N  N16  1  0.22200000  0.64600000  0.24800000  1.0 0.0009081028
N  N17  1  0.13150000  0.45850000  0.13450000  1.0 -0.182601456
N  N18  1  0.28760000  0.39660000  0.16060000  1.0 -0.182601456
N  N19  1  0.24800000  0.64600000  0.22200000  1.0 0.0009081028
N  N20  1  0.13450000  0.45850000  0.13150000  1.0 -0.182601456
N  N21  1  0.16060000  0.39660000  0.28760000  1.0 -0.182601456
N  N22  1  0.64600000  0.22200000  0.24800000  1.0 0.0009081028
N  N23  1  0.45850000  0.13150000  0.13450000  1.0 -0.182601456
N  N24  1  0.39660000  0.28760000  0.16060000  1.0 -0.182601456
N  N25  1  0.22200000  0.24800000  0.64600000  1.0 0.0009081028
N  N26  1  0.13150000  0.13450000  0.45850000  1.0 -0.182601456
N  N27  1  0.28760000  0.16060000  0.39660000  1.0 -0.182601456
N  N28  1  0.75200000  0.77800000  0.35400000  1.0 0.0009081028
N  N29  1  0.86550000  0.86850000  0.54150000  1.0 -0.182601456
N  N30  1  0.83940000  0.71240000  0.60340000  1.0 -0.182601456
N  N31  1  0.35400000  0.75200000  0.77800000  1.0 0.0009081028
N  N32  1  0.54150000  0.86550000  0.86850000  1.0 -0.182601456
N  N33  1  0.60340000  0.83940000  0.71240000  1.0 -0.182601456
N  N34  1  0.77800000  0.35400000  0.75200000  1.0 0.0009081028
N  N35  1  0.86850000  0.54150000  0.86550000  1.0 -0.182601456
N  N36  1  0.71240000  0.60340000  0.83940000  1.0 -0.182601456
O  O1  1  0.57680000  0.11910000  0.96340000  1.0 -0.5144484941
O  O2  1  0.61040000  0.02070000  0.88300000  1.0 -0.5024116341
O  O3  1  0.71600000  0.35500000  0.90600000  1.0 -0.2849417333
O  O4  1  0.11910000  0.96340000  0.57680000  1.0 -0.5144484941
O  O5  1  0.02070000  0.88300000  0.61040000  1.0 -0.5024116341
O  O6  1  0.35500000  0.90600000  0.71600000  1.0 -0.2849417333
O  O7  1  0.96340000  0.57680000  0.11910000  1.0 -0.5144484941
O  O8  1  0.88300000  0.61040000  0.02070000  1.0 -0.5024116341
O  O9  1  0.90600000  0.71600000  0.35500000  1.0 -0.2852006857
O  O10  1  0.42320000  0.03660000  0.88090000  1.0 -0.5144484941
O  O11  1  0.38960000  0.11700000  0.97930000  1.0 -0.5024116341
O  O12  1  0.28400000  0.09400000  0.64500000  1.0 -0.2852006857
O  O13  1  0.88090000  0.42320000  0.03660000  1.0 -0.5144484941
O  O14  1  0.97930000  0.38960000  0.11700000  1.0 -0.5024116341
O  O15  1  0.64500000  0.28400000  0.09400000  1.0 -0.2852006857
O  O16  1  0.03660000  0.88090000  0.42320000  1.0 -0.5144484941
O  O17  1  0.11700000  0.97930000  0.38960000  1.0 -0.5024116341
O  O18  1  0.09400000  0.64500000  0.28400000  1.0 -0.2849417333
O  O19  1  0.42320000  0.88090000  0.03660000  1.0 -0.5144484941
O  O20  1  0.38960000  0.97930000  0.11700000  1.0 -0.5024116341
O  O21  1  0.28400000  0.64500000  0.09400000  1.0 -0.2852006857
O  O22  1  0.88090000  0.03660000  0.42320000  1.0 -0.5144484941
O  O23  1  0.97930000  0.11700000  0.38960000  1.0 -0.5024116341
O  O24  1  0.64500000  0.09400000  0.28400000  1.0 -0.2852006857
O  O25  1  0.03660000  0.42320000  0.88090000  1.0 -0.5144484941
O  O26  1  0.11700000  0.38960000  0.97930000  1.0 -0.5024116341
O  O27  1  0.09400000  0.28400000  0.64500000  1.0 -0.2849417333
O  O28  1  0.57680000  0.96340000  0.11910000  1.0 -0.5144484941
O  O29  1  0.61040000  0.88300000  0.02070000  1.0 -0.5024116341
O  O30  1  0.71600000  0.90600000  0.35500000  1.0 -0.2849417333
O  O31  1  0.11910000  0.57680000  0.96340000  1.0 -0.5144484941
O  O32  1  0.02070000  0.61040000  0.88300000  1.0 -0.5024116341
O  O33  1  0.35500000  0.71600000  0.90600000  1.0 -0.2849417333
O  O34  1  0.96340000  0.11910000  0.57680000  1.0 -0.5144484941
O  O35  1  0.88300000  0.02070000  0.61040000  1.0 -0.5024116341
O  O36  1  0.90600000  0.35500000  0.71600000  1.0 -0.2852006857
