# DDEC6 charges by PACMAN v1.1 (https://github.com/mtap-research/PACMAN-charge/)
data_EFIMUB_ASR_pacman
_symmetry_space_group_name_H-M   'P 1'
_cell_length_a   8.12149000
_cell_length_b   8.12149000
_cell_length_c   9.63570000
_cell_angle_alpha   54.32340000
_cell_angle_beta   125.67700000
_cell_angle_gamma   112.60400000
_symmetry_Int_Tables_number   1
_chemical_formula_structural   BePO4
_chemical_formula_sum   'Be4 P4 O16'
_cell_volume   418.43808408
_cell_formula_units_Z   4
loop_
 _symmetry_equiv_pos_site_id
 _symmetry_equiv_pos_as_xyz
  1  'x, y, z'
loop_
 _atom_site_type_symbol
 _atom_site_label
 _atom_site_symmetry_multiplicity
 _atom_site_fract_x
 _atom_site_fract_y
 _atom_site_fract_z
 _atom_site_occupancy
 _atom_site_charge
Be  Be1  1  0.98300000  0.72140000  0.04220000  1.0 1.0094697202
Be  Be2  1  0.72140000  0.98300000  0.45780000  1.0 1.0094697202
Be  Be3  1  0.01700000  0.27860000  0.95780000  1.0 1.0094697202
Be  Be4  1  0.27860000  0.01700000  0.54220000  1.0 1.0094697202
P  P1  1  0.06401000  0.73031000  0.77937000  1.0 1.0777124787
P  P2  1  0.73031000  0.06401000  0.72063000  1.0 1.0723777438
P  P3  1  0.93599000  0.26969000  0.22063000  1.0 1.0777124787
P  P4  1  0.26969000  0.93599000  0.27937000  1.0 1.0777124787
O  O1  1  0.10540000  0.75560000  0.94260000  1.0 -0.5259332483
O  O2  1  0.75560000  0.10540000  0.55740000  1.0 -0.5242191528
O  O3  1  0.89460000  0.24440000  0.05740000  1.0 -0.5242191528
O  O4  1  0.24440000  0.89460000  0.44260000  1.0 -0.5259332483
O  O5  1  0.84820000  0.77940000  0.61040000  1.0 -0.5493119632
O  O6  1  0.77940000  0.84820000  0.88960000  1.0 -0.5493119632
O  O7  1  0.15180000  0.22060000  0.38960000  1.0 -0.5493119632
O  O8  1  0.22060000  0.15180000  0.11040000  1.0 -0.5493119632
O  O9  1  0.09900000  0.51420000  0.85570000  1.0 -0.5093160247
O  O10  1  0.51420000  0.09900000  0.64430000  1.0 -0.5093160247
O  O11  1  0.90100000  0.48580000  0.14430000  1.0 -0.5093160247
O  O12  1  0.48580000  0.90100000  0.35570000  1.0 -0.5093160247
O  O13  1  0.22640000  0.86720000  0.71940000  1.0 -0.5021443267
O  O14  1  0.86720000  0.22640000  0.78060000  1.0 -0.5021443267
O  O15  1  0.77360000  0.13280000  0.28060000  1.0 -0.5021443267
O  O16  1  0.13280000  0.77360000  0.21940000  1.0 -0.5021443267
