# DDEC6 charges by PACMAN v1.1 (https://github.com/mtap-research/PACMAN-charge/)
data_EGABAR_ASR_pacman
_symmetry_space_group_name_H-M   'P 1'
_cell_length_a   11.12600000
_cell_length_b   17.36100000
_cell_length_c   16.11900000
_cell_angle_alpha   90.00000000
_cell_angle_beta   102.40000000
_cell_angle_gamma   90.00000000
_symmetry_Int_Tables_number   1
_chemical_formula_structural   Cd(CO2)3
_chemical_formula_sum   'Cd16 C48 O96'
_cell_volume   3040.89026971
_cell_formula_units_Z   16
loop_
 _symmetry_equiv_pos_site_id
 _symmetry_equiv_pos_as_xyz
  1  'x, y, z'
loop_
 _atom_site_type_symbol
 _atom_site_label
 _atom_site_symmetry_multiplicity
 _atom_site_fract_x
 _atom_site_fract_y
 _atom_site_fract_z
 _atom_site_occupancy
 _atom_site_charge
Cd  Cd1  1  0.15248000  0.46423000  0.87800000  1.0 1.0305154632
Cd  Cd2  1  0.84752000  0.53577000  0.12200000  1.0 1.0305154632
Cd  Cd3  1  0.84752000  0.46423000  0.62200000  1.0 1.0305154632
Cd  Cd4  1  0.15248000  0.53577000  0.37800000  1.0 1.0305154632
Cd  Cd5  1  0.65248000  0.96423000  0.87800000  1.0 1.0305154632
Cd  Cd6  1  0.34752000  0.03577000  0.12200000  1.0 1.0305154632
Cd  Cd7  1  0.34752000  0.96423000  0.62200000  1.0 1.0305154632
Cd  Cd8  1  0.65248000  0.03577000  0.37800000  1.0 1.0305154632
Cd  Cd9  1  0.34257000  0.42917000  0.10388000  1.0 1.0305154632
Cd  Cd10  1  0.65743000  0.57083000  0.89612000  1.0 1.0305154632
Cd  Cd11  1  0.65743000  0.42917000  0.39612000  1.0 1.0305154632
Cd  Cd12  1  0.34257000  0.57083000  0.60388000  1.0 1.0305154632
Cd  Cd13  1  0.84257000  0.92917000  0.10388000  1.0 1.0305154632
Cd  Cd14  1  0.15743000  0.07083000  0.89612000  1.0 1.0305154632
Cd  Cd15  1  0.15743000  0.92917000  0.39612000  1.0 1.0305154632
Cd  Cd16  1  0.84257000  0.07083000  0.60388000  1.0 1.0305154632
C  C1  1  0.24223000  0.55993000  0.75486000  1.0 0.4961725342
C  C2  1  0.75777000  0.44007000  0.24514000  1.0 0.4961725342
C  C3  1  0.75777000  0.55993000  0.74514000  1.0 0.4961725342
C  C4  1  0.24223000  0.44007000  0.25486000  1.0 0.4961725342
C  C5  1  0.74223000  0.05993000  0.75486000  1.0 0.4961725342
C  C6  1  0.25777000  0.94007000  0.24514000  1.0 0.4961725342
C  C7  1  0.25777000  0.05993000  0.74514000  1.0 0.4961725342
C  C8  1  0.74223000  0.94007000  0.25486000  1.0 0.4961725342
C  C9  1  0.04814000  0.48160000  0.03709000  1.0 0.491924234
C  C10  1  0.95186000  0.51840000  0.96291000  1.0 0.491924234
C  C11  1  0.95186000  0.48160000  0.46291000  1.0 0.491924234
C  C12  1  0.04814000  0.51840000  0.53709000  1.0 0.491924234
C  C13  1  0.54814000  0.98160000  0.03709000  1.0 0.491924234
C  C14  1  0.45186000  0.01840000  0.96291000  1.0 0.491924234
C  C15  1  0.45186000  0.98160000  0.46291000  1.0 0.491924234
C  C16  1  0.54814000  0.01840000  0.53709000  1.0 0.491924234
C  C17  1  0.44360000  0.50845000  0.96336000  1.0 0.4961725342
C  C18  1  0.55640000  0.49155000  0.03664000  1.0 0.4961725342
C  C19  1  0.55640000  0.50845000  0.53664000  1.0 0.4961725342
C  C20  1  0.44360000  0.49155000  0.46336000  1.0 0.4961725342
C  C21  1  0.94360000  0.00845000  0.96336000  1.0 0.4961725342
C  C22  1  0.05640000  0.99155000  0.03664000  1.0 0.4961725342
C  C23  1  0.05640000  0.00845000  0.53664000  1.0 0.4961725342
C  C24  1  0.94360000  0.99155000  0.46336000  1.0 0.4961725342
C  C25  1  0.26733000  0.52627000  0.23047000  1.0 0.4961725342
C  C26  1  0.73267000  0.47373000  0.76953000  1.0 0.4961725342
C  C27  1  0.73267000  0.52627000  0.26953000  1.0 0.491924234
C  C28  1  0.26733000  0.47373000  0.73047000  1.0 0.4961725342
C  C29  1  0.76733000  0.02627000  0.23047000  1.0 0.4961725342
C  C30  1  0.23267000  0.97373000  0.76953000  1.0 0.4961725342
C  C31  1  0.23267000  0.02627000  0.26953000  1.0 0.4961725342
C  C32  1  0.76733000  0.97373000  0.73047000  1.0 0.4961725342
C  C33  1  0.20293000  0.23027000  0.08196000  1.0 0.7432250094
C  C34  1  0.79707000  0.76973000  0.91804000  1.0 0.7432250094
C  C35  1  0.79707000  0.23027000  0.41804000  1.0 0.7432250094
C  C36  1  0.20293000  0.76973000  0.58196000  1.0 0.7432250094
C  C37  1  0.70293000  0.73027000  0.08196000  1.0 0.7432250094
C  C38  1  0.29707000  0.26973000  0.91804000  1.0 0.7432250094
C  C39  1  0.29707000  0.73027000  0.41804000  1.0 0.7432250094
C  C40  1  0.70293000  0.26973000  0.58196000  1.0 0.7432250094
C  C41  1  0.48538000  0.23100000  0.13557000  1.0 0.7338149559
C  C42  1  0.51462000  0.76900000  0.86443000  1.0 0.7338149559
C  C43  1  0.51462000  0.23100000  0.36443000  1.0 0.7338149559
C  C44  1  0.48538000  0.76900000  0.63557000  1.0 0.7338149559
C  C45  1  0.98538000  0.73100000  0.13557000  1.0 0.7338149559
C  C46  1  0.01462000  0.26900000  0.86443000  1.0 0.7338149559
C  C47  1  0.01462000  0.73100000  0.36443000  1.0 0.7338149559
C  C48  1  0.98538000  0.26900000  0.63557000  1.0 0.7338149559
O  O1  1  0.17958000  0.57137000  0.81041000  1.0 -0.4708910871
O  O2  1  0.82042000  0.42863000  0.18959000  1.0 -0.4708910871
O  O3  1  0.82042000  0.57137000  0.68959000  1.0 -0.4708910871
O  O4  1  0.17958000  0.42863000  0.31041000  1.0 -0.4708910871
O  O5  1  0.67958000  0.07137000  0.81041000  1.0 -0.4708910871
O  O6  1  0.32042000  0.92863000  0.18959000  1.0 -0.4708910871
O  O7  1  0.32042000  0.07137000  0.68959000  1.0 -0.4708910871
O  O8  1  0.67958000  0.92863000  0.31041000  1.0 -0.4708910871
O  O9  1  0.22847000  0.41967000  0.77175000  1.0 -0.4974306649
O  O10  1  0.77153000  0.58033000  0.22825000  1.0 -0.4974306649
O  O11  1  0.77153000  0.41967000  0.72825000  1.0 -0.4974306649
O  O12  1  0.22847000  0.58033000  0.27175000  1.0 -0.4974306649
O  O13  1  0.72847000  0.91967000  0.77175000  1.0 -0.4974306649
O  O14  1  0.27153000  0.08033000  0.22825000  1.0 -0.4974306649
O  O15  1  0.27153000  0.91967000  0.72825000  1.0 -0.4974306649
O  O16  1  0.72847000  0.08033000  0.27175000  1.0 -0.4974306649
O  O17  1  0.96231000  0.50704000  0.88761000  1.0 -0.4974306649
O  O18  1  0.03769000  0.49296000  0.11239000  1.0 -0.4974306649
O  O19  1  0.03769000  0.50704000  0.61239000  1.0 -0.4974306649
O  O20  1  0.96231000  0.49296000  0.38761000  1.0 -0.4974306649
O  O21  1  0.46231000  0.00704000  0.88761000  1.0 -0.4974306649
O  O22  1  0.53769000  0.99296000  0.11239000  1.0 -0.4974306649
O  O23  1  0.53769000  0.00704000  0.61239000  1.0 -0.4974306649
O  O24  1  0.46231000  0.99296000  0.38761000  1.0 -0.4974306649
O  O25  1  0.01163000  0.33509000  0.84859000  1.0 -0.3601694748
O  O26  1  0.98837000  0.66491000  0.15141000  1.0 -0.3601694748
O  O27  1  0.98837000  0.33509000  0.65141000  1.0 -0.3601694748
O  O28  1  0.01163000  0.66491000  0.34859000  1.0 -0.3601694748
O  O29  1  0.51163000  0.83509000  0.84859000  1.0 -0.3601694748
O  O30  1  0.48837000  0.16491000  0.15141000  1.0 -0.3601694748
O  O31  1  0.48837000  0.83509000  0.65141000  1.0 -0.3601694748
O  O32  1  0.51163000  0.16491000  0.34859000  1.0 -0.3601694748
O  O33  1  0.13314000  0.44160000  0.01505000  1.0 -0.5522002716
O  O34  1  0.86686000  0.55840000  0.98495000  1.0 -0.5522002716
O  O35  1  0.86686000  0.44160000  0.48495000  1.0 -0.5522002716
O  O36  1  0.13314000  0.55840000  0.51505000  1.0 -0.5522002716
O  O37  1  0.63314000  0.94160000  0.01505000  1.0 -0.5522002716
O  O38  1  0.36686000  0.05840000  0.98495000  1.0 -0.5522002716
O  O39  1  0.36686000  0.94160000  0.48495000  1.0 -0.5522002716
O  O40  1  0.63314000  0.05840000  0.51505000  1.0 -0.5522002716
O  O41  1  0.34181000  0.48016000  0.97375000  1.0 -0.5522002716
O  O42  1  0.65819000  0.51984000  0.02625000  1.0 -0.5522002716
O  O43  1  0.65819000  0.48016000  0.52625000  1.0 -0.5522002716
O  O44  1  0.34181000  0.51984000  0.47375000  1.0 -0.5522002716
O  O45  1  0.84181000  0.98016000  0.97375000  1.0 -0.5522002716
O  O46  1  0.15819000  0.01984000  0.02625000  1.0 -0.5522002716
O  O47  1  0.15819000  0.98016000  0.52625000  1.0 -0.5522002716
O  O48  1  0.84181000  0.01984000  0.47375000  1.0 -0.5522002716
O  O49  1  0.29601000  0.33735000  0.91709000  1.0 -0.3886682715
O  O50  1  0.70399000  0.66265000  0.08291000  1.0 -0.3886682715
O  O51  1  0.70399000  0.33735000  0.58291000  1.0 -0.3886682715
O  O52  1  0.29601000  0.66265000  0.41709000  1.0 -0.3886682715
O  O53  1  0.79601000  0.83735000  0.91709000  1.0 -0.3886682715
O  O54  1  0.20399000  0.16265000  0.08291000  1.0 -0.3886682715
O  O55  1  0.20399000  0.83735000  0.58291000  1.0 -0.3886682715
O  O56  1  0.79601000  0.16265000  0.41709000  1.0 -0.3886682715
O  O57  1  0.32392000  0.53793000  0.17123000  1.0 -0.4817896698
O  O58  1  0.67608000  0.46207000  0.82877000  1.0 -0.4817896698
O  O59  1  0.67608000  0.53793000  0.32877000  1.0 -0.4817896698
O  O60  1  0.32392000  0.46207000  0.67123000  1.0 -0.4817896698
O  O61  1  0.82392000  0.03793000  0.17123000  1.0 -0.4817896698
O  O62  1  0.17608000  0.96207000  0.82877000  1.0 -0.4817896698
O  O63  1  0.17608000  0.03793000  0.32877000  1.0 -0.4817896698
O  O64  1  0.82392000  0.96207000  0.67123000  1.0 -0.4817896698
O  O65  1  0.20268000  0.29752000  0.07753000  1.0 -0.3778115053
O  O66  1  0.79732000  0.70248000  0.92247000  1.0 -0.3778115053
O  O67  1  0.79732000  0.29752000  0.42247000  1.0 -0.3778115053
O  O68  1  0.20268000  0.70248000  0.57753000  1.0 -0.3778115053
O  O69  1  0.70268000  0.79752000  0.07753000  1.0 -0.3778115053
O  O70  1  0.29732000  0.20248000  0.92247000  1.0 -0.3778115053
O  O71  1  0.29732000  0.79752000  0.42247000  1.0 -0.3778115053
O  O72  1  0.70268000  0.20248000  0.57753000  1.0 -0.3778115053
O  O73  1  0.48040000  0.29686000  0.11906000  1.0 -0.3601694748
O  O74  1  0.51960000  0.70314000  0.88094000  1.0 -0.3601694748
O  O75  1  0.51960000  0.29686000  0.38094000  1.0 -0.3601694748
O  O76  1  0.48040000  0.70314000  0.61906000  1.0 -0.3601694748
O  O77  1  0.98040000  0.79686000  0.11906000  1.0 -0.3601694748
O  O78  1  0.01960000  0.20314000  0.88094000  1.0 -0.3601694748
O  O79  1  0.01960000  0.79686000  0.38094000  1.0 -0.3601694748
O  O80  1  0.98040000  0.20314000  0.61906000  1.0 -0.3601694748
O  O81  1  0.28674000  0.38548000  0.21701000  1.0 -0.4974306649
O  O82  1  0.71326000  0.61452000  0.78299000  1.0 -0.4974306649
O  O83  1  0.71326000  0.38548000  0.28299000  1.0 -0.4974306649
O  O84  1  0.28674000  0.61452000  0.71701000  1.0 -0.4974306649
O  O85  1  0.78674000  0.88548000  0.21701000  1.0 -0.4974306649
O  O86  1  0.21326000  0.11452000  0.78299000  1.0 -0.4974306649
O  O87  1  0.21326000  0.88548000  0.28299000  1.0 -0.4974306649
O  O88  1  0.78674000  0.11452000  0.71701000  1.0 -0.4974306649
O  O89  1  0.54224000  0.45263000  0.09956000  1.0 -0.4817896698
O  O90  1  0.45776000  0.54737000  0.90044000  1.0 -0.4817896698
O  O91  1  0.45776000  0.45263000  0.40044000  1.0 -0.4817896698
O  O92  1  0.54224000  0.54737000  0.59956000  1.0 -0.4817896698
O  O93  1  0.04224000  0.95263000  0.09956000  1.0 -0.4817896698
O  O94  1  0.95776000  0.04737000  0.90044000  1.0 -0.4817896698
O  O95  1  0.95776000  0.95263000  0.40044000  1.0 -0.4817896698
O  O96  1  0.04224000  0.04737000  0.59956000  1.0 -0.4817896698
