# DDEC6 charges by PACMAN v1.1 (https://github.com/mtap-research/PACMAN-charge/)
data_EGEJIK_FSR_pacman
_symmetry_space_group_name_H-M   'P 1'
_cell_length_a   16.99810000
_cell_length_b   16.99810000
_cell_length_c   17.12000000
_cell_angle_alpha   84.50650000
_cell_angle_beta   95.49350000
_cell_angle_gamma   84.23200000
_symmetry_Int_Tables_number   1
_chemical_formula_structural   Zn4H28C46O13
_chemical_formula_sum   'Zn8 H56 C92 O26'
_cell_volume   4871.12725083
_cell_formula_units_Z   2
loop_
 _symmetry_equiv_pos_site_id
 _symmetry_equiv_pos_as_xyz
  1  'x, y, z'
loop_
 _atom_site_type_symbol
 _atom_site_label
 _atom_site_symmetry_multiplicity
 _atom_site_fract_x
 _atom_site_fract_y
 _atom_site_fract_z
 _atom_site_occupancy
 _atom_site_charge
Zn  Zn1  1  0.08734000  0.91266000  0.18691000  1.0 0.9325839394
Zn  Zn2  1  0.09925000  0.77663000  0.32861000  1.0 0.9455385918
Zn  Zn3  1  0.22337000  0.90075000  0.32861000  1.0 0.9455385918
Zn  Zn4  1  0.22877000  0.77123000  0.20781000  1.0 0.912179541
Zn  Zn5  1  0.91266000  0.08734000  0.81309000  1.0 0.9325839394
Zn  Zn6  1  0.77663000  0.09925000  0.67139000  1.0 0.9455385918
Zn  Zn7  1  0.90075000  0.22337000  0.67139000  1.0 0.9455385918
Zn  Zn8  1  0.77123000  0.22877000  0.79219000  1.0 0.912179541
H  H1  1  0.86560000  0.79780000  0.35710000  1.0 0.1196327744
H  H2  1  0.20220000  0.13440000  0.35710000  1.0 0.1196327744
H  H3  1  0.72800000  0.79660000  0.35620000  1.0 0.1108045543
H  H4  1  0.20340000  0.27200000  0.35620000  1.0 0.1108045543
H  H5  1  0.69390000  0.94010000  0.15000000  1.0 0.1284684876
H  H6  1  0.05990000  0.30610000  0.15000000  1.0 0.1284684876
H  H7  1  0.83150000  0.94130000  0.15090000  1.0 0.1196327744
H  H8  1  0.05870000  0.16850000  0.15090000  1.0 0.1196327744
H  H9  1  0.59960000  0.94620000  0.34070000  1.0 0.1196327744
H  H10  1  0.05380000  0.40040000  0.34070000  1.0 0.1196327744
H  H11  1  0.46610000  0.93030000  0.35320000  1.0 0.1196327744
H  H12  1  0.06970000  0.53390000  0.35320000  1.0 0.1196327744
H  H13  1  0.47050000  0.77090000  0.19170000  1.0 0.1284684876
H  H14  1  0.22910000  0.52950000  0.19170000  1.0 0.1284684876
H  H15  1  0.60400000  0.78680000  0.17920000  1.0 0.1108045543
H  H16  1  0.21320000  0.39600000  0.17920000  1.0 0.1108045543
H  H17  1  0.23300000  0.92860000  0.69870000  1.0 0.137386989
H  H18  1  0.07140000  0.76700000  0.69870000  1.0 0.137386989
H  H19  1  0.24220000  0.91740000  0.57290000  1.0 0.1196327744
H  H20  1  0.08260000  0.75780000  0.57290000  1.0 0.1196327744
H  H21  1  0.25050000  0.77390000  0.97860000  1.0 0.08823053
H  H22  1  0.22610000  0.74950000  0.97860000  1.0 0.08823053
H  H23  1  0.25730000  0.76710000  0.84350000  1.0 0.08823053
H  H24  1  0.23290000  0.74270000  0.84350000  1.0 0.08823053
H  H25  1  0.05580000  0.91980000  0.79450000  1.0 0.097045053
H  H26  1  0.08020000  0.94420000  0.79450000  1.0 0.097045053
H  H27  1  0.04900000  0.92660000  0.92960000  1.0 0.097045053
H  H28  1  0.07340000  0.95100000  0.92960000  1.0 0.097045053
H  H29  1  0.79780000  0.86560000  0.64290000  1.0 0.1196327744
H  H30  1  0.13440000  0.20220000  0.64290000  1.0 0.1196327744
H  H31  1  0.79660000  0.72800000  0.64380000  1.0 0.1108045543
H  H32  1  0.27200000  0.20340000  0.64380000  1.0 0.1108045543
H  H33  1  0.94010000  0.69390000  0.85000000  1.0 0.1284684876
H  H34  1  0.30610000  0.05990000  0.85000000  1.0 0.1284684876
H  H35  1  0.94130000  0.83150000  0.84910000  1.0 0.1196327744
H  H36  1  0.16850000  0.05870000  0.84910000  1.0 0.1196327744
H  H37  1  0.94620000  0.59960000  0.65930000  1.0 0.1196327744
H  H38  1  0.40040000  0.05380000  0.65930000  1.0 0.1196327744
H  H39  1  0.93030000  0.46610000  0.64680000  1.0 0.1196327744
H  H40  1  0.53390000  0.06970000  0.64680000  1.0 0.1196327744
H  H41  1  0.77090000  0.47050000  0.80830000  1.0 0.1284684876
H  H42  1  0.52950000  0.22910000  0.80830000  1.0 0.1284684876
H  H43  1  0.78680000  0.60400000  0.82080000  1.0 0.1108045543
H  H44  1  0.39600000  0.21320000  0.82080000  1.0 0.1108045543
H  H45  1  0.92860000  0.23300000  0.30130000  1.0 0.137386989
H  H46  1  0.76700000  0.07140000  0.30130000  1.0 0.137386989
H  H47  1  0.91740000  0.24220000  0.42710000  1.0 0.1196327744
H  H48  1  0.75780000  0.08260000  0.42710000  1.0 0.1196327744
H  H49  1  0.77390000  0.25050000  0.02140000  1.0 0.08823053
H  H50  1  0.74950000  0.22610000  0.02140000  1.0 0.08823053
H  H51  1  0.76710000  0.25730000  0.15650000  1.0 0.08823053
H  H52  1  0.74270000  0.23290000  0.15650000  1.0 0.08823053
H  H53  1  0.91980000  0.05580000  0.20550000  1.0 0.097045053
H  H54  1  0.94420000  0.08020000  0.20550000  1.0 0.097045053
H  H55  1  0.92660000  0.04900000  0.07040000  1.0 0.097045053
H  H56  1  0.95100000  0.07340000  0.07040000  1.0 0.097045053
C  C1  1  0.95650000  0.86070000  0.25770000  1.0 0.5821215028
C  C2  1  0.13930000  0.04350000  0.25770000  1.0 0.5821215028
C  C3  1  0.86150000  0.86970000  0.25410000  1.0 -0.0185915956
C  C4  1  0.13030000  0.13850000  0.25410000  1.0 -0.0185915956
C  C5  1  0.83070000  0.82670000  0.31510000  1.0 -0.1077944327
C  C6  1  0.17330000  0.16930000  0.31510000  1.0 -0.1077944327
C  C7  1  0.74900000  0.82600000  0.31450000  1.0 -0.1503941871
C  C8  1  0.17400000  0.25100000  0.31450000  1.0 -0.1503941871
C  C9  1  0.69800000  0.86820000  0.25300000  1.0 0.062221721
C  C10  1  0.13180000  0.30200000  0.25300000  1.0 0.062221721
C  C11  1  0.72870000  0.91130000  0.19200000  1.0 -0.1503941871
C  C12  1  0.08870000  0.27130000  0.19200000  1.0 -0.1503941871
C  C13  1  0.81050000  0.91190000  0.19260000  1.0 -0.1077944327
C  C14  1  0.08810000  0.18950000  0.19260000  1.0 -0.1077944327
C  C15  1  0.61440000  0.86800000  0.25880000  1.0 0.0533987478
C  C16  1  0.13200000  0.38560000  0.25880000  1.0 0.0533987478
C  C17  1  0.57340000  0.91060000  0.31050000  1.0 -0.1503941871
C  C18  1  0.08940000  0.42660000  0.31050000  1.0 -0.1503941871
C  C19  1  0.49410000  0.90110000  0.31790000  1.0 -0.1173470074
C  C20  1  0.09890000  0.50590000  0.31790000  1.0 -0.1173470074
C  C21  1  0.45570000  0.84910000  0.27360000  1.0 0.0219339106
C  C22  1  0.15090000  0.54430000  0.27360000  1.0 0.0219339106
C  C23  1  0.49670000  0.80650000  0.22190000  1.0 -0.1173470074
C  C24  1  0.19350000  0.50330000  0.22190000  1.0 -0.1173470074
C  C25  1  0.57610000  0.81590000  0.21450000  1.0 -0.1401531806
C  C26  1  0.18410000  0.42390000  0.21450000  1.0 -0.1401531806
C  C27  1  0.35400000  0.84300000  0.26240000  1.0 0.5821215028
C  C28  1  0.15700000  0.64600000  0.26240000  1.0 0.5821215028
C  C29  1  0.15280000  0.84720000  0.06130000  1.0 0.529598605
C  C30  1  0.14910000  0.85090000  0.96680000  1.0 0.0219339106
C  C31  1  0.21100000  0.80360000  0.94120000  1.0 -0.0798401645
C  C32  1  0.19640000  0.78900000  0.94120000  1.0 -0.0798401645
C  C33  1  0.21510000  0.79950000  0.86100000  1.0 -0.0994119816
C  C34  1  0.20050000  0.78490000  0.86100000  1.0 -0.0994119816
C  C35  1  0.15720000  0.84280000  0.80630000  1.0 0.0533987478
C  C36  1  0.09520000  0.89020000  0.83190000  1.0 -0.0994119816
C  C37  1  0.10980000  0.90480000  0.83190000  1.0 -0.0994119816
C  C38  1  0.09120000  0.89420000  0.91210000  1.0 -0.0798401645
C  C39  1  0.10580000  0.90880000  0.91210000  1.0 -0.0798401645
C  C40  1  0.15840000  0.84160000  0.71640000  1.0 0.062221721
C  C41  1  0.20400000  0.89200000  0.67270000  1.0 -0.1503941871
C  C42  1  0.10800000  0.79600000  0.67270000  1.0 -0.1503941871
C  C43  1  0.20641000  0.88861000  0.60040000  1.0 -0.0994119816
C  C44  1  0.11139000  0.79359000  0.60040000  1.0 -0.0994119816
C  C45  1  0.15690000  0.84310000  0.56110000  1.0 -0.0336911155
C  C46  1  0.16120000  0.83880000  0.47100000  1.0 0.6068724507
C  C47  1  0.86070000  0.95650000  0.74230000  1.0 0.5821215028
C  C48  1  0.04350000  0.13930000  0.74230000  1.0 0.5821215028
C  C49  1  0.86970000  0.86150000  0.74590000  1.0 -0.0185915956
C  C50  1  0.13850000  0.13030000  0.74590000  1.0 -0.0185915956
C  C51  1  0.82670000  0.83070000  0.68490000  1.0 -0.1077944327
C  C52  1  0.16930000  0.17330000  0.68490000  1.0 -0.1077944327
C  C53  1  0.82600000  0.74900000  0.68550000  1.0 -0.1503941871
C  C54  1  0.25100000  0.17400000  0.68550000  1.0 -0.1503941871
C  C55  1  0.86820000  0.69800000  0.74700000  1.0 0.062221721
C  C56  1  0.30200000  0.13180000  0.74700000  1.0 0.062221721
C  C57  1  0.91130000  0.72870000  0.80800000  1.0 -0.1503941871
C  C58  1  0.27130000  0.08870000  0.80800000  1.0 -0.1503941871
C  C59  1  0.91190000  0.81050000  0.80740000  1.0 -0.1077944327
C  C60  1  0.18950000  0.08810000  0.80740000  1.0 -0.1077944327
C  C61  1  0.86800000  0.61440000  0.74120000  1.0 0.0533987478
C  C62  1  0.38560000  0.13200000  0.74120000  1.0 0.0533987478
C  C63  1  0.91060000  0.57340000  0.68950000  1.0 -0.1503941871
C  C64  1  0.42660000  0.08940000  0.68950000  1.0 -0.1503941871
C  C65  1  0.90110000  0.49410000  0.68210000  1.0 -0.1173470074
C  C66  1  0.50590000  0.09890000  0.68210000  1.0 -0.1173470074
C  C67  1  0.84910000  0.45570000  0.72640000  1.0 0.0219339106
C  C68  1  0.54430000  0.15090000  0.72640000  1.0 0.0219339106
C  C69  1  0.80650000  0.49670000  0.77810000  1.0 -0.1173470074
C  C70  1  0.50330000  0.19350000  0.77810000  1.0 -0.1173470074
C  C71  1  0.81590000  0.57610000  0.78550000  1.0 -0.1401531806
C  C72  1  0.42390000  0.18410000  0.78550000  1.0 -0.1401531806
C  C73  1  0.84300000  0.35400000  0.73760000  1.0 0.5821215028
C  C74  1  0.64600000  0.15700000  0.73760000  1.0 0.5821215028
C  C75  1  0.84720000  0.15280000  0.93870000  1.0 0.529598605
C  C76  1  0.85090000  0.14910000  0.03320000  1.0 0.0219339106
C  C77  1  0.80360000  0.21100000  0.05880000  1.0 -0.0798401645
C  C78  1  0.78900000  0.19640000  0.05880000  1.0 -0.0798401645
C  C79  1  0.79950000  0.21510000  0.13900000  1.0 -0.0994119816
C  C80  1  0.78490000  0.20050000  0.13900000  1.0 -0.0994119816
C  C81  1  0.84280000  0.15720000  0.19370000  1.0 0.0533987478
C  C82  1  0.89020000  0.09520000  0.16810000  1.0 -0.0994119816
C  C83  1  0.90480000  0.10980000  0.16810000  1.0 -0.0994119816
C  C84  1  0.89420000  0.09120000  0.08790000  1.0 -0.0798401645
C  C85  1  0.90880000  0.10580000  0.08790000  1.0 -0.0798401645
C  C86  1  0.84160000  0.15840000  0.28360000  1.0 0.062221721
C  C87  1  0.89200000  0.20400000  0.32730000  1.0 -0.1503941871
C  C88  1  0.79600000  0.10800000  0.32730000  1.0 -0.1503941871
C  C89  1  0.88861000  0.20641000  0.39960000  1.0 -0.0994119816
C  C90  1  0.79359000  0.11139000  0.39960000  1.0 -0.0994119816
C  C91  1  0.84310000  0.15690000  0.43890000  1.0 -0.0336911155
C  C92  1  0.83880000  0.16120000  0.52900000  1.0 0.6068724507
O  O1  1  0.15930000  0.84070000  0.26310000  1.0 -1.0102500206
O  O2  1  0.97730000  0.90430000  0.19720000  1.0 -0.5755104507
O  O3  1  0.09570000  0.02270000  0.19720000  1.0 -0.5742134338
O  O4  1  0.99580000  0.81180000  0.31110000  1.0 -0.5256504899
O  O5  1  0.18820000  0.00420000  0.31110000  1.0 -0.5256504899
O  O6  1  0.32680000  0.79840000  0.21600000  1.0 -0.4612104183
O  O7  1  0.20160000  0.67320000  0.21600000  1.0 -0.4612104183
O  O8  1  0.11370000  0.67190000  0.31860000  1.0 -0.5522764957
O  O9  1  0.32810000  0.88630000  0.31860000  1.0 -0.5522764957
O  O10  1  0.09780000  0.90220000  0.07650000  1.0 -0.561794965
O  O11  1  0.20230000  0.79770000  0.10370000  1.0 -0.487742502
O  O12  1  0.11640000  0.79220000  0.43790000  1.0 -0.561794965
O  O13  1  0.20780000  0.88360000  0.43790000  1.0 -0.561794965
O  O14  1  0.84070000  0.15930000  0.73690000  1.0 -1.0102500206
O  O15  1  0.90430000  0.97730000  0.80280000  1.0 -0.5755104507
O  O16  1  0.02270000  0.09570000  0.80280000  1.0 -0.5755104507
O  O17  1  0.81180000  0.99580000  0.68890000  1.0 -0.5256504899
O  O18  1  0.00420000  0.18820000  0.68890000  1.0 -0.5256504899
O  O19  1  0.79840000  0.32680000  0.78400000  1.0 -0.4612104183
O  O20  1  0.67320000  0.20160000  0.78400000  1.0 -0.4612104183
O  O21  1  0.67190000  0.11370000  0.68140000  1.0 -0.5522764957
O  O22  1  0.88630000  0.32810000  0.68140000  1.0 -0.5522764957
O  O23  1  0.90220000  0.09780000  0.92350000  1.0 -0.561794965
O  O24  1  0.79770000  0.20230000  0.89630000  1.0 -0.487742502
O  O25  1  0.79220000  0.11640000  0.56210000  1.0 -0.561794965
O  O26  1  0.88360000  0.20780000  0.56210000  1.0 -0.561794965
