# DDEC6 charges by PACMAN v1.1 (https://github.com/mtap-research/PACMAN-charge/)
data_EGEJOQ_ASR_pacman
_symmetry_space_group_name_H-M   'P 1'
_cell_length_a   17.04470000
_cell_length_b   17.04470000
_cell_length_c   17.19870000
_cell_angle_alpha   87.52480000
_cell_angle_beta   92.47520000
_cell_angle_gamma   91.21200000
_symmetry_Int_Tables_number   1
_chemical_formula_structural   Zn4H44C76N15O28
_chemical_formula_sum   'Zn8 H88 C152 N30 O56'
_cell_volume   4986.34689797
_cell_formula_units_Z   2
loop_
 _symmetry_equiv_pos_site_id
 _symmetry_equiv_pos_as_xyz
  1  'x, y, z'
loop_
 _atom_site_type_symbol
 _atom_site_label
 _atom_site_symmetry_multiplicity
 _atom_site_fract_x
 _atom_site_fract_y
 _atom_site_fract_z
 _atom_site_occupancy
 _atom_site_charge
Zn  Zn1  1  0.07869000  0.92131000  0.17430000  1.0 0.8514293185
Zn  Zn2  1  0.07575000  0.79187000  0.31002000  1.0 0.9411620399
Zn  Zn3  1  0.20813000  0.92425000  0.31002000  1.0 0.9411620399
Zn  Zn4  1  0.20859000  0.79141000  0.18591000  1.0 0.9223478785
Zn  Zn5  1  0.92131000  0.07869000  0.82570000  1.0 0.8514293185
Zn  Zn6  1  0.79187000  0.07575000  0.68998000  1.0 0.9411620399
Zn  Zn7  1  0.92425000  0.20813000  0.68998000  1.0 0.9411620399
Zn  Zn8  1  0.79141000  0.20859000  0.81409000  1.0 0.9223478785
H  H1  1  0.41530000  0.82650000  0.75980000  1.0 0.2512152693
H  H2  1  0.17350000  0.58470000  0.75980000  1.0 0.2512152693
H  H3  1  0.24480000  0.37320000  0.99240000  1.0 0.2636476508
H  H4  1  0.62680000  0.75520000  0.99240000  1.0 0.2636476508
H  H5  1  0.05370000  0.54690000  0.34450000  1.0 0.1298807777
H  H6  1  0.45310000  0.94630000  0.34450000  1.0 0.1298807777
H  H7  1  0.05280000  0.40980000  0.34190000  1.0 0.1298807777
H  H8  1  0.59020000  0.94720000  0.34190000  1.0 0.1298807777
H  H9  1  0.17050000  0.56130000  0.14390000  1.0 0.1217547852
H  H10  1  0.43870000  0.82950000  0.14390000  1.0 0.1217547852
H  H11  1  0.03240000  0.89920000  0.92680000  1.0 0.1126190132
H  H12  1  0.10080000  0.96760000  0.92680000  1.0 0.1126190132
H  H13  1  0.03940000  0.90700000  0.79110000  1.0 0.1126190132
H  H14  1  0.09300000  0.96060000  0.79110000  1.0 0.1126190132
H  H15  1  0.25410000  0.81710000  0.94650000  1.0 0.1298807777
H  H16  1  0.18290000  0.74590000  0.94650000  1.0 0.1298807777
H  H17  1  0.83600000  0.94060000  0.14320000  1.0 0.0999630429
H  H18  1  0.05940000  0.16400000  0.14320000  1.0 0.0999630429
H  H19  1  0.69860000  0.94300000  0.14200000  1.0 0.1126190132
H  H20  1  0.05700000  0.30140000  0.14200000  1.0 0.1217547852
H  H21  1  0.18310000  0.29870000  0.34740000  1.0 0.1217547852
H  H22  1  0.70130000  0.81690000  0.34740000  1.0 0.1217547852
H  H23  1  0.83850000  0.81450000  0.34850000  1.0 0.1217547852
H  H24  1  0.18550000  0.16150000  0.34850000  1.0 0.1217547852
H  H25  1  0.05700000  0.77640000  0.55250000  1.0 0.1298807777
H  H26  1  0.22360000  0.94300000  0.55250000  1.0 0.1298807777
H  H27  1  0.05810000  0.77390000  0.68710000  1.0 0.1217547852
H  H28  1  0.22610000  0.94190000  0.68710000  1.0 0.1217547852
H  H29  1  0.29920000  0.81500000  0.74860000  1.0 0.0999630429
H  H30  1  0.18500000  0.70080000  0.74860000  1.0 0.0999630429
H  H31  1  0.68030000  0.90710000  0.80130000  1.0 0.1543792239
H  H32  1  0.09290000  0.31970000  0.80130000  1.0 0.1543792239
H  H33  1  0.55330000  0.98490000  0.97520000  1.0 0.1217547852
H  H34  1  0.01510000  0.44670000  0.97520000  1.0 0.1217547852
H  H35  1  0.43880000  0.93220000  0.91640000  1.0 0.1390396706
H  H36  1  0.06780000  0.56120000  0.91640000  1.0 0.1298807777
H  H37  1  0.15390000  0.36190000  0.09970000  1.0 0.0999630429
H  H38  1  0.63810000  0.84610000  0.09970000  1.0 0.0999630429
H  H39  1  0.37560000  0.46380000  0.78500000  1.0 0.1390396706
H  H40  1  0.53620000  0.62440000  0.78500000  1.0 0.1390396706
H  H41  1  0.25820000  0.57760000  0.99260000  1.0 0.1390396706
H  H42  1  0.42240000  0.74180000  0.99260000  1.0 0.1390396706
H  H43  1  0.31050000  0.65750000  0.89280000  1.0 0.0999630429
H  H44  1  0.34250000  0.68950000  0.89280000  1.0 0.0999630429
H  H45  1  0.82650000  0.41530000  0.24020000  1.0 0.2512152693
H  H46  1  0.58470000  0.17350000  0.24020000  1.0 0.2512152693
H  H47  1  0.37320000  0.24480000  0.00760000  1.0 0.2636476508
H  H48  1  0.75520000  0.62680000  0.00760000  1.0 0.2636476508
H  H49  1  0.54690000  0.05370000  0.65550000  1.0 0.1298807777
H  H50  1  0.94630000  0.45310000  0.65550000  1.0 0.1298807777
H  H51  1  0.40980000  0.05280000  0.65810000  1.0 0.1298807777
H  H52  1  0.94720000  0.59020000  0.65810000  1.0 0.1298807777
H  H53  1  0.56130000  0.17050000  0.85610000  1.0 0.1217547852
H  H54  1  0.82950000  0.43870000  0.85610000  1.0 0.1217547852
H  H55  1  0.89920000  0.03240000  0.07320000  1.0 0.1126190132
H  H56  1  0.96760000  0.10080000  0.07320000  1.0 0.1126190132
H  H57  1  0.90700000  0.03940000  0.20890000  1.0 0.1126190132
H  H58  1  0.96060000  0.09300000  0.20890000  1.0 0.1126190132
H  H59  1  0.81710000  0.25410000  0.05350000  1.0 0.1298807777
H  H60  1  0.74590000  0.18290000  0.05350000  1.0 0.1298807777
H  H61  1  0.94060000  0.83600000  0.85680000  1.0 0.0999630429
H  H62  1  0.16400000  0.05940000  0.85680000  1.0 0.0999630429
H  H63  1  0.94300000  0.69860000  0.85800000  1.0 0.1126190132
H  H64  1  0.30140000  0.05700000  0.85800000  1.0 0.1217547852
H  H65  1  0.29870000  0.18310000  0.65260000  1.0 0.1217547852
H  H66  1  0.81690000  0.70130000  0.65260000  1.0 0.1217547852
H  H67  1  0.81450000  0.83850000  0.65150000  1.0 0.1217547852
H  H68  1  0.16150000  0.18550000  0.65150000  1.0 0.1217547852
H  H69  1  0.77640000  0.05700000  0.44750000  1.0 0.1298807777
H  H70  1  0.94300000  0.22360000  0.44750000  1.0 0.1298807777
H  H71  1  0.77390000  0.05810000  0.31290000  1.0 0.1217547852
H  H72  1  0.94190000  0.22610000  0.31290000  1.0 0.1217547852
H  H73  1  0.81500000  0.29920000  0.25140000  1.0 0.0999630429
H  H74  1  0.70080000  0.18500000  0.25140000  1.0 0.0999630429
H  H75  1  0.90710000  0.68030000  0.19870000  1.0 0.1543792239
H  H76  1  0.31970000  0.09290000  0.19870000  1.0 0.1543792239
H  H77  1  0.98490000  0.55330000  0.02480000  1.0 0.1217547852
H  H78  1  0.44670000  0.01510000  0.02480000  1.0 0.1217547852
H  H79  1  0.93220000  0.43880000  0.08360000  1.0 0.1298807777
H  H80  1  0.56120000  0.06780000  0.08360000  1.0 0.1298807777
H  H81  1  0.36190000  0.15390000  0.90030000  1.0 0.0999630429
H  H82  1  0.84610000  0.63810000  0.90030000  1.0 0.0999630429
H  H83  1  0.46380000  0.37560000  0.21500000  1.0 0.1390396706
H  H84  1  0.62440000  0.53620000  0.21500000  1.0 0.1390396706
H  H85  1  0.57760000  0.25820000  0.00740000  1.0 0.1390396706
H  H86  1  0.74180000  0.42240000  0.00740000  1.0 0.1390396706
H  H87  1  0.65750000  0.31050000  0.10720000  1.0 0.0999630429
H  H88  1  0.68950000  0.34250000  0.10720000  1.0 0.0999630429
C  C1  1  0.11630000  0.65550000  0.24690000  1.0 0.5988249233
C  C2  1  0.34450000  0.88370000  0.24690000  1.0 0.5988249233
C  C3  1  0.11220000  0.56700000  0.24450000  1.0 -0.0233862182
C  C4  1  0.43300000  0.88780000  0.24450000  1.0 -0.0233862182
C  C5  1  0.07720000  0.52200000  0.30330000  1.0 -0.0780215898
C  C6  1  0.47800000  0.92280000  0.30330000  1.0 -0.0893190276
C  C7  1  0.07670000  0.44050000  0.30170000  1.0 -0.1703331539
C  C8  1  0.55950000  0.92330000  0.30170000  1.0 -0.1642758348
C  C9  1  0.11120000  0.40400000  0.24140000  1.0 0.0388387758
C  C10  1  0.59600000  0.88880000  0.24140000  1.0 0.0388387758
C  C11  1  0.14610000  0.44910000  0.18260000  1.0 0.0388387758
C  C12  1  0.55090000  0.85390000  0.18260000  1.0 0.0388387758
C  C13  1  0.14670000  0.53050000  0.18410000  1.0 -0.1267848244
C  C14  1  0.46950000  0.85330000  0.18410000  1.0 -0.1267848244
C  C15  1  0.14660000  0.86980000  0.03770000  1.0 0.2371849655
C  C16  1  0.13020000  0.85340000  0.03770000  1.0 0.2371849655
C  C17  1  0.14250000  0.85750000  0.94940000  1.0 0.0191637285
C  C18  1  0.07878000  0.88412000  0.90330000  1.0 -0.0780215898
C  C19  1  0.11588000  0.92122000  0.90330000  1.0 -0.0780215898
C  C20  1  0.08295000  0.88875000  0.82270000  1.0 -0.0076325695
C  C21  1  0.11125000  0.91705000  0.82270000  1.0 -0.0076325695
C  C22  1  0.15100000  0.86660000  0.78820000  1.0 0.0191637285
C  C23  1  0.13340000  0.84900000  0.78820000  1.0 0.0191637285
C  C24  1  0.21467000  0.83993000  0.83430000  1.0 0.0191637285
C  C25  1  0.16007000  0.78533000  0.83430000  1.0 0.0191637285
C  C26  1  0.21054000  0.83534000  0.91490000  1.0 -0.0978627713
C  C27  1  0.16466000  0.78946000  0.91490000  1.0 -0.0978627713
C  C28  1  0.93190000  0.87110000  0.24160000  1.0 0.5640209666
C  C29  1  0.12890000  0.06810000  0.24160000  1.0 0.5640209666
C  C30  1  0.85020000  0.87740000  0.24600000  1.0 -0.0893190276
C  C31  1  0.12260000  0.14980000  0.24600000  1.0 -0.0893190276
C  C32  1  0.80855000  0.91555000  0.18460000  1.0 -0.1185310358
C  C33  1  0.08445000  0.19145000  0.18460000  1.0 -0.1185310358
C  C34  1  0.72705000  0.91691000  0.18390000  1.0 -0.1805423902
C  C35  1  0.08309000  0.27295000  0.18390000  1.0 -0.1805423902
C  C36  1  0.11983000  0.31295000  0.24460000  1.0 0.0862382068
C  C37  1  0.68705000  0.88017000  0.24460000  1.0 0.0862382068
C  C38  1  0.15800000  0.27140000  0.30590000  1.0 -0.1427376424
C  C39  1  0.72860000  0.84200000  0.30590000  1.0 -0.1427376424
C  C40  1  0.81010000  0.84070000  0.30660000  1.0 -0.0609766399
C  C41  1  0.15930000  0.18990000  0.30660000  1.0 -0.0609766399
C  C42  1  0.14310000  0.85690000  0.45280000  1.0 0.5988249233
C  C43  1  0.14600000  0.85400000  0.54080000  1.0 -0.0233862182
C  C44  1  0.09390000  0.80830000  0.58030000  1.0 -0.0893190276
C  C45  1  0.19170000  0.90610000  0.58030000  1.0 -0.0893190276
C  C46  1  0.09402000  0.80758000  0.66020000  1.0 -0.1919291334
C  C47  1  0.19242000  0.90598000  0.66020000  1.0 -0.1919291334
C  C48  1  0.14523000  0.85477000  0.70190000  1.0 0.0624822205
C  C49  1  0.29256000  0.83880000  0.79680000  1.0 -0.0717067761
C  C50  1  0.16120000  0.70744000  0.79680000  1.0 -0.0717067761
C  C51  1  0.49150000  0.88830000  0.82380000  1.0 0.1620956859
C  C52  1  0.11170000  0.50850000  0.82380000  1.0 0.1620956859
C  C53  1  0.56330000  0.88090000  0.78970000  1.0 -0.0032651718
C  C54  1  0.11910000  0.43670000  0.78970000  1.0 -0.0032651718
C  C55  1  0.63130000  0.91210000  0.82460000  1.0 -0.1805423902
C  C56  1  0.08790000  0.36870000  0.82460000  1.0 -0.1805423902
C  C57  1  0.62753000  0.95093000  0.89380000  1.0 0.0795466653
C  C58  1  0.04907000  0.37247000  0.89380000  1.0 0.0795466653
C  C59  1  0.55578000  0.95838000  0.92800000  1.0 -0.1267848244
C  C60  1  0.04162000  0.44422000  0.92800000  1.0 -0.1267848244
C  C61  1  0.48775000  0.92715000  0.89300000  1.0 -0.1703331539
C  C62  1  0.07285000  0.51225000  0.89300000  1.0 -0.1703331539
C  C63  1  0.17062000  0.41370000  0.11140000  1.0 0.0079268457
C  C64  1  0.58630000  0.82938000  0.11140000  1.0 0.0079268457
C  C65  1  0.28580000  0.47320000  0.94810000  1.0 0.1680421619
C  C66  1  0.52680000  0.71420000  0.94810000  1.0 0.1680421619
C  C67  1  0.32070000  0.43950000  0.88600000  1.0 0.0191637285
C  C68  1  0.56050000  0.67930000  0.88600000  1.0 0.0191637285
C  C69  1  0.35170000  0.48690000  0.82720000  1.0 -0.2235579105
C  C70  1  0.51310000  0.64830000  0.82720000  1.0 -0.2235579105
C  C71  1  0.34790000  0.56810000  0.82950000  1.0 0.1680421619
C  C72  1  0.43190000  0.65210000  0.82950000  1.0 0.1680421619
C  C73  1  0.31310000  0.60190000  0.89120000  1.0 -0.1919291334
C  C74  1  0.39810000  0.68690000  0.89120000  1.0 -0.1919291334
C  C75  1  0.28190000  0.55450000  0.95050000  1.0 -0.1805423902
C  C76  1  0.44550000  0.71810000  0.95050000  1.0 -0.1805423902
C  C77  1  0.65550000  0.11630000  0.75310000  1.0 0.5988249233
C  C78  1  0.88370000  0.34450000  0.75310000  1.0 0.5988249233
C  C79  1  0.56700000  0.11220000  0.75550000  1.0 -0.0233862182
C  C80  1  0.88780000  0.43300000  0.75550000  1.0 -0.0233862182
C  C81  1  0.52200000  0.07720000  0.69670000  1.0 -0.0893190276
C  C82  1  0.92280000  0.47800000  0.69670000  1.0 -0.0893190276
C  C83  1  0.44050000  0.07670000  0.69830000  1.0 -0.1642758348
C  C84  1  0.92330000  0.55950000  0.69830000  1.0 -0.1642758348
C  C85  1  0.40400000  0.11120000  0.75860000  1.0 0.0388387758
C  C86  1  0.88880000  0.59600000  0.75860000  1.0 0.0388387758
C  C87  1  0.44910000  0.14610000  0.81740000  1.0 0.0388387758
C  C88  1  0.85390000  0.55090000  0.81740000  1.0 0.0388387758
C  C89  1  0.53050000  0.14670000  0.81590000  1.0 -0.1267848244
C  C90  1  0.85330000  0.46950000  0.81590000  1.0 -0.1267848244
C  C91  1  0.86980000  0.14660000  0.96230000  1.0 0.2371849655
C  C92  1  0.85340000  0.13020000  0.96230000  1.0 0.2371849655
C  C93  1  0.85750000  0.14250000  0.05060000  1.0 0.0191637285
C  C94  1  0.88412000  0.07878000  0.09670000  1.0 -0.0780215898
C  C95  1  0.92122000  0.11588000  0.09670000  1.0 -0.0780215898
C  C96  1  0.88875000  0.08295000  0.17730000  1.0 -0.0076325695
C  C97  1  0.91705000  0.11125000  0.17730000  1.0 -0.0076325695
C  C98  1  0.86660000  0.15100000  0.21180000  1.0 0.0191637285
C  C99  1  0.84900000  0.13340000  0.21180000  1.0 0.0191637285
C  C100  1  0.83993000  0.21467000  0.16570000  1.0 0.0191637285
C  C101  1  0.78533000  0.16007000  0.16570000  1.0 0.0191637285
C  C102  1  0.83534000  0.21054000  0.08510000  1.0 -0.0978627713
C  C103  1  0.78946000  0.16466000  0.08510000  1.0 -0.0978627713
C  C104  1  0.87110000  0.93190000  0.75840000  1.0 0.5640209666
C  C105  1  0.06810000  0.12890000  0.75840000  1.0 0.5640209666
C  C106  1  0.87740000  0.85020000  0.75400000  1.0 -0.0893190276
C  C107  1  0.14980000  0.12260000  0.75400000  1.0 -0.0893190276
C  C108  1  0.91555000  0.80855000  0.81540000  1.0 -0.1185310358
C  C109  1  0.19145000  0.08445000  0.81540000  1.0 -0.1185310358
C  C110  1  0.91691000  0.72705000  0.81610000  1.0 -0.1805423902
C  C111  1  0.27295000  0.08309000  0.81610000  1.0 -0.1805423902
C  C112  1  0.31295000  0.11983000  0.75540000  1.0 0.0862382068
C  C113  1  0.88017000  0.68705000  0.75540000  1.0 0.0862382068
C  C114  1  0.27140000  0.15800000  0.69410000  1.0 -0.1427376424
C  C115  1  0.84200000  0.72860000  0.69410000  1.0 -0.1427376424
C  C116  1  0.84070000  0.81010000  0.69340000  1.0 -0.0609766399
C  C117  1  0.18990000  0.15930000  0.69340000  1.0 -0.0609766399
C  C118  1  0.85690000  0.14310000  0.54720000  1.0 0.5988249233
C  C119  1  0.85400000  0.14600000  0.45920000  1.0 -0.0233862182
C  C120  1  0.80830000  0.09390000  0.41970000  1.0 -0.0893190276
C  C121  1  0.90610000  0.19170000  0.41970000  1.0 -0.0893190276
C  C122  1  0.80758000  0.09402000  0.33980000  1.0 -0.1919291334
C  C123  1  0.90598000  0.19242000  0.33980000  1.0 -0.1919291334
C  C124  1  0.85477000  0.14523000  0.29810000  1.0 0.0624822205
C  C125  1  0.83880000  0.29256000  0.20320000  1.0 -0.0717067761
C  C126  1  0.70744000  0.16120000  0.20320000  1.0 -0.0717067761
C  C127  1  0.88830000  0.49150000  0.17620000  1.0 0.1620956859
C  C128  1  0.50850000  0.11170000  0.17620000  1.0 0.1620956859
C  C129  1  0.88090000  0.56330000  0.21030000  1.0 -0.0032651718
C  C130  1  0.43670000  0.11910000  0.21030000  1.0 -0.0032651718
C  C131  1  0.91210000  0.63130000  0.17540000  1.0 -0.1805423902
C  C132  1  0.36870000  0.08790000  0.17540000  1.0 -0.1805423902
C  C133  1  0.95093000  0.62753000  0.10620000  1.0 0.0795466653
C  C134  1  0.37247000  0.04907000  0.10620000  1.0 0.0795466653
C  C135  1  0.95838000  0.55578000  0.07200000  1.0 -0.1267848244
C  C136  1  0.44422000  0.04162000  0.07200000  1.0 -0.1267848244
C  C137  1  0.92715000  0.48775000  0.10700000  1.0 -0.1703331539
C  C138  1  0.51225000  0.07285000  0.10700000  1.0 -0.1703331539
C  C139  1  0.41370000  0.17062000  0.88860000  1.0 0.0079268457
C  C140  1  0.82938000  0.58630000  0.88860000  1.0 0.0079268457
C  C141  1  0.47320000  0.28580000  0.05190000  1.0 0.1680421619
C  C142  1  0.71420000  0.52680000  0.05190000  1.0 0.1680421619
C  C143  1  0.43950000  0.32070000  0.11400000  1.0 0.0191637285
C  C144  1  0.67930000  0.56050000  0.11400000  1.0 0.0191637285
C  C145  1  0.48690000  0.35170000  0.17280000  1.0 -0.2235579105
C  C146  1  0.64830000  0.51310000  0.17280000  1.0 -0.2235579105
C  C147  1  0.56810000  0.34790000  0.17050000  1.0 0.1680421619
C  C148  1  0.65210000  0.43190000  0.17050000  1.0 0.1680421619
C  C149  1  0.60190000  0.31310000  0.10880000  1.0 -0.1919291334
C  C150  1  0.68690000  0.39810000  0.10880000  1.0 -0.1919291334
C  C151  1  0.55450000  0.28190000  0.04950000  1.0 -0.1805423902
C  C152  1  0.71810000  0.44550000  0.04950000  1.0 -0.1805423902
N  N1  1  0.34750000  0.87130000  0.83320000  1.0 -0.1427376424
N  N2  1  0.12870000  0.65250000  0.83320000  1.0 -0.1427376424
N  N3  1  0.41700000  0.85720000  0.79960000  1.0 -0.1805423902
N  N4  1  0.14280000  0.58300000  0.79960000  1.0 -0.1805423902
N  N5  1  0.57410000  0.81970000  0.73180000  1.0 0.5204838267
N  N6  1  0.18030000  0.42590000  0.73180000  1.0 0.5204838267
N  N7  1  0.70100000  0.98540000  0.93000000  1.0 0.4929934294
N  N8  1  0.01460000  0.29900000  0.93000000  1.0 0.4929934294
N  N9  1  0.21570000  0.45430000  0.06410000  1.0 -0.1122370684
N  N10  1  0.54570000  0.78430000  0.06410000  1.0 -0.1122370684
N  N11  1  0.24830000  0.42390000  0.00000000  1.0 -0.1805423902
N  N12  1  0.57610000  0.75170000  0.00000000  1.0 -0.1805423902
N  N13  1  0.31910000  0.35310000  0.87730000  1.0 0.5304443887
N  N14  1  0.64690000  0.68090000  0.87730000  1.0 0.5304443887
N  N15  1  0.38890000  0.61110000  0.76480000  1.0 0.4134371033
N  N16  1  0.87130000  0.34750000  0.16680000  1.0 -0.1427376424
N  N17  1  0.65250000  0.12870000  0.16680000  1.0 -0.1427376424
N  N18  1  0.85720000  0.41700000  0.20040000  1.0 -0.1805423902
N  N19  1  0.58300000  0.14280000  0.20040000  1.0 -0.1805423902
N  N20  1  0.81970000  0.57410000  0.26820000  1.0 0.5204838267
N  N21  1  0.42590000  0.18030000  0.26820000  1.0 0.5204838267
N  N22  1  0.98540000  0.70100000  0.07000000  1.0 0.4929934294
N  N23  1  0.29900000  0.01460000  0.07000000  1.0 0.4985781363
N  N24  1  0.45430000  0.21570000  0.93590000  1.0 -0.1122370684
N  N25  1  0.78430000  0.54570000  0.93590000  1.0 -0.1122370684
N  N26  1  0.42390000  0.24830000  0.00000000  1.0 -0.1805423902
N  N27  1  0.75170000  0.57610000  0.00000000  1.0 -0.1805423902
N  N28  1  0.35310000  0.31910000  0.12270000  1.0 0.5304443887
N  N29  1  0.68090000  0.64690000  0.12270000  1.0 0.5304443887
N  N30  1  0.61110000  0.38890000  0.23520000  1.0 0.4134371033
O  O1  1  0.14280000  0.85720000  0.24560000  1.0 -0.9935569414
O  O2  1  0.17200000  0.68500000  0.20760000  1.0 -0.5586827794
O  O3  1  0.31500000  0.82800000  0.20760000  1.0 -0.5586827794
O  O4  1  0.07690000  0.68310000  0.29920000  1.0 -0.5201920965
O  O5  1  0.31690000  0.92310000  0.29920000  1.0 -0.5201920965
O  O6  1  0.96650000  0.82990000  0.29540000  1.0 -0.5201920965
O  O7  1  0.17010000  0.03350000  0.29540000  1.0 -0.5201920965
O  O8  1  0.09160000  0.03440000  0.19000000  1.0 -0.4987389246
O  O9  1  0.96560000  0.90840000  0.19000000  1.0 -0.4987389246
O  O10  1  0.09180000  0.90820000  0.06360000  1.0 -0.3005795487
O  O11  1  0.18370000  0.81630000  0.07620000  1.0 -0.3005795487
O  O12  1  0.09760000  0.80980000  0.42080000  1.0 -0.5088173994
O  O13  1  0.19020000  0.90240000  0.42080000  1.0 -0.5088173994
O  O14  1  0.51450000  0.78550000  0.70600000  1.0 -0.3424057016
O  O15  1  0.21450000  0.48550000  0.70600000  1.0 -0.3424057016
O  O16  1  0.64290000  0.80430000  0.71800000  1.0 -0.3424057016
O  O17  1  0.19570000  0.35710000  0.71800000  1.0 -0.3424057016
O  O18  1  0.76120000  0.97620000  0.89410000  1.0 -0.3557547876
O  O19  1  0.02380000  0.23880000  0.89410000  1.0 -0.3557547876
O  O20  1  0.69410000  0.02090000  0.99000000  1.0 -0.36801027
O  O21  1  0.97910000  0.30590000  0.99000000  1.0 -0.36801027
O  O22  1  0.36100000  0.32820000  0.82700000  1.0 -0.3099722275
O  O23  1  0.67180000  0.63900000  0.82700000  1.0 -0.3099722275
O  O24  1  0.27620000  0.31320000  0.92100000  1.0 -0.3774874383
O  O25  1  0.68680000  0.72380000  0.92100000  1.0 -0.3774874383
O  O26  1  0.42830000  0.57170000  0.72270000  1.0 -0.3005795487
O  O27  1  0.31590000  0.61330000  0.76400000  1.0 -0.1919291334
O  O28  1  0.38670000  0.68410000  0.76400000  1.0 -0.1805423902
O  O29  1  0.85720000  0.14280000  0.75440000  1.0 -0.9935569414
O  O30  1  0.68500000  0.17200000  0.79240000  1.0 -0.5586827794
O  O31  1  0.82800000  0.31500000  0.79240000  1.0 -0.5586827794
O  O32  1  0.68310000  0.07690000  0.70080000  1.0 -0.5201920965
O  O33  1  0.92310000  0.31690000  0.70080000  1.0 -0.5201920965
O  O34  1  0.82990000  0.96650000  0.70460000  1.0 -0.5201920965
O  O35  1  0.03350000  0.17010000  0.70460000  1.0 -0.5201920965
O  O36  1  0.03440000  0.09160000  0.81000000  1.0 -0.4987389246
O  O37  1  0.90840000  0.96560000  0.81000000  1.0 -0.4987389246
O  O38  1  0.90820000  0.09180000  0.93640000  1.0 -0.3005795487
O  O39  1  0.81630000  0.18370000  0.92380000  1.0 -0.3099722275
O  O40  1  0.80980000  0.09760000  0.57920000  1.0 -0.5088173994
O  O41  1  0.90240000  0.19020000  0.57920000  1.0 -0.5088173994
O  O42  1  0.78550000  0.51450000  0.29400000  1.0 -0.3424057016
O  O43  1  0.48550000  0.21450000  0.29400000  1.0 -0.3424057016
O  O44  1  0.80430000  0.64290000  0.28200000  1.0 -0.3424057016
O  O45  1  0.35710000  0.19570000  0.28200000  1.0 -0.3424057016
O  O46  1  0.97620000  0.76120000  0.10590000  1.0 -0.3557547876
O  O47  1  0.23880000  0.02380000  0.10590000  1.0 -0.3557547876
O  O48  1  0.02090000  0.69410000  0.01000000  1.0 -0.36801027
O  O49  1  0.30590000  0.97910000  0.01000000  1.0 -0.36801027
O  O50  1  0.32820000  0.36100000  0.17300000  1.0 -0.3099722275
O  O51  1  0.63900000  0.67180000  0.17300000  1.0 -0.3099722275
O  O52  1  0.31320000  0.27620000  0.07900000  1.0 -0.3774874383
O  O53  1  0.72380000  0.68680000  0.07900000  1.0 -0.3774874383
O  O54  1  0.57170000  0.42830000  0.27730000  1.0 -0.3005795487
O  O55  1  0.61330000  0.31590000  0.23600000  1.0 -0.1919291334
O  O56  1  0.68410000  0.38670000  0.23600000  1.0 -0.1919291334
