# DDEC6 charges by PACMAN v1.1 (https://github.com/mtap-research/PACMAN-charge/)
data_EGEJUW_ASR_pacman
_symmetry_space_group_name_H-M   'P 1'
_cell_length_a   16.99090000
_cell_length_b   16.99090000
_cell_length_c   17.23300000
_cell_angle_alpha   87.97880000
_cell_angle_beta   92.02120000
_cell_angle_gamma   97.15330000
_symmetry_Int_Tables_number   1
_chemical_formula_structural   Zn4H32C64N8O21
_chemical_formula_sum   'Zn8 H64 C128 N16 O42'
_cell_volume   4930.82028582
_cell_formula_units_Z   2
loop_
 _symmetry_equiv_pos_site_id
 _symmetry_equiv_pos_as_xyz
  1  'x, y, z'
loop_
 _atom_site_type_symbol
 _atom_site_label
 _atom_site_symmetry_multiplicity
 _atom_site_fract_x
 _atom_site_fract_y
 _atom_site_fract_z
 _atom_site_occupancy
 _atom_site_charge
Zn  Zn1  1  0.07600000  0.92400000  0.17000000  1.0 0.9251511015
Zn  Zn2  1  0.06300000  0.79700000  0.30800000  1.0 0.95351272
Zn  Zn3  1  0.20300000  0.93700000  0.30800000  1.0 0.95351272
Zn  Zn4  1  0.20200000  0.79800000  0.18600000  1.0 0.9965281405
Zn  Zn5  1  0.92400000  0.07600000  0.83000000  1.0 0.9240091361
Zn  Zn6  1  0.79700000  0.06300000  0.69200000  1.0 0.95351272
Zn  Zn7  1  0.93700000  0.20300000  0.69200000  1.0 0.95351272
Zn  Zn8  1  0.79800000  0.20200000  0.81400000  1.0 0.9946899928
H  H1  1  0.02330000  0.54370000  0.33980000  1.0 0.1384535415
H  H2  1  0.45630000  0.97670000  0.33980000  1.0 0.1384535415
H  H3  1  0.15420000  0.57240000  0.14640000  1.0 0.1193026702
H  H4  1  0.42760000  0.84580000  0.14640000  1.0 0.1193026702
H  H5  1  0.06440000  0.30400000  0.13420000  1.0 0.1193026702
H  H6  1  0.69600000  0.93560000  0.13420000  1.0 0.1193026702
H  H7  1  0.07870000  0.16890000  0.13430000  1.0 0.1093809821
H  H8  1  0.83110000  0.92130000  0.13430000  1.0 0.1093809821
H  H9  1  0.16440000  0.17980000  0.35660000  1.0 0.1384535415
H  H10  1  0.82020000  0.83560000  0.35660000  1.0 0.1384535415
H  H11  1  0.15010000  0.31510000  0.35650000  1.0 0.1309880458
H  H12  1  0.68490000  0.84990000  0.35650000  1.0 0.1309880458
H  H13  1  0.02770000  0.90270000  0.92420000  1.0 0.1093809821
H  H14  1  0.09730000  0.97230000  0.92420000  1.0 0.1093809821
H  H15  1  0.23030000  0.95170000  0.68690000  1.0 0.1309880458
H  H16  1  0.04830000  0.76970000  0.68690000  1.0 0.1309880458
H  H17  1  0.22850000  0.94910000  0.55030000  1.0 0.1384535415
H  H18  1  0.05090000  0.77150000  0.55030000  1.0 0.1384535415
H  H19  1  0.27140000  0.83100000  0.73860000  1.0 0.1093809821
H  H20  1  0.16900000  0.72860000  0.73860000  1.0 0.1093809821
H  H21  1  0.03270000  0.89770000  0.78900000  1.0 0.1193026702
H  H22  1  0.10230000  0.96730000  0.78900000  1.0 0.1193026702
H  H23  1  0.24400000  0.82560000  0.94630000  1.0 0.1193026702
H  H24  1  0.17440000  0.75600000  0.94630000  1.0 0.1193026702
H  H25  1  0.67960000  0.88400000  0.81250000  1.0 0.149568583
H  H26  1  0.11600000  0.32040000  0.81250000  1.0 0.149568583
H  H27  1  0.55540000  0.97140000  0.97930000  1.0 0.1309880458
H  H28  1  0.02860000  0.44460000  0.97930000  1.0 0.1309880458
H  H29  1  0.43650000  0.92010000  0.91680000  1.0 0.1384535415
H  H30  1  0.07990000  0.56350000  0.91680000  1.0 0.1384535415
H  H31  1  0.40840000  0.83420000  0.74800000  1.0 0.2671457745
H  H32  1  0.16580000  0.59160000  0.74800000  1.0 0.2671457745
H  H33  1  0.54370000  0.02330000  0.66020000  1.0 0.1384535415
H  H34  1  0.97670000  0.45630000  0.66020000  1.0 0.1384535415
H  H35  1  0.57240000  0.15420000  0.85360000  1.0 0.1193026702
H  H36  1  0.84580000  0.42760000  0.85360000  1.0 0.1193026702
H  H37  1  0.30400000  0.06440000  0.86580000  1.0 0.1193026702
H  H38  1  0.93560000  0.69600000  0.86580000  1.0 0.1193026702
H  H39  1  0.16890000  0.07870000  0.86570000  1.0 0.1093809821
H  H40  1  0.92130000  0.83110000  0.86570000  1.0 0.1093809821
H  H41  1  0.17980000  0.16440000  0.64340000  1.0 0.1384535415
H  H42  1  0.83560000  0.82020000  0.64340000  1.0 0.1384535415
H  H43  1  0.31510000  0.15010000  0.64350000  1.0 0.1309880458
H  H44  1  0.84990000  0.68490000  0.64350000  1.0 0.1309880458
H  H45  1  0.90270000  0.02770000  0.07580000  1.0 0.1093809821
H  H46  1  0.97230000  0.09730000  0.07580000  1.0 0.1093809821
H  H47  1  0.95170000  0.23030000  0.31310000  1.0 0.1309880458
H  H48  1  0.76970000  0.04830000  0.31310000  1.0 0.1309880458
H  H49  1  0.94910000  0.22850000  0.44970000  1.0 0.1384535415
H  H50  1  0.77150000  0.05090000  0.44970000  1.0 0.1384535415
H  H51  1  0.83100000  0.27140000  0.26140000  1.0 0.1093809821
H  H52  1  0.72860000  0.16900000  0.26140000  1.0 0.1093809821
H  H53  1  0.89770000  0.03270000  0.21100000  1.0 0.1193026702
H  H54  1  0.96730000  0.10230000  0.21100000  1.0 0.1193026702
H  H55  1  0.82560000  0.24400000  0.05370000  1.0 0.1193026702
H  H56  1  0.75600000  0.17440000  0.05370000  1.0 0.1193026702
H  H57  1  0.88400000  0.67960000  0.18750000  1.0 0.149568583
H  H58  1  0.32040000  0.11600000  0.18750000  1.0 0.149568583
H  H59  1  0.97140000  0.55540000  0.02070000  1.0 0.1309880458
H  H60  1  0.44460000  0.02860000  0.02070000  1.0 0.1309880458
H  H61  1  0.92010000  0.43650000  0.08320000  1.0 0.1384535415
H  H62  1  0.56350000  0.07990000  0.08320000  1.0 0.1384535415
H  H63  1  0.83420000  0.40840000  0.25200000  1.0 0.2671457745
H  H64  1  0.59160000  0.16580000  0.25200000  1.0 0.2671457745
C  C1  1  0.09000000  0.65000000  0.24000000  1.0 0.5299636118
C  C2  1  0.35000000  0.91000000  0.24000000  1.0 0.5299636118
C  C3  1  0.09000000  0.57000000  0.24000000  1.0 -0.1084193614
C  C4  1  0.43000000  0.91000000  0.24000000  1.0 -0.1084193614
C  C5  1  0.05000000  0.53000000  0.30000000  1.0 -0.0979730197
C  C6  1  0.47000000  0.95000000  0.30000000  1.0 -0.0979730197
C  C7  1  0.06000000  0.44000000  0.30000000  1.0 0.0733318843
C  C8  1  0.56000000  0.94000000  0.30000000  1.0 0.0733318843
C  C9  1  0.09000000  0.41000000  0.25000000  1.0 0.0113899328
C  C10  1  0.59000000  0.91000000  0.25000000  1.0 0.0113899328
C  C11  1  0.14000000  0.46000000  0.19000000  1.0 0.0903010882
C  C12  1  0.54000000  0.86000000  0.19000000  1.0 0.0903010882
C  C13  1  0.13000000  0.53000000  0.19000000  1.0 -0.0911012393
C  C14  1  0.47000000  0.87000000  0.19000000  1.0 -0.0911012393
C  C15  1  0.10000000  0.32000000  0.25000000  1.0 0.1093809821
C  C16  1  0.68000000  0.90000000  0.25000000  1.0 0.1093809821
C  C17  1  0.08000000  0.28000000  0.18000000  1.0 -0.1688552097
C  C18  1  0.72000000  0.92000000  0.18000000  1.0 -0.1642920159
C  C19  1  0.10000000  0.20000000  0.18000000  1.0 -0.1084193614
C  C20  1  0.80000000  0.90000000  0.18000000  1.0 -0.1084193614
C  C21  1  0.12000000  0.16000000  0.25000000  1.0 -0.0581087922
C  C22  1  0.84000000  0.88000000  0.25000000  1.0 -0.0581087922
C  C23  1  0.14000000  0.20000000  0.31000000  1.0 -0.0581087922
C  C24  1  0.80000000  0.86000000  0.31000000  1.0 -0.0581087922
C  C25  1  0.14000000  0.28000000  0.31000000  1.0 -0.1374854797
C  C26  1  0.72000000  0.86000000  0.31000000  1.0 -0.1374854797
C  C27  1  0.14000000  0.08000000  0.24000000  1.0 0.5962820269
C  C28  1  0.92000000  0.86000000  0.24000000  1.0 0.5962820269
C  C29  1  0.13000000  0.87000000  0.03000000  1.0 0.4835166253
C  C30  1  0.14000000  0.86000000  0.95000000  1.0 -0.0330475502
C  C31  1  0.07300000  0.88700000  0.90000000  1.0 -0.0376654759
C  C32  1  0.11300000  0.92700000  0.90000000  1.0 -0.0376654759
C  C33  1  0.07600000  0.88400000  0.82000000  1.0 -0.0581087922
C  C34  1  0.11600000  0.92400000  0.82000000  1.0 -0.0581087922
C  C35  1  0.14100000  0.85900000  0.79000000  1.0 -0.001158213
C  C36  1  0.20000000  0.84000000  0.83000000  1.0 0.0515844138
C  C37  1  0.16000000  0.80000000  0.83000000  1.0 0.0515844138
C  C38  1  0.20000000  0.84000000  0.91000000  1.0 -0.0456006591
C  C39  1  0.16000000  0.80000000  0.91000000  1.0 -0.0456006591
C  C40  1  0.14200000  0.85800000  0.70000000  1.0 0.0515844138
C  C41  1  0.19000000  0.91000000  0.66000000  1.0 -0.149583035
C  C42  1  0.09000000  0.81000000  0.66000000  1.0 -0.149583035
C  C43  1  0.19000000  0.91000000  0.58000000  1.0 -0.0911012393
C  C44  1  0.09000000  0.81000000  0.58000000  1.0 -0.0911012393
C  C45  1  0.14000000  0.86000000  0.54000000  1.0 -0.0173356429
C  C46  1  0.14000000  0.86000000  0.45000000  1.0 0.6096569218
C  C47  1  0.27000000  0.83000000  0.79300000  1.0 -0.1374854797
C  C48  1  0.17000000  0.73000000  0.79300000  1.0 -0.1374854797
C  C49  1  0.00500000  0.38020000  0.35550000  1.0 -0.1688552097
C  C50  1  0.61980000  0.99500000  0.35550000  1.0 -0.1688552097
C  C51  1  0.48740000  0.87160000  0.82750000  1.0 0.149568583
C  C52  1  0.12840000  0.51260000  0.82750000  1.0 0.149568583
C  C53  1  0.55960000  0.86080000  0.79660000  1.0 0.0007365081
C  C54  1  0.13920000  0.44040000  0.79660000  1.0 0.0007365081
C  C55  1  0.63030000  0.89130000  0.83370000  1.0 -0.203013473
C  C56  1  0.10870000  0.36970000  0.83370000  1.0 -0.203013473
C  C57  1  0.62870000  0.93250000  0.90180000  1.0 0.0733318843
C  C58  1  0.06750000  0.37130000  0.90180000  1.0 0.0733318843
C  C59  1  0.55650000  0.94330000  0.93280000  1.0 -0.1374854797
C  C60  1  0.05670000  0.44350000  0.93280000  1.0 -0.1374854797
C  C61  1  0.48580000  0.91280000  0.89560000  1.0 -0.149583035
C  C62  1  0.08720000  0.51420000  0.89560000  1.0 -0.149583035
C  C63  1  0.19040000  0.42880000  0.12300000  1.0 -0.2617890619
C  C64  1  0.57120000  0.80960000  0.12300000  1.0 -0.2833269022
C  C65  1  0.65000000  0.09000000  0.76000000  1.0 0.5299636118
C  C66  1  0.91000000  0.35000000  0.76000000  1.0 0.5299636118
C  C67  1  0.57000000  0.09000000  0.76000000  1.0 -0.1084193614
C  C68  1  0.91000000  0.43000000  0.76000000  1.0 -0.1084193614
C  C69  1  0.53000000  0.05000000  0.70000000  1.0 -0.0979730197
C  C70  1  0.95000000  0.47000000  0.70000000  1.0 -0.0979730197
C  C71  1  0.44000000  0.06000000  0.70000000  1.0 0.0733318843
C  C72  1  0.94000000  0.56000000  0.70000000  1.0 0.0772511058
C  C73  1  0.41000000  0.09000000  0.75000000  1.0 0.0113899328
C  C74  1  0.91000000  0.59000000  0.75000000  1.0 0.0113899328
C  C75  1  0.46000000  0.14000000  0.81000000  1.0 0.0903010882
C  C76  1  0.86000000  0.54000000  0.81000000  1.0 0.0903010882
C  C77  1  0.53000000  0.13000000  0.81000000  1.0 -0.0911012393
C  C78  1  0.87000000  0.47000000  0.81000000  1.0 -0.0911012393
C  C79  1  0.32000000  0.10000000  0.75000000  1.0 0.1093809821
C  C80  1  0.90000000  0.68000000  0.75000000  1.0 0.1093809821
C  C81  1  0.28000000  0.08000000  0.82000000  1.0 -0.1642920159
C  C82  1  0.92000000  0.72000000  0.82000000  1.0 -0.1642920159
C  C83  1  0.20000000  0.10000000  0.82000000  1.0 -0.1084193614
C  C84  1  0.90000000  0.80000000  0.82000000  1.0 -0.1084193614
C  C85  1  0.16000000  0.12000000  0.75000000  1.0 -0.0581087922
C  C86  1  0.88000000  0.84000000  0.75000000  1.0 -0.0581087922
C  C87  1  0.20000000  0.14000000  0.69000000  1.0 -0.0581087922
C  C88  1  0.86000000  0.80000000  0.69000000  1.0 -0.0581087922
C  C89  1  0.28000000  0.14000000  0.69000000  1.0 -0.1374854797
C  C90  1  0.86000000  0.72000000  0.69000000  1.0 -0.1374854797
C  C91  1  0.08000000  0.14000000  0.76000000  1.0 0.5962820269
C  C92  1  0.86000000  0.92000000  0.76000000  1.0 0.5962820269
C  C93  1  0.87000000  0.13000000  0.97000000  1.0 0.4853825487
C  C94  1  0.86000000  0.14000000  0.05000000  1.0 -0.0330475502
C  C95  1  0.88700000  0.07300000  0.10000000  1.0 -0.0376654759
C  C96  1  0.92700000  0.11300000  0.10000000  1.0 -0.0376654759
C  C97  1  0.88400000  0.07600000  0.18000000  1.0 -0.0581087922
C  C98  1  0.92400000  0.11600000  0.18000000  1.0 -0.0581087922
C  C99  1  0.85900000  0.14100000  0.21000000  1.0 -0.001158213
C  C100  1  0.84000000  0.20000000  0.17000000  1.0 0.0515844138
C  C101  1  0.80000000  0.16000000  0.17000000  1.0 0.0515844138
C  C102  1  0.84000000  0.20000000  0.09000000  1.0 -0.0456006591
C  C103  1  0.80000000  0.16000000  0.09000000  1.0 -0.0456006591
C  C104  1  0.85800000  0.14200000  0.30000000  1.0 0.0515844138
C  C105  1  0.91000000  0.19000000  0.34000000  1.0 -0.149583035
C  C106  1  0.81000000  0.09000000  0.34000000  1.0 -0.149583035
C  C107  1  0.91000000  0.19000000  0.42000000  1.0 -0.0911012393
C  C108  1  0.81000000  0.09000000  0.42000000  1.0 -0.0911012393
C  C109  1  0.86000000  0.14000000  0.46000000  1.0 -0.0173356429
C  C110  1  0.86000000  0.14000000  0.55000000  1.0 0.6096569218
C  C111  1  0.83000000  0.27000000  0.20700000  1.0 -0.1374854797
C  C112  1  0.73000000  0.17000000  0.20700000  1.0 -0.1374854797
C  C113  1  0.38020000  0.00500000  0.64450000  1.0 -0.1688552097
C  C114  1  0.99500000  0.61980000  0.64450000  1.0 -0.1875040911
C  C115  1  0.87160000  0.48740000  0.17250000  1.0 0.149568583
C  C116  1  0.51260000  0.12840000  0.17250000  1.0 0.149568583
C  C117  1  0.86080000  0.55960000  0.20340000  1.0 -0.001158213
C  C118  1  0.44040000  0.13920000  0.20340000  1.0 0.0007365081
C  C119  1  0.89130000  0.63030000  0.16630000  1.0 -0.203013473
C  C120  1  0.36970000  0.10870000  0.16630000  1.0 -0.203013473
C  C121  1  0.93250000  0.62870000  0.09820000  1.0 0.0733318843
C  C122  1  0.37130000  0.06750000  0.09820000  1.0 0.0733318843
C  C123  1  0.94330000  0.55650000  0.06720000  1.0 -0.1374854797
C  C124  1  0.44350000  0.05670000  0.06720000  1.0 -0.1374854797
C  C125  1  0.91280000  0.48580000  0.10440000  1.0 -0.149583035
C  C126  1  0.51420000  0.08720000  0.10440000  1.0 -0.149583035
C  C127  1  0.42880000  0.19040000  0.87700000  1.0 -0.2662474297
C  C128  1  0.80960000  0.57120000  0.87700000  1.0 -0.2617890619
N  N1  1  0.34080000  0.84340000  0.83210000  1.0 -0.1199980349
N  N2  1  0.15660000  0.65920000  0.83210000  1.0 -0.1199980349
N  N3  1  0.41100000  0.84800000  0.79680000  1.0 -0.1374854797
N  N4  1  0.15200000  0.58900000  0.79680000  1.0 -0.1374854797
N  N5  1  0.69320000  0.96160000  0.93170000  1.0 0.4031952984
N  N6  1  0.03840000  0.30680000  0.93170000  1.0 0.4031952984
N  N7  1  0.56120000  0.81160000  0.72610000  1.0 0.5299636118
N  N8  1  0.18840000  0.43880000  0.72610000  1.0 0.5299636118
N  N9  1  0.84340000  0.34080000  0.16790000  1.0 -0.1199980349
N  N10  1  0.65920000  0.15660000  0.16790000  1.0 -0.1199980349
N  N11  1  0.84800000  0.41100000  0.20320000  1.0 -0.1374854797
N  N12  1  0.58900000  0.15200000  0.20320000  1.0 -0.1374854797
N  N13  1  0.96160000  0.69320000  0.06830000  1.0 0.4031952984
N  N14  1  0.30680000  0.03840000  0.06830000  1.0 0.4031952984
N  N15  1  0.81160000  0.56120000  0.27390000  1.0 0.5299636118
N  N16  1  0.43880000  0.18840000  0.27390000  1.0 0.5299636118
O  O1  1  0.14000000  0.86000000  0.24000000  1.0 -1.0131827079
O  O2  1  0.12000000  0.70000000  0.19000000  1.0 -0.5553477488
O  O3  1  0.30000000  0.88000000  0.19000000  1.0 -0.5553477488
O  O4  1  0.06000000  0.68000000  0.30000000  1.0 -0.5170960285
O  O5  1  0.32000000  0.94000000  0.30000000  1.0 -0.5170960285
O  O6  1  0.17000000  0.05000000  0.30000000  1.0 -0.5170960285
O  O7  1  0.95000000  0.83000000  0.30000000  1.0 -0.5170960285
O  O8  1  0.10000000  0.04000000  0.19000000  1.0 -0.5372731469
O  O9  1  0.96000000  0.90000000  0.19000000  1.0 -0.5372731469
O  O10  1  0.09000000  0.91000000  0.06000000  1.0 -0.3726324968
O  O11  1  0.17000000  0.83000000  0.07000000  1.0 -0.4119849436
O  O12  1  0.18000000  0.92000000  0.42000000  1.0 -0.5332221471
O  O13  1  0.08000000  0.82000000  0.42000000  1.0 -0.5332221471
O  O14  1  0.69270000  0.99410000  0.98490000  1.0 -0.1875040911
O  O15  1  0.00590000  0.30730000  0.98490000  1.0 -0.1812176438
O  O16  1  0.75810000  0.95830000  0.90830000  1.0 -0.2302531831
O  O17  1  0.04170000  0.24190000  0.90830000  1.0 -0.2302531831
O  O18  1  0.50430000  0.75430000  0.72400000  1.0 -0.3852973066
O  O19  1  0.24570000  0.49570000  0.72400000  1.0 -0.3779995225
O  O20  1  0.61670000  0.81310000  0.67770000  1.0 -0.3617701389
O  O21  1  0.18690000  0.38330000  0.67770000  1.0 -0.3617701389
O  O22  1  0.86000000  0.14000000  0.76000000  1.0 -1.0131827079
O  O23  1  0.70000000  0.12000000  0.81000000  1.0 -0.554161974
O  O24  1  0.88000000  0.30000000  0.81000000  1.0 -0.5553477488
O  O25  1  0.68000000  0.06000000  0.70000000  1.0 -0.5170960285
O  O26  1  0.94000000  0.32000000  0.70000000  1.0 -0.5170960285
O  O27  1  0.05000000  0.17000000  0.70000000  1.0 -0.5170960285
O  O28  1  0.83000000  0.95000000  0.70000000  1.0 -0.5170960285
O  O29  1  0.04000000  0.10000000  0.81000000  1.0 -0.5372731469
O  O30  1  0.90000000  0.96000000  0.81000000  1.0 -0.5372731469
O  O31  1  0.91000000  0.09000000  0.94000000  1.0 -0.3726324968
O  O32  1  0.83000000  0.17000000  0.93000000  1.0 -0.4119849436
O  O33  1  0.92000000  0.18000000  0.58000000  1.0 -0.5332221471
O  O34  1  0.82000000  0.08000000  0.58000000  1.0 -0.5332221471
O  O35  1  0.99410000  0.69270000  0.01510000  1.0 -0.1812176438
O  O36  1  0.30730000  0.00590000  0.01510000  1.0 -0.1812176438
O  O37  1  0.95830000  0.75810000  0.09170000  1.0 -0.2302531831
O  O38  1  0.24190000  0.04170000  0.09170000  1.0 -0.2302531831
O  O39  1  0.75430000  0.50430000  0.27600000  1.0 -0.3852973066
O  O40  1  0.49570000  0.24570000  0.27600000  1.0 -0.3779995225
O  O41  1  0.81310000  0.61670000  0.32230000  1.0 -0.3617701389
O  O42  1  0.38330000  0.18690000  0.32230000  1.0 -0.3617701389
