# DDEC6 charges by PACMAN v1.1 (https://github.com/mtap-research/PACMAN-charge/)
data_EGOKUH_FSR_pacman
_symmetry_space_group_name_H-M   'P 1'
_cell_length_a   8.34740000
_cell_length_b   11.64820000
_cell_length_c   21.62080000
_cell_angle_alpha   90.00000000
_cell_angle_beta   90.00000000
_cell_angle_gamma   90.00000000
_symmetry_Int_Tables_number   1
_chemical_formula_structural   MnH12C14(NO3)2
_chemical_formula_sum   'Mn4 H48 C56 N8 O24'
_cell_volume   2102.23761853
_cell_formula_units_Z   4
loop_
 _symmetry_equiv_pos_site_id
 _symmetry_equiv_pos_as_xyz
  1  'x, y, z'
loop_
 _atom_site_type_symbol
 _atom_site_label
 _atom_site_symmetry_multiplicity
 _atom_site_fract_x
 _atom_site_fract_y
 _atom_site_fract_z
 _atom_site_occupancy
 _atom_site_charge
Mn  Mn1  1  0.89876000  0.98899000  0.20746000  1.0 0.8239170646
Mn  Mn2  1  0.39876000  0.01101000  0.29254000  1.0 0.8239170646
Mn  Mn3  1  0.10124000  0.98899000  0.79254000  1.0 0.8239170646
Mn  Mn4  1  0.60124000  0.01101000  0.70746000  1.0 0.8239170646
H  H1  1  0.98710000  0.99770000  0.08040000  1.0 0.3367829656
H  H2  1  0.48710000  0.00230000  0.41960000  1.0 0.3367829656
H  H3  1  0.88940000  0.77310000  0.12240000  1.0 0.1091859301
H  H4  1  0.38940000  0.22690000  0.37760000  1.0 0.1091859301
H  H5  1  0.88890000  0.57820000  0.11970000  1.0 0.1301744876
H  H6  1  0.38890000  0.42180000  0.38030000  1.0 0.1301744876
H  H7  1  0.92740000  0.57760000  0.30310000  1.0 0.1301744876
H  H8  1  0.42740000  0.42240000  0.19690000  1.0 0.1301744876
H  H9  1  0.93780000  0.77470000  0.30020000  1.0 0.1019291615
H  H10  1  0.43780000  0.22530000  0.19980000  1.0 0.1019291615
H  H11  1  0.79670000  0.20660000  0.13030000  1.0 0.1091859301
H  H12  1  0.29670000  0.79340000  0.36970000  1.0 0.1091859301
H  H13  1  0.80880000  0.40250000  0.12800000  1.0 0.1301744876
H  H14  1  0.30880000  0.59750000  0.37200000  1.0 0.1301744876
H  H15  1  0.99500000  0.39960000  0.29520000  1.0 0.1301744876
H  H16  1  0.49500000  0.60040000  0.20480000  1.0 0.1301744876
H  H17  1  0.98730000  0.20710000  0.29470000  1.0 0.1091859301
H  H18  1  0.48730000  0.79290000  0.20530000  1.0 0.1091859301
H  H19  1  0.21990000  0.08410000  0.09450000  1.0 0.0928093925
H  H20  1  0.71990000  0.91590000  0.40550000  1.0 0.0928093925
H  H21  1  0.38920000  0.91910000  0.07890000  1.0 0.1513466274
H  H22  1  0.88920000  0.08090000  0.42110000  1.0 0.1513466274
H  H23  1  0.23650000  0.84190000  0.08670000  1.0 0.1404447888
H  H24  1  0.73650000  0.15810000  0.41330000  1.0 0.1404447888
H  H25  1  0.01290000  0.99770000  0.91960000  1.0 0.3367829656
H  H26  1  0.51290000  0.00230000  0.58040000  1.0 0.3367829656
H  H27  1  0.11060000  0.77310000  0.87760000  1.0 0.1091859301
H  H28  1  0.61060000  0.22690000  0.62240000  1.0 0.1091859301
H  H29  1  0.11110000  0.57820000  0.88030000  1.0 0.1301744876
H  H30  1  0.61110000  0.42180000  0.61970000  1.0 0.1301744876
H  H31  1  0.07260000  0.57760000  0.69690000  1.0 0.1301744876
H  H32  1  0.57260000  0.42240000  0.80310000  1.0 0.1301744876
H  H33  1  0.06220000  0.77470000  0.69980000  1.0 0.1019291615
H  H34  1  0.56220000  0.22530000  0.80020000  1.0 0.1019291615
H  H35  1  0.20330000  0.20660000  0.86970000  1.0 0.1091859301
H  H36  1  0.70330000  0.79340000  0.63030000  1.0 0.1091859301
H  H37  1  0.19120000  0.40250000  0.87200000  1.0 0.1301744876
H  H38  1  0.69120000  0.59750000  0.62800000  1.0 0.1301744876
H  H39  1  0.00500000  0.39960000  0.70480000  1.0 0.1301744876
H  H40  1  0.50500000  0.60040000  0.79520000  1.0 0.1301744876
H  H41  1  0.01270000  0.20710000  0.70530000  1.0 0.1091859301
H  H42  1  0.51270000  0.79290000  0.79470000  1.0 0.1091859301
H  H43  1  0.78010000  0.08410000  0.90550000  1.0 0.0928093925
H  H44  1  0.28010000  0.91590000  0.59450000  1.0 0.0928093925
H  H45  1  0.61080000  0.91910000  0.92110000  1.0 0.1513466274
H  H46  1  0.11080000  0.08090000  0.57890000  1.0 0.1513466274
H  H47  1  0.76350000  0.84190000  0.91330000  1.0 0.1404447888
H  H48  1  0.26350000  0.15810000  0.58670000  1.0 0.1404447888
C  C1  1  0.89570000  0.73360000  0.15970000  1.0 0.079277437
C  C2  1  0.39570000  0.26640000  0.34030000  1.0 0.079277437
C  C3  1  0.89620000  0.61550000  0.15770000  1.0 -0.2050946916
C  C4  1  0.39620000  0.38450000  0.34230000  1.0 -0.2050946916
C  C5  1  0.90730000  0.55170000  0.21130000  1.0 0.1019291615
C  C6  1  0.40730000  0.44830000  0.28870000  1.0 0.1019291615
C  C7  1  0.92020000  0.61510000  0.26530000  1.0 -0.2193668152
C  C8  1  0.42020000  0.38490000  0.23470000  1.0 -0.2193668152
C  C9  1  0.92240000  0.73510000  0.26340000  1.0 0.0928093925
C  C10  1  0.42240000  0.26490000  0.23660000  1.0 0.0928093925
C  C11  1  0.84160000  0.24540000  0.16370000  1.0 0.079277437
C  C12  1  0.34160000  0.75460000  0.33630000  1.0 0.079277437
C  C13  1  0.84650000  0.36330000  0.16250000  1.0 -0.2193668152
C  C14  1  0.34650000  0.63670000  0.33750000  1.0 -0.2193668152
C  C15  1  0.90780000  0.42500000  0.21280000  1.0 0.0928093925
C  C16  1  0.40780000  0.57500000  0.28720000  1.0 0.0928093925
C  C17  1  0.95640000  0.36240000  0.26020000  1.0 -0.1928168381
C  C18  1  0.45640000  0.63760000  0.23980000  1.0 -0.1928168381
C  C19  1  0.95210000  0.24630000  0.25970000  1.0 0.0685987209
C  C20  1  0.45210000  0.75370000  0.24030000  1.0 0.0685987209
C  C21  1  0.25740000  0.00410000  0.17800000  1.0 0.5150271689
C  C22  1  0.75740000  0.99590000  0.32200000  1.0 0.5150271689
C  C23  1  0.19690000  0.00850000  0.11230000  1.0 0.0544057011
C  C24  1  0.69690000  0.99150000  0.38770000  1.0 0.0544057011
C  C25  1  0.27400000  0.91660000  0.07320000  1.0 -0.3620137314
C  C26  1  0.77400000  0.08340000  0.42680000  1.0 -0.3620137314
C  C27  1  0.23400000  0.93270000  0.00300000  1.0 0.5312822198
C  C28  1  0.73400000  0.06730000  0.49700000  1.0 0.5312822198
C  C29  1  0.10430000  0.73360000  0.84030000  1.0 0.079277437
C  C30  1  0.60430000  0.26640000  0.65970000  1.0 0.079277437
C  C31  1  0.10380000  0.61550000  0.84230000  1.0 -0.2050946916
C  C32  1  0.60380000  0.38450000  0.65770000  1.0 -0.2050946916
C  C33  1  0.09270000  0.55170000  0.78870000  1.0 0.1019291615
C  C34  1  0.59270000  0.44830000  0.71130000  1.0 0.1019291615
C  C35  1  0.07980000  0.61510000  0.73470000  1.0 -0.2193668152
C  C36  1  0.57980000  0.38490000  0.76530000  1.0 -0.2193668152
C  C37  1  0.07760000  0.73510000  0.73660000  1.0 0.0928093925
C  C38  1  0.57760000  0.26490000  0.76340000  1.0 0.0928093925
C  C39  1  0.15840000  0.24540000  0.83630000  1.0 0.079277437
C  C40  1  0.65840000  0.75460000  0.66370000  1.0 0.079277437
C  C41  1  0.15350000  0.36330000  0.83750000  1.0 -0.2193668152
C  C42  1  0.65350000  0.63670000  0.66250000  1.0 -0.2193668152
C  C43  1  0.09220000  0.42500000  0.78720000  1.0 0.0928093925
C  C44  1  0.59220000  0.57500000  0.71280000  1.0 0.0928093925
C  C45  1  0.04360000  0.36240000  0.73980000  1.0 -0.1928168381
C  C46  1  0.54360000  0.63760000  0.76020000  1.0 -0.1928168381
C  C47  1  0.04790000  0.24630000  0.74030000  1.0 0.0685987209
C  C48  1  0.54790000  0.75370000  0.75970000  1.0 0.0685987209
C  C49  1  0.74260000  0.00410000  0.82200000  1.0 0.5150271689
C  C50  1  0.24260000  0.99590000  0.67800000  1.0 0.5150271689
C  C51  1  0.80310000  0.00850000  0.88770000  1.0 0.0544057011
C  C52  1  0.30310000  0.99150000  0.61230000  1.0 0.0544057011
C  C53  1  0.72600000  0.91660000  0.92680000  1.0 -0.3620137314
C  C54  1  0.22600000  0.08340000  0.57320000  1.0 -0.3620137314
C  C55  1  0.76600000  0.93270000  0.99700000  1.0 0.5312822198
C  C56  1  0.26600000  0.06730000  0.50300000  1.0 0.5312822198
N  N1  1  0.90370000  0.79520000  0.21190000  1.0 -0.2361746843
N  N2  1  0.40370000  0.20480000  0.28810000  1.0 -0.2361746843
N  N3  1  0.89900000  0.18470000  0.21100000  1.0 -0.2193668152
N  N4  1  0.39900000  0.81530000  0.28900000  1.0 -0.2193668152
N  N5  1  0.09630000  0.79520000  0.78810000  1.0 -0.2361746843
N  N6  1  0.59630000  0.20480000  0.71190000  1.0 -0.2361746843
N  N7  1  0.10100000  0.18470000  0.78900000  1.0 -0.2193668152
N  N8  1  0.60100000  0.81530000  0.71100000  1.0 -0.2193668152
O  O1  1  0.70260000  0.98330000  0.14260000  1.0 -0.1820060526
O  O2  1  0.20260000  0.01670000  0.35740000  1.0 -0.1820060526
O  O3  1  0.15960000  0.99610000  0.22250000  1.0 -0.5315318668
O  O4  1  0.65960000  0.00390000  0.27750000  1.0 -0.5315318668
O  O5  1  0.40430000  0.01310000  0.18737000  1.0 -0.4815710897
O  O6  1  0.90430000  0.98690000  0.31263000  1.0 -0.4815710897
O  O7  1  0.17930000  0.01310000  0.98430000  1.0 -0.3743672932
O  O8  1  0.67930000  0.98690000  0.51570000  1.0 -0.3743672932
O  O9  1  0.26900000  0.86040000  0.96860000  1.0 -0.393612128
O  O10  1  0.76900000  0.13960000  0.53140000  1.0 -0.393612128
O  O11  1  0.02530000  0.99140000  0.11513000  1.0 -0.4909108544
O  O12  1  0.52530000  0.00860000  0.38487000  1.0 -0.4909108544
O  O13  1  0.29740000  0.98330000  0.85740000  1.0 -0.1928168381
O  O14  1  0.79740000  0.01670000  0.64260000  1.0 -0.1820060526
O  O15  1  0.84040000  0.99610000  0.77750000  1.0 -0.5315318668
O  O16  1  0.34040000  0.00390000  0.72250000  1.0 -0.5315318668
O  O17  1  0.59570000  0.01310000  0.81263000  1.0 -0.4815710897
O  O18  1  0.09570000  0.98690000  0.68737000  1.0 -0.4815710897
O  O19  1  0.82070000  0.01310000  0.01570000  1.0 -0.3743672932
O  O20  1  0.32070000  0.98690000  0.48430000  1.0 -0.3743672932
O  O21  1  0.73100000  0.86040000  0.03140000  1.0 -0.393612128
O  O22  1  0.23100000  0.13960000  0.46860000  1.0 -0.393612128
O  O23  1  0.97470000  0.99140000  0.88487000  1.0 -0.4909108544
O  O24  1  0.47470000  0.00860000  0.61513000  1.0 -0.4909108544
