# DDEC6 charges by PACMAN v1.1 (https://github.com/mtap-research/PACMAN-charge/)
data_EGULEA_ASR_pacman
_symmetry_space_group_name_H-M   'P 1'
_cell_length_a   10.27000000
_cell_length_b   11.97010000
_cell_length_c   12.54590000
_cell_angle_alpha   90.82100000
_cell_angle_beta   91.08900000
_cell_angle_gamma   92.27800000
_symmetry_Int_Tables_number   1
_chemical_formula_structural   NiH21C29N2O7
_chemical_formula_sum   'Ni2 H42 C58 N4 O14'
_cell_volume   1540.63138103
_cell_formula_units_Z   2
loop_
 _symmetry_equiv_pos_site_id
 _symmetry_equiv_pos_as_xyz
  1  'x, y, z'
loop_
 _atom_site_type_symbol
 _atom_site_label
 _atom_site_symmetry_multiplicity
 _atom_site_fract_x
 _atom_site_fract_y
 _atom_site_fract_z
 _atom_site_occupancy
 _atom_site_charge
Ni  Ni1  1  0.06023000  0.49966000  0.75087000  1.0 0.6990605068
Ni  Ni2  1  0.93977000  0.50034000  0.24913000  1.0 0.6990605068
H  H1  1  0.67790000  0.11720000  0.59000000  1.0 0.3392364454
H  H2  1  0.51420000  0.52380000  0.76720000  1.0 0.1295976946
H  H3  1  0.74230000  0.37460000  0.55570000  1.0 0.121929156
H  H4  1  0.35290000  0.35220000  0.51690000  1.0 0.1295976946
H  H5  1  0.48480000  0.26690000  0.38430000  1.0 0.121929156
H  H6  1  0.63250000  0.30760000  0.37880000  1.0 0.1109569323
H  H7  1  0.57650000  0.15140000  0.25780000  1.0 0.138770806
H  H8  1  0.61390000  0.99430000  0.15410000  1.0 0.1109569323
H  H9  1  0.69140000  0.83490000  0.23070000  1.0 0.121929156
H  H10  1  0.71030000  0.82620000  0.40970000  1.0 0.1109569323
H  H11  1  0.11300000  0.04260000  0.05300000  1.0 0.1001921392
H  H12  1  0.90450000  0.09780000  0.80020000  1.0 0.1295976946
H  H13  1  0.92860000  0.26760000  0.71610000  1.0 0.1109569323
H  H14  1  0.19690000  0.36760000  0.92570000  1.0 0.121929156
H  H15  1  0.17250000  0.20200000  0.01410000  1.0 0.1295976946
H  H16  1  0.02410000  0.04360000  0.59860000  1.0 0.121929156
H  H17  1  0.08550000  0.92130000  0.73050000  1.0 0.1295976946
H  H18  1  0.11130000  0.75390000  0.80220000  1.0 0.1109569323
H  H19  1  0.98400000  0.60150000  0.54340000  1.0 0.121929156
H  H20  1  0.96270000  0.77260000  0.46170000  1.0 0.138770806
H  H21  1  0.92730000  0.97050000  0.90730000  1.0 0.1001921392
H  H22  1  0.32210000  0.88280000  0.41000000  1.0 0.3392364454
H  H23  1  0.48580000  0.47620000  0.23280000  1.0 0.1295976946
H  H24  1  0.25770000  0.62540000  0.44430000  1.0 0.121929156
H  H25  1  0.64710000  0.64780000  0.48310000  1.0 0.1295976946
H  H26  1  0.51520000  0.73310000  0.61570000  1.0 0.121929156
H  H27  1  0.36750000  0.69240000  0.62120000  1.0 0.1109569323
H  H28  1  0.42350000  0.84860000  0.74220000  1.0 0.138770806
H  H29  1  0.38610000  0.00570000  0.84590000  1.0 0.1109569323
H  H30  1  0.30860000  0.16510000  0.76930000  1.0 0.121929156
H  H31  1  0.28970000  0.17380000  0.59030000  1.0 0.1109569323
H  H32  1  0.88700000  0.95740000  0.94700000  1.0 0.1001921392
H  H33  1  0.09550000  0.90220000  0.19980000  1.0 0.1295976946
H  H34  1  0.07140000  0.73240000  0.28390000  1.0 0.1109569323
H  H35  1  0.80310000  0.63240000  0.07430000  1.0 0.121929156
H  H36  1  0.82750000  0.79800000  0.98590000  1.0 0.1295976946
H  H37  1  0.97590000  0.95640000  0.40140000  1.0 0.121929156
H  H38  1  0.91450000  0.07870000  0.26950000  1.0 0.1295976946
H  H39  1  0.88870000  0.24610000  0.19780000  1.0 0.1109569323
H  H40  1  0.01600000  0.39850000  0.45660000  1.0 0.121929156
H  H41  1  0.03730000  0.22740000  0.53830000  1.0 0.138770806
H  H42  1  0.07270000  0.02950000  0.09270000  1.0 0.1001921392
C  C1  1  0.27890000  0.46730000  0.68460000  1.0 0.5253537965
C  C2  1  0.41360000  0.44050000  0.64950000  1.0 -0.0107194924
C  C3  1  0.52310000  0.48060000  0.70570000  1.0 -0.1431797075
C  C4  1  0.64840000  0.45620000  0.66980000  1.0 0.001102832
C  C5  1  0.77240000  0.49820000  0.73110000  1.0 0.5506448072
C  C6  1  0.65990000  0.39140000  0.57910000  1.0 -0.154617362
C  C7  1  0.42670000  0.37680000  0.55600000  1.0 -0.1580454636
C  C8  1  0.54960000  0.35020000  0.52160000  1.0 0.0935163048
C  C9  1  0.56600000  0.27610000  0.42470000  1.0 -0.0599424022
C  C10  1  0.62380000  0.08220000  0.39810000  1.0 0.2250343335
C  C11  1  0.60460000  0.08660000  0.28940000  1.0 -0.2124626714
C  C12  1  0.62810000  0.99240000  0.22750000  1.0 -0.0725051689
C  C13  1  0.67200000  0.89620000  0.27310000  1.0 -0.1223518032
C  C14  1  0.68600000  0.89270000  0.37910000  1.0 -0.0884323197
C  C15  1  0.66600000  0.98470000  0.44600000  1.0 -0.1821189935
C  C16  1  0.69120000  0.97220000  0.56050000  1.0 0.5506448072
C  C17  1  0.04570000  0.04080000  0.00230000  1.0 -0.0438875298
C  C18  1  0.03310000  0.13030000  0.92010000  1.0 0.138770806
C  C19  1  0.96260000  0.15240000  0.82860000  1.0 -0.264542036
C  C20  1  0.97700000  0.25530000  0.77800000  1.0 0.0935163048
C  C21  1  0.13420000  0.31460000  0.90130000  1.0 0.1001921392
C  C22  1  0.12060000  0.21350000  0.95400000  1.0 -0.2494139153
C  C23  1  0.01240000  0.98580000  0.54860000  1.0 -0.1291349012
C  C24  1  0.02420000  0.86930000  0.58850000  1.0 0.1620158103
C  C25  1  0.06570000  0.85760000  0.68910000  1.0 -0.1922366845
C  C26  1  0.07970000  0.75670000  0.73240000  1.0 0.0358111036
C  C27  1  0.00670000  0.66680000  0.58160000  1.0 0.1295976946
C  C28  1  0.99280000  0.77010000  0.53200000  1.0 -0.1821189935
C  C29  1  0.98120000  0.01550000  0.95180000  1.0 -0.045076337
C  C30  1  0.72110000  0.53270000  0.31540000  1.0 0.5248803568
C  C31  1  0.58640000  0.55950000  0.35050000  1.0 -0.0107194924
C  C32  1  0.47690000  0.51940000  0.29430000  1.0 -0.1431797075
C  C33  1  0.35160000  0.54380000  0.33020000  1.0 0.001102832
C  C34  1  0.22760000  0.50180000  0.26890000  1.0 0.5506448072
C  C35  1  0.34010000  0.60860000  0.42090000  1.0 -0.154617362
C  C36  1  0.57330000  0.62320000  0.44400000  1.0 -0.1580454636
C  C37  1  0.45040000  0.64980000  0.47840000  1.0 0.0935163048
C  C38  1  0.43400000  0.72390000  0.57530000  1.0 -0.0599424022
C  C39  1  0.37620000  0.91780000  0.60190000  1.0 0.2246349377
C  C40  1  0.39540000  0.91340000  0.71060000  1.0 -0.2124626714
C  C41  1  0.37190000  0.00760000  0.77250000  1.0 -0.0725051689
C  C42  1  0.32800000  0.10380000  0.72690000  1.0 -0.1223518032
C  C43  1  0.31400000  0.10730000  0.62090000  1.0 -0.0884323197
C  C44  1  0.33400000  0.01530000  0.55400000  1.0 -0.1821189935
C  C45  1  0.30880000  0.02780000  0.43950000  1.0 0.5506448072
C  C46  1  0.95430000  0.95920000  0.99770000  1.0 -0.0438875298
C  C47  1  0.96690000  0.86970000  0.07990000  1.0 0.138770806
C  C48  1  0.03740000  0.84760000  0.17140000  1.0 -0.264542036
C  C49  1  0.02300000  0.74470000  0.22200000  1.0 0.0935163048
C  C50  1  0.86580000  0.68540000  0.09870000  1.0 0.1001921392
C  C51  1  0.87940000  0.78650000  0.04600000  1.0 -0.2494139153
C  C52  1  0.98760000  0.01420000  0.45140000  1.0 -0.1291349012
C  C53  1  0.97580000  0.13070000  0.41150000  1.0 0.1620158103
C  C54  1  0.93430000  0.14240000  0.31090000  1.0 -0.1922366845
C  C55  1  0.92030000  0.24330000  0.26760000  1.0 0.0358111036
C  C56  1  0.99330000  0.33320000  0.41840000  1.0 0.1295976946
C  C57  1  0.00720000  0.22990000  0.46800000  1.0 -0.1821189935
C  C58  1  0.01880000  0.98450000  0.04820000  1.0 -0.0438875298
N  N1  1  0.05980000  0.33760000  0.81690000  1.0 -0.2221561301
N  N2  1  0.05060000  0.65900000  0.68030000  1.0 -0.2124626714
N  N3  1  0.94020000  0.66240000  0.18310000  1.0 -0.2221561301
N  N4  1  0.94940000  0.34100000  0.31970000  1.0 -0.2124626714
O  O1  1  0.26500000  0.51600000  0.77450000  1.0 -0.5258457589
O  O2  1  0.18040000  0.43980000  0.62610000  1.0 -0.5235005545
O  O3  1  0.87690000  0.46510000  0.69470000  1.0 -0.5658033121
O  O4  1  0.75940000  0.56100000  0.81000000  1.0 -0.576012336
O  O5  1  0.60430000  0.17170000  0.46600000  1.0 -0.2026359665
O  O6  1  0.71260000  0.88110000  0.59990000  1.0 -0.4750809598
O  O7  1  0.69200000  0.06150000  0.62500000  1.0 -0.4432580101
O  O8  1  0.73500000  0.48400000  0.22550000  1.0 -0.5258457589
O  O9  1  0.81960000  0.56020000  0.37390000  1.0 -0.5235005545
O  O10  1  0.12310000  0.53490000  0.30530000  1.0 -0.5658033121
O  O11  1  0.24060000  0.43900000  0.19000000  1.0 -0.576012336
O  O12  1  0.39570000  0.82830000  0.53400000  1.0 -0.2026359665
O  O13  1  0.28740000  0.11890000  0.40010000  1.0 -0.4738572764
O  O14  1  0.30800000  0.93850000  0.37500000  1.0 -0.4432580101
