# DDEC6 charges by PACMAN v1.1 (https://github.com/mtap-research/PACMAN-charge/)
data_EHAGAX_ASR_pacman
_symmetry_space_group_name_H-M   'P 1'
_cell_length_a   10.67000000
_cell_length_b   11.49110000
_cell_length_c   13.44480000
_cell_angle_alpha   69.15900000
_cell_angle_beta   78.91300000
_cell_angle_gamma   63.13200000
_symmetry_Int_Tables_number   1
_chemical_formula_structural   Sm2U3H6(C5O4)6
_chemical_formula_sum   'Sm2 U3 H6 C30 O24'
_cell_volume   1373.31956767
_cell_formula_units_Z   1
loop_
 _symmetry_equiv_pos_site_id
 _symmetry_equiv_pos_as_xyz
  1  'x, y, z'
loop_
 _atom_site_type_symbol
 _atom_site_label
 _atom_site_symmetry_multiplicity
 _atom_site_fract_x
 _atom_site_fract_y
 _atom_site_fract_z
 _atom_site_occupancy
 _atom_site_charge
Sm  Sm1  1  0.60537000  0.22611000  0.75293000  1.0 1.8330832538
Sm  Sm2  1  0.39463000  0.77389000  0.24707000  1.0 1.8330832538
U  U1  1  0.62675000  0.71024000  0.83613000  1.0 2.0395169077
U  U2  1  0.37325000  0.28976000  0.16387000  1.0 2.0395169077
U  U3  1  0.00000000  0.50000000  0.50000000  1.0 1.9844710645
H  H1  1  0.09900000  0.36030000  0.95670000  1.0 0.1118088034
H  H2  1  0.90100000  0.63970000  0.04330000  1.0 0.1118088034
H  H3  1  0.16530000  0.10580000  0.73490000  1.0 0.1013682825
H  H4  1  0.83470000  0.89420000  0.26510000  1.0 0.1013682825
H  H5  1  0.70980000  0.99990000  0.41540000  1.0 0.1013682825
H  H6  1  0.29020000  0.00010000  0.58460000  1.0 0.1013682825
C  C1  1  0.00240000  0.34070000  0.85080000  1.0 -0.0507625486
C  C2  1  0.99760000  0.65930000  0.14920000  1.0 -0.0507625486
C  C3  1  0.11430000  0.31370000  0.90830000  1.0 -0.125753175
C  C4  1  0.88570000  0.68630000  0.09170000  1.0 -0.125753175
C  C5  1  0.24920000  0.21650000  0.89250000  1.0 -0.1066708001
C  C6  1  0.75080000  0.78350000  0.10750000  1.0 -0.1066708001
C  C7  1  0.26950000  0.14050000  0.82490000  1.0 -0.0742409448
C  C8  1  0.73050000  0.85950000  0.17510000  1.0 -0.0742409448
C  C9  1  0.15330000  0.16150000  0.77510000  1.0 -0.1516383174
C  C10  1  0.84670000  0.83850000  0.22490000  1.0 -0.1516383174
C  C11  1  0.02090000  0.26390000  0.78470000  1.0 -0.0952821947
C  C12  1  0.97910000  0.73610000  0.21530000  1.0 -0.0952821947
C  C13  1  0.62550000  0.00000000  0.45010000  1.0 -0.1408472541
C  C14  1  0.37450000  0.00000000  0.54990000  1.0 -0.1408472541
C  C15  1  0.61860000  0.87470000  0.50710000  1.0 -0.0929395813
C  C16  1  0.38140000  0.12530000  0.49290000  1.0 -0.0929395813
C  C17  1  0.49000000  0.87500000  0.55640000  1.0 -0.0761044319
C  C18  1  0.51000000  0.12500000  0.44360000  1.0 -0.0761044319
C  C19  1  0.86680000  0.46260000  0.85720000  1.0 0.5251179156
C  C20  1  0.13320000  0.53740000  0.14280000  1.0 0.5251179156
C  C21  1  0.36120000  0.19490000  0.95790000  1.0 0.6222624597
C  C22  1  0.63880000  0.80510000  0.04210000  1.0 0.6222624597
C  C23  1  0.41040000  0.03810000  0.79970000  1.0 0.6009359774
C  C24  1  0.58960000  0.96190000  0.20030000  1.0 0.6009359774
C  C25  1  0.90280000  0.28680000  0.72420000  1.0 0.6428997335
C  C26  1  0.09720000  0.71320000  0.27580000  1.0 0.6428997335
C  C27  1  0.47130000  0.74490000  0.62120000  1.0 0.5922952709
C  C28  1  0.52870000  0.25510000  0.37880000  1.0 0.5922952709
C  C29  1  0.74630000  0.74630000  0.50990000  1.0 0.5358439502
C  C30  1  0.25370000  0.25370000  0.49010000  1.0 0.5358439502
O  O1  1  0.85360000  0.53440000  0.91280000  1.0 -0.6205713633
O  O2  1  0.14640000  0.46560000  0.08720000  1.0 -0.6205713633
O  O3  1  0.76740000  0.49260000  0.80080000  1.0 -0.6377139869
O  O4  1  0.23260000  0.50740000  0.19920000  1.0 -0.6377139869
O  O5  1  0.82470000  0.22850000  0.76910000  1.0 -0.6926329318
O  O6  1  0.17530000  0.77150000  0.23090000  1.0 -0.6926329318
O  O7  1  0.89140000  0.36130000  0.62600000  1.0 -0.6730680051
O  O8  1  0.10860000  0.63870000  0.37400000  1.0 -0.6730680051
O  O9  1  0.41970000  0.91710000  0.82200000  1.0 -0.6520787659
O  O10  1  0.58030000  0.08290000  0.17800000  1.0 -0.6520787659
O  O11  1  0.50400000  0.07190000  0.75690000  1.0 -0.6643359545
O  O12  1  0.49600000  0.92810000  0.24310000  1.0 -0.6643359545
O  O13  1  0.48180000  0.17460000  0.91890000  1.0 -0.7368743005
O  O14  1  0.51820000  0.82540000  0.08110000  1.0 -0.7368743005
O  O15  1  0.32400000  0.20110000  0.05200000  1.0 -0.6520787659
O  O16  1  0.67600000  0.79890000  0.94800000  1.0 -0.6520787659
O  O17  1  0.50590000  0.69440000  0.71690000  1.0 -0.6758458796
O  O18  1  0.49410000  0.30560000  0.28310000  1.0 -0.6758458796
O  O19  1  0.41560000  0.70130000  0.57870000  1.0 -0.5554850581
O  O20  1  0.58440000  0.29870000  0.42130000  1.0 -0.5554850581
O  O21  1  0.73610000  0.63280000  0.53560000  1.0 -0.6119060549
O  O22  1  0.26390000  0.36720000  0.46440000  1.0 -0.6119060549
O  O23  1  0.86260000  0.74990000  0.47860000  1.0 -0.6119060549
O  O24  1  0.13740000  0.25010000  0.52140000  1.0 -0.6119060549
