# DDEC6 charges by PACMAN v1.1 (https://github.com/mtap-research/PACMAN-charge/)
data_EHAGOL_ASR_pacman
_symmetry_space_group_name_H-M   'P 1'
_cell_length_a   10.56750000
_cell_length_b   11.51480000
_cell_length_c   13.43060000
_cell_angle_alpha   69.15100000
_cell_angle_beta   78.56900000
_cell_angle_gamma   63.22800000
_symmetry_Int_Tables_number   1
_chemical_formula_structural   Tb2U3H6(C5O4)6
_chemical_formula_sum   'Tb2 U3 H6 C30 O24'
_cell_volume   1362.14292092
_cell_formula_units_Z   1
loop_
 _symmetry_equiv_pos_site_id
 _symmetry_equiv_pos_as_xyz
  1  'x, y, z'
loop_
 _atom_site_type_symbol
 _atom_site_label
 _atom_site_symmetry_multiplicity
 _atom_site_fract_x
 _atom_site_fract_y
 _atom_site_fract_z
 _atom_site_occupancy
 _atom_site_charge
Tb  Tb1  1  0.60045000  0.22954000  0.75007000  1.0 1.7960270009
Tb  Tb2  1  0.39955000  0.77046000  0.24993000  1.0 1.7948277554
U  U1  1  0.62428000  0.71303000  0.83617000  1.0 2.0495683512
U  U2  1  0.37572000  0.28697000  0.16383000  1.0 2.0422102771
U  U3  1  0.00000000  0.50000000  0.50000000  1.0 1.990761455
H  H1  1  0.09650000  0.35850000  0.95770000  1.0 0.1104129254
H  H2  1  0.90350000  0.64150000  0.04230000  1.0 0.1104129254
H  H3  1  0.16010000  0.11180000  0.73340000  1.0 0.1104129254
H  H4  1  0.83990000  0.88820000  0.26660000  1.0 0.1104129254
H  H5  1  0.71340000  0.99810000  0.41640000  1.0 0.1022379658
H  H6  1  0.28660000  0.00190000  0.58360000  1.0 0.1022379658
C  C1  1  0.99830000  0.34330000  0.85130000  1.0 -0.079471027
C  C2  1  0.00170000  0.65670000  0.14870000  1.0 -0.079471027
C  C3  1  0.11160000  0.31260000  0.90880000  1.0 -0.1127524116
C  C4  1  0.88840000  0.68740000  0.09120000  1.0 -0.1127524116
C  C5  1  0.24610000  0.21550000  0.89490000  1.0 -0.1127524116
C  C6  1  0.75390000  0.78450000  0.10510000  1.0 -0.1127524116
C  C7  1  0.26640000  0.14240000  0.82400000  1.0 -0.072025247
C  C8  1  0.73360000  0.85760000  0.17600000  1.0 -0.072025247
C  C9  1  0.14880000  0.16590000  0.77480000  1.0 -0.1565250532
C  C10  1  0.85120000  0.83410000  0.22520000  1.0 -0.1565250532
C  C11  1  0.01580000  0.26710000  0.78560000  1.0 -0.079471027
C  C12  1  0.98420000  0.73290000  0.21440000  1.0 -0.079471027
C  C13  1  0.62720000  0.99890000  0.44990000  1.0 -0.1408531332
C  C14  1  0.37280000  0.00110000  0.55010000  1.0 -0.1408531332
C  C15  1  0.61720000  0.87550000  0.50500000  1.0 -0.090293022
C  C16  1  0.38280000  0.12450000  0.49500000  1.0 -0.090293022
C  C17  1  0.48810000  0.87700000  0.55640000  1.0 -0.079471027
C  C18  1  0.51190000  0.12300000  0.44360000  1.0 -0.079471027
C  C19  1  0.86430000  0.46270000  0.85670000  1.0 0.5338096878
C  C20  1  0.13570000  0.53730000  0.14330000  1.0 0.5338096878
C  C21  1  0.36140000  0.19480000  0.95660000  1.0 0.6192274055
C  C22  1  0.63860000  0.80520000  0.04340000  1.0 0.6192274055
C  C23  1  0.40820000  0.03920000  0.79830000  1.0 0.6106424293
C  C24  1  0.59180000  0.96080000  0.20170000  1.0 0.6106424293
C  C25  1  0.89660000  0.29110000  0.72410000  1.0 0.634193357
C  C26  1  0.10340000  0.70890000  0.27590000  1.0 0.6372106037
C  C27  1  0.46700000  0.74890000  0.62200000  1.0 0.5973001978
C  C28  1  0.53300000  0.25110000  0.37800000  1.0 0.5973001978
C  C29  1  0.74420000  0.74650000  0.50660000  1.0 0.539533343
C  C30  1  0.25580000  0.25350000  0.49340000  1.0 0.539533343
O  O1  1  0.85150000  0.53610000  0.91310000  1.0 -0.6322582998
O  O2  1  0.14850000  0.46390000  0.08690000  1.0 -0.6322582998
O  O3  1  0.76300000  0.49540000  0.80160000  1.0 -0.6217216292
O  O4  1  0.23700000  0.50460000  0.19840000  1.0 -0.6217216292
O  O5  1  0.81770000  0.23300000  0.77060000  1.0 -0.680918757
O  O6  1  0.18230000  0.76700000  0.22940000  1.0 -0.680918757
O  O7  1  0.88730000  0.36330000  0.62650000  1.0 -0.6581549385
O  O8  1  0.11270000  0.63670000  0.37350000  1.0 -0.6581549385
O  O9  1  0.41790000  0.92000000  0.82090000  1.0 -0.6459510961
O  O10  1  0.58210000  0.08000000  0.17910000  1.0 -0.6459510961
O  O11  1  0.50380000  0.07680000  0.75430000  1.0 -0.7050611415
O  O12  1  0.49620000  0.92320000  0.24570000  1.0 -0.7050611415
O  O13  1  0.48230000  0.17660000  0.91780000  1.0 -0.7050611415
O  O14  1  0.51770000  0.82340000  0.08220000  1.0 -0.7050611415
O  O15  1  0.32450000  0.19780000  0.05280000  1.0 -0.6715164223
O  O16  1  0.67550000  0.80220000  0.94720000  1.0 -0.6715164223
O  O17  1  0.50140000  0.69690000  0.71760000  1.0 -0.6715164223
O  O18  1  0.49860000  0.30310000  0.28240000  1.0 -0.6715164223
O  O19  1  0.41050000  0.70310000  0.58090000  1.0 -0.5588425139
O  O20  1  0.58950000  0.29690000  0.41910000  1.0 -0.5588425139
O  O21  1  0.73380000  0.63400000  0.53400000  1.0 -0.5996379295
O  O22  1  0.26620000  0.36600000  0.46600000  1.0 -0.5996379295
O  O23  1  0.86380000  0.74860000  0.47800000  1.0 -0.6217216292
O  O24  1  0.13620000  0.25140000  0.52200000  1.0 -0.6217216292
