# DDEC6 charges by PACMAN v1.1 (https://github.com/mtap-research/PACMAN-charge/)
data_EHAGUR_ASR_pacman
_symmetry_space_group_name_H-M   'P 1'
_cell_length_a   10.53630000
_cell_length_b   11.46980000
_cell_length_c   13.41140000
_cell_angle_alpha   69.02800000
_cell_angle_beta   78.40600000
_cell_angle_gamma   63.41400000
_symmetry_Int_Tables_number   1
_chemical_formula_structural   Dy2U3H6(C5O4)6
_chemical_formula_sum   'Dy2 U3 H6 C30 O24'
_cell_volume   1351.75468549
_cell_formula_units_Z   1
loop_
 _symmetry_equiv_pos_site_id
 _symmetry_equiv_pos_as_xyz
  1  'x, y, z'
loop_
 _atom_site_type_symbol
 _atom_site_label
 _atom_site_symmetry_multiplicity
 _atom_site_fract_x
 _atom_site_fract_y
 _atom_site_fract_z
 _atom_site_occupancy
 _atom_site_charge
Dy  Dy1  1  0.60033000  0.22942000  0.74930000  1.0 1.816564369
Dy  Dy2  1  0.39967000  0.77058000  0.25070000  1.0 1.816564369
U  U1  1  0.62382000  0.71245000  0.83696000  1.0 2.0274421451
U  U2  1  0.37618000  0.28755000  0.16304000  1.0 2.0274421451
U  U3  1  0.00000000  0.50000000  0.50000000  1.0 1.9878250835
H  H1  1  0.09580000  0.35770000  0.95970000  1.0 0.1104225693
H  H2  1  0.90420000  0.64230000  0.04030000  1.0 0.1104225693
H  H3  1  0.15570000  0.10960000  0.73490000  1.0 0.1035024999
H  H4  1  0.84430000  0.89040000  0.26510000  1.0 0.1035024999
H  H5  1  0.71260000  0.99800000  0.41830000  1.0 0.1035024999
H  H6  1  0.28740000  0.00200000  0.58170000  1.0 0.1035024999
C  C1  1  0.99640000  0.34150000  0.85380000  1.0 -0.057353327
C  C2  1  0.00360000  0.65850000  0.14620000  1.0 -0.057353327
C  C3  1  0.11100000  0.31200000  0.91050000  1.0 -0.1200646898
C  C4  1  0.88900000  0.68800000  0.08950000  1.0 -0.1200646898
C  C5  1  0.24790000  0.21510000  0.89470000  1.0 -0.1200646898
C  C6  1  0.75210000  0.78490000  0.10530000  1.0 -0.1200646898
C  C7  1  0.26660000  0.14190000  0.82370000  1.0 -0.0668084184
C  C8  1  0.73340000  0.85810000  0.17630000  1.0 -0.0668084184
C  C9  1  0.14570000  0.16480000  0.77510000  1.0 -0.1505382331
C  C10  1  0.85430000  0.83520000  0.22490000  1.0 -0.1505382331
C  C11  1  0.01550000  0.26560000  0.78610000  1.0 -0.091872639
C  C12  1  0.98450000  0.73440000  0.21390000  1.0 -0.091872639
C  C13  1  0.62600000  0.99870000  0.45150000  1.0 -0.1342443051
C  C14  1  0.37400000  0.00130000  0.54850000  1.0 -0.136626658
C  C15  1  0.61860000  0.87570000  0.50600000  1.0 -0.091872639
C  C16  1  0.38140000  0.12430000  0.49400000  1.0 -0.091872639
C  C17  1  0.48790000  0.87590000  0.55710000  1.0 -0.0849537151
C  C18  1  0.51210000  0.12410000  0.44290000  1.0 -0.0849537151
C  C19  1  0.86210000  0.46300000  0.86070000  1.0 0.5278462646
C  C20  1  0.13790000  0.53700000  0.13930000  1.0 0.5278462646
C  C21  1  0.36230000  0.19270000  0.95790000  1.0 0.6184308706
C  C22  1  0.63770000  0.80730000  0.04210000  1.0 0.6184308706
C  C23  1  0.40830000  0.04100000  0.79480000  1.0 0.5977194784
C  C24  1  0.59170000  0.95900000  0.20520000  1.0 0.5977194784
C  C25  1  0.89640000  0.29130000  0.72500000  1.0 0.6367273508
C  C26  1  0.10360000  0.70870000  0.27500000  1.0 0.6367273508
C  C27  1  0.46800000  0.74740000  0.62210000  1.0 0.5977194784
C  C28  1  0.53200000  0.25260000  0.37790000  1.0 0.5977194784
C  C29  1  0.74310000  0.74550000  0.50840000  1.0 0.535442668
C  C30  1  0.25690000  0.25450000  0.49160000  1.0 0.535442668
O  O1  1  0.85040000  0.53530000  0.91480000  1.0 -0.6067647161
O  O2  1  0.14960000  0.46470000  0.08520000  1.0 -0.6067647161
O  O3  1  0.76190000  0.49500000  0.80310000  1.0 -0.6399942013
O  O4  1  0.23810000  0.50500000  0.19690000  1.0 -0.6399942013
O  O5  1  0.81500000  0.23380000  0.77200000  1.0 -0.6916549923
O  O6  1  0.18500000  0.76620000  0.22800000  1.0 -0.6916549923
O  O7  1  0.88770000  0.36230000  0.62830000  1.0 -0.6399942013
O  O8  1  0.11230000  0.63770000  0.37170000  1.0 -0.6399942013
O  O9  1  0.41700000  0.92010000  0.82000000  1.0 -0.6587973755
O  O10  1  0.58300000  0.07990000  0.18000000  1.0 -0.6587973755
O  O11  1  0.50210000  0.07710000  0.75190000  1.0 -0.6587973755
O  O12  1  0.49790000  0.92290000  0.24810000  1.0 -0.6587973755
O  O13  1  0.48360000  0.17480000  0.91670000  1.0 -0.7258213582
O  O14  1  0.51640000  0.82520000  0.08330000  1.0 -0.7258213582
O  O15  1  0.32630000  0.19650000  0.05240000  1.0 -0.6524575474
O  O16  1  0.67370000  0.80350000  0.94760000  1.0 -0.6524575474
O  O17  1  0.50200000  0.69510000  0.71840000  1.0 -0.6708147051
O  O18  1  0.49800000  0.30490000  0.28160000  1.0 -0.6708147051
O  O19  1  0.41070000  0.70150000  0.58160000  1.0 -0.5600464465
O  O20  1  0.58930000  0.29850000  0.41840000  1.0 -0.5600464465
O  O21  1  0.73300000  0.63360000  0.53360000  1.0 -0.586328608
O  O22  1  0.26700000  0.36640000  0.46640000  1.0 -0.586328608
O  O23  1  0.86610000  0.75050000  0.47910000  1.0 -0.6587973755
O  O24  1  0.13390000  0.24950000  0.52090000  1.0 -0.6587973755
