# DDEC6 charges by PACMAN v1.1 (https://github.com/mtap-research/PACMAN-charge/)
data_EHEKUY_ASR_pacman
_symmetry_space_group_name_H-M   'P 1'
_cell_length_a   15.29780000
_cell_length_b   15.59270000
_cell_length_c   22.14800000
_cell_angle_alpha   88.84100000
_cell_angle_beta   93.46200000
_cell_angle_gamma   117.91500000
_symmetry_Int_Tables_number   1
_chemical_formula_structural   H28Ru2C38S(NO2)4
_chemical_formula_sum   'H112 Ru8 C152 S4 N16 O32'
_cell_volume   4659.61853065
_cell_formula_units_Z   4
loop_
 _symmetry_equiv_pos_site_id
 _symmetry_equiv_pos_as_xyz
  1  'x, y, z'
loop_
 _atom_site_type_symbol
 _atom_site_label
 _atom_site_symmetry_multiplicity
 _atom_site_fract_x
 _atom_site_fract_y
 _atom_site_fract_z
 _atom_site_occupancy
 _atom_site_charge
H  H1  1  0.32380000  0.21390000  0.93220000  1.0 0.1202644645
H  H2  1  0.67620000  0.78610000  0.06780000  1.0 0.1293396039
H  H3  1  0.50500000  0.36780000  0.83640000  1.0 0.1410866716
H  H4  1  0.49500000  0.63220000  0.16360000  1.0 0.1410866716
H  H5  1  0.50690000  0.39870000  0.90280000  1.0 0.1410866716
H  H6  1  0.49310000  0.60130000  0.09720000  1.0 0.1410866716
H  H7  1  0.48510000  0.29350000  0.88810000  1.0 0.1410866716
H  H8  1  0.51490000  0.70650000  0.11190000  1.0 0.1410866716
H  H9  1  0.37480000  0.40840000  0.79750000  1.0 0.1202644645
H  H10  1  0.62520000  0.59160000  0.20250000  1.0 0.1202644645
H  H11  1  0.20840000  0.36240000  0.78640000  1.0 0.1113820617
H  H12  1  0.79160000  0.63760000  0.21360000  1.0 0.1113820617
H  H13  1  0.09670000  0.24450000  0.84890000  1.0 0.1202644645
H  H14  1  0.90330000  0.75550000  0.15110000  1.0 0.1202644645
H  H15  1  0.90660000  0.88410000  0.79890000  1.0 0.1293396039
H  H16  1  0.09340000  0.11590000  0.20110000  1.0 0.1293396039
H  H17  1  0.88770000  0.85980000  0.68850000  1.0 0.1410866716
H  H18  1  0.11230000  0.14020000  0.31150000  1.0 0.1410866716
H  H19  1  0.90610000  0.78020000  0.65960000  1.0 0.1410866716
H  H20  1  0.09390000  0.21980000  0.34040000  1.0 0.1410866716
H  H21  1  0.80810000  0.75170000  0.69070000  1.0 0.1500729197
H  H22  1  0.19190000  0.24830000  0.30930000  1.0 0.1500729197
H  H23  1  0.95760000  0.68040000  0.72170000  1.0 0.1202644645
H  H24  1  0.04240000  0.31960000  0.27830000  1.0 0.1202644645
H  H25  1  0.02460000  0.65750000  0.81420000  1.0 0.1113820617
H  H26  1  0.97540000  0.34250000  0.18580000  1.0 0.1113820617
H  H27  1  0.03350000  0.74760000  0.89920000  1.0 0.1293396039
H  H28  1  0.96650000  0.25240000  0.10080000  1.0 0.1293396039
H  H29  1  0.04410000  0.45270000  0.86330000  1.0 0.1293396039
H  H30  1  0.95590000  0.54730000  0.13670000  1.0 0.1293396039
H  H31  1  0.18780000  0.51670000  0.93800000  1.0 0.1410866716
H  H32  1  0.81220000  0.48330000  0.06200000  1.0 0.1410866716
H  H33  1  0.24310000  0.46910000  0.90740000  1.0 0.1293396039
H  H34  1  0.75690000  0.53090000  0.09260000  1.0 0.1293396039
H  H35  1  0.29380000  0.58070000  0.91680000  1.0 0.1293396039
H  H36  1  0.70620000  0.41930000  0.08320000  1.0 0.1293396039
H  H37  1  0.32160000  0.62040000  0.80950000  1.0 0.1202644645
H  H38  1  0.67840000  0.37960000  0.19050000  1.0 0.1202644645
H  H39  1  0.25640000  0.64290000  0.71650000  1.0 0.1202644645
H  H40  1  0.74360000  0.35710000  0.28350000  1.0 0.1202644645
H  H41  1  0.08570000  0.57430000  0.69690000  1.0 0.1293396039
H  H42  1  0.91430000  0.42570000  0.30310000  1.0 0.1293396039
H  H43  1  0.71950000  0.07450000  0.69010000  1.0 0.1293396039
H  H44  1  0.28050000  0.92550000  0.30990000  1.0 0.1293396039
H  H45  1  0.71940000  0.92070000  0.66960000  1.0 0.1293396039
H  H46  1  0.28060000  0.07930000  0.33040000  1.0 0.1293396039
H  H47  1  0.61760000  0.87350000  0.63340000  1.0 0.1410866716
H  H48  1  0.38240000  0.12650000  0.36660000  1.0 0.1410866716
H  H49  1  0.71170000  0.88560000  0.60350000  1.0 0.1500729197
H  H50  1  0.28830000  0.11440000  0.39650000  1.0 0.1500729197
H  H51  1  0.69780000  0.98170000  0.51850000  1.0 0.1202644645
H  H52  1  0.30220000  0.01830000  0.48150000  1.0 0.1202644645
H  H53  1  0.72220000  0.13220000  0.48230000  1.0 0.1113820617
H  H54  1  0.27780000  0.86780000  0.51770000  1.0 0.1113820617
H  H55  1  0.74610000  0.25580000  0.55010000  1.0 0.1202644645
H  H56  1  0.25390000  0.74420000  0.44990000  1.0 0.1202644645
H  H57  1  0.40380000  0.16090000  0.77370000  1.0 0.1293396039
H  H58  1  0.59620000  0.83910000  0.22630000  1.0 0.1293396039
H  H59  1  0.23320000  0.07090000  0.80620000  1.0 0.1410866716
H  H60  1  0.76680000  0.92910000  0.19380000  1.0 0.1410866716
H  H61  1  0.14580000  0.06960000  0.76610000  1.0 0.1410866716
H  H62  1  0.85420000  0.93040000  0.23390000  1.0 0.1410866716
H  H63  1  0.19330000  0.00550000  0.74870000  1.0 0.1410866716
H  H64  1  0.80670000  0.99450000  0.25130000  1.0 0.1410866716
H  H65  1  0.17350000  0.15670000  0.67160000  1.0 0.1202644645
H  H66  1  0.82650000  0.84330000  0.32840000  1.0 0.1202644645
H  H67  1  0.28460000  0.28330000  0.61320000  1.0 0.1202644645
H  H68  1  0.71540000  0.71670000  0.38680000  1.0 0.1202644645
H  H69  1  0.45520000  0.35000000  0.63540000  1.0 0.1113820617
H  H70  1  0.54480000  0.65000000  0.36460000  1.0 0.1113820617
H  H71  1  0.71430000  0.66200000  0.79150000  1.0 0.1293396039
H  H72  1  0.28570000  0.33800000  0.20850000  1.0 0.1293396039
H  H73  1  0.71850000  0.81870000  0.80810000  1.0 0.1293396039
H  H74  1  0.28150000  0.18130000  0.19190000  1.0 0.1410866716
H  H75  1  0.61720000  0.77800000  0.83730000  1.0 0.1410866716
H  H76  1  0.38280000  0.22200000  0.16270000  1.0 0.1410866716
H  H77  1  0.71300000  0.85170000  0.87280000  1.0 0.1500729197
H  H78  1  0.28700000  0.14830000  0.12720000  1.0 0.1500729197
H  H79  1  0.69390000  0.74590000  0.95920000  1.0 0.1202644645
H  H80  1  0.30610000  0.25410000  0.04080000  1.0 0.1202644645
H  H81  1  0.71110000  0.61600000  0.00040000  1.0 0.1113820617
H  H82  1  0.28890000  0.38400000  0.99960000  1.0 0.1113820617
H  H83  1  0.72740000  0.50600000  0.93740000  1.0 0.1293396039
H  H84  1  0.27260000  0.49400000  0.06260000  1.0 0.1293396039
H  H85  1  0.32000000  0.06620000  0.58720000  1.0 0.1293396039
H  H86  1  0.68000000  0.93380000  0.41280000  1.0 0.1293396039
H  H87  1  0.48330000  0.12320000  0.63700000  1.0 0.1293396039
H  H88  1  0.51670000  0.87680000  0.36300000  1.0 0.1293396039
H  H89  1  0.50410000  0.06070000  0.68540000  1.0 0.1410866716
H  H90  1  0.49590000  0.93930000  0.31460000  1.0 0.1410866716
H  H91  1  0.49910000  0.03680000  0.61730000  1.0 0.1410866716
H  H92  1  0.50090000  0.96320000  0.38270000  1.0 0.1410866716
H  H93  1  0.37060000  0.90070000  0.71150000  1.0 0.1202644645
H  H94  1  0.62940000  0.09930000  0.28850000  1.0 0.1202644645
H  H95  1  0.20000000  0.79710000  0.71420000  1.0 0.1113820617
H  H96  1  0.80000000  0.20290000  0.28580000  1.0 0.1113820617
H  H97  1  0.08890000  0.82590000  0.65020000  1.0 0.1202644645
H  H98  1  0.91110000  0.17410000  0.34980000  1.0 0.1202644645
H  H99  1  0.09840000  0.96440000  0.30740000  1.0 0.1293396039
H  H100  1  0.90160000  0.03560000  0.69260000  1.0 0.1293396039
H  H101  1  0.17760000  0.95730000  0.21420000  1.0 0.1410866716
H  H102  1  0.82240000  0.04270000  0.78580000  1.0 0.1410866716
H  H103  1  0.14700000  0.85850000  0.18270000  1.0 0.1500729197
H  H104  1  0.85300000  0.14150000  0.81730000  1.0 0.1500729197
H  H105  1  0.07970000  0.90800000  0.17430000  1.0 0.1500729197
H  H106  1  0.92030000  0.09200000  0.82570000  1.0 0.1500729197
H  H107  1  0.02240000  0.70780000  0.22390000  1.0 0.1202644645
H  H108  1  0.97760000  0.29220000  0.77610000  1.0 0.1202644645
H  H109  1  0.93740000  0.62530000  0.30790000  1.0 0.1113820617
H  H110  1  0.06260000  0.37470000  0.69210000  1.0 0.1113820617
H  H111  1  0.93240000  0.71110000  0.39140000  1.0 0.1202644645
H  H112  1  0.06760000  0.28890000  0.60860000  1.0 0.1202644645
Ru  Ru1  1  0.93816000  0.01376000  0.97816000  1.0 0.8416641825
Ru  Ru2  1  0.06184000  0.98624000  0.02184000  1.0 0.8416641825
Ru  Ru3  1  0.73479000  0.33041000  0.78405000  1.0 0.8308961117
Ru  Ru4  1  0.26521000  0.66959000  0.21595000  1.0 0.8308961117
Ru  Ru5  1  0.75830000  0.43371000  0.70493000  1.0 0.8308961117
Ru  Ru6  1  0.24170000  0.56629000  0.29507000  1.0 0.8308961117
Ru  Ru7  1  0.93561000  0.93138000  0.51733000  1.0 0.8416641825
Ru  Ru8  1  0.06439000  0.06862000  0.48267000  1.0 0.8416641825
C  C1  1  0.12880000  0.14200000  0.93570000  1.0 0.5206171794
C  C2  1  0.87120000  0.85800000  0.06430000  1.0 0.5206171794
C  C3  1  0.19900000  0.21830000  0.89672000  1.0 -0.0291028952
C  C4  1  0.80100000  0.78170000  0.10328000  1.0 -0.0291028952
C  C5  1  0.30030000  0.24540000  0.90312000  1.0 -0.1814577407
C  C6  1  0.69970000  0.75460000  0.09688000  1.0 -0.1814577407
C  C7  1  0.36730000  0.31700000  0.86690000  1.0 0.1779642039
C  C8  1  0.63270000  0.68300000  0.13310000  1.0 0.1779642039
C  C9  1  0.47620000  0.34780000  0.87450000  1.0 -0.4592947887
C  C10  1  0.52380000  0.65220000  0.12550000  1.0 -0.4592947887
C  C11  1  0.33080000  0.35960000  0.82320000  1.0 -0.1441656774
C  C12  1  0.66920000  0.64040000  0.17680000  1.0 -0.1441656774
C  C13  1  0.23120000  0.33220000  0.81630000  1.0 -0.0982124894
C  C14  1  0.76880000  0.66780000  0.18370000  1.0 -0.0982124894
C  C15  1  0.16500000  0.26230000  0.85340000  1.0 -0.1090736435
C  C16  1  0.83500000  0.73770000  0.14660000  1.0 -0.1090736435
C  C17  1  0.97740000  0.88330000  0.90977000  1.0 0.5267606938
C  C18  1  0.02260000  0.11670000  0.09023000  1.0 0.5267606938
C  C19  1  0.97080000  0.82430000  0.85680000  1.0 -0.0291028952
C  C20  1  0.02920000  0.17570000  0.14320000  1.0 -0.0291028952
C  C21  1  0.93060000  0.83770000  0.80174000  1.0 -0.1623040861
C  C22  1  0.06940000  0.16230000  0.19826000  1.0 -0.1623040861
C  C23  1  0.92440000  0.78390000  0.75103000  1.0 0.1707084749
C  C24  1  0.07560000  0.21610000  0.24897000  1.0 0.1707084749
C  C25  1  0.87770000  0.79530000  0.69208000  1.0 -0.4688507221
C  C26  1  0.12230000  0.20470000  0.30792000  1.0 -0.4688507221
C  C27  1  0.96050000  0.71730000  0.75637000  1.0 -0.1441656774
C  C28  1  0.03950000  0.28270000  0.24363000  1.0 -0.1441656774
C  C29  1  0.00100000  0.70410000  0.81110000  1.0 -0.0900940462
C  C30  1  0.99900000  0.29590000  0.18890000  1.0 -0.0900940462
C  C31  1  0.00630000  0.75750000  0.86149000  1.0 -0.1090736435
C  C32  1  0.99370000  0.24250000  0.13851000  1.0 -0.1090736435
C  C33  1  0.75260000  0.05890000  0.93595000  1.0 0.2831022664
C  C34  1  0.24740000  0.94110000  0.06405000  1.0 0.2831022664
C  C35  1  0.68210000  0.09250000  0.93372000  1.0 -0.0900940462
C  C36  1  0.31790000  0.90750000  0.06628000  1.0 -0.0900940462
C  C37  1  0.70230000  0.17150000  0.89494000  1.0 0.2906206423
C  C38  1  0.29770000  0.82850000  0.10506000  1.0 0.2906206423
C  C39  1  0.59290000  0.04660000  0.96685000  1.0 -0.0291028952
C  C40  1  0.40710000  0.95340000  0.03315000  1.0 -0.0291028952
C  C41  1  0.54450000  0.94760000  0.97957000  1.0 0.1113820617
C  C42  1  0.45550000  0.05240000  0.02043000  1.0 0.1037261062
C  C43  1  0.45360000  0.90100000  0.01113000  1.0 0.1202644645
C  C44  1  0.54640000  0.09900000  0.98887000  1.0 0.1202644645
C  C45  1  0.93990000  0.46100000  0.76619000  1.0 0.5206171794
C  C46  1  0.06010000  0.53900000  0.23381000  1.0 0.5206171794
C  C47  1  0.04870000  0.50560000  0.77816000  1.0 -0.0291028952
C  C48  1  0.95130000  0.49440000  0.22184000  1.0 -0.0291028952
C  C49  1  0.08820000  0.49200000  0.83389000  1.0 -0.1814577407
C  C50  1  0.91180000  0.50800000  0.16611000  1.0 -0.1814577407
C  C51  1  0.18910000  0.53510000  0.84698000  1.0 0.1707084749
C  C52  1  0.81090000  0.46490000  0.15302000  1.0 0.1707084749
C  C53  1  0.23250000  0.52410000  0.90760000  1.0 -0.4378335751
C  C54  1  0.76750000  0.47590000  0.09240000  1.0 -0.4378335751
C  C55  1  0.25160000  0.59120000  0.80220000  1.0 -0.1623040861
C  C56  1  0.74840000  0.40880000  0.19780000  1.0 -0.1623040861
C  C57  1  0.21350000  0.60550000  0.74660000  1.0 -0.1090736435
C  C58  1  0.78650000  0.39450000  0.25340000  1.0 -0.1090736435
C  C59  1  0.11200000  0.56340000  0.73450000  1.0 -0.1341440207
C  C60  1  0.88800000  0.43660000  0.26550000  1.0 -0.1341440207
C  C61  1  0.74590000  0.25210000  0.66987000  1.0 0.5267606938
C  C62  1  0.25410000  0.74790000  0.33013000  1.0 0.5267606938
C  C63  1  0.73490000  0.17690000  0.62678000  1.0 -0.0291028952
C  C64  1  0.26510000  0.82310000  0.37322000  1.0 -0.0291028952
C  C65  1  0.71970000  0.08570000  0.64781000  1.0 -0.171028043
C  C66  1  0.28030000  0.91430000  0.35219000  1.0 -0.171028043
C  C67  1  0.70520000  0.01220000  0.60799000  1.0 0.1779642039
C  C68  1  0.29480000  0.98780000  0.39201000  1.0 0.1779642039
C  C69  1  0.68640000  0.91370000  0.63050000  1.0 -0.4527000128
C  C70  1  0.31360000  0.08630000  0.36950000  1.0 -0.4527000128
C  C71  1  0.70670000  0.03130000  0.54650000  1.0 -0.1496580021
C  C72  1  0.29330000  0.96870000  0.45350000  1.0 -0.1496580021
C  C73  1  0.72250000  0.12110000  0.52492000  1.0 -0.0900940462
C  C74  1  0.27750000  0.87890000  0.47508000  1.0 -0.0900940462
C  C75  1  0.73630000  0.19400000  0.56491000  1.0 -0.1214258225
C  C76  1  0.26370000  0.80600000  0.43509000  1.0 -0.1214258225
C  C77  1  0.55360000  0.30430000  0.72141000  1.0 0.5267606938
C  C78  1  0.44640000  0.69570000  0.27859000  1.0 0.5267606938
C  C79  1  0.44500000  0.26190000  0.70763000  1.0 -0.0291028952
C  C80  1  0.55500000  0.73810000  0.29237000  1.0 -0.0291028952
C  C81  1  0.37930000  0.18630000  0.74134000  1.0 -0.1623040861
C  C82  1  0.62070000  0.81370000  0.25866000  1.0 -0.1623040861
C  C83  1  0.27740000  0.14700000  0.72920000  1.0 0.1779642039
C  C84  1  0.72260000  0.85300000  0.27080000  1.0 0.1779642039
C  C85  1  0.20600000  0.06600000  0.76560000  1.0 -0.4592947887
C  C86  1  0.79400000  0.93400000  0.23440000  1.0 -0.4592947887
C  C87  1  0.24300000  0.18360000  0.68090000  1.0 -0.1441656774
C  C88  1  0.75700000  0.81640000  0.31910000  1.0 -0.1441656774
C  C89  1  0.30890000  0.25880000  0.64630000  1.0 -0.0841415948
C  C90  1  0.69110000  0.74120000  0.35370000  1.0 -0.0841415948
C  C91  1  0.40980000  0.29830000  0.65920000  1.0 -0.1214258225
C  C92  1  0.59020000  0.70170000  0.34080000  1.0 -0.1214258225
C  C93  1  0.73500000  0.50700000  0.81773000  1.0 0.5267606938
C  C94  1  0.26500000  0.49300000  0.18227000  1.0 0.5267606938
C  C95  1  0.72370000  0.57460000  0.85866000  1.0 -0.0291028952
C  C96  1  0.27630000  0.42540000  0.14134000  1.0 -0.0291028952
C  C97  1  0.71310000  0.65260000  0.83397000  1.0 -0.171028043
C  C98  1  0.28690000  0.34740000  0.16603000  1.0 -0.171028043
C  C99  1  0.70110000  0.71670000  0.87110000  1.0 0.1779642039
C  C100  1  0.29890000  0.28330000  0.12890000  1.0 0.1779642039
C  C101  1  0.68680000  0.79910000  0.84500000  1.0 -0.4527000128
C  C102  1  0.31320000  0.20090000  0.15500000  1.0 -0.4527000128
C  C103  1  0.70130000  0.70240000  0.93325000  1.0 -0.1441656774
C  C104  1  0.29870000  0.29760000  0.06675000  1.0 -0.1441656774
C  C105  1  0.71130000  0.62480000  0.95775000  1.0 -0.0982124894
C  C106  1  0.28870000  0.37520000  0.04225000  1.0 -0.0982124894
C  C107  1  0.72160000  0.56000000  0.92062000  1.0 -0.1214258225
C  C108  1  0.27840000  0.44000000  0.07938000  1.0 -0.1214258225
C  C109  1  0.74380000  0.56910000  0.59502000  1.0 0.2831022664
C  C110  1  0.25620000  0.43090000  0.40498000  1.0 0.2831022664
C  C111  1  0.70120000  0.61230000  0.55591000  1.0 -0.1090736435
C  C112  1  0.29880000  0.38770000  0.44409000  1.0 -0.1090736435
C  C113  1  0.75880000  0.71260000  0.54962000  1.0 0.2831022664
C  C114  1  0.24120000  0.28740000  0.45038000  1.0 0.2831022664
C  C115  1  0.60290000  0.55730000  0.52752000  1.0 -0.0291028952
C  C116  1  0.39710000  0.44270000  0.47248000  1.0 -0.0291028952
C  C117  1  0.55540000  0.45520000  0.52191000  1.0 0.1113820617
C  C118  1  0.44460000  0.54480000  0.47809000  1.0 0.1113820617
C  C119  1  0.45530000  0.39950000  0.49504000  1.0 0.1113820617
C  C120  1  0.54470000  0.60050000  0.50496000  1.0 0.1113820617
C  C121  1  0.12490000  0.96610000  0.57129000  1.0 0.5206171794
C  C122  1  0.87510000  0.03390000  0.42871000  1.0 0.5206171794
C  C123  1  0.19460000  0.94860000  0.61225000  1.0 -0.0291028952
C  C124  1  0.80540000  0.05140000  0.38775000  1.0 -0.0291028952
C  C125  1  0.29570000  0.01080000  0.61232000  1.0 -0.1623040861
C  C126  1  0.70430000  0.98920000  0.38768000  1.0 -0.1623040861
C  C127  1  0.36260000  0.99260000  0.64903000  1.0 0.1707084749
C  C128  1  0.63740000  0.00740000  0.35097000  1.0 0.1707084749
C  C129  1  0.47200000  0.05890000  0.64730000  1.0 -0.4527000128
C  C130  1  0.52800000  0.94110000  0.35270000  1.0 -0.4527000128
C  C131  1  0.32510000  0.91320000  0.68630000  1.0 -0.1496580021
C  C132  1  0.67490000  0.08680000  0.31370000  1.0 -0.1496580021
C  C133  1  0.22370000  0.85140000  0.68790000  1.0 -0.1090736435
C  C134  1  0.77630000  0.14860000  0.31210000  1.0 -0.1090736435
C  C135  1  0.15820000  0.86870000  0.65023000  1.0 -0.1090736435
C  C136  1  0.84180000  0.13130000  0.34977000  1.0 -0.1090736435
C  C137  1  0.01340000  0.90090000  0.40950000  1.0 0.5267606938
C  C138  1  0.98660000  0.09910000  0.59050000  1.0 0.5267606938
C  C139  1  0.01550000  0.84550000  0.35683000  1.0 -0.0291028952
C  C140  1  0.98450000  0.15450000  0.64317000  1.0 -0.0291028952
C  C141  1  0.06590000  0.89520000  0.30692000  1.0 -0.171028043
C  C142  1  0.93410000  0.10480000  0.69308000  1.0 -0.171028043
C  C143  1  0.06880000  0.84490000  0.25624000  1.0 0.1779642039
C  C144  1  0.93120000  0.15510000  0.74376000  1.0 0.1779642039
C  C145  1  0.12320000  0.89730000  0.20199000  1.0 -0.4688507221
C  C146  1  0.87680000  0.10270000  0.79801000  1.0 -0.4688507221
C  C147  1  0.02080000  0.74400000  0.25745000  1.0 -0.1496580021
C  C148  1  0.97920000  0.25600000  0.74255000  1.0 -0.1496580021
C  C149  1  0.97040000  0.69460000  0.30787000  1.0 -0.0900940462
C  C150  1  0.02960000  0.30540000  0.69213000  1.0 -0.0900940462
C  C151  1  0.96730000  0.74500000  0.35716000  1.0 -0.1090736435
C  C152  1  0.03270000  0.25500000  0.64284000  1.0 -0.1090736435
S  S1  1  0.49283000  0.77784000  0.98225000  1.0 0.3387480253
S  S2  1  0.50717000  0.22216000  0.01775000  1.0 0.3387480253
S  S3  1  0.51783000  0.28877000  0.52111000  1.0 0.3971003019
S  S4  1  0.48217000  0.71123000  0.47889000  1.0 0.3971003019
N  N1  1  0.81290000  0.03420000  0.93841000  1.0 -0.3680021292
N  N2  1  0.18710000  0.96580000  0.06159000  1.0 -0.3680021292
N  N3  1  0.57480000  0.88250000  0.96092000  1.0 -0.3498919334
N  N4  1  0.42520000  0.11750000  0.03908000  1.0 -0.3498919334
N  N5  1  0.41740000  0.80340000  0.01543000  1.0 -0.3498919334
N  N6  1  0.58260000  0.19660000  0.98457000  1.0 -0.3498919334
N  N7  1  0.71870000  0.23320000  0.86177000  1.0 -0.3680021292
N  N8  1  0.28130000  0.76680000  0.13823000  1.0 -0.3680021292
N  N9  1  0.77960000  0.53510000  0.62805000  1.0 -0.3576684273
N  N10  1  0.22040000  0.46490000  0.37195000  1.0 -0.3576684273
N  N11  1  0.59800000  0.39830000  0.53811000  1.0 -0.3311047829
N  N12  1  0.40200000  0.60170000  0.46189000  1.0 -0.3311047829
N  N13  1  0.42640000  0.30250000  0.49232000  1.0 -0.3498919334
N  N14  1  0.57360000  0.69750000  0.50768000  1.0 -0.3498919334
N  N15  1  0.81000000  0.79480000  0.54648000  1.0 -0.3680021292
N  N16  1  0.19000000  0.20520000  0.45352000  1.0 -0.3680021292
O  O1  1  0.03828000  0.12374000  0.93030000  1.0 -0.4527000128
O  O2  1  0.96172000  0.87626000  0.06970000  1.0 -0.4527000128
O  O3  1  0.16029000  0.09745000  0.97249000  1.0 -0.4592947887
O  O4  1  0.83971000  0.90255000  0.02751000  1.0 -0.4592947887
O  O5  1  0.92201000  0.92401000  0.90964000  1.0 -0.4527000128
O  O6  1  0.07799000  0.07599000  0.09036000  1.0 -0.4527000128
O  O7  1  0.04029000  0.89350000  0.95333000  1.0 -0.4527000128
O  O8  1  0.95971000  0.10650000  0.04667000  1.0 -0.4527000128
O  O9  1  0.88424000  0.39292000  0.80021000  1.0 -0.4527000128
O  O10  1  0.11576000  0.60708000  0.19979000  1.0 -0.4527000128
O  O11  1  0.90669000  0.49182000  0.72158000  1.0 -0.4527000128
O  O12  1  0.09331000  0.50818000  0.27842000  1.0 -0.4527000128
O  O13  1  0.73669000  0.23223000  0.72610000  1.0 -0.4592947887
O  O14  1  0.26331000  0.76777000  0.27390000  1.0 -0.4592947887
O  O15  1  0.76105000  0.33470000  0.64885000  1.0 -0.4527000128
O  O16  1  0.23895000  0.66530000  0.35115000  1.0 -0.4527000128
O  O17  1  0.58575000  0.27124000  0.76571000  1.0 -0.4592947887
O  O18  1  0.41425000  0.72876000  0.23429000  1.0 -0.4592947887
O  O19  1  0.61063000  0.37346000  0.68829000  1.0 -0.4527000128
O  O20  1  0.38937000  0.62654000  0.31171000  1.0 -0.4527000128
O  O21  1  0.72898000  0.42801000  0.83990000  1.0 -0.4527000128
O  O22  1  0.27102000  0.57199000  0.16010000  1.0 -0.4527000128
O  O23  1  0.74932000  0.52824000  0.76219000  1.0 -0.4592947887
O  O24  1  0.25068000  0.47176000  0.23781000  1.0 -0.4592947887
O  O25  1  0.03264000  0.90587000  0.57086000  1.0 -0.4592947887
O  O26  1  0.96736000  0.09413000  0.42914000  1.0 -0.4592947887
O  O27  1  0.15952000  0.04069000  0.53680000  1.0 -0.4592947887
O  O28  1  0.84048000  0.95931000  0.46320000  1.0 -0.4592947887
O  O29  1  0.94901000  0.85585000  0.44851000  1.0 -0.4592947887
O  O30  1  0.05099000  0.14415000  0.55149000  1.0 -0.4592947887
O  O31  1  0.07429000  0.99104000  0.41411000  1.0 -0.4527000128
O  O32  1  0.92571000  0.00896000  0.58589000  1.0 -0.4527000128
