# DDEC6 charges by PACMAN v1.1 (https://github.com/mtap-research/PACMAN-charge/)
data_EHIPOC_ASR_pacman
_symmetry_space_group_name_H-M   'P 1'
_cell_length_a   8.12190000
_cell_length_b   11.09820000
_cell_length_c   13.76490000
_cell_angle_alpha   91.39040000
_cell_angle_beta   100.82100000
_cell_angle_gamma   103.37800000
_symmetry_Int_Tables_number   1
_chemical_formula_structural   Cu4(CN)7
_chemical_formula_sum   'Cu8 C14 N14'
_cell_volume   1182.63583929
_cell_formula_units_Z   2
loop_
 _symmetry_equiv_pos_site_id
 _symmetry_equiv_pos_as_xyz
  1  'x, y, z'
loop_
 _atom_site_type_symbol
 _atom_site_label
 _atom_site_symmetry_multiplicity
 _atom_site_fract_x
 _atom_site_fract_y
 _atom_site_fract_z
 _atom_site_occupancy
 _atom_site_charge
Cu  Cu1  1  0.46833000  0.99906000  0.81208000  1.0 0.1433652751
Cu  Cu2  1  0.33611000  0.15503000  0.71717000  1.0 0.410268154
Cu  Cu3  1  0.85050000  0.78273000  0.64588000  1.0 0.410268154
Cu  Cu4  1  0.94352000  0.40419000  0.82246000  1.0 0.5162770488
Cu  Cu5  1  0.53167000  0.00094000  0.18792000  1.0 0.1473182105
Cu  Cu6  1  0.66389000  0.84497000  0.28283000  1.0 0.410268154
Cu  Cu7  1  0.14950000  0.21727000  0.35412000  1.0 0.410268154
Cu  Cu8  1  0.05648000  0.59581000  0.17754000  1.0 0.5162770488
C  C1  1  0.21887000  0.96601000  0.73889000  1.0 0.0576605164
C  C2  1  0.58164000  0.20069000  0.77596000  1.0 0.0576605164
C  C3  1  0.60383000  0.90369000  0.75731000  1.0 0.0970518515
C  C4  1  0.21639000  0.18647000  0.49155000  1.0 0.0576605164
C  C5  1  0.11756000  0.32415000  0.79424000  1.0 0.0576605164
C  C6  1  0.86314000  0.62314000  0.69228000  1.0 0.0804717597
C  C7  1  0.98420000  0.47472000  0.95555000  1.0 -0.1755620353
C  C8  1  0.78113000  0.03399000  0.26111000  1.0 0.0576605164
C  C9  1  0.41836000  0.79931000  0.22404000  1.0 0.0576605164
C  C10  1  0.39617000  0.09631000  0.24269000  1.0 0.0970518515
C  C11  1  0.78361000  0.81353000  0.50845000  1.0 0.0576605164
C  C12  1  0.88244000  0.67585000  0.20576000  1.0 0.0576605164
C  C13  1  0.13686000  0.37686000  0.30772000  1.0 0.0804717597
C  C14  1  0.01580000  0.52528000  0.04445000  1.0 -0.1712061129
N  N1  1  0.49133000  0.00466000  0.95851000  1.0 0.0451266868
N  N2  1  0.26454000  0.16953000  0.57537000  1.0 -0.2835685349
N  N3  1  0.20732000  0.26163000  0.77480000  1.0 -0.2835685349
N  N4  1  0.08069000  0.89993000  0.70868000  1.0 -0.2646786086
N  N5  1  0.69122000  0.85207000  0.72135000  1.0 -0.305272948
N  N6  1  0.72034000  0.26829000  0.79871000  1.0 -0.2896008156
N  N7  1  0.88807000  0.53487000  0.73342000  1.0 -0.3327154479
N  N8  1  0.50867000  0.99534000  0.04149000  1.0 0.0411222428
N  N9  1  0.73546000  0.83047000  0.42463000  1.0 -0.2835685349
N  N10  1  0.79268000  0.73837000  0.22520000  1.0 -0.2835685349
N  N11  1  0.91931000  0.10007000  0.29132000  1.0 -0.2659911625
N  N12  1  0.30878000  0.14793000  0.27865000  1.0 -0.305272948
N  N13  1  0.27966000  0.73171000  0.20129000  1.0 -0.2896008156
N  N14  1  0.11193000  0.46513000  0.26658000  1.0 -0.3327154479
