# DDEC6 charges by PACMAN v1.1 (https://github.com/mtap-research/PACMAN-charge/)
data_EHUCOA_ASR_pacman
_symmetry_space_group_name_H-M   'P 1'
_cell_length_a   11.63350000
_cell_length_b   16.79610000
_cell_length_c   18.15750000
_cell_angle_alpha   90.00000000
_cell_angle_beta   90.00000000
_cell_angle_gamma   90.00000000
_symmetry_Int_Tables_number   1
_chemical_formula_structural   Mn3Cr2H24(C7N3)6
_chemical_formula_sum   'Mn6 Cr4 H48 C84 N36'
_cell_volume   3547.92882342
_cell_formula_units_Z   2
loop_
 _symmetry_equiv_pos_site_id
 _symmetry_equiv_pos_as_xyz
  1  'x, y, z'
loop_
 _atom_site_type_symbol
 _atom_site_label
 _atom_site_symmetry_multiplicity
 _atom_site_fract_x
 _atom_site_fract_y
 _atom_site_fract_z
 _atom_site_occupancy
 _atom_site_charge
Mn  Mn1  1  0.50000000  0.10974000  0.81566000  1.0 0.7577141762
Mn  Mn2  1  0.50000000  0.89026000  0.18434000  1.0 0.7577141762
Mn  Mn3  1  0.50000000  0.60974000  0.68434000  1.0 0.7577141762
Mn  Mn4  1  0.50000000  0.39026000  0.31566000  1.0 0.7577141762
Mn  Mn5  1  0.50000000  0.50000000  0.00000000  1.0 0.7349832446
Mn  Mn6  1  0.50000000  0.00000000  0.50000000  1.0 0.7413889557
Cr  Cr1  1  0.50000000  0.19640000  0.09904000  1.0 0.6355707437
Cr  Cr2  1  0.50000000  0.80360000  0.90096000  1.0 0.6355707437
Cr  Cr3  1  0.50000000  0.69640000  0.40096000  1.0 0.6355707437
Cr  Cr4  1  0.50000000  0.30360000  0.59904000  1.0 0.6345945984
H  H1  1  0.28580000  0.17090000  0.72370000  1.0 0.1103465312
H  H2  1  0.28580000  0.82910000  0.27630000  1.0 0.1103465312
H  H3  1  0.71420000  0.67090000  0.77630000  1.0 0.1103465312
H  H4  1  0.71420000  0.32910000  0.22370000  1.0 0.1103465312
H  H5  1  0.71420000  0.82910000  0.27630000  1.0 0.1103465312
H  H6  1  0.71420000  0.17090000  0.72370000  1.0 0.1103465312
H  H7  1  0.28580000  0.32910000  0.22370000  1.0 0.1103465312
H  H8  1  0.28580000  0.67090000  0.77630000  1.0 0.1103465312
H  H9  1  0.08780000  0.16910000  0.71870000  1.0 0.1398605179
H  H10  1  0.08780000  0.83090000  0.28130000  1.0 0.1398605179
H  H11  1  0.91220000  0.66910000  0.78130000  1.0 0.1398605179
H  H12  1  0.91220000  0.33090000  0.21870000  1.0 0.1398605179
H  H13  1  0.91220000  0.83090000  0.28130000  1.0 0.1398605179
H  H14  1  0.91220000  0.16910000  0.71870000  1.0 0.1398605179
H  H15  1  0.08780000  0.33090000  0.21870000  1.0 0.1398605179
H  H16  1  0.08780000  0.66910000  0.78130000  1.0 0.1398605179
H  H17  1  0.08980000  0.03990000  0.90300000  1.0 0.1398605179
H  H18  1  0.08980000  0.96010000  0.09700000  1.0 0.1398605179
H  H19  1  0.91020000  0.53990000  0.59700000  1.0 0.1398605179
H  H20  1  0.91020000  0.46010000  0.40300000  1.0 0.1398605179
H  H21  1  0.91020000  0.96010000  0.09700000  1.0 0.1398605179
H  H22  1  0.91020000  0.03990000  0.90300000  1.0 0.1398605179
H  H23  1  0.08980000  0.46010000  0.40300000  1.0 0.1398605179
H  H24  1  0.08980000  0.53990000  0.59700000  1.0 0.1398605179
H  H25  1  0.28740000  0.04640000  0.90290000  1.0 0.1182938755
H  H26  1  0.28740000  0.95360000  0.09710000  1.0 0.1182938755
H  H27  1  0.71260000  0.54640000  0.59710000  1.0 0.1182938755
H  H28  1  0.71260000  0.45360000  0.40290000  1.0 0.1182938755
H  H29  1  0.71260000  0.95360000  0.09710000  1.0 0.1182938755
H  H30  1  0.71260000  0.04640000  0.90290000  1.0 0.1182938755
H  H31  1  0.28740000  0.45360000  0.40290000  1.0 0.1182938755
H  H32  1  0.28740000  0.54640000  0.59710000  1.0 0.1182938755
H  H33  1  0.28390000  0.42440000  0.07860000  1.0 0.1182938755
H  H34  1  0.28390000  0.57560000  0.92140000  1.0 0.1182938755
H  H35  1  0.71610000  0.92440000  0.42140000  1.0 0.1182938755
H  H36  1  0.71610000  0.07560000  0.57860000  1.0 0.1182938755
H  H37  1  0.71610000  0.57560000  0.92140000  1.0 0.1182938755
H  H38  1  0.71610000  0.42440000  0.07860000  1.0 0.1182938755
H  H39  1  0.28390000  0.07560000  0.57860000  1.0 0.1182938755
H  H40  1  0.28390000  0.92440000  0.42140000  1.0 0.1182938755
H  H41  1  0.08670000  0.42290000  0.08130000  1.0 0.133116895
H  H42  1  0.08670000  0.57710000  0.91870000  1.0 0.133116895
H  H43  1  0.91330000  0.92290000  0.41870000  1.0 0.133116895
H  H44  1  0.91330000  0.07710000  0.58130000  1.0 0.133116895
H  H45  1  0.91330000  0.57710000  0.91870000  1.0 0.133116895
H  H46  1  0.91330000  0.42290000  0.08130000  1.0 0.133116895
H  H47  1  0.08670000  0.07710000  0.58130000  1.0 0.133116895
H  H48  1  0.08670000  0.92290000  0.41870000  1.0 0.133116895
C  C1  1  0.32110000  0.19800000  0.09770000  1.0 -0.1803714991
C  C2  1  0.32110000  0.80200000  0.90230000  1.0 -0.1803714991
C  C3  1  0.67890000  0.69800000  0.40230000  1.0 -0.1803714991
C  C4  1  0.67890000  0.30200000  0.59770000  1.0 -0.1803714991
C  C5  1  0.67890000  0.80200000  0.90230000  1.0 -0.1803714991
C  C6  1  0.67890000  0.19800000  0.09770000  1.0 -0.1803714991
C  C7  1  0.32110000  0.30200000  0.59770000  1.0 -0.1803714991
C  C8  1  0.32110000  0.69800000  0.40230000  1.0 -0.1803714991
C  C9  1  0.50000000  0.16130000  0.98960000  1.0 0.0030405299
C  C10  1  0.50000000  0.83870000  0.01040000  1.0 0.0030405299
C  C11  1  0.50000000  0.66130000  0.51040000  1.0 0.0030405299
C  C12  1  0.50000000  0.33870000  0.48960000  1.0 0.0030405299
C  C13  1  0.50000000  0.31290000  0.06310000  1.0 -0.0196653052
C  C14  1  0.50000000  0.68710000  0.93690000  1.0 -0.0196653052
C  C15  1  0.50000000  0.81290000  0.43690000  1.0 -0.0196653052
C  C16  1  0.50000000  0.18710000  0.56310000  1.0 -0.0196653052
C  C17  1  0.50000000  0.23950000  0.20500000  1.0 -0.0196653052
C  C18  1  0.50000000  0.76050000  0.79500000  1.0 -0.0196653052
C  C19  1  0.50000000  0.73950000  0.29500000  1.0 -0.0196653052
C  C20  1  0.50000000  0.26050000  0.70500000  1.0 -0.0196653052
C  C21  1  0.50000000  0.08110000  0.13550000  1.0 -0.0196653052
C  C22  1  0.50000000  0.91890000  0.86450000  1.0 -0.0196653052
C  C23  1  0.50000000  0.58110000  0.36450000  1.0 -0.0196653052
C  C24  1  0.50000000  0.41890000  0.63550000  1.0 -0.0196653052
C  C25  1  0.24560000  0.14390000  0.76040000  1.0 0.1001244277
C  C26  1  0.24560000  0.85610000  0.23960000  1.0 0.1001244277
C  C27  1  0.75440000  0.64390000  0.73960000  1.0 0.1001244277
C  C28  1  0.75440000  0.35610000  0.26040000  1.0 0.1001244277
C  C29  1  0.75440000  0.85610000  0.23960000  1.0 0.1001244277
C  C30  1  0.75440000  0.14390000  0.76040000  1.0 0.1001244277
C  C31  1  0.24560000  0.35610000  0.26040000  1.0 0.1001244277
C  C32  1  0.24560000  0.64390000  0.73960000  1.0 0.1001244277
C  C33  1  0.12600000  0.14330000  0.75690000  1.0 -0.1904094072
C  C34  1  0.12600000  0.85670000  0.24310000  1.0 -0.1904094072
C  C35  1  0.87400000  0.64330000  0.74310000  1.0 -0.1904094072
C  C36  1  0.87400000  0.35670000  0.25690000  1.0 -0.1904094072
C  C37  1  0.87400000  0.85670000  0.24310000  1.0 -0.1904094072
C  C38  1  0.87400000  0.14330000  0.75690000  1.0 -0.1904094072
C  C39  1  0.12600000  0.35670000  0.25690000  1.0 -0.1904094072
C  C40  1  0.12600000  0.64330000  0.74310000  1.0 -0.1904094072
C  C41  1  0.06490000  0.10380000  0.81090000  1.0 0.1182938755
C  C42  1  0.06490000  0.89620000  0.18910000  1.0 0.1182938755
C  C43  1  0.93510000  0.60380000  0.68910000  1.0 0.1182938755
C  C44  1  0.93510000  0.39620000  0.31090000  1.0 0.1182938755
C  C45  1  0.93510000  0.89620000  0.18910000  1.0 0.1182938755
C  C46  1  0.93510000  0.10380000  0.81090000  1.0 0.1182938755
C  C47  1  0.06490000  0.39620000  0.31090000  1.0 0.1182938755
C  C48  1  0.06490000  0.60380000  0.68910000  1.0 0.1182938755
C  C49  1  0.12750000  0.06730000  0.86560000  1.0 -0.1803714991
C  C50  1  0.12750000  0.93270000  0.13440000  1.0 -0.1803714991
C  C51  1  0.87250000  0.56730000  0.63440000  1.0 -0.1803714991
C  C52  1  0.87250000  0.43270000  0.36560000  1.0 -0.1803714991
C  C53  1  0.87250000  0.93270000  0.13440000  1.0 -0.1803714991
C  C54  1  0.87250000  0.06730000  0.86560000  1.0 -0.1803714991
C  C55  1  0.12750000  0.43270000  0.36560000  1.0 -0.1803714991
C  C56  1  0.12750000  0.56730000  0.63440000  1.0 -0.1803714991
C  C57  1  0.24680000  0.07100000  0.86510000  1.0 0.1103465312
C  C58  1  0.24680000  0.92900000  0.13490000  1.0 0.1103465312
C  C59  1  0.75320000  0.57100000  0.63490000  1.0 0.1103465312
C  C60  1  0.75320000  0.42900000  0.36510000  1.0 0.1103465312
C  C61  1  0.75320000  0.92900000  0.13490000  1.0 0.1103465312
C  C62  1  0.75320000  0.07100000  0.86510000  1.0 0.1103465312
C  C63  1  0.24680000  0.42900000  0.36510000  1.0 0.1103465312
C  C64  1  0.24680000  0.57100000  0.63490000  1.0 0.1103465312
C  C65  1  0.24440000  0.45650000  0.04540000  1.0 0.0909495742
C  C66  1  0.24440000  0.54350000  0.95460000  1.0 0.0909495742
C  C67  1  0.75560000  0.95650000  0.45460000  1.0 0.0909495742
C  C68  1  0.75560000  0.04350000  0.54540000  1.0 0.0909495742
C  C69  1  0.75560000  0.54350000  0.95460000  1.0 0.0909495742
C  C70  1  0.75560000  0.45650000  0.04540000  1.0 0.0909495742
C  C71  1  0.24440000  0.04350000  0.54540000  1.0 0.0909495742
C  C72  1  0.24440000  0.95650000  0.45460000  1.0 0.0909495742
C  C73  1  0.12440000  0.45500000  0.04730000  1.0 -0.1904094072
C  C74  1  0.12440000  0.54500000  0.95270000  1.0 -0.1957625955
C  C75  1  0.87560000  0.95500000  0.45270000  1.0 -0.1957625955
C  C76  1  0.87560000  0.04500000  0.54730000  1.0 -0.1904094072
C  C77  1  0.87560000  0.54500000  0.95270000  1.0 -0.1904094072
C  C78  1  0.87560000  0.45500000  0.04730000  1.0 -0.1904094072
C  C79  1  0.12440000  0.04500000  0.54730000  1.0 -0.1904094072
C  C80  1  0.12440000  0.95500000  0.45270000  1.0 -0.1957625955
C  C81  1  0.06310000  0.50000000  0.00000000  1.0 0.1182938755
C  C82  1  0.93690000  0.00000000  0.50000000  1.0 0.1182938755
C  C83  1  0.93690000  0.50000000  0.00000000  1.0 0.1182938755
C  C84  1  0.06310000  0.00000000  0.50000000  1.0 0.1182938755
N  N1  1  0.22150000  0.19910000  0.09540000  1.0 -0.323373875
N  N2  1  0.22150000  0.80090000  0.90460000  1.0 -0.323373875
N  N3  1  0.77850000  0.69910000  0.40460000  1.0 -0.323373875
N  N4  1  0.77850000  0.30090000  0.59540000  1.0 -0.323373875
N  N5  1  0.77850000  0.80090000  0.90460000  1.0 -0.323373875
N  N6  1  0.77850000  0.19910000  0.09540000  1.0 -0.323373875
N  N7  1  0.22150000  0.30090000  0.59540000  1.0 -0.323373875
N  N8  1  0.22150000  0.69910000  0.40460000  1.0 -0.323373875
N  N9  1  0.50000000  0.14550000  0.93040000  1.0 -0.3341817468
N  N10  1  0.50000000  0.85450000  0.06960000  1.0 -0.3341817468
N  N11  1  0.50000000  0.64550000  0.56960000  1.0 -0.3341817468
N  N12  1  0.50000000  0.35450000  0.43040000  1.0 -0.3341817468
N  N13  1  0.50000000  0.38010000  0.04750000  1.0 -0.3781486362
N  N14  1  0.50000000  0.61990000  0.95250000  1.0 -0.3781486362
N  N15  1  0.50000000  0.88010000  0.45250000  1.0 -0.3781486362
N  N16  1  0.50000000  0.11990000  0.54750000  1.0 -0.3781486362
N  N17  1  0.50000000  0.27300000  0.26120000  1.0 -0.3585146129
N  N18  1  0.50000000  0.72700000  0.73880000  1.0 -0.3585146129
N  N19  1  0.50000000  0.77300000  0.23880000  1.0 -0.3585146129
N  N20  1  0.50000000  0.22700000  0.76120000  1.0 -0.3585146129
N  N21  1  0.50000000  0.01750000  0.15700000  1.0 -0.3443243612
N  N22  1  0.50000000  0.98250000  0.84300000  1.0 -0.3443243612
N  N23  1  0.50000000  0.51750000  0.34300000  1.0 -0.3443243612
N  N24  1  0.50000000  0.48250000  0.65700000  1.0 -0.347111842
N  N25  1  0.30490000  0.10840000  0.81280000  1.0 -0.2091375705
N  N26  1  0.30490000  0.89160000  0.18720000  1.0 -0.2091375705
N  N27  1  0.69510000  0.60840000  0.68720000  1.0 -0.2091375705
N  N28  1  0.69510000  0.39160000  0.31280000  1.0 -0.2091375705
N  N29  1  0.69510000  0.89160000  0.18720000  1.0 -0.2091375705
N  N30  1  0.69510000  0.10840000  0.81280000  1.0 -0.2091375705
N  N31  1  0.30490000  0.39160000  0.31280000  1.0 -0.2091375705
N  N32  1  0.30490000  0.60840000  0.68720000  1.0 -0.2091375705
N  N33  1  0.30470000  0.50000000  0.00000000  1.0 -0.2154180318
N  N34  1  0.69530000  0.00000000  0.50000000  1.0 -0.2154180318
N  N35  1  0.69530000  0.50000000  0.00000000  1.0 -0.2154180318
N  N36  1  0.30470000  0.00000000  0.50000000  1.0 -0.2154180318
