# DDEC6 charges by PACMAN v1.1 (https://github.com/mtap-research/PACMAN-charge/)
data_EHUSUX_ASR_pacman
_symmetry_space_group_name_H-M   'P 1'
_cell_length_a   20.38300000
_cell_length_b   20.38300000
_cell_length_c   20.38300000
_cell_angle_alpha   53.89150000
_cell_angle_beta   53.89150000
_cell_angle_gamma   53.89150000
_symmetry_Int_Tables_number   1
_chemical_formula_structural   CuH19(C11O2)2
_chemical_formula_sum   'Cu6 H114 C132 O24'
_cell_volume   5133.38513125
_cell_formula_units_Z   6
loop_
 _symmetry_equiv_pos_site_id
 _symmetry_equiv_pos_as_xyz
  1  'x, y, z'
loop_
 _atom_site_type_symbol
 _atom_site_label
 _atom_site_symmetry_multiplicity
 _atom_site_fract_x
 _atom_site_fract_y
 _atom_site_fract_z
 _atom_site_occupancy
 _atom_site_charge
Cu  Cu1  1  0.49606000  0.49619000  0.06997000  1.0 0.9118317359
Cu  Cu2  1  0.49619000  0.06997000  0.49606000  1.0 0.9118317359
Cu  Cu3  1  0.06997000  0.49606000  0.49619000  1.0 0.9118317359
Cu  Cu4  1  0.50394000  0.50381000  0.93003000  1.0 0.9118317359
Cu  Cu5  1  0.50381000  0.93003000  0.50394000  1.0 0.9118317359
Cu  Cu6  1  0.93003000  0.50394000  0.50381000  1.0 0.9118317359
H  H1  1  0.55850000  0.21680000  0.21600000  1.0 0.1361212838
H  H2  1  0.21680000  0.21600000  0.55850000  1.0 0.1361212838
H  H3  1  0.21600000  0.55850000  0.21680000  1.0 0.1361212838
H  H4  1  0.44150000  0.78320000  0.78400000  1.0 0.1361212838
H  H5  1  0.78320000  0.78400000  0.44150000  1.0 0.1361212838
H  H6  1  0.78400000  0.44150000  0.78320000  1.0 0.1361212838
H  H7  1  0.53240000  0.23970000  0.02420000  1.0 0.1311180089
H  H8  1  0.23970000  0.02420000  0.53240000  1.0 0.1311180089
H  H9  1  0.02420000  0.53240000  0.23970000  1.0 0.1311180089
H  H10  1  0.46760000  0.76030000  0.97580000  1.0 0.1311180089
H  H11  1  0.76030000  0.97580000  0.46760000  1.0 0.1311180089
H  H12  1  0.97580000  0.46760000  0.76030000  1.0 0.1311180089
H  H13  1  0.61260000  0.91040000  0.04740000  1.0 0.0934337867
H  H14  1  0.91040000  0.04740000  0.61260000  1.0 0.0934337867
H  H15  1  0.04740000  0.61260000  0.91040000  1.0 0.0934337867
H  H16  1  0.38740000  0.08960000  0.95260000  1.0 0.0934337867
H  H17  1  0.08960000  0.95260000  0.38740000  1.0 0.0934337867
H  H18  1  0.95260000  0.38740000  0.08960000  1.0 0.0934337867
H  H19  1  0.42320000  0.18400000  0.06550000  1.0 0.1080191923
H  H20  1  0.18400000  0.06550000  0.42320000  1.0 0.1080191923
H  H21  1  0.06550000  0.42320000  0.18400000  1.0 0.1080191923
H  H22  1  0.57680000  0.81600000  0.93450000  1.0 0.1080191923
H  H23  1  0.81600000  0.93450000  0.57680000  1.0 0.1080191923
H  H24  1  0.93450000  0.57680000  0.81600000  1.0 0.1080191923
H  H25  1  0.67050000  0.97180000  0.13540000  1.0 0.1311180089
H  H26  1  0.97180000  0.13540000  0.67050000  1.0 0.1311180089
H  H27  1  0.13540000  0.67050000  0.97180000  1.0 0.1311180089
H  H28  1  0.32950000  0.02820000  0.86460000  1.0 0.1311180089
H  H29  1  0.02820000  0.86460000  0.32950000  1.0 0.1311180089
H  H30  1  0.86460000  0.32950000  0.02820000  1.0 0.1311180089
H  H31  1  0.66490000  0.88620000  0.15940000  1.0 0.1361212838
H  H32  1  0.88620000  0.15940000  0.66490000  1.0 0.1311180089
H  H33  1  0.15940000  0.66490000  0.88620000  1.0 0.1361212838
H  H34  1  0.33510000  0.11380000  0.84060000  1.0 0.1361212838
H  H35  1  0.11380000  0.84060000  0.33510000  1.0 0.1361212838
H  H36  1  0.84060000  0.33510000  0.11380000  1.0 0.1311180089
H  H37  1  0.72340000  0.93060000  0.06490000  1.0 0.1361212838
H  H38  1  0.93060000  0.06490000  0.72340000  1.0 0.1361212838
H  H39  1  0.06490000  0.72340000  0.93060000  1.0 0.1361212838
H  H40  1  0.27660000  0.06940000  0.93510000  1.0 0.1361212838
H  H41  1  0.06940000  0.93510000  0.27660000  1.0 0.1361212838
H  H42  1  0.93510000  0.27660000  0.06940000  1.0 0.1361212838
H  H43  1  0.39040000  0.13000000  0.95160000  1.0 0.0982931167
H  H44  1  0.13000000  0.95160000  0.39040000  1.0 0.0982931167
H  H45  1  0.95160000  0.39040000  0.13000000  1.0 0.0982931167
H  H46  1  0.60960000  0.87000000  0.04840000  1.0 0.0982931167
H  H47  1  0.87000000  0.04840000  0.60960000  1.0 0.0982931167
H  H48  1  0.04840000  0.60960000  0.87000000  1.0 0.0982931167
H  H49  1  0.33240000  0.17950000  0.01590000  1.0 0.1311180089
H  H50  1  0.17950000  0.01590000  0.33240000  1.0 0.1311180089
H  H51  1  0.01590000  0.33240000  0.17950000  1.0 0.1311180089
H  H52  1  0.66760000  0.82050000  0.98410000  1.0 0.1311180089
H  H53  1  0.82050000  0.98410000  0.66760000  1.0 0.1311180089
H  H54  1  0.98410000  0.66760000  0.82050000  1.0 0.1311180089
H  H55  1  0.40290000  0.21230000  0.92580000  1.0 0.1311180089
H  H56  1  0.21230000  0.92580000  0.40290000  1.0 0.1311180089
H  H57  1  0.92580000  0.40290000  0.21230000  1.0 0.1311180089
H  H58  1  0.59710000  0.78770000  0.07420000  1.0 0.1311180089
H  H59  1  0.78770000  0.07420000  0.59710000  1.0 0.1311180089
H  H60  1  0.07420000  0.59710000  0.78770000  1.0 0.1311180089
H  H61  1  0.53550000  0.02220000  0.23800000  1.0 0.1311180089
H  H62  1  0.02220000  0.23800000  0.53550000  1.0 0.1311180089
H  H63  1  0.23800000  0.53550000  0.02220000  1.0 0.1311180089
H  H64  1  0.46450000  0.97780000  0.76200000  1.0 0.1311180089
H  H65  1  0.97780000  0.76200000  0.46450000  1.0 0.1311180089
H  H66  1  0.76200000  0.46450000  0.97780000  1.0 0.1311180089
H  H67  1  0.66350000  0.14270000  0.97240000  1.0 0.1311180089
H  H68  1  0.14270000  0.97240000  0.66350000  1.0 0.1311180089
H  H69  1  0.97240000  0.66350000  0.14270000  1.0 0.1311180089
H  H70  1  0.33650000  0.85730000  0.02760000  1.0 0.1311180089
H  H71  1  0.85730000  0.02760000  0.33650000  1.0 0.1311180089
H  H72  1  0.02760000  0.33650000  0.85730000  1.0 0.1311180089
H  H73  1  0.71960000  0.07550000  0.92650000  1.0 0.1361212838
H  H74  1  0.07550000  0.92650000  0.71960000  1.0 0.1361212838
H  H75  1  0.92650000  0.71960000  0.07550000  1.0 0.1361212838
H  H76  1  0.28040000  0.92450000  0.07350000  1.0 0.1361212838
H  H77  1  0.92450000  0.07350000  0.28040000  1.0 0.1361212838
H  H78  1  0.07350000  0.28040000  0.92450000  1.0 0.1361212838
H  H79  1  0.65560000  0.16840000  0.88740000  1.0 0.1361212838
H  H80  1  0.16840000  0.88740000  0.65560000  1.0 0.1311180089
H  H81  1  0.88740000  0.65560000  0.16840000  1.0 0.1311180089
H  H82  1  0.34440000  0.83160000  0.11260000  1.0 0.1311180089
H  H83  1  0.83160000  0.11260000  0.34440000  1.0 0.1311180089
H  H84  1  0.11260000  0.34440000  0.83160000  1.0 0.1311180089
H  H85  1  0.39550000  0.94700000  0.12650000  1.0 0.0982931167
H  H86  1  0.94700000  0.12650000  0.39550000  1.0 0.0982931167
H  H87  1  0.12650000  0.39550000  0.94700000  1.0 0.0982931167
H  H88  1  0.60450000  0.05300000  0.87350000  1.0 0.0982931167
H  H89  1  0.05300000  0.87350000  0.60450000  1.0 0.0982931167
H  H90  1  0.87350000  0.60450000  0.05300000  1.0 0.0982931167
H  H91  1  0.40170000  0.92320000  0.21160000  1.0 0.1311180089
H  H92  1  0.92320000  0.21160000  0.40170000  1.0 0.1311180089
H  H93  1  0.21160000  0.40170000  0.92320000  1.0 0.1311180089
H  H94  1  0.59830000  0.07680000  0.78840000  1.0 0.1311180089
H  H95  1  0.07680000  0.78840000  0.59830000  1.0 0.1311180089
H  H96  1  0.78840000  0.59830000  0.07680000  1.0 0.1311180089
H  H97  1  0.33310000  0.01260000  0.17490000  1.0 0.1311180089
H  H98  1  0.01260000  0.17490000  0.33310000  1.0 0.1311180089
H  H99  1  0.17490000  0.33310000  0.01260000  1.0 0.1311180089
H  H100  1  0.66690000  0.98740000  0.82510000  1.0 0.1311180089
H  H101  1  0.98740000  0.82510000  0.66690000  1.0 0.1311180089
H  H102  1  0.82510000  0.66690000  0.98740000  1.0 0.1311180089
H  H103  1  0.42520000  0.06130000  0.18680000  1.0 0.1080191923
H  H104  1  0.06130000  0.18680000  0.42520000  1.0 0.1080191923
H  H105  1  0.18680000  0.42520000  0.06130000  1.0 0.1080191923
H  H106  1  0.57480000  0.93870000  0.81320000  1.0 0.1080191923
H  H107  1  0.93870000  0.81320000  0.57480000  1.0 0.1080191923
H  H108  1  0.81320000  0.57480000  0.93870000  1.0 0.1080191923
H  H109  1  0.61080000  0.05050000  0.90940000  1.0 0.0982931167
H  H110  1  0.05050000  0.90940000  0.61080000  1.0 0.0982931167
H  H111  1  0.90940000  0.61080000  0.05050000  1.0 0.0982931167
H  H112  1  0.38920000  0.94950000  0.09060000  1.0 0.0982931167
H  H113  1  0.94950000  0.09060000  0.38920000  1.0 0.0934337867
H  H114  1  0.09060000  0.38920000  0.94950000  1.0 0.0982931167
C  C1  1  0.52877000  0.33737000  0.07167000  1.0 0.5827264828
C  C2  1  0.33737000  0.07167000  0.52877000  1.0 0.5852996601
C  C3  1  0.07167000  0.52877000  0.33737000  1.0 0.5852996601
C  C4  1  0.47123000  0.66263000  0.92833000  1.0 0.5827264828
C  C5  1  0.66263000  0.92833000  0.47123000  1.0 0.5852996601
C  C6  1  0.92833000  0.47123000  0.66263000  1.0 0.5852996601
C  C7  1  0.53581000  0.24731000  0.11701000  1.0 -0.0479212714
C  C8  1  0.24731000  0.11701000  0.53581000  1.0 -0.0479212714
C  C9  1  0.11701000  0.53581000  0.24731000  1.0 -0.0479212714
C  C10  1  0.46419000  0.75269000  0.88299000  1.0 -0.0479212714
C  C11  1  0.75269000  0.88299000  0.46419000  1.0 -0.0479212714
C  C12  1  0.88299000  0.46419000  0.75269000  1.0 -0.0479212714
C  C13  1  0.54545000  0.19645000  0.19615000  1.0 -0.0775693538
C  C14  1  0.19645000  0.19615000  0.54545000  1.0 -0.0775693538
C  C15  1  0.19615000  0.54545000  0.19645000  1.0 -0.0775693538
C  C16  1  0.45455000  0.80355000  0.80385000  1.0 -0.0775693538
C  C17  1  0.80355000  0.80385000  0.45455000  1.0 -0.0775693538
C  C18  1  0.80385000  0.45455000  0.80355000  1.0 -0.0775693538
C  C19  1  0.53662000  0.20762000  0.07882000  1.0 -0.1293039478
C  C20  1  0.20762000  0.07882000  0.53662000  1.0 -0.1293039478
C  C21  1  0.07882000  0.53662000  0.20762000  1.0 -0.1293039478
C  C22  1  0.46338000  0.79238000  0.92118000  1.0 -0.1293039478
C  C23  1  0.79238000  0.92118000  0.46338000  1.0 -0.1293039478
C  C24  1  0.92118000  0.46338000  0.79238000  1.0 -0.1293039478
C  C25  1  0.54378000  0.12098000  0.12158000  1.0 0.0665746063
C  C26  1  0.12098000  0.12158000  0.54378000  1.0 0.0665746063
C  C27  1  0.12158000  0.54378000  0.12098000  1.0 0.0665746063
C  C28  1  0.45622000  0.87902000  0.87842000  1.0 0.0665746063
C  C29  1  0.87902000  0.87842000  0.45622000  1.0 0.0665746063
C  C30  1  0.87842000  0.45622000  0.87902000  1.0 0.0665746063
C  C31  1  0.53496000  0.08356000  0.08496000  1.0 0.0137241153
C  C32  1  0.08356000  0.08496000  0.53496000  1.0 0.0137241153
C  C33  1  0.08496000  0.53496000  0.08356000  1.0 0.0137241153
C  C34  1  0.46504000  0.91644000  0.91504000  1.0 0.0137241153
C  C35  1  0.91644000  0.91504000  0.46504000  1.0 0.0150299497
C  C36  1  0.91504000  0.46504000  0.91644000  1.0 0.0137241153
C  C37  1  0.59010000  0.99750000  0.08420000  1.0 0.0606737002
C  C38  1  0.99750000  0.08420000  0.59010000  1.0 0.0606737002
C  C39  1  0.08420000  0.59010000  0.99750000  1.0 0.0606737002
C  C40  1  0.40990000  0.00250000  0.91580000  1.0 0.0606737002
C  C41  1  0.00250000  0.91580000  0.40990000  1.0 0.0606737002
C  C42  1  0.91580000  0.40990000  0.00250000  1.0 0.0606737002
C  C43  1  0.57620000  0.96600000  0.04950000  1.0 -0.1118708993
C  C44  1  0.96600000  0.04950000  0.57620000  1.0 -0.1118708993
C  C45  1  0.04950000  0.57620000  0.96600000  1.0 -0.1118708993
C  C46  1  0.42380000  0.03400000  0.95050000  1.0 -0.1118708993
C  C47  1  0.03400000  0.95050000  0.42380000  1.0 -0.1118708993
C  C48  1  0.95050000  0.42380000  0.03400000  1.0 -0.1118708993
C  C49  1  0.50867000  0.01727000  0.01797000  1.0 0.0265016971
C  C50  1  0.01727000  0.01797000  0.50867000  1.0 0.0265016971
C  C51  1  0.01797000  0.50867000  0.01727000  1.0 0.0265016971
C  C52  1  0.49133000  0.98273000  0.98203000  1.0 0.0265016971
C  C53  1  0.98273000  0.98203000  0.49133000  1.0 0.0265016971
C  C54  1  0.98203000  0.49133000  0.98273000  1.0 0.0265016971
C  C55  1  0.45700000  0.10300000  0.01550000  1.0 0.0606737002
C  C56  1  0.10300000  0.01550000  0.45700000  1.0 0.0606737002
C  C57  1  0.01550000  0.45700000  0.10300000  1.0 0.0606737002
C  C58  1  0.54300000  0.89700000  0.98450000  1.0 0.0606737002
C  C59  1  0.89700000  0.98450000  0.54300000  1.0 0.0606737002
C  C60  1  0.98450000  0.54300000  0.89700000  1.0 0.0606737002
C  C61  1  0.46480000  0.13190000  0.05650000  1.0 -0.1118708993
C  C62  1  0.13190000  0.05650000  0.46480000  1.0 -0.1118708993
C  C63  1  0.05650000  0.46480000  0.13190000  1.0 -0.1118708993
C  C64  1  0.53520000  0.86810000  0.94350000  1.0 -0.1118708993
C  C65  1  0.86810000  0.94350000  0.53520000  1.0 -0.1118708993
C  C66  1  0.94350000  0.53520000  0.86810000  1.0 -0.1118708993
C  C67  1  0.67000000  0.94100000  0.11390000  1.0 -0.4500015842
C  C68  1  0.94100000  0.11390000  0.67000000  1.0 -0.4438293087
C  C69  1  0.11390000  0.67000000  0.94100000  1.0 -0.4500015842
C  C70  1  0.33000000  0.05900000  0.88610000  1.0 -0.4500015842
C  C71  1  0.05900000  0.88610000  0.33000000  1.0 -0.4500015842
C  C72  1  0.88610000  0.33000000  0.05900000  1.0 -0.4438293087
C  C73  1  0.38940000  0.16150000  0.97330000  1.0 -0.4262305058
C  C74  1  0.16150000  0.97330000  0.38940000  1.0 -0.4262305058
C  C75  1  0.97330000  0.38940000  0.16150000  1.0 -0.4262305058
C  C76  1  0.61060000  0.83850000  0.02670000  1.0 -0.4262305058
C  C77  1  0.83850000  0.02670000  0.61060000  1.0 -0.4262305058
C  C78  1  0.02670000  0.61060000  0.83850000  1.0 -0.4262305058
C  C79  1  0.52906000  0.07126000  0.33806000  1.0 0.5827264828
C  C80  1  0.07126000  0.33806000  0.52906000  1.0 0.5827264828
C  C81  1  0.33806000  0.52906000  0.07126000  1.0 0.5827264828
C  C82  1  0.47094000  0.92874000  0.66194000  1.0 0.5827264828
C  C83  1  0.92874000  0.66194000  0.47094000  1.0 0.5827264828
C  C84  1  0.66194000  0.47094000  0.92874000  1.0 0.5827264828
C  C85  1  0.53671000  0.11561000  0.24781000  1.0 -0.0479212714
C  C86  1  0.11561000  0.24781000  0.53671000  1.0 -0.0479212714
C  C87  1  0.24781000  0.53671000  0.11561000  1.0 -0.0479212714
C  C88  1  0.46329000  0.88439000  0.75219000  1.0 -0.0479212714
C  C89  1  0.88439000  0.75219000  0.46329000  1.0 -0.0479212714
C  C90  1  0.75219000  0.46329000  0.88439000  1.0 -0.0479212714
C  C91  1  0.53822000  0.07742000  0.20682000  1.0 -0.1378214491
C  C92  1  0.07742000  0.20682000  0.53822000  1.0 -0.1378214491
C  C93  1  0.20682000  0.53822000  0.07742000  1.0 -0.1378214491
C  C94  1  0.46178000  0.92258000  0.79318000  1.0 -0.1378214491
C  C95  1  0.92258000  0.79318000  0.46178000  1.0 -0.1378214491
C  C96  1  0.79318000  0.46178000  0.92258000  1.0 -0.1378214491
C  C97  1  0.66420000  0.12150000  0.94040000  1.0 -0.4500015842
C  C98  1  0.12150000  0.94040000  0.66420000  1.0 -0.4500015842
C  C99  1  0.94040000  0.66420000  0.12150000  1.0 -0.4500015842
C  C100  1  0.33580000  0.87850000  0.05960000  1.0 -0.4500015842
C  C101  1  0.87850000  0.05960000  0.33580000  1.0 -0.4500015842
C  C102  1  0.05960000  0.33580000  0.87850000  1.0 -0.4500015842
C  C103  1  0.58870000  0.08510000  0.99800000  1.0 0.0606737002
C  C104  1  0.08510000  0.99800000  0.58870000  1.0 0.0606737002
C  C105  1  0.99800000  0.58870000  0.08510000  1.0 0.0606737002
C  C106  1  0.41130000  0.91490000  0.00200000  1.0 0.0606737002
C  C107  1  0.91490000  0.00200000  0.41130000  1.0 0.0606737002
C  C108  1  0.00200000  0.41130000  0.91490000  1.0 0.0606737002
C  C109  1  0.45850000  0.01290000  0.10380000  1.0 0.0606737002
C  C110  1  0.01290000  0.10380000  0.45850000  1.0 0.0606737002
C  C111  1  0.10380000  0.45850000  0.01290000  1.0 0.0606737002
C  C112  1  0.54150000  0.98710000  0.89620000  1.0 0.0606737002
C  C113  1  0.98710000  0.89620000  0.54150000  1.0 0.0606737002
C  C114  1  0.89620000  0.54150000  0.98710000  1.0 0.0606737002
C  C115  1  0.46610000  0.05380000  0.13390000  1.0 -0.1193398368
C  C116  1  0.05380000  0.13390000  0.46610000  1.0 -0.1193398368
C  C117  1  0.13390000  0.46610000  0.05380000  1.0 -0.1193398368
C  C118  1  0.53390000  0.94620000  0.86610000  1.0 -0.1193398368
C  C119  1  0.94620000  0.86610000  0.53390000  1.0 -0.1193398368
C  C120  1  0.86610000  0.53390000  0.94620000  1.0 -0.1193398368
C  C121  1  0.57540000  0.05090000  0.96570000  1.0 -0.1118708993
C  C122  1  0.05090000  0.96570000  0.57540000  1.0 -0.1118708993
C  C123  1  0.96570000  0.57540000  0.05090000  1.0 -0.1118708993
C  C124  1  0.42460000  0.94910000  0.03430000  1.0 -0.1118708993
C  C125  1  0.94910000  0.03430000  0.42460000  1.0 -0.1118708993
C  C126  1  0.03430000  0.42460000  0.94910000  1.0 -0.1118708993
C  C127  1  0.39080000  0.96980000  0.15940000  1.0 -0.413930993
C  C128  1  0.96980000  0.15940000  0.39080000  1.0 -0.413930993
C  C129  1  0.15940000  0.39080000  0.96980000  1.0 -0.413930993
C  C130  1  0.60920000  0.03020000  0.84060000  1.0 -0.413930993
C  C131  1  0.03020000  0.84060000  0.60920000  1.0 -0.413930993
C  C132  1  0.84060000  0.60920000  0.03020000  1.0 -0.413930993
O  O1  1  0.51842000  0.11282000  0.37482000  1.0 -0.5305927279
O  O2  1  0.11282000  0.37482000  0.51842000  1.0 -0.5305927279
O  O3  1  0.37482000  0.51842000  0.11282000  1.0 -0.5305927279
O  O4  1  0.48158000  0.88718000  0.62518000  1.0 -0.5305927279
O  O5  1  0.88718000  0.62518000  0.48158000  1.0 -0.5305927279
O  O6  1  0.62518000  0.48158000  0.88718000  1.0 -0.5305927279
O  O7  1  0.52715000  0.99415000  0.38015000  1.0 -0.5305927279
O  O8  1  0.99415000  0.38015000  0.52715000  1.0 -0.5305927279
O  O9  1  0.38015000  0.52715000  0.99415000  1.0 -0.5305927279
O  O10  1  0.47285000  0.00585000  0.61985000  1.0 -0.5305927279
O  O11  1  0.00585000  0.61985000  0.47285000  1.0 -0.5305927279
O  O12  1  0.61985000  0.47285000  0.00585000  1.0 -0.5305927279
O  O13  1  0.51879000  0.37399000  0.11289000  1.0 -0.5305927279
O  O14  1  0.37399000  0.11289000  0.51879000  1.0 -0.5305927279
O  O15  1  0.11289000  0.51879000  0.37399000  1.0 -0.5305927279
O  O16  1  0.48121000  0.62601000  0.88711000  1.0 -0.5305927279
O  O17  1  0.62601000  0.88711000  0.48121000  1.0 -0.5305927279
O  O18  1  0.88711000  0.48121000  0.62601000  1.0 -0.5305927279
O  O19  1  0.52562000  0.38082000  0.99432000  1.0 -0.5305927279
O  O20  1  0.38082000  0.99432000  0.52562000  1.0 -0.5305927279
O  O21  1  0.99432000  0.52562000  0.38082000  1.0 -0.5305927279
O  O22  1  0.47438000  0.61918000  0.00568000  1.0 -0.5305927279
O  O23  1  0.61918000  0.00568000  0.47438000  1.0 -0.5305927279
O  O24  1  0.00568000  0.47438000  0.61918000  1.0 -0.5305927279
