# DDEC6 charges by PACMAN v1.1 (https://github.com/mtap-research/PACMAN-charge/)
data_EHUTAE_ASR_pacman
_symmetry_space_group_name_H-M   'P 1'
_cell_length_a   24.29660000
_cell_length_b   24.29660000
_cell_length_c   24.29660000
_cell_angle_alpha   44.29540000
_cell_angle_beta   44.29540000
_cell_angle_gamma   44.29540000
_symmetry_Int_Tables_number   1
_chemical_formula_structural   CuH23(C13O2)2
_chemical_formula_sum   'Cu6 H138 C156 O24'
_cell_volume   6357.34434971
_cell_formula_units_Z   6
loop_
 _symmetry_equiv_pos_site_id
 _symmetry_equiv_pos_as_xyz
  1  'x, y, z'
loop_
 _atom_site_type_symbol
 _atom_site_label
 _atom_site_symmetry_multiplicity
 _atom_site_fract_x
 _atom_site_fract_y
 _atom_site_fract_z
 _atom_site_occupancy
 _atom_site_charge
Cu  Cu1  1  0.00902000  0.43320000  0.00885000  1.0 0.8818048798
Cu  Cu2  1  0.43320000  0.00885000  0.00902000  1.0 0.8818048798
Cu  Cu3  1  0.00885000  0.00902000  0.43320000  1.0 0.8818048798
Cu  Cu4  1  0.99098000  0.56680000  0.99115000  1.0 0.8818048798
Cu  Cu5  1  0.56680000  0.99115000  0.99098000  1.0 0.8818048798
Cu  Cu6  1  0.99115000  0.99098000  0.56680000  1.0 0.8818048798
H  H1  1  0.70860000  0.70560000  0.07530000  1.0 0.1390210866
H  H2  1  0.70560000  0.07530000  0.70860000  1.0 0.1390210866
H  H3  1  0.07530000  0.70860000  0.70560000  1.0 0.1390210866
H  H4  1  0.29140000  0.29440000  0.92470000  1.0 0.1390210866
H  H5  1  0.29440000  0.92470000  0.29140000  1.0 0.1390210866
H  H6  1  0.92470000  0.29140000  0.29440000  1.0 0.1390210866
H  H7  1  0.75230000  0.53790000  0.04630000  1.0 0.1390210866
H  H8  1  0.53790000  0.04630000  0.75230000  1.0 0.1390210866
H  H9  1  0.04630000  0.75230000  0.53790000  1.0 0.1390210866
H  H10  1  0.24770000  0.46210000  0.95370000  1.0 0.1390210866
H  H11  1  0.46210000  0.95370000  0.24770000  1.0 0.1390210866
H  H12  1  0.95370000  0.24770000  0.46210000  1.0 0.1390210866
H  H13  1  0.53720000  0.75380000  0.04070000  1.0 0.1302238054
H  H14  1  0.75380000  0.04070000  0.53720000  1.0 0.1302238054
H  H15  1  0.04070000  0.53720000  0.75380000  1.0 0.1302238054
H  H16  1  0.46280000  0.24620000  0.95930000  1.0 0.1302238054
H  H17  1  0.24620000  0.95930000  0.46280000  1.0 0.1302238054
H  H18  1  0.95930000  0.46280000  0.24620000  1.0 0.1302238054
H  H19  1  0.70280000  0.58760000  0.95130000  1.0 0.1104025084
H  H20  1  0.58760000  0.95130000  0.70280000  1.0 0.1104025084
H  H21  1  0.95130000  0.70280000  0.58760000  1.0 0.1104025084
H  H22  1  0.29720000  0.41240000  0.04870000  1.0 0.1104025084
H  H23  1  0.41240000  0.04870000  0.29720000  1.0 0.1104025084
H  H24  1  0.04870000  0.29720000  0.41240000  1.0 0.1104025084
H  H25  1  0.40610000  0.66400000  0.19590000  1.0 0.1302238054
H  H26  1  0.66400000  0.19590000  0.40610000  1.0 0.1302238054
H  H27  1  0.19590000  0.40610000  0.66400000  1.0 0.1302238054
H  H28  1  0.59390000  0.33600000  0.80410000  1.0 0.1302238054
H  H29  1  0.33600000  0.80410000  0.59390000  1.0 0.1302238054
H  H30  1  0.80410000  0.59390000  0.33600000  1.0 0.1302238054
H  H31  1  0.45550000  0.56840000  0.24990000  1.0 0.1302238054
H  H32  1  0.56840000  0.24990000  0.45550000  1.0 0.1302238054
H  H33  1  0.24990000  0.45550000  0.56840000  1.0 0.1302238054
H  H34  1  0.54450000  0.43160000  0.75010000  1.0 0.1302238054
H  H35  1  0.43160000  0.75010000  0.54450000  1.0 0.1302238054
H  H36  1  0.75010000  0.54450000  0.43160000  1.0 0.1302238054
H  H37  1  0.48830000  0.63900000  0.19210000  1.0 0.1302238054
H  H38  1  0.63900000  0.19210000  0.48830000  1.0 0.1302238054
H  H39  1  0.19210000  0.48830000  0.63900000  1.0 0.1302238054
H  H40  1  0.51170000  0.36100000  0.80790000  1.0 0.1302238054
H  H41  1  0.36100000  0.80790000  0.51170000  1.0 0.1302238054
H  H42  1  0.80790000  0.51170000  0.36100000  1.0 0.1225581703
H  H43  1  0.43830000  0.56620000  0.15260000  1.0 0.0802677804
H  H44  1  0.56620000  0.15260000  0.43830000  1.0 0.0802677804
H  H45  1  0.15260000  0.43830000  0.56620000  1.0 0.0802677804
H  H46  1  0.56170000  0.43380000  0.84740000  1.0 0.0802677804
H  H47  1  0.43380000  0.84740000  0.56170000  1.0 0.0802677804
H  H48  1  0.84740000  0.56170000  0.43380000  1.0 0.0802677804
H  H49  1  0.73280000  0.48780000  0.91010000  1.0 0.1225581703
H  H50  1  0.48780000  0.91010000  0.73280000  1.0 0.1225581703
H  H51  1  0.91010000  0.73280000  0.48780000  1.0 0.1225581703
H  H52  1  0.26720000  0.51220000  0.08990000  1.0 0.1225581703
H  H53  1  0.51220000  0.08990000  0.26720000  1.0 0.1225581703
H  H54  1  0.08990000  0.26720000  0.51220000  1.0 0.1225581703
H  H55  1  0.64980000  0.51950000  0.90950000  1.0 0.0938736262
H  H56  1  0.51950000  0.90950000  0.64980000  1.0 0.0938736262
H  H57  1  0.90950000  0.64980000  0.51950000  1.0 0.0938736262
H  H58  1  0.35020000  0.48050000  0.09050000  1.0 0.0938736262
H  H59  1  0.48050000  0.09050000  0.35020000  1.0 0.0938736262
H  H60  1  0.09050000  0.35020000  0.48050000  1.0 0.0938736262
H  H61  1  0.68830000  0.58490000  0.85360000  1.0 0.1302238054
H  H62  1  0.58490000  0.85360000  0.68830000  1.0 0.1302238054
H  H63  1  0.85360000  0.68830000  0.58490000  1.0 0.1302238054
H  H64  1  0.31170000  0.41510000  0.14640000  1.0 0.1302238054
H  H65  1  0.41510000  0.14640000  0.31170000  1.0 0.1302238054
H  H66  1  0.14640000  0.31170000  0.41510000  1.0 0.1302238054
H  H67  1  0.64490000  0.47710000  0.93160000  1.0 0.1302238054
H  H68  1  0.47710000  0.93160000  0.64490000  1.0 0.1225581703
H  H69  1  0.93160000  0.64490000  0.47710000  1.0 0.1225581703
H  H70  1  0.35510000  0.52290000  0.06840000  1.0 0.1225581703
H  H71  1  0.52290000  0.06840000  0.35510000  1.0 0.1225581703
H  H72  1  0.06840000  0.35510000  0.52290000  1.0 0.1225581703
H  H73  1  0.32210000  0.65040000  0.08500000  1.0 0.1390210866
H  H74  1  0.65040000  0.08500000  0.32210000  1.0 0.1390210866
H  H75  1  0.08500000  0.32210000  0.65040000  1.0 0.1390210866
H  H76  1  0.67790000  0.34960000  0.91500000  1.0 0.1390210866
H  H77  1  0.34960000  0.91500000  0.67790000  1.0 0.1390210866
H  H78  1  0.91500000  0.67790000  0.34960000  1.0 0.1390210866
H  H79  1  0.38870000  0.60910000  0.11460000  1.0 0.0802677804
H  H80  1  0.60910000  0.11460000  0.38870000  1.0 0.0802677804
H  H81  1  0.11460000  0.38870000  0.60910000  1.0 0.0802677804
H  H82  1  0.61130000  0.39090000  0.88540000  1.0 0.0802677804
H  H83  1  0.39090000  0.88540000  0.61130000  1.0 0.0802677804
H  H84  1  0.88540000  0.61130000  0.39090000  1.0 0.0802677804
H  H85  1  0.33180000  0.56250000  0.16740000  1.0 0.1390210866
H  H86  1  0.56250000  0.16740000  0.33180000  1.0 0.1390210866
H  H87  1  0.16740000  0.33180000  0.56250000  1.0 0.1390210866
H  H88  1  0.66820000  0.43750000  0.83260000  1.0 0.1390210866
H  H89  1  0.43750000  0.83260000  0.66820000  1.0 0.1390210866
H  H90  1  0.83260000  0.66820000  0.43750000  1.0 0.1390210866
H  H91  1  0.95500000  0.57590000  0.71200000  1.0 0.1104025084
H  H92  1  0.57590000  0.71200000  0.95500000  1.0 0.1104025084
H  H93  1  0.71200000  0.95500000  0.57590000  1.0 0.1104025084
H  H94  1  0.04500000  0.42410000  0.28800000  1.0 0.1104025084
H  H95  1  0.42410000  0.28800000  0.04500000  1.0 0.1104025084
H  H96  1  0.28800000  0.04500000  0.42410000  1.0 0.1104025084
H  H97  1  0.14840000  0.56380000  0.44340000  1.0 0.1225581703
H  H98  1  0.56380000  0.44340000  0.14840000  1.0 0.1225581703
H  H99  1  0.44340000  0.14840000  0.56380000  1.0 0.1225581703
H  H100  1  0.85160000  0.43620000  0.55660000  1.0 0.1225581703
H  H101  1  0.43620000  0.55660000  0.85160000  1.0 0.1225581703
H  H102  1  0.55660000  0.85160000  0.43620000  1.0 0.1225581703
H  H103  1  0.19640000  0.62750000  0.49400000  1.0 0.1225581703
H  H104  1  0.62750000  0.49400000  0.19640000  1.0 0.1225581703
H  H105  1  0.49400000  0.19640000  0.62750000  1.0 0.1302238054
H  H106  1  0.80360000  0.37250000  0.50600000  1.0 0.1302238054
H  H107  1  0.37250000  0.50600000  0.80360000  1.0 0.1225581703
H  H108  1  0.50600000  0.80360000  0.37250000  1.0 0.1302238054
H  H109  1  0.24600000  0.57450000  0.44490000  1.0 0.1302238054
H  H110  1  0.57450000  0.44490000  0.24600000  1.0 0.1302238054
H  H111  1  0.44490000  0.24600000  0.57450000  1.0 0.1302238054
H  H112  1  0.75400000  0.42550000  0.55510000  1.0 0.1302238054
H  H113  1  0.42550000  0.55510000  0.75400000  1.0 0.1302238054
H  H114  1  0.55510000  0.75400000  0.42550000  1.0 0.1302238054
H  H115  1  0.18190000  0.67240000  0.41440000  1.0 0.1390210866
H  H116  1  0.67240000  0.41440000  0.18190000  1.0 0.1302238054
H  H117  1  0.41440000  0.18190000  0.67240000  1.0 0.1302238054
H  H118  1  0.81810000  0.32760000  0.58560000  1.0 0.1390210866
H  H119  1  0.32760000  0.58560000  0.81810000  1.0 0.1390210866
H  H120  1  0.58560000  0.81810000  0.32760000  1.0 0.1302238054
H  H121  1  0.91290000  0.50440000  0.66300000  1.0 0.1390210866
H  H122  1  0.50440000  0.66300000  0.91290000  1.0 0.1390210866
H  H123  1  0.66300000  0.91290000  0.50440000  1.0 0.1390210866
H  H124  1  0.08710000  0.49560000  0.33700000  1.0 0.1390210866
H  H125  1  0.49560000  0.33700000  0.08710000  1.0 0.1390210866
H  H126  1  0.33700000  0.08710000  0.49560000  1.0 0.1390210866
H  H127  1  0.91790000  0.47100000  0.74390000  1.0 0.1390210866
H  H128  1  0.47100000  0.74390000  0.91790000  1.0 0.1390210866
H  H129  1  0.74390000  0.91790000  0.47100000  1.0 0.1390210866
H  H130  1  0.08210000  0.52900000  0.25610000  1.0 0.1390210866
H  H131  1  0.52900000  0.25610000  0.08210000  1.0 0.1390210866
H  H132  1  0.25610000  0.08210000  0.52900000  1.0 0.1390210866
H  H133  1  0.85710000  0.56750000  0.70400000  1.0 0.1390210866
H  H134  1  0.56750000  0.70400000  0.85710000  1.0 0.1390210866
H  H135  1  0.70400000  0.85710000  0.56750000  1.0 0.1390210866
H  H136  1  0.14290000  0.43250000  0.29600000  1.0 0.1390210866
H  H137  1  0.43250000  0.29600000  0.14290000  1.0 0.1390210866
H  H138  1  0.29600000  0.14290000  0.43250000  1.0 0.1390210866
C  C1  1  0.84100000  0.57260000  0.03330000  1.0 0.5712172849
C  C2  1  0.57260000  0.03330000  0.84100000  1.0 0.5712172849
C  C3  1  0.03330000  0.84100000  0.57260000  1.0 0.5712172849
C  C4  1  0.15900000  0.42740000  0.96670000  1.0 0.5712172849
C  C5  1  0.42740000  0.96670000  0.15900000  1.0 0.5712172849
C  C6  1  0.96670000  0.15900000  0.42740000  1.0 0.5712172849
C  C7  1  0.75430000  0.62050000  0.04330000  1.0 -0.0432216066
C  C8  1  0.62050000  0.04330000  0.75430000  1.0 -0.0432216066
C  C9  1  0.04330000  0.75430000  0.62050000  1.0 -0.0432216066
C  C10  1  0.24570000  0.37950000  0.95670000  1.0 -0.0432216066
C  C11  1  0.37950000  0.95670000  0.24570000  1.0 -0.0432216066
C  C12  1  0.95670000  0.24570000  0.37950000  1.0 -0.0432216066
C  C13  1  0.69620000  0.69390000  0.05680000  1.0 -0.0800895927
C  C14  1  0.69390000  0.05680000  0.69620000  1.0 -0.0800895927
C  C15  1  0.05680000  0.69620000  0.69390000  1.0 -0.0800895927
C  C16  1  0.30380000  0.30610000  0.94320000  1.0 -0.0800895927
C  C17  1  0.30610000  0.94320000  0.30380000  1.0 -0.0800895927
C  C18  1  0.94320000  0.30380000  0.30610000  1.0 -0.0800895927
C  C19  1  0.71840000  0.59020000  0.05010000  1.0 -0.1534233304
C  C20  1  0.59020000  0.05010000  0.71840000  1.0 -0.1534233304
C  C21  1  0.05010000  0.71840000  0.59020000  1.0 -0.1534233304
C  C22  1  0.28160000  0.40980000  0.94990000  1.0 -0.1534233304
C  C23  1  0.40980000  0.94990000  0.28160000  1.0 -0.1534233304
C  C24  1  0.94990000  0.28160000  0.40980000  1.0 -0.1534233304
C  C25  1  0.61730000  0.75530000  0.04460000  1.0 -0.0653464657
C  C26  1  0.75530000  0.04460000  0.61730000  1.0 -0.064223468
C  C27  1  0.04460000  0.61730000  0.75530000  1.0 -0.064223468
C  C28  1  0.38270000  0.24470000  0.95540000  1.0 -0.064223468
C  C29  1  0.24470000  0.95540000  0.38270000  1.0 -0.064223468
C  C30  1  0.95540000  0.38270000  0.24470000  1.0 -0.064223468
C  C31  1  0.63360000  0.63480000  0.06240000  1.0 0.0802677804
C  C32  1  0.63480000  0.06240000  0.63360000  1.0 0.0802677804
C  C33  1  0.06240000  0.63360000  0.63480000  1.0 0.0802677804
C  C34  1  0.36640000  0.36520000  0.93760000  1.0 0.0802677804
C  C35  1  0.36520000  0.93760000  0.36640000  1.0 0.0802677804
C  C36  1  0.93760000  0.36640000  0.36520000  1.0 0.0802677804
C  C37  1  0.58750000  0.71980000  0.04810000  1.0 -0.140361735
C  C38  1  0.71980000  0.04810000  0.58750000  1.0 -0.140361735
C  C39  1  0.04810000  0.58750000  0.71980000  1.0 -0.140361735
C  C40  1  0.41250000  0.28020000  0.95190000  1.0 -0.140361735
C  C41  1  0.28020000  0.95190000  0.41250000  1.0 -0.140361735
C  C42  1  0.95190000  0.41250000  0.28020000  1.0 -0.140361735
C  C43  1  0.57120000  0.84190000  0.03350000  1.0 0.5614069961
C  C44  1  0.84190000  0.03350000  0.57120000  1.0 0.5614069961
C  C45  1  0.03350000  0.57120000  0.84190000  1.0 0.5614069961
C  C46  1  0.42880000  0.15810000  0.96650000  1.0 0.5614069961
C  C47  1  0.15810000  0.96650000  0.42880000  1.0 0.5614069961
C  C48  1  0.96650000  0.42880000  0.15810000  1.0 0.5614069961
C  C49  1  0.59740000  0.60360000  0.06140000  1.0 0.019643972
C  C50  1  0.60360000  0.06140000  0.59740000  1.0 0.019643972
C  C51  1  0.06140000  0.59740000  0.60360000  1.0 0.019643972
C  C52  1  0.40260000  0.39640000  0.93860000  1.0 0.019643972
C  C53  1  0.39640000  0.93860000  0.40260000  1.0 0.019643972
C  C54  1  0.93860000  0.40260000  0.39640000  1.0 0.019643972
C  C55  1  0.51850000  0.59750000  0.12150000  1.0 0.0462845479
C  C56  1  0.59750000  0.12150000  0.51850000  1.0 0.0462845479
C  C57  1  0.12150000  0.51850000  0.59750000  1.0 0.0462845479
C  C58  1  0.48150000  0.40250000  0.87850000  1.0 0.0462845479
C  C59  1  0.40250000  0.87850000  0.48150000  1.0 0.0462845479
C  C60  1  0.87850000  0.48150000  0.40250000  1.0 0.0462845479
C  C61  1  0.64980000  0.58350000  0.99130000  1.0 -0.1003334907
C  C62  1  0.58350000  0.99130000  0.64980000  1.0 -0.1003334907
C  C63  1  0.99130000  0.64980000  0.58350000  1.0 -0.1003334907
C  C64  1  0.35020000  0.41650000  0.00870000  1.0 -0.1003334907
C  C65  1  0.41650000  0.00870000  0.35020000  1.0 -0.1003334907
C  C66  1  0.00870000  0.35020000  0.41650000  1.0 -0.1003334907
C  C67  1  0.46190000  0.61890000  0.19690000  1.0 -0.436105409
C  C68  1  0.61890000  0.19690000  0.46190000  1.0 -0.436105409
C  C69  1  0.19690000  0.46190000  0.61890000  1.0 -0.436105409
C  C70  1  0.53810000  0.38110000  0.80310000  1.0 -0.4319968832
C  C71  1  0.38110000  0.80310000  0.53810000  1.0 -0.436105409
C  C72  1  0.80310000  0.53810000  0.38110000  1.0 -0.4319968832
C  C73  1  0.49090000  0.57090000  0.11210000  1.0 -0.1003334907
C  C74  1  0.57090000  0.11210000  0.49090000  1.0 -0.0942073476
C  C75  1  0.11210000  0.49090000  0.57090000  1.0 -0.0942073476
C  C76  1  0.50910000  0.42910000  0.88790000  1.0 -0.1003334907
C  C77  1  0.42910000  0.88790000  0.50910000  1.0 -0.0942073476
C  C78  1  0.88790000  0.50910000  0.42910000  1.0 -0.0942073476
C  C79  1  0.62220000  0.55720000  0.98190000  1.0 0.0446910622
C  C80  1  0.55720000  0.98190000  0.62220000  1.0 0.0446910622
C  C81  1  0.98190000  0.62220000  0.55720000  1.0 0.0462845479
C  C82  1  0.37780000  0.44280000  0.01810000  1.0 0.0462845479
C  C83  1  0.44280000  0.01810000  0.37780000  1.0 0.0446910622
C  C84  1  0.01810000  0.37780000  0.44280000  1.0 0.0446910622
C  C85  1  0.54250000  0.55180000  0.04180000  1.0 0.0281145641
C  C86  1  0.55180000  0.04180000  0.54250000  1.0 0.0281145641
C  C87  1  0.04180000  0.54250000  0.55180000  1.0 0.0281145641
C  C88  1  0.45750000  0.44820000  0.95820000  1.0 0.0281145641
C  C89  1  0.44820000  0.95820000  0.45750000  1.0 0.0281145641
C  C90  1  0.95820000  0.45750000  0.44820000  1.0 0.0281145641
C  C91  1  0.67860000  0.53560000  0.90660000  1.0 -0.3935648041
C  C92  1  0.53560000  0.90660000  0.67860000  1.0 -0.3935648041
C  C93  1  0.90660000  0.67860000  0.53560000  1.0 -0.3935648041
C  C94  1  0.32140000  0.46440000  0.09340000  1.0 -0.3935648041
C  C95  1  0.46440000  0.09340000  0.32140000  1.0 -0.3935648041
C  C96  1  0.09340000  0.32140000  0.46440000  1.0 -0.3935648041
C  C97  1  0.52210000  0.53210000  0.01110000  1.0 0.0462845479
C  C98  1  0.53210000  0.01110000  0.52210000  1.0 0.0462845479
C  C99  1  0.01110000  0.52210000  0.53210000  1.0 0.0462845479
C  C100  1  0.47790000  0.46790000  0.98890000  1.0 0.0446910622
C  C101  1  0.46790000  0.98890000  0.47790000  1.0 0.0462845479
C  C102  1  0.98890000  0.47790000  0.46790000  1.0 0.0462845479
C  C103  1  0.58810000  0.48600000  0.95850000  1.0 -0.2635819552
C  C104  1  0.48600000  0.95850000  0.58810000  1.0 -0.2635819552
C  C105  1  0.95850000  0.58810000  0.48600000  1.0 -0.2635819552
C  C106  1  0.41190000  0.51400000  0.04150000  1.0 -0.2635819552
C  C107  1  0.51400000  0.04150000  0.41190000  1.0 -0.2635819552
C  C108  1  0.04150000  0.41190000  0.51400000  1.0 -0.2635819552
C  C109  1  0.43110000  0.54780000  0.05490000  1.0 0.1302238054
C  C110  1  0.54780000  0.05490000  0.43110000  1.0 0.1302238054
C  C111  1  0.05490000  0.43110000  0.54780000  1.0 0.1302238054
C  C112  1  0.56890000  0.45220000  0.94510000  1.0 0.1302238054
C  C113  1  0.45220000  0.94510000  0.56890000  1.0 0.1302238054
C  C114  1  0.94510000  0.56890000  0.45220000  1.0 0.1302238054
C  C115  1  0.36220000  0.59690000  0.11040000  1.0 -0.4486781321
C  C116  1  0.59690000  0.11040000  0.36220000  1.0 -0.4486781321
C  C117  1  0.11040000  0.36220000  0.59690000  1.0 -0.4486781321
C  C118  1  0.63780000  0.40310000  0.88960000  1.0 -0.4486781321
C  C119  1  0.40310000  0.88960000  0.63780000  1.0 -0.4486781321
C  C120  1  0.88960000  0.63780000  0.40310000  1.0 -0.4486781321
C  C121  1  0.99370000  0.57350000  0.65830000  1.0 -0.1003334907
C  C122  1  0.57350000  0.65830000  0.99370000  1.0 -0.1003334907
C  C123  1  0.65830000  0.99370000  0.57350000  1.0 -0.1003334907
C  C124  1  0.00630000  0.42650000  0.34170000  1.0 -0.1003334907
C  C125  1  0.42650000  0.34170000  0.00630000  1.0 -0.1101758828
C  C126  1  0.34170000  0.00630000  0.42650000  1.0 -0.1003334907
C  C127  1  0.98410000  0.54580000  0.63230000  1.0 0.0572273539
C  C128  1  0.54580000  0.63230000  0.98410000  1.0 0.0572273539
C  C129  1  0.63230000  0.98410000  0.54580000  1.0 0.0572273539
C  C130  1  0.01590000  0.45420000  0.36770000  1.0 0.0572273539
C  C131  1  0.45420000  0.36770000  0.01590000  1.0 0.0572273539
C  C132  1  0.36770000  0.01590000  0.45420000  1.0 0.0572273539
C  C133  1  0.10970000  0.56620000  0.49710000  1.0 -0.1156145808
C  C134  1  0.56620000  0.49710000  0.10970000  1.0 -0.1156145808
C  C135  1  0.49710000  0.10970000  0.56620000  1.0 -0.1156145808
C  C136  1  0.89030000  0.43380000  0.50290000  1.0 -0.1156145808
C  C137  1  0.43380000  0.50290000  0.89030000  1.0 -0.1156145808
C  C138  1  0.50290000  0.89030000  0.43380000  1.0 -0.1101758828
C  C139  1  0.11950000  0.59360000  0.52350000  1.0 0.0462845479
C  C140  1  0.59360000  0.52350000  0.11950000  1.0 0.0462845479
C  C141  1  0.52350000  0.11950000  0.59360000  1.0 0.0462845479
C  C142  1  0.88050000  0.40640000  0.47650000  1.0 0.0462845479
C  C143  1  0.40640000  0.47650000  0.88050000  1.0 0.0462845479
C  C144  1  0.47650000  0.88050000  0.40640000  1.0 0.0462845479
C  C145  1  0.19260000  0.61920000  0.46380000  1.0 -0.4319968832
C  C146  1  0.61920000  0.46380000  0.19260000  1.0 -0.4319968832
C  C147  1  0.46380000  0.19260000  0.61920000  1.0 -0.4319968832
C  C148  1  0.80740000  0.38080000  0.53620000  1.0 -0.4319968832
C  C149  1  0.38080000  0.53620000  0.80740000  1.0 -0.4319968832
C  C150  1  0.53620000  0.80740000  0.38080000  1.0 -0.4319968832
C  C151  1  0.91160000  0.51990000  0.69110000  1.0 -0.4486781321
C  C152  1  0.51990000  0.69110000  0.91160000  1.0 -0.4486781321
C  C153  1  0.69110000  0.91160000  0.51990000  1.0 -0.4486781321
C  C154  1  0.08840000  0.48010000  0.30890000  1.0 -0.4486781321
C  C155  1  0.48010000  0.30890000  0.08840000  1.0 -0.4486781321
C  C156  1  0.30890000  0.08840000  0.48010000  1.0 -0.4486781321
O  O1  1  0.03623000  0.49803000  0.88513000  1.0 -0.4931994813
O  O2  1  0.49803000  0.88513000  0.03623000  1.0 -0.4931994813
O  O3  1  0.88513000  0.03623000  0.49803000  1.0 -0.4931994813
O  O4  1  0.96377000  0.50197000  0.11487000  1.0 -0.4931994813
O  O5  1  0.50197000  0.11487000  0.96377000  1.0 -0.4931994813
O  O6  1  0.11487000  0.96377000  0.50197000  1.0 -0.4931994813
O  O7  1  0.12959000  0.38819000  0.98099000  1.0 -0.5292102334
O  O8  1  0.38819000  0.98099000  0.12959000  1.0 -0.5292102334
O  O9  1  0.98099000  0.12959000  0.38819000  1.0 -0.5292102334
O  O10  1  0.87041000  0.61181000  0.01901000  1.0 -0.5292102334
O  O11  1  0.61181000  0.01901000  0.87041000  1.0 -0.5292102334
O  O12  1  0.01901000  0.87041000  0.61181000  1.0 -0.5292102334
O  O13  1  0.88525000  0.49945000  0.03475000  1.0 -0.4959008383
O  O14  1  0.49945000  0.03475000  0.88525000  1.0 -0.4959008383
O  O15  1  0.03475000  0.88525000  0.49945000  1.0 -0.4959008383
O  O16  1  0.11475000  0.50055000  0.96525000  1.0 -0.4959008383
O  O17  1  0.50055000  0.96525000  0.11475000  1.0 -0.4959008383
O  O18  1  0.96525000  0.11475000  0.50055000  1.0 -0.4959008383
O  O19  1  0.98072000  0.38782000  0.13032000  1.0 -0.5377913453
O  O20  1  0.38782000  0.13032000  0.98072000  1.0 -0.5377913453
O  O21  1  0.13032000  0.98072000  0.38782000  1.0 -0.5377913453
O  O22  1  0.01928000  0.61218000  0.86968000  1.0 -0.5377913453
O  O23  1  0.61218000  0.86968000  0.01928000  1.0 -0.5377913453
O  O24  1  0.86968000  0.01928000  0.61218000  1.0 -0.5377913453
