# DDEC6 charges by PACMAN v1.1 (https://github.com/mtap-research/PACMAN-charge/)
data_EJATIS_FSR_pacman
_symmetry_space_group_name_H-M   'P 1'
_cell_length_a   6.35540000
_cell_length_b   9.16600000
_cell_length_c   15.31100000
_cell_angle_alpha   90.27000000
_cell_angle_beta   91.33800000
_cell_angle_gamma   106.59400000
_symmetry_Int_Tables_number   1
_chemical_formula_structural   Fe3P6(HO11)2
_chemical_formula_sum   'Fe6 P12 H4 O44'
_cell_volume   854.48117727
_cell_formula_units_Z   2
loop_
 _symmetry_equiv_pos_site_id
 _symmetry_equiv_pos_as_xyz
  1  'x, y, z'
loop_
 _atom_site_type_symbol
 _atom_site_label
 _atom_site_symmetry_multiplicity
 _atom_site_fract_x
 _atom_site_fract_y
 _atom_site_fract_z
 _atom_site_occupancy
 _atom_site_charge
Fe  Fe1  1  0.76532000  0.03711000  0.38230000  1.0 1.3551759726
Fe  Fe2  1  0.23468000  0.96289000  0.61770000  1.0 1.3529001481
Fe  Fe3  1  0.74731000  0.04156000  0.12640000  1.0 1.0296810872
Fe  Fe4  1  0.25269000  0.95844000  0.87360000  1.0 1.0296810872
Fe  Fe5  1  0.12952000  0.68860000  0.24959000  1.0 1.3390437967
Fe  Fe6  1  0.87048000  0.31140000  0.75041000  1.0 1.3390437967
P  P1  1  0.65506000  0.77644000  0.27779000  1.0 1.4812251931
P  P2  1  0.34494000  0.22356000  0.72221000  1.0 1.4812251931
P  P3  1  0.82130000  0.33615000  0.25889000  1.0 0.443154425
P  P4  1  0.17870000  0.66385000  0.74111000  1.0 0.4451855427
P  P5  1  0.33550000  0.87470000  0.07954000  1.0 0.6136506206
P  P6  1  0.66450000  0.12530000  0.92046000  1.0 0.6136506206
P  P7  1  0.22401000  0.94976000  0.40192000  1.0 1.5137835747
P  P8  1  0.77599000  0.05024000  0.59808000  1.0 1.5137835747
P  P9  1  0.97250000  0.30350000  0.25400000  1.0 0.4982109672
P  P10  1  0.02750000  0.69650000  0.74600000  1.0 0.4982109672
P  P11  1  0.19700000  0.90660000  0.07929000  1.0 0.6701848811
P  P12  1  0.80300000  0.09340000  0.92071000  1.0 0.6701848811
H  H1  1  0.68320000  0.49670000  0.26120000  1.0 0.3826482302
H  H2  1  0.31680000  0.50330000  0.73880000  1.0 0.3826482302
H  H3  1  0.51180000  0.34700000  0.24200000  1.0 0.3537920124
H  H4  1  0.48820000  0.65300000  0.75800000  1.0 0.3537920124
O  O1  1  0.82640000  0.70610000  0.24210000  1.0 -0.7505794417
O  O2  1  0.17360000  0.29390000  0.75790000  1.0 -0.7505794417
O  O3  1  0.68060000  0.80630000  0.37748000  1.0 -0.7405808562
O  O4  1  0.31940000  0.19370000  0.62252000  1.0 -0.7405808562
O  O5  1  0.69280000  0.94150000  0.24361000  1.0 -0.7744530433
O  O6  1  0.30720000  0.05850000  0.75639000  1.0 -0.7744530433
O  O7  1  0.43220000  0.67110000  0.25099000  1.0 -0.7555127734
O  O8  1  0.56780000  0.32890000  0.74901000  1.0 -0.7505794417
O  O9  1  0.84190000  0.24290000  0.33639000  1.0 -0.4731186622
O  O10  1  0.15810000  0.75710000  0.66361000  1.0 -0.4731186622
O  O11  1  0.02240000  0.47360000  0.25300000  1.0 -0.4940164679
O  O12  1  0.97760000  0.52640000  0.74700000  1.0 -0.4940164679
O  O13  1  0.73650000  0.25400000  0.17670000  1.0 -0.1784841412
O  O14  1  0.26350000  0.74600000  0.82330000  1.0 -0.1784841412
O  O15  1  0.61650000  0.39660000  0.27210000  1.0 -0.4523045414
O  O16  1  0.38350000  0.60340000  0.72790000  1.0 -0.4523045414
O  O17  1  0.55150000  0.83090000  0.06830000  1.0 -0.3332486444
O  O18  1  0.44850000  0.16910000  0.93170000  1.0 -0.3332486444
O  O19  1  0.07180000  0.11260000  0.17960000  1.0 -0.0135141679
O  O20  1  0.92820000  0.88740000  0.82040000  1.0 -0.0135141679
O  O21  1  0.42550000  0.02010000  0.10870000  1.0 -0.5074574941
O  O22  1  0.57450000  0.97990000  0.89130000  1.0 -0.5074574941
O  O23  1  0.18190000  0.86760000  0.98800000  1.0 -0.5220480853
O  O24  1  0.81810000  0.13240000  0.01200000  1.0 -0.5220480853
O  O25  1  0.16400000  0.75940000  0.13311000  1.0 -0.5220480853
O  O26  1  0.83600000  0.24060000  0.86689000  1.0 -0.5220480853
O  O27  1  0.18550000  0.79490000  0.35630000  1.0 -0.7505794417
O  O28  1  0.81450000  0.20510000  0.64370000  1.0 -0.7505794417
O  O29  1  0.46140000  0.04780000  0.39090000  1.0 -0.7505794417
O  O30  1  0.53860000  0.95220000  0.60910000  1.0 -0.7505794417
O  O31  1  0.07520000  0.03870000  0.36290000  1.0 -0.7138884062
O  O32  1  0.92480000  0.96130000  0.63710000  1.0 -0.7138884062
O  O33  1  0.17380000  0.91520000  0.49774000  1.0 -0.7202186578
O  O34  1  0.82620000  0.08480000  0.50226000  1.0 -0.7202186578
O  O35  1  0.26900000  0.21650000  0.23860000  1.0 0.0990433476
O  O36  1  0.73100000  0.78350000  0.76140000  1.0 0.0990433476
O  O37  1  0.84630000  0.23300000  0.17160000  1.0 -0.1081889117
O  O38  1  0.15370000  0.76700000  0.82840000  1.0 -0.1081889117
O  O39  1  0.19700000  0.25700000  0.26210000  1.0 0.050397311
O  O40  1  0.80300000  0.74300000  0.73790000  1.0 0.050397311
O  O41  1  0.04260000  0.99760000  0.10830000  1.0 -0.2412672037
O  O42  1  0.95740000  0.00240000  0.89170000  1.0 -0.2412672037
O  O43  1  0.79590000  0.84920000  0.07720000  1.0 -0.0302472649
O  O44  1  0.20410000  0.15080000  0.92280000  1.0 -0.0302472649
