# DDEC6 charges by PACMAN v1.1 (https://github.com/mtap-research/PACMAN-charge/)
data_EJEFIL_ASR_pacman
_symmetry_space_group_name_H-M   'P 1'
_cell_length_a   12.09420000
_cell_length_b   13.72560000
_cell_length_c   18.87910000
_cell_angle_alpha   70.52400000
_cell_angle_beta   72.49900000
_cell_angle_gamma   79.02500000
_symmetry_Int_Tables_number   1
_chemical_formula_structural   K3CoC51N7O15
_chemical_formula_sum   'K6 Co2 C102 N14 O30'
_cell_volume   2803.66125613
_cell_formula_units_Z   2
loop_
 _symmetry_equiv_pos_site_id
 _symmetry_equiv_pos_as_xyz
  1  'x, y, z'
loop_
 _atom_site_type_symbol
 _atom_site_label
 _atom_site_symmetry_multiplicity
 _atom_site_fract_x
 _atom_site_fract_y
 _atom_site_fract_z
 _atom_site_occupancy
 _atom_site_charge
K  K1  1  0.14210000  0.08700000  0.95830000  1.0 0.8426433031
K  K2  1  0.69180000  0.97620000  0.87720000  1.0 0.8809493009
K  K3  1  0.95300000  0.12660000  0.78030000  1.0 0.9129849498
K  K4  1  0.85790000  0.91300000  0.04170000  1.0 0.8426433031
K  K5  1  0.30820000  0.02380000  0.12280000  1.0 0.8809493009
K  K6  1  0.04700000  0.87340000  0.21970000  1.0 0.9129849498
Co  Co1  1  0.65163000  0.42107000  0.22039000  1.0 0.6171207849
Co  Co2  1  0.34837000  0.57893000  0.77961000  1.0 0.6171207849
C  C1  1  0.78600000  0.53000000  0.07220000  1.0 0.1607015306
C  C2  1  0.52480000  0.42810000  0.36800000  1.0 0.177354635
C  C3  1  0.82510000  0.55940000  0.99210000  1.0 -0.0884198945
C  C4  1  0.83350000  0.55780000  0.12490000  1.0 0.1887824808
C  C5  1  0.55430000  0.36440000  0.11630000  1.0 0.177354635
C  C6  1  0.49570000  0.39720000  0.44870000  1.0 -0.0995724761
C  C7  1  0.34000000  0.75430000  0.14050000  1.0 0.6442436997
C  C8  1  0.38290000  0.67310000  0.20670000  1.0 -0.0995724761
C  C9  1  0.64950000  0.43630000  0.06650000  1.0 0.1607015306
C  C10  1  0.68390000  0.46210000  0.98780000  1.0 -0.0821442816
C  C11  1  0.45850000  0.18720000  0.73700000  1.0 -0.0638289934
C  C12  1  0.47120000  0.51840000  0.31740000  1.0 0.1607015306
C  C13  1  0.84070000  0.26300000  0.17790000  1.0 0.0985112388
C  C14  1  0.67040000  0.28660000  0.36540000  1.0 0.1509117011
C  C15  1  0.56310000  0.15280000  0.69590000  1.0 0.0501481878
C  C16  1  0.48170000  0.60580000  0.18540000  1.0 0.1059997444
C  C17  1  0.49330000  0.32100000  0.08410000  1.0 -0.0534417133
C  C18  1  0.90520000  0.60480000  0.23280000  1.0 -0.0884198945
C  C19  1  0.92400000  0.62290000  0.09890000  1.0 -0.0638289934
C  C20  1  0.78500000  0.51040000  0.81860000  1.0 -0.0404727094
C  C21  1  0.81720000  0.55890000  0.86050000  1.0 0.0230684869
C  C22  1  0.38360000  0.26360000  0.70140000  1.0 0.0278355205
C  C23  1  0.41210000  0.25590000  0.13520000  1.0 0.0278355205
C  C24  1  0.37410000  0.58370000  0.34090000  1.0 -0.0674210216
C  C25  1  0.64310000  0.25080000  0.44620000  1.0 -0.0196573583
C  C26  1  0.46110000  0.28080000  0.23990000  1.0 0.0899085854
C  C27  1  0.76170000  0.24250000  0.30840000  1.0 0.1887824808
C  C28  1  0.41290000  0.30120000  0.61990000  1.0 0.0098739641
C  C29  1  0.83620000  0.15370000  0.32900000  1.0 -0.0404727094
C  C30  1  0.31730000  0.15250000  0.27050000  1.0 0.6305051867
C  C31  1  0.55470000  0.30390000  0.49130000  1.0 0.0985112388
C  C32  1  0.39990000  0.22940000  0.21510000  1.0 -0.1206693998
C  C33  1  0.33290000  0.66340000  0.28370000  1.0 0.0985112388
C  C34  1  0.59510000  0.19090000  0.61380000  1.0 0.0278355205
C  C35  1  0.42390000  0.14520000  0.82730000  1.0 0.6142742161
C  C36  1  0.82000000  0.53600000  0.25590000  1.0 0.0899085854
C  C37  1  0.52140000  0.26750000  0.57320000  1.0 0.0429555376
C  C38  1  0.91600000  0.11980000  0.26880000  1.0 0.0611567646
C  C39  1  0.96040000  0.64270000  0.15560000  1.0 0.0611567646
C  C40  1  0.77610000  0.52850000  0.94670000  1.0 0.1059997444
C  C41  1  0.92060000  0.17410000  0.19260000  1.0 -0.0995724761
C  C42  1  0.82170000  0.54170000  0.73580000  1.0 0.0845873442
C  C43  1  0.93610000  0.62780000  0.29730000  1.0 0.6142742161
C  C44  1  0.00500000  0.14440000  0.12330000  1.0 0.658309025
C  C45  1  0.92730000  0.66960000  0.73960000  1.0 0.0278355205
C  C46  1  0.88440000  0.64230000  0.82230000  1.0 -0.0196573583
C  C47  1  0.89910000  0.62150000  0.69840000  1.0 -0.0534417133
C  C48  1  0.94500000  0.64900000  0.61200000  1.0 0.5819849197
C  C49  1  0.40200000  0.97800000  0.68200000  1.0 -0.1659673031
C  C50  1  0.23000000  0.06000000  0.75300000  1.0 0.4209392194
C  C51  1  0.33400000  0.91300000  0.82400000  1.0 0.0985112388
C  C52  1  0.21400000  0.47000000  0.92780000  1.0 0.1607015306
C  C53  1  0.47520000  0.57190000  0.63200000  1.0 0.177354635
C  C54  1  0.17490000  0.44060000  0.00790000  1.0 -0.0884198945
C  C55  1  0.16650000  0.44220000  0.87510000  1.0 0.1887824808
C  C56  1  0.44570000  0.63560000  0.88370000  1.0 0.177354635
C  C57  1  0.50430000  0.60280000  0.55130000  1.0 -0.0995724761
C  C58  1  0.66000000  0.24570000  0.85950000  1.0 0.6442436997
C  C59  1  0.61710000  0.32690000  0.79330000  1.0 -0.0995724761
C  C60  1  0.35050000  0.56370000  0.93350000  1.0 0.1607015306
C  C61  1  0.31610000  0.53790000  0.01220000  1.0 -0.0821442816
C  C62  1  0.54150000  0.81280000  0.26300000  1.0 -0.0638289934
C  C63  1  0.52880000  0.48160000  0.68260000  1.0 0.1607015306
C  C64  1  0.15930000  0.73700000  0.82210000  1.0 0.0985112388
C  C65  1  0.32960000  0.71340000  0.63460000  1.0 0.1509117011
C  C66  1  0.43690000  0.84720000  0.30410000  1.0 0.0501481878
C  C67  1  0.51830000  0.39420000  0.81460000  1.0 0.1059997444
C  C68  1  0.50670000  0.67900000  0.91590000  1.0 -0.0534417133
C  C69  1  0.09480000  0.39520000  0.76720000  1.0 -0.0884198945
C  C70  1  0.07600000  0.37710000  0.90110000  1.0 -0.0638289934
C  C71  1  0.21500000  0.48960000  0.18140000  1.0 -0.0404727094
C  C72  1  0.18280000  0.44110000  0.13950000  1.0 0.0230684869
C  C73  1  0.61640000  0.73640000  0.29860000  1.0 0.0278355205
C  C74  1  0.58790000  0.74410000  0.86480000  1.0 0.0278355205
C  C75  1  0.62590000  0.41630000  0.65910000  1.0 -0.0674210216
C  C76  1  0.35690000  0.74920000  0.55380000  1.0 -0.0196573583
C  C77  1  0.53890000  0.71920000  0.76010000  1.0 0.0899085854
C  C78  1  0.23830000  0.75750000  0.69160000  1.0 0.1887824808
C  C79  1  0.58710000  0.69880000  0.38010000  1.0 0.0098739641
C  C80  1  0.16380000  0.84630000  0.67100000  1.0 -0.0404727094
C  C81  1  0.68270000  0.84750000  0.72950000  1.0 0.6305051867
C  C82  1  0.44530000  0.69610000  0.50870000  1.0 0.0985112388
C  C83  1  0.60010000  0.77060000  0.78490000  1.0 -0.1206693998
C  C84  1  0.66710000  0.33660000  0.71630000  1.0 0.0899085854
C  C85  1  0.40490000  0.80910000  0.38620000  1.0 0.0278355205
C  C86  1  0.57610000  0.85480000  0.17270000  1.0 0.6142742161
C  C87  1  0.18000000  0.46400000  0.74410000  1.0 0.0899085854
C  C88  1  0.47860000  0.73250000  0.42680000  1.0 0.0429555376
C  C89  1  0.08400000  0.88020000  0.73120000  1.0 0.0501481878
C  C90  1  0.03960000  0.35730000  0.84440000  1.0 0.0611567646
C  C91  1  0.22390000  0.47150000  0.05330000  1.0 0.1059997444
C  C92  1  0.07940000  0.82590000  0.80740000  1.0 -0.0995724761
C  C93  1  0.17830000  0.45830000  0.26420000  1.0 0.0845873442
C  C94  1  0.06390000  0.37220000  0.70270000  1.0 0.6142742161
C  C95  1  0.99500000  0.85560000  0.87670000  1.0 0.654466552
C  C96  1  0.07270000  0.33040000  0.26040000  1.0 0.0278355205
C  C97  1  0.11560000  0.35770000  0.17770000  1.0 -0.0196573583
C  C98  1  0.10090000  0.37850000  0.30160000  1.0 -0.0534417133
C  C99  1  0.05500000  0.35100000  0.38800000  1.0 0.5852240745
C  C100  1  0.59800000  0.02200000  0.31800000  1.0 -0.1600959178
C  C101  1  0.77000000  0.94000000  0.24700000  1.0 0.4209392194
C  C102  1  0.66600000  0.08700000  0.17600000  1.0 0.1059997444
N  N1  1  0.61100000  0.37580000  0.32590000  1.0 -0.2510353278
N  N2  1  0.69650000  0.46770000  0.11040000  1.0 -0.2278723951
N  N3  1  0.78490000  0.51760000  0.20060000  1.0 -0.2278723951
N  N4  1  0.76590000  0.29590000  0.23410000  1.0 -0.2365044778
N  N5  1  0.52440000  0.52970000  0.23940000  1.0 -0.2365044778
N  N6  1  0.53480000  0.34420000  0.19260000  1.0 -0.2510353278
N  N7  1  0.31400000  0.99300000  0.75220000  1.0 -0.0884198945
N  N8  1  0.38900000  0.62420000  0.67410000  1.0 -0.2510353278
N  N9  1  0.30350000  0.53230000  0.88960000  1.0 -0.2278723951
N  N10  1  0.21510000  0.48240000  0.79940000  1.0 -0.2278723951
N  N11  1  0.23410000  0.70410000  0.76590000  1.0 -0.2365044778
N  N12  1  0.47560000  0.47030000  0.76060000  1.0 -0.2278723951
N  N13  1  0.46520000  0.65580000  0.80740000  1.0 -0.2510353278
N  N14  1  0.68600000  0.00700000  0.24780000  1.0 -0.0884198945
O  O1  1  0.38750000  0.75430000  0.07200000  1.0 -0.478345352
O  O2  1  0.48790000  0.07410000  0.85850000  1.0 -0.5255214747
O  O3  1  0.27230000  0.10200000  0.24210000  1.0 -0.6198265876
O  O4  1  0.32900000  0.18590000  0.86340000  1.0 -0.6010224994
O  O5  1  0.87570000  0.59770000  0.36570000  1.0 -0.49104851
O  O6  1  0.07570000  0.06740000  0.13660000  1.0 -0.6478207584
O  O7  1  0.02290000  0.67760000  0.27870000  1.0 -0.6198265876
O  O8  1  0.25540000  0.82070000  0.16020000  1.0 -0.6706637617
O  O9  1  0.29860000  0.13830000  0.34380000  1.0 -0.5098975178
O  O10  1  0.98360000  0.19390000  0.05330000  1.0 -0.5510218914
O  O11  1  0.90820000  0.62010000  0.56880000  1.0 -0.4136682179
O  O12  1  0.03500000  0.69800000  0.58200000  1.0 -0.49104851
O  O13  1  0.33990000  0.96430000  0.98890000  1.0 0.0985112388
O  O14  1  0.15720000  0.07540000  0.81250000  1.0 -0.5845586832
O  O15  1  0.90020000  0.12520000  0.95900000  1.0 -0.1253198485
O  O16  1  0.61250000  0.24570000  0.92800000  1.0 -0.478345352
O  O17  1  0.51210000  0.92590000  0.14150000  1.0 -0.5255214747
O  O18  1  0.72770000  0.89800000  0.75790000  1.0 -0.6198265876
O  O19  1  0.67100000  0.81410000  0.13660000  1.0 -0.6010224994
O  O20  1  0.12430000  0.40230000  0.63430000  1.0 -0.49104851
O  O21  1  0.92430000  0.93260000  0.86340000  1.0 -0.6478207584
O  O22  1  0.97710000  0.32240000  0.72130000  1.0 -0.6198265876
O  O23  1  0.74460000  0.17930000  0.83980000  1.0 -0.6706637617
O  O24  1  0.70140000  0.86170000  0.65620000  1.0 -0.5098975178
O  O25  1  0.01640000  0.80610000  0.94670000  1.0 -0.5510218914
O  O26  1  0.09180000  0.37990000  0.43120000  1.0 -0.4136682179
O  O27  1  0.96500000  0.30200000  0.41800000  1.0 -0.49104851
O  O28  1  0.66010000  0.03570000  0.01110000  1.0 0.0985112388
O  O29  1  0.84280000  0.92460000  0.18750000  1.0 -0.5845586832
O  O30  1  0.09980000  0.87480000  0.04100000  1.0 -0.1206693998
