# DDEC6 charges by PACMAN v1.1 (https://github.com/mtap-research/PACMAN-charge/)
data_EJELUD_ASR_pacman
_symmetry_space_group_name_H-M   'P 1'
_cell_length_a   9.66670000
_cell_length_b   13.74710000
_cell_length_c   14.66470000
_cell_angle_alpha   88.69400000
_cell_angle_beta   81.08700000
_cell_angle_gamma   88.70000000
_symmetry_Int_Tables_number   1
_chemical_formula_structural   Zn3P5H26C27N7O10
_chemical_formula_sum   'Zn6 P10 H52 C54 N14 O20'
_cell_volume   1924.38446727
_cell_formula_units_Z   2
loop_
 _symmetry_equiv_pos_site_id
 _symmetry_equiv_pos_as_xyz
  1  'x, y, z'
loop_
 _atom_site_type_symbol
 _atom_site_label
 _atom_site_symmetry_multiplicity
 _atom_site_fract_x
 _atom_site_fract_y
 _atom_site_fract_z
 _atom_site_occupancy
 _atom_site_charge
Zn  Zn1  1  0.13036000  0.83887000  0.62548000  1.0 0.8722211494
Zn  Zn2  1  0.63288000  0.97094000  0.66870000  1.0 0.9055053367
Zn  Zn3  1  0.00900000  0.07781000  0.76684000  1.0 0.8722211494
Zn  Zn4  1  0.86964000  0.16113000  0.37452000  1.0 0.8722211494
Zn  Zn5  1  0.36712000  0.02906000  0.33130000  1.0 0.9039497151
Zn  Zn6  1  0.99100000  0.92219000  0.23316000  1.0 0.8722211494
P  P1  1  0.85932000  0.87387000  0.77724000  1.0 1.0376296415
P  P2  1  0.85470000  0.14270000  0.60140000  1.0 0.3173793926
P  P3  1  0.30420000  0.00800000  0.70070000  1.0 0.4194276109
P  P4  1  0.87520000  0.09810000  0.58370000  1.0 0.3133217766
P  P5  1  0.29650000  0.97860000  0.74700000  1.0 0.352767609
P  P6  1  0.14068000  0.12613000  0.22276000  1.0 1.0376296415
P  P7  1  0.14530000  0.85730000  0.39860000  1.0 0.3173793926
P  P8  1  0.69580000  0.99200000  0.29930000  1.0 0.4194276109
P  P9  1  0.12480000  0.90190000  0.41630000  1.0 0.3133217766
P  P10  1  0.70350000  0.02140000  0.25300000  1.0 0.352767609
H  H1  1  0.83568000  0.83460000  0.53897000  1.0 0.1198785077
H  H2  1  0.43453000  0.88047000  0.53160000  1.0 0.1198785077
H  H3  1  0.51624000  0.75512000  0.42025000  1.0 0.129604241
H  H4  1  0.90025000  0.65456000  0.51150000  1.0 0.1198785077
H  H5  1  0.05232000  0.54797000  0.42313000  1.0 0.1198785077
H  H6  1  0.87400000  0.62072000  0.20136000  1.0 0.1198785077
H  H7  1  0.72634000  0.72847000  0.28888000  1.0 0.129604241
H  H8  1  0.27801000  0.61453000  0.28606000  1.0 0.129604241
H  H9  1  0.49096000  0.56401000  0.32714000  1.0 0.129604241
H  H10  1  0.37613000  0.28644000  0.32723000  1.0 0.129604241
H  H11  1  0.16556000  0.33584000  0.28292000  1.0 0.1381145417
H  H12  1  0.63312000  0.48815000  0.44697000  1.0 0.1198785077
H  H13  1  0.82811000  0.37542000  0.46939000  1.0 0.1198785077
H  H14  1  0.62166000  0.25994000  0.29078000  1.0 0.1198785077
H  H15  1  0.22233000  0.45596000  0.09734000  1.0 0.129604241
H  H16  1  0.16151000  0.36730000  0.97784000  1.0 0.129604241
H  H17  1  0.77072000  0.34981000  0.11109000  1.0 0.129604241
H  H18  1  0.83006000  0.44020000  0.22994000  1.0 0.1198785077
H  H19  1  0.09074000  0.20240000  0.92888000  1.0 0.1198785077
H  H20  1  0.72514000  0.34077000  0.94428000  1.0 0.1198785077
H  H21  1  0.74478000  0.21901000  0.82166000  1.0 0.129604241
H  H22  1  0.85473000  0.82189000  0.82440000  1.0 0.0263359351
H  H23  1  0.83939000  0.20989000  0.62220000  1.0 0.0041973232
H  H24  1  0.31680000  0.06489000  0.62375000  1.0 -0.1254925058
H  H25  1  0.89188000  0.03120000  0.56240000  1.0 0.0435885488
H  H26  1  0.29111000  0.92689000  0.82692000  1.0 0.1130452938
H  H27  1  0.16432000  0.16540000  0.46103000  1.0 0.1198785077
H  H28  1  0.56547000  0.11953000  0.46840000  1.0 0.1198785077
H  H29  1  0.48376000  0.24488000  0.57975000  1.0 0.129604241
H  H30  1  0.09975000  0.34544000  0.48850000  1.0 0.1198785077
H  H31  1  0.94768000  0.45203000  0.57687000  1.0 0.1198785077
H  H32  1  0.12600000  0.37928000  0.79864000  1.0 0.1198785077
H  H33  1  0.27366000  0.27153000  0.71112000  1.0 0.129604241
H  H34  1  0.72199000  0.38547000  0.71394000  1.0 0.129604241
H  H35  1  0.50904000  0.43599000  0.67286000  1.0 0.129604241
H  H36  1  0.62387000  0.71356000  0.67277000  1.0 0.129604241
H  H37  1  0.83444000  0.66416000  0.71708000  1.0 0.1381145417
H  H38  1  0.36688000  0.51185000  0.55303000  1.0 0.1198785077
H  H39  1  0.17189000  0.62458000  0.53061000  1.0 0.1198785077
H  H40  1  0.37834000  0.74006000  0.70922000  1.0 0.1198785077
H  H41  1  0.77767000  0.54404000  0.90266000  1.0 0.129604241
H  H42  1  0.83849000  0.63270000  0.02216000  1.0 0.129604241
H  H43  1  0.22928000  0.65019000  0.88891000  1.0 0.129604241
H  H44  1  0.16994000  0.55980000  0.77006000  1.0 0.1198785077
H  H45  1  0.90926000  0.79760000  0.07112000  1.0 0.1198785077
H  H46  1  0.27486000  0.65923000  0.05572000  1.0 0.1198785077
H  H47  1  0.25522000  0.78099000  0.17834000  1.0 0.129604241
H  H48  1  0.14527000  0.17811000  0.17560000  1.0 0.0263359351
H  H49  1  0.16061000  0.79011000  0.37780000  1.0 0.0041973232
H  H50  1  0.68320000  0.93511000  0.37625000  1.0 -0.1246999801
H  H51  1  0.10812000  0.96880000  0.43760000  1.0 0.0435885488
H  H52  1  0.70889000  0.07311000  0.17308000  1.0 0.1130452938
C  C1  1  0.74590000  0.83000000  0.52420000  1.0 0.1016220487
C  C2  1  0.52530000  0.85490000  0.51950000  1.0 -0.028911539
C  C3  1  0.56950000  0.78610000  0.45810000  1.0 -0.1023392715
C  C4  1  0.80070000  0.70200000  0.40750000  1.0 0.1381145417
C  C5  1  0.89620000  0.64820000  0.44900000  1.0 -0.169802256
C  C6  1  0.98660000  0.58400000  0.39580000  1.0 -0.1898146794
C  C7  1  0.98040000  0.57300000  0.30310000  1.0 0.1781496032
C  C8  1  0.88060000  0.62780000  0.26350000  1.0 -0.169802256
C  C9  1  0.79200000  0.69190000  0.31570000  1.0 -0.1589373326
C  C10  1  0.20110000  0.47990000  0.27890000  1.0 0.1641946211
C  C11  1  0.29800000  0.54860000  0.29330000  1.0 -0.169802256
C  C12  1  0.42480000  0.51830000  0.31870000  1.0 -0.169802256
C  C13  1  0.45300000  0.41980000  0.33140000  1.0 0.1381145417
C  C14  1  0.35690000  0.35230000  0.31840000  1.0 -0.1441540085
C  C15  1  0.23080000  0.38200000  0.29200000  1.0 -0.1527568773
C  C16  1  0.65410000  0.42860000  0.41860000  1.0 -0.1023392715
C  C17  1  0.76250000  0.36600000  0.43040000  1.0 -0.028911539
C  C18  1  0.64910000  0.30250000  0.33270000  1.0 0.1016220487
C  C19  1  0.03210000  0.45690000  0.17660000  1.0 0.1716003343
C  C20  1  0.13100000  0.43480000  0.10040000  1.0 -0.169802256
C  C21  1  0.09490000  0.38140000  0.02890000  1.0 -0.1589373326
C  C22  1  0.96160000  0.34960000  0.03370000  1.0 0.1381145417
C  C23  1  0.86180000  0.37130000  0.10840000  1.0 -0.1441540085
C  C24  1  0.89760000  0.42520000  0.17960000  1.0 -0.169802256
C  C25  1  0.00240000  0.22180000  0.91700000  1.0 0.1130452938
C  C26  1  0.80090000  0.29890000  0.92610000  1.0 -0.1069043503
C  C27  1  0.81250000  0.23060000  0.85850000  1.0 -0.0122177979
C  C28  1  0.25410000  0.17000000  0.47580000  1.0 0.1016220487
C  C29  1  0.47470000  0.14510000  0.48050000  1.0 -0.028911539
C  C30  1  0.43050000  0.21390000  0.54190000  1.0 -0.1023392715
C  C31  1  0.19930000  0.29800000  0.59250000  1.0 0.1381145417
C  C32  1  0.10380000  0.35180000  0.55100000  1.0 -0.169802256
C  C33  1  0.01340000  0.41600000  0.60420000  1.0 -0.1898146794
C  C34  1  0.01960000  0.42700000  0.69690000  1.0 0.1781496032
C  C35  1  0.11940000  0.37220000  0.73650000  1.0 -0.169802256
C  C36  1  0.20800000  0.30810000  0.68430000  1.0 -0.1589373326
C  C37  1  0.79890000  0.52010000  0.72110000  1.0 0.1641946211
C  C38  1  0.70200000  0.45140000  0.70670000  1.0 -0.169802256
C  C39  1  0.57520000  0.48170000  0.68130000  1.0 -0.169802256
C  C40  1  0.54700000  0.58020000  0.66860000  1.0 0.1381145417
C  C41  1  0.64310000  0.64770000  0.68160000  1.0 -0.1441540085
C  C42  1  0.76920000  0.61800000  0.70800000  1.0 -0.1527568773
C  C43  1  0.34590000  0.57140000  0.58140000  1.0 -0.1023392715
C  C44  1  0.23750000  0.63400000  0.56960000  1.0 -0.028911539
C  C45  1  0.35090000  0.69750000  0.66730000  1.0 0.1016220487
C  C46  1  0.96790000  0.54310000  0.82340000  1.0 0.1716003343
C  C47  1  0.86900000  0.56520000  0.89960000  1.0 -0.169802256
C  C48  1  0.90510000  0.61860000  0.97110000  1.0 -0.1589373326
C  C49  1  0.03840000  0.65040000  0.96630000  1.0 0.1381145417
C  C50  1  0.13820000  0.62870000  0.89160000  1.0 -0.1441540085
C  C51  1  0.10240000  0.57480000  0.82040000  1.0 -0.169802256
C  C52  1  0.99760000  0.77820000  0.08300000  1.0 0.1130452938
C  C53  1  0.19910000  0.70110000  0.07390000  1.0 -0.1069043503
C  C54  1  0.18750000  0.76940000  0.14150000  1.0 -0.0122177979
N  N1  1  0.63520000  0.88180000  0.56170000  1.0 -0.3356403634
N  N2  1  0.70930000  0.77030000  0.46210000  1.0 -0.0122177979
N  N3  1  0.07270000  0.50850000  0.24920000  1.0 -0.1589373326
N  N4  1  0.58340000  0.38660000  0.35740000  1.0 0.0072820279
N  N5  1  0.75840000  0.28780000  0.37600000  1.0 -0.2917051837
N  N6  1  0.92400000  0.29270000  0.96130000  1.0 0.0072820279
N  N7  1  0.93680000  0.18280000  0.85350000  1.0 -0.2835430131
N  N8  1  0.36480000  0.11820000  0.43830000  1.0 -0.3356403634
N  N9  1  0.29070000  0.22970000  0.53790000  1.0 -0.0122177979
N  N10  1  0.92730000  0.49150000  0.75080000  1.0 -0.1589373326
N  N11  1  0.41660000  0.61340000  0.64260000  1.0 0.0072820279
N  N12  1  0.24160000  0.71220000  0.62400000  1.0 -0.2917051837
N  N13  1  0.07600000  0.70730000  0.03870000  1.0 0.0072820279
N  N14  1  0.06320000  0.81720000  0.14650000  1.0 -0.2835430131
O  O1  1  0.94620000  0.83310000  0.69260000  1.0 -0.7236722932
O  O2  1  0.92440000  0.95870000  0.81680000  1.0 -0.6752252207
O  O3  1  0.71100000  0.89390000  0.76310000  1.0 -0.68600031
O  O4  1  0.97780000  0.10380000  0.64430000  1.0 -0.490361395
O  O5  1  0.89880000  0.15090000  0.49830000  1.0 -0.5027918146
O  O6  1  0.72520000  0.09040000  0.63440000  1.0 -0.5027918146
O  O7  1  0.44910000  0.00600000  0.72650000  1.0 -0.490361395
O  O8  1  0.25440000  0.91760000  0.67920000  1.0 -0.5190468456
O  O9  1  0.20870000  0.06740000  0.77090000  1.0 -0.490361395
O  O10  1  0.20500000  0.88740000  0.90190000  1.0 -0.5255069957
O  O11  1  0.05380000  0.16690000  0.30740000  1.0 -0.7236722932
O  O12  1  0.07560000  0.04130000  0.18320000  1.0 -0.6752252207
O  O13  1  0.28900000  0.10610000  0.23690000  1.0 -0.68600031
O  O14  1  0.02220000  0.89620000  0.35570000  1.0 -0.490361395
O  O15  1  0.10120000  0.84910000  0.50170000  1.0 -0.5027918146
O  O16  1  0.27480000  0.90960000  0.36560000  1.0 -0.5027918146
O  O17  1  0.55090000  0.99400000  0.27350000  1.0 -0.490361395
O  O18  1  0.74560000  0.08240000  0.32080000  1.0 -0.5190468456
O  O19  1  0.79130000  0.93260000  0.22910000  1.0 -0.490361395
O  O20  1  0.79500000  0.11260000  0.09810000  1.0 -0.5190468456
