# DDEC6 charges by PACMAN v1.1 (https://github.com/mtap-research/PACMAN-charge/)
data_EJESUJ_ASR_pacman
_symmetry_space_group_name_H-M   'P 1'
_cell_length_a   17.07860000
_cell_length_b   17.07860000
_cell_length_c   31.16600000
_cell_angle_alpha   79.58490000
_cell_angle_beta   100.41500000
_cell_angle_gamma   90.78450000
_symmetry_Int_Tables_number   1
_chemical_formula_structural   NaEu2C56(N2O5)6
_chemical_formula_sum   'Na2 Eu4 C112 N24 O60'
_cell_volume   8791.67950356
_cell_formula_units_Z   2
loop_
 _symmetry_equiv_pos_site_id
 _symmetry_equiv_pos_as_xyz
  1  'x, y, z'
loop_
 _atom_site_type_symbol
 _atom_site_label
 _atom_site_symmetry_multiplicity
 _atom_site_fract_x
 _atom_site_fract_y
 _atom_site_fract_z
 _atom_site_occupancy
 _atom_site_charge
Na  Na1  1  0.00460000  0.00460000  0.75000000  1.0 0.9171135754
Na  Na2  1  0.99540000  0.99540000  0.25000000  1.0 0.9171135754
Eu  Eu1  1  0.95857000  0.91861000  0.38270000  1.0 2.0324146679
Eu  Eu2  1  0.91860000  0.95858000  0.11730000  1.0 2.0351821513
Eu  Eu3  1  0.04142000  0.08139000  0.61730000  1.0 2.0324146679
Eu  Eu4  1  0.08140000  0.04142000  0.88270000  1.0 2.0324146679
C  C1  1  0.01210000  0.76730000  0.47360000  1.0 0.6413398912
C  C2  1  0.76730000  0.01210000  0.02640000  1.0 0.6413398912
C  C3  1  0.98790000  0.23270000  0.52640000  1.0 0.6413398912
C  C4  1  0.23270000  0.98790000  0.97360000  1.0 0.6413398912
C  C5  1  0.01560000  0.77160000  0.52070000  1.0 -0.0919843335
C  C6  1  0.77160000  0.01560000  0.97930000  1.0 -0.0919843335
C  C7  1  0.98440000  0.22840000  0.47930000  1.0 -0.0919843335
C  C8  1  0.22840000  0.98440000  0.02070000  1.0 -0.0919843335
C  C9  1  0.01520000  0.70280000  0.55130000  1.0 0.0229257175
C  C10  1  0.70280000  0.01520000  0.94870000  1.0 0.0314841707
C  C11  1  0.98480000  0.29720000  0.44870000  1.0 0.0229257175
C  C12  1  0.29720000  0.98480000  0.05130000  1.0 0.0229257175
C  C13  1  0.02260000  0.70600000  0.59710000  1.0 0.1679086344
C  C14  1  0.70600000  0.02260000  0.90290000  1.0 0.16361295
C  C15  1  0.97740000  0.29400000  0.40290000  1.0 0.16361295
C  C16  1  0.29400000  0.97740000  0.09710000  1.0 0.1679086344
C  C17  1  0.02840000  0.78160000  0.61120000  1.0 0.1002173082
C  C18  1  0.78160000  0.02840000  0.88880000  1.0 0.1002173082
C  C19  1  0.97160000  0.21840000  0.38880000  1.0 0.1002173082
C  C20  1  0.21840000  0.97160000  0.11120000  1.0 0.1002173082
C  C21  1  0.02920000  0.85000000  0.57850000  1.0 -0.1082449847
C  C22  1  0.85000000  0.02920000  0.92150000  1.0 -0.1082449847
C  C23  1  0.97080000  0.15000000  0.42150000  1.0 -0.1082449847
C  C24  1  0.15000000  0.97080000  0.07850000  1.0 -0.1001569252
C  C25  1  0.02100000  0.84520000  0.53350000  1.0 0.0882480498
C  C26  1  0.84520000  0.02100000  0.96650000  1.0 0.0882480498
C  C27  1  0.97900000  0.15480000  0.46650000  1.0 0.0882480498
C  C28  1  0.15480000  0.97900000  0.03350000  1.0 0.078975282
C  C29  1  0.03690000  0.92930000  0.59270000  1.0 0.630326073
C  C30  1  0.92930000  0.03690000  0.90730000  1.0 0.630326073
C  C31  1  0.96310000  0.07070000  0.40730000  1.0 0.630326073
C  C32  1  0.07070000  0.96310000  0.09270000  1.0 0.630326073
C  C33  1  0.02500000  0.61740000  0.67060000  1.0 0.5183876933
C  C34  1  0.61740000  0.02500000  0.82940000  1.0 0.5183876933
C  C35  1  0.97500000  0.38260000  0.32940000  1.0 0.5183876933
C  C36  1  0.38260000  0.97500000  0.17060000  1.0 0.5183876933
C  C37  1  0.02950000  0.52510000  0.73170000  1.0 0.5335349173
C  C38  1  0.52510000  0.02950000  0.76830000  1.0 0.5335349173
C  C39  1  0.97050000  0.47490000  0.26830000  1.0 0.5335349173
C  C40  1  0.47490000  0.97050000  0.23170000  1.0 0.5335349173
C  C41  1  0.01840000  0.65420000  0.73450000  1.0 0.5372975996
C  C42  1  0.65420000  0.01840000  0.76550000  1.0 0.5372975996
C  C43  1  0.98160000  0.34580000  0.26550000  1.0 0.5335349173
C  C44  1  0.34580000  0.98160000  0.23450000  1.0 0.5372975996
C  C45  1  0.02910000  0.37750000  0.74090000  1.0 0.1994427821
C  C46  1  0.37750000  0.02910000  0.75910000  1.0 0.1994427821
C  C47  1  0.97090000  0.62250000  0.25910000  1.0 0.1994427821
C  C48  1  0.62250000  0.97090000  0.24090000  1.0 0.2076954932
C  C49  1  0.03440000  0.30900000  0.77770000  1.0 0.0410707273
C  C50  1  0.30900000  0.03440000  0.72230000  1.0 0.0410707273
C  C51  1  0.96560000  0.69100000  0.22230000  1.0 0.0410707273
C  C52  1  0.69100000  0.96560000  0.27770000  1.0 0.0410707273
C  C53  1  0.03800000  0.23320000  0.76940000  1.0 -0.1001569252
C  C54  1  0.23320000  0.03800000  0.73060000  1.0 -0.1001569252
C  C55  1  0.96200000  0.76680000  0.23060000  1.0 -0.1001569252
C  C56  1  0.76680000  0.96200000  0.26940000  1.0 -0.1001569252
C  C57  1  0.03420000  0.22040000  0.72440000  1.0 0.0702482009
C  C58  1  0.22040000  0.03420000  0.77560000  1.0 0.0702482009
C  C59  1  0.96580000  0.77960000  0.27560000  1.0 0.0702482009
C  C60  1  0.77960000  0.96580000  0.22440000  1.0 0.0702482009
C  C61  1  0.03240000  0.28560000  0.69120000  1.0 -0.1001569252
C  C62  1  0.28560000  0.03240000  0.80880000  1.0 -0.1001569252
C  C63  1  0.96760000  0.71440000  0.30880000  1.0 -0.1001569252
C  C64  1  0.71440000  0.96760000  0.19120000  1.0 -0.1001569252
C  C65  1  0.02980000  0.36440000  0.69720000  1.0 0.0410707273
C  C66  1  0.36440000  0.02980000  0.80280000  1.0 0.0410707273
C  C67  1  0.97020000  0.63560000  0.30280000  1.0 0.0410707273
C  C68  1  0.63560000  0.97020000  0.19720000  1.0 0.0314841707
C  C69  1  0.03410000  0.27130000  0.64580000  1.0 0.630326073
C  C70  1  0.27130000  0.03410000  0.85420000  1.0 0.630326073
C  C71  1  0.96590000  0.72870000  0.35420000  1.0 0.630326073
C  C72  1  0.72870000  0.96590000  0.14580000  1.0 0.630326073
C  C73  1  0.04340000  0.16620000  0.80530000  1.0 0.6453978152
C  C74  1  0.16620000  0.04340000  0.69470000  1.0 0.6413398912
C  C75  1  0.95660000  0.83380000  0.19470000  1.0 0.6413398912
C  C76  1  0.83380000  0.95660000  0.30530000  1.0 0.6453978152
C  C77  1  0.02680000  0.71780000  0.80260000  1.0 0.1816686721
C  C78  1  0.71780000  0.02680000  0.69740000  1.0 0.1816686721
C  C79  1  0.97320000  0.28220000  0.19740000  1.0 0.1816686721
C  C80  1  0.28220000  0.97320000  0.30260000  1.0 0.1816686721
C  C81  1  0.04180000  0.79120000  0.81440000  1.0 -0.0412451594
C  C82  1  0.79120000  0.04180000  0.68560000  1.0 -0.0412451594
C  C83  1  0.95820000  0.20880000  0.18560000  1.0 -0.0507728802
C  C84  1  0.20880000  0.95820000  0.31440000  1.0 -0.0507728802
C  C85  1  0.03900000  0.80180000  0.85680000  1.0 -0.0507728802
C  C86  1  0.80180000  0.03900000  0.64320000  1.0 -0.0507728802
C  C87  1  0.96100000  0.19820000  0.14320000  1.0 -0.0507728802
C  C88  1  0.19820000  0.96100000  0.35680000  1.0 -0.0507728802
C  C89  1  0.02260000  0.73800000  0.88730000  1.0 0.0410707273
C  C90  1  0.73800000  0.02260000  0.61270000  1.0 0.0410707273
C  C91  1  0.97740000  0.26200000  0.11270000  1.0 0.0410707273
C  C92  1  0.26200000  0.97740000  0.38730000  1.0 0.0410707273
C  C93  1  0.01860000  0.66666667  0.87840000  1.0 -0.0507728802
C  C94  1  0.66666667  0.01860000  0.62160000  1.0 -0.0591803386
C  C95  1  0.98140000  0.33340000  0.12160000  1.0 -0.0507728802
C  C96  1  0.33340000  0.98140000  0.37840000  1.0 -0.0507728802
C  C97  1  0.01770000  0.65430000  0.83310000  1.0 -0.1610683023
C  C98  1  0.65430000  0.01770000  0.66690000  1.0 -0.1758088737
C  C99  1  0.98230000  0.34570000  0.16690000  1.0 -0.1758088737
C  C100  1  0.34570000  0.98230000  0.33310000  1.0 -0.1684917926
C  C101  1  0.97780000  0.60120000  0.90280000  1.0 0.3480254219
C  C102  1  0.60120000  0.97780000  0.59720000  1.0 0.3480254219
C  C103  1  0.02220000  0.39880000  0.09720000  1.0 0.3480254219
C  C104  1  0.39880000  0.02220000  0.40280000  1.0 0.3480254219
C  C105  1  0.05630000  0.88530000  0.86650000  1.0 0.6190541567
C  C106  1  0.88530000  0.05630000  0.63350000  1.0 0.6190541567
C  C107  1  0.94370000  0.11470000  0.13350000  1.0 0.6190541567
C  C108  1  0.11470000  0.94370000  0.36650000  1.0 0.6190541567
C  C109  1  0.05690000  0.59850000  0.91350000  1.0 0.2076954932
C  C110  1  0.59850000  0.05690000  0.58650000  1.0 0.2076954932
C  C111  1  0.94310000  0.40150000  0.08650000  1.0 0.2076954932
C  C112  1  0.40150000  0.94310000  0.41350000  1.0 0.2076954932
N  N1  1  0.02300000  0.67900000  0.69250000  1.0 -0.4512840419
N  N2  1  0.67900000  0.02300000  0.80750000  1.0 -0.4568367271
N  N3  1  0.97700000  0.32100000  0.30750000  1.0 -0.4512840419
N  N4  1  0.32100000  0.97700000  0.19250000  1.0 -0.4512840419
N  N5  1  0.02230000  0.57910000  0.75680000  1.0 -0.5232236653
N  N6  1  0.57910000  0.02230000  0.74320000  1.0 -0.5232236653
N  N7  1  0.97770000  0.42090000  0.24320000  1.0 -0.5232236653
N  N8  1  0.42090000  0.97770000  0.25680000  1.0 -0.5310372262
N  N9  1  0.02470000  0.53870000  0.68760000  1.0 -0.4512840419
N  N10  1  0.53870000  0.02470000  0.81240000  1.0 -0.4512840419
N  N11  1  0.97530000  0.46130000  0.31240000  1.0 -0.4512840419
N  N12  1  0.46130000  0.97530000  0.18760000  1.0 -0.4512840419
N  N13  1  0.03130000  0.71630000  0.75840000  1.0 -0.4036180644
N  N14  1  0.71630000  0.03130000  0.74160000  1.0 -0.4096269031
N  N15  1  0.96870000  0.28370000  0.24160000  1.0 -0.4214458733
N  N16  1  0.28370000  0.96870000  0.25840000  1.0 -0.4214458733
N  N17  1  0.01810000  0.44890000  0.75370000  1.0 -0.4568367271
N  N18  1  0.44890000  0.01810000  0.74630000  1.0 -0.4512840419
N  N19  1  0.98190000  0.55110000  0.24630000  1.0 -0.4512840419
N  N20  1  0.55110000  0.98190000  0.25370000  1.0 -0.4512840419
N  N21  1  0.02040000  0.63060000  0.62550000  1.0 -0.4096269031
N  N22  1  0.63060000  0.02040000  0.87450000  1.0 -0.4036180644
N  N23  1  0.97960000  0.36940000  0.37450000  1.0 -0.4036180644
N  N24  1  0.36940000  0.97960000  0.12550000  1.0 -0.4036180644
O  O1  1  0.00030000  0.69810000  0.46370000  1.0 -0.4096269031
O  O2  1  0.69810000  0.00030000  0.03630000  1.0 -0.4096269031
O  O3  1  0.99970000  0.30190000  0.53630000  1.0 -0.4096269031
O  O4  1  0.30190000  0.99970000  0.96370000  1.0 -0.4096269031
O  O5  1  0.93270000  0.53130000  0.89490000  1.0 0.0314841707
O  O6  1  0.53130000  0.93270000  0.60510000  1.0 0.0314841707
O  O7  1  0.06730000  0.46870000  0.10510000  1.0 0.0410707273
O  O8  1  0.46870000  0.06730000  0.39490000  1.0 0.0314841707
O  O9  1  0.02400000  0.82540000  0.44693000  1.0 -0.6113207458
O  O10  1  0.82540000  0.02400000  0.05307000  1.0 -0.6113207458
O  O11  1  0.97600000  0.17460000  0.55307000  1.0 -0.6113207458
O  O12  1  0.17460000  0.97600000  0.94693000  1.0 -0.6113207458
O  O13  1  0.04320000  0.99020000  0.56504000  1.0 -0.5844561844
O  O14  1  0.99020000  0.04320000  0.93496000  1.0 -0.5897003083
O  O15  1  0.95680000  0.00980000  0.43496000  1.0 -0.5897003083
O  O16  1  0.00980000  0.95680000  0.06504000  1.0 -0.5844561844
O  O17  1  0.03650000  0.93330000  0.63230000  1.0 -0.5897003083
O  O18  1  0.93330000  0.03650000  0.86770000  1.0 -0.5897003083
O  O19  1  0.96350000  0.06670000  0.36770000  1.0 -0.5897003083
O  O20  1  0.06670000  0.96350000  0.13230000  1.0 -0.5955987244
O  O21  1  0.01420000  0.32440000  0.61430000  1.0 -0.3341196298
O  O22  1  0.32440000  0.01420000  0.88570000  1.0 -0.3361698656
O  O23  1  0.98580000  0.67560000  0.38570000  1.0 -0.3341196298
O  O24  1  0.67560000  0.98580000  0.11430000  1.0 -0.3361698656
O  O25  1  0.05850000  0.20570000  0.64180000  1.0 -0.6249919801
O  O26  1  0.20570000  0.05850000  0.85820000  1.0 -0.6285974651
O  O27  1  0.94150000  0.79430000  0.35820000  1.0 -0.6285974651
O  O28  1  0.79430000  0.94150000  0.14180000  1.0 -0.6249919801
O  O29  1  0.04330000  0.09590000  0.79929000  1.0 -0.6359315583
O  O30  1  0.09590000  0.04330000  0.70071000  1.0 -0.6359315583
O  O31  1  0.95670000  0.90410000  0.20071000  1.0 -0.6359315583
O  O32  1  0.90410000  0.95670000  0.29929000  1.0 -0.6285974651
O  O33  1  0.04850000  0.17990000  0.84420000  1.0 -0.6113207458
O  O34  1  0.17990000  0.04850000  0.65580000  1.0 -0.6113207458
O  O35  1  0.95150000  0.82010000  0.15580000  1.0 -0.6113207458
O  O36  1  0.82010000  0.95150000  0.34420000  1.0 -0.6113207458
O  O37  1  0.04660000  0.89780000  0.90340000  1.0 -0.5310372262
O  O38  1  0.89780000  0.04660000  0.59660000  1.0 -0.5310372262
O  O39  1  0.95340000  0.10220000  0.09660000  1.0 -0.5310372262
O  O40  1  0.10220000  0.95340000  0.40340000  1.0 -0.5310372262
O  O41  1  0.07500000  0.93720000  0.83870000  1.0 -0.5844561844
O  O42  1  0.93720000  0.07500000  0.66130000  1.0 -0.5897003083
O  O43  1  0.92500000  0.06280000  0.16130000  1.0 -0.5844561844
O  O44  1  0.06280000  0.92500000  0.33870000  1.0 -0.5844561844
O  O45  1  0.93960000  0.62280000  0.93300000  1.0 -0.0919843335
O  O46  1  0.62280000  0.93960000  0.56700000  1.0 -0.1001569252
O  O47  1  0.06040000  0.37720000  0.06700000  1.0 -0.0919843335
O  O48  1  0.37720000  0.06040000  0.43300000  1.0 -0.1001569252
O  O49  1  0.04690000  0.52210000  0.91020000  1.0 0.0410707273
O  O50  1  0.52210000  0.04690000  0.58980000  1.0 0.053157016
O  O51  1  0.95310000  0.47790000  0.08980000  1.0 0.053157016
O  O52  1  0.47790000  0.95310000  0.41020000  1.0 0.078975282
O  O53  1  0.99310000  0.52570000  0.90290000  1.0 0.2597638399
O  O54  1  0.52570000  0.99310000  0.59710000  1.0 0.2439159633
O  O55  1  0.00690000  0.47430000  0.09710000  1.0 0.2439159633
O  O56  1  0.47430000  0.00690000  0.40290000  1.0 0.2439159633
O  O57  1  0.02230000  0.60310000  0.94700000  1.0 -0.0507728802
O  O58  1  0.60310000  0.02230000  0.55300000  1.0 -0.0507728802
O  O59  1  0.97770000  0.39690000  0.05300000  1.0 -0.0507728802
O  O60  1  0.39690000  0.97770000  0.44700000  1.0 -0.0507728802
