# DDEC6 charges by PACMAN v1.1 (https://github.com/mtap-research/PACMAN-charge/)
data_EJETAQ_ASR_pacman
_symmetry_space_group_name_H-M   'P 1'
_cell_length_a   25.72300000
_cell_length_b   21.97400000
_cell_length_c   34.16460000
_cell_angle_alpha   90.00000000
_cell_angle_beta   119.02400000
_cell_angle_gamma   90.00000000
_symmetry_Int_Tables_number   1
_chemical_formula_structural   NaEu3C54(N6O13)2
_chemical_formula_sum   'Na4 Eu12 C216 N48 O104'
_cell_volume   16885.94805861
_cell_formula_units_Z   4
loop_
 _symmetry_equiv_pos_site_id
 _symmetry_equiv_pos_as_xyz
  1  'x, y, z'
loop_
 _atom_site_type_symbol
 _atom_site_label
 _atom_site_symmetry_multiplicity
 _atom_site_fract_x
 _atom_site_fract_y
 _atom_site_fract_z
 _atom_site_occupancy
 _atom_site_charge
Na  Na1  1  0.74583000  0.98559000  0.74848000  1.0 0.8778654217
Na  Na2  1  0.25417000  0.48559000  0.75152000  1.0 0.8778654217
Na  Na3  1  0.25417000  0.01441000  0.25152000  1.0 0.8778654217
Na  Na4  1  0.74583000  0.51441000  0.24848000  1.0 0.8778654217
Eu  Eu1  1  0.84957000  0.04289000  0.88499000  1.0 2.0405503391
Eu  Eu2  1  0.15043000  0.54289000  0.61501000  1.0 2.0405503391
Eu  Eu3  1  0.15043000  0.95711000  0.11501000  1.0 2.0405503391
Eu  Eu4  1  0.84957000  0.45711000  0.38499000  1.0 2.0405503391
Eu  Eu5  1  0.63963000  0.05365000  0.61923000  1.0 2.0584952711
Eu  Eu6  1  0.36037000  0.55365000  0.88077000  1.0 2.0584952711
Eu  Eu7  1  0.36037000  0.94635000  0.38077000  1.0 2.0584952711
Eu  Eu8  1  0.63963000  0.44635000  0.11923000  1.0 2.0584952711
Eu  Eu9  1  0.77189000  0.62523000  0.96462000  1.0 1.6935967087
Eu  Eu10  1  0.22811000  0.12523000  0.53538000  1.0 1.667992103
Eu  Eu11  1  0.22811000  0.37477000  0.03538000  1.0 1.7173058866
Eu  Eu12  1  0.77189000  0.87477000  0.46462000  1.0 1.6997223972
C  C1  1  0.55180000  0.96310000  0.59140000  1.0 0.6395461662
C  C2  1  0.44820000  0.46310000  0.90860000  1.0 0.6395461662
C  C3  1  0.44820000  0.03690000  0.40860000  1.0 0.6395461662
C  C4  1  0.55180000  0.53690000  0.09140000  1.0 0.6395461662
C  C5  1  0.50260000  0.91560000  0.57430000  1.0 -0.0792418625
C  C6  1  0.49740000  0.41560000  0.92570000  1.0 -0.0743957134
C  C7  1  0.49740000  0.08440000  0.42570000  1.0 -0.0792418625
C  C8  1  0.50260000  0.58440000  0.07430000  1.0 -0.0792418625
C  C9  1  0.45760000  0.91640000  0.53120000  1.0 0.0519982592
C  C10  1  0.54240000  0.41640000  0.96880000  1.0 0.0519982592
C  C11  1  0.54240000  0.08360000  0.46880000  1.0 0.0597255049
C  C12  1  0.45760000  0.58360000  0.03120000  1.0 0.0519982592
C  C13  1  0.41450000  0.87180000  0.51770000  1.0 -0.0610467791
C  C14  1  0.58550000  0.37180000  0.98230000  1.0 -0.0610467791
C  C15  1  0.58550000  0.12820000  0.48230000  1.0 -0.0610467791
C  C16  1  0.41450000  0.62820000  0.01770000  1.0 -0.0610467791
C  C17  1  0.41470000  0.82650000  0.54690000  1.0 -0.0093988524
C  C18  1  0.58530000  0.32650000  0.95310000  1.0 -0.0025343335
C  C19  1  0.58530000  0.17350000  0.45310000  1.0 -0.0025343335
C  C20  1  0.41470000  0.67350000  0.04690000  1.0 -0.0093988524
C  C21  1  0.45990000  0.82730000  0.58950000  1.0 0.1684716998
C  C22  1  0.54010000  0.32730000  0.91050000  1.0 0.1684716998
C  C23  1  0.54010000  0.17270000  0.41050000  1.0 0.1684716998
C  C24  1  0.45990000  0.67270000  0.08950000  1.0 0.1684716998
C  C25  1  0.50940000  0.86990000  0.60820000  1.0 0.140352876
C  C26  1  0.49060000  0.36990000  0.89180000  1.0 0.140352876
C  C27  1  0.49060000  0.13010000  0.39180000  1.0 0.140352876
C  C28  1  0.50940000  0.63010000  0.10820000  1.0 0.140352876
C  C29  1  0.36160000  0.87420000  0.47040000  1.0 0.6495309202
C  C30  1  0.63840000  0.37420000  0.02960000  1.0 0.6495309202
C  C31  1  0.63840000  0.12580000  0.52960000  1.0 0.6495309202
C  C32  1  0.36160000  0.62580000  0.97040000  1.0 0.6495309202
C  C33  1  0.49400000  0.76770000  0.66260000  1.0 0.5294531861
C  C34  1  0.50600000  0.26770000  0.83740000  1.0 0.5294531861
C  C35  1  0.50600000  0.23230000  0.33740000  1.0 0.5294531861
C  C36  1  0.49400000  0.73230000  0.16260000  1.0 0.5294531861
C  C37  1  0.58090000  0.77880000  0.72760000  1.0 0.5294531861
C  C38  1  0.41910000  0.27880000  0.77240000  1.0 0.5294531861
C  C39  1  0.41910000  0.22120000  0.27240000  1.0 0.5398953883
C  C40  1  0.58090000  0.72120000  0.22760000  1.0 0.5398953883
C  C41  1  0.51010000  0.71700000  0.72290000  1.0 0.5130020259
C  C42  1  0.48990000  0.21700000  0.77710000  1.0 0.5130020259
C  C43  1  0.48990000  0.28300000  0.27710000  1.0 0.5195951341
C  C44  1  0.51010000  0.78300000  0.22290000  1.0 0.5195951341
C  C45  1  0.67220000  0.81210000  0.79550000  1.0 0.1884865901
C  C46  1  0.32780000  0.31210000  0.70450000  1.0 0.1884865901
C  C47  1  0.32780000  0.18790000  0.20450000  1.0 0.1884865901
C  C48  1  0.67220000  0.68790000  0.29550000  1.0 0.1884865901
C  C49  1  0.68330000  0.76410000  0.82680000  1.0 0.1000431376
C  C50  1  0.31670000  0.26410000  0.67320000  1.0 0.1000431376
C  C51  1  0.31670000  0.23590000  0.17320000  1.0 0.1000431376
C  C52  1  0.68330000  0.73590000  0.32680000  1.0 0.1000431376
C  C53  1  0.72500000  0.77350000  0.87070000  1.0 -0.1186784403
C  C54  1  0.27500000  0.27350000  0.62930000  1.0 -0.1186784403
C  C55  1  0.27500000  0.22650000  0.12930000  1.0 -0.1186784403
C  C56  1  0.72500000  0.72650000  0.37070000  1.0 -0.1186784403
C  C57  1  0.76050000  0.82660000  0.88720000  1.0 0.1584424256
C  C58  1  0.23950000  0.32660000  0.61280000  1.0 0.1684716998
C  C59  1  0.23950000  0.17340000  0.11280000  1.0 0.1584424256
C  C60  1  0.76050000  0.67340000  0.38720000  1.0 0.1584424256
C  C61  1  0.74910000  0.87330000  0.85440000  1.0 -0.0486949305
C  C62  1  0.25090000  0.37330000  0.64560000  1.0 -0.0486949305
C  C63  1  0.25090000  0.12670000  0.14560000  1.0 -0.0486949305
C  C64  1  0.74910000  0.62670000  0.35440000  1.0 -0.0486949305
C  C65  1  0.70560000  0.86610000  0.80930000  1.0 -0.0093988524
C  C66  1  0.29440000  0.36610000  0.69070000  1.0 -0.0093988524
C  C67  1  0.29440000  0.13390000  0.19070000  1.0 -0.0093988524
C  C68  1  0.70560000  0.63390000  0.30930000  1.0 -0.0093988524
C  C69  1  0.78300000  0.93200000  0.86730000  1.0 0.6495309202
C  C70  1  0.21700000  0.43200000  0.63270000  1.0 0.6495309202
C  C71  1  0.21700000  0.06800000  0.13270000  1.0 0.6495309202
C  C72  1  0.78300000  0.56800000  0.36730000  1.0 0.6495309202
C  C73  1  0.73850000  0.72320000  0.90370000  1.0 0.6198428898
C  C74  1  0.26150000  0.22320000  0.59630000  1.0 0.6198428898
C  C75  1  0.26150000  0.27680000  0.09630000  1.0 0.6137720226
C  C76  1  0.73850000  0.77680000  0.40370000  1.0 0.6198428898
C  C77  1  0.43720000  0.65200000  0.73500000  1.0 0.1884865901
C  C78  1  0.56280000  0.15200000  0.76500000  1.0 0.1884865901
C  C79  1  0.56280000  0.34800000  0.26500000  1.0 0.1884865901
C  C80  1  0.43720000  0.84800000  0.23500000  1.0 0.1884865901
C  C81  1  0.38920000  0.64730000  0.69190000  1.0 0.0376341297
C  C82  1  0.61080000  0.14730000  0.80810000  1.0 0.0376341297
C  C83  1  0.61080000  0.35270000  0.30810000  1.0 0.0519982592
C  C84  1  0.38920000  0.85270000  0.19190000  1.0 0.0376341297
C  C85  1  0.33630000  0.62470000  0.68710000  1.0 -0.0743957134
C  C86  1  0.66370000  0.12470000  0.81290000  1.0 -0.0743957134
C  C87  1  0.66370000  0.37530000  0.31290000  1.0 -0.0792418625
C  C88  1  0.33630000  0.87530000  0.18710000  1.0 -0.0792418625
C  C89  1  0.32820000  0.60360000  0.72230000  1.0 0.0597255049
C  C90  1  0.67180000  0.10360000  0.77770000  1.0 0.0688332981
C  C91  1  0.67180000  0.39640000  0.27770000  1.0 0.0688332981
C  C92  1  0.32820000  0.89640000  0.22230000  1.0 0.0688332981
C  C93  1  0.37880000  0.60700000  0.76480000  1.0 -0.0610467791
C  C94  1  0.62120000  0.10700000  0.73520000  1.0 -0.0610467791
C  C95  1  0.62120000  0.39300000  0.23520000  1.0 -0.0610467791
C  C96  1  0.37880000  0.89300000  0.26480000  1.0 -0.0610467791
C  C97  1  0.43270000  0.62820000  0.77250000  1.0 0.0519982592
C  C98  1  0.56730000  0.12820000  0.72750000  1.0 0.0519982592
C  C99  1  0.56730000  0.37180000  0.22750000  1.0 0.0597255049
C  C100  1  0.43270000  0.87180000  0.27250000  1.0 0.0597255049
C  C101  1  0.37300000  0.58340000  0.80470000  1.0 0.6495309202
C  C102  1  0.62700000  0.08340000  0.69530000  1.0 0.6495309202
C  C103  1  0.62700000  0.41660000  0.19530000  1.0 0.6495309202
C  C104  1  0.37300000  0.91660000  0.30470000  1.0 0.6495309202
C  C105  1  0.27950000  0.62040000  0.64040000  1.0 0.6677545114
C  C106  1  0.72050000  0.12040000  0.85960000  1.0 0.6677545114
C  C107  1  0.72050000  0.37960000  0.35960000  1.0 0.6677545114
C  C108  1  0.27950000  0.87960000  0.14040000  1.0 0.6677545114
C  C109  1  0.76170000  0.14940000  0.64860000  1.0 0.6677545114
C  C110  1  0.23830000  0.64940000  0.85140000  1.0 0.6677545114
C  C111  1  0.23830000  0.85060000  0.35140000  1.0 0.6677545114
C  C112  1  0.76170000  0.35060000  0.14860000  1.0 0.6677545114
C  C113  1  0.81090000  0.15670000  0.69540000  1.0 -0.1010215939
C  C114  1  0.18910000  0.65670000  0.80460000  1.0 -0.1010215939
C  C115  1  0.18910000  0.84330000  0.30460000  1.0 -0.1010215939
C  C116  1  0.81090000  0.34330000  0.19540000  1.0 -0.1065133856
C  C117  1  0.80690000  0.12420000  0.72730000  1.0 0.0519982592
C  C118  1  0.19310000  0.62420000  0.77270000  1.0 0.0519982592
C  C119  1  0.19310000  0.87580000  0.27270000  1.0 0.0519982592
C  C120  1  0.80690000  0.37580000  0.22730000  1.0 0.0519982592
C  C121  1  0.85610000  0.12830000  0.77200000  1.0 -0.0446159485
C  C122  1  0.14390000  0.62830000  0.72800000  1.0 -0.0486949305
C  C123  1  0.14390000  0.87170000  0.22800000  1.0 -0.0486949305
C  C124  1  0.85610000  0.37170000  0.27200000  1.0 -0.0486949305
C  C125  1  0.90280000  0.16710000  0.78030000  1.0 -0.0025343335
C  C126  1  0.09720000  0.66710000  0.71970000  1.0 -0.0025343335
C  C127  1  0.09720000  0.83290000  0.21970000  1.0 0.0018480537
C  C128  1  0.90280000  0.33290000  0.28030000  1.0 0.0018480537
C  C129  1  0.90510000  0.19940000  0.74690000  1.0 0.2011031313
C  C130  1  0.09490000  0.69940000  0.75310000  1.0 0.2011031313
C  C131  1  0.09490000  0.80060000  0.25310000  1.0 0.2011031313
C  C132  1  0.90510000  0.30060000  0.24690000  1.0 0.2011031313
C  C133  1  0.85600000  0.19600000  0.70130000  1.0 0.0808334714
C  C134  1  0.14400000  0.69600000  0.79870000  1.0 0.0886285986
C  C135  1  0.14400000  0.80400000  0.29870000  1.0 0.0886285986
C  C136  1  0.85600000  0.30400000  0.20130000  1.0 0.0886285986
C  C137  1  0.85470000  0.09340000  0.80940000  1.0 0.6495309202
C  C138  1  0.14530000  0.59340000  0.69060000  1.0 0.6495309202
C  C139  1  0.14530000  0.90660000  0.19060000  1.0 0.6495309202
C  C140  1  0.85470000  0.40660000  0.30940000  1.0 0.6495309202
C  C141  1  0.97070000  0.27320000  0.73570000  1.0 0.5482706784
C  C142  1  0.02930000  0.77320000  0.76430000  1.0 0.5482706784
C  C143  1  0.02930000  0.72680000  0.26430000  1.0 0.5482706784
C  C144  1  0.97070000  0.22680000  0.23570000  1.0 0.5482706784
C  C145  1  0.04270000  0.33620000  0.73880000  1.0 0.5398953883
C  C146  1  0.95730000  0.83620000  0.76120000  1.0 0.5398953883
C  C147  1  0.95730000  0.66380000  0.26120000  1.0 0.5482706784
C  C148  1  0.04270000  0.16380000  0.23880000  1.0 0.5482706784
C  C149  1  0.96020000  0.31880000  0.67200000  1.0 0.5482706784
C  C150  1  0.03980000  0.81880000  0.82800000  1.0 0.5482706784
C  C151  1  0.03980000  0.68120000  0.32800000  1.0 0.5482706784
C  C152  1  0.96020000  0.18120000  0.17200000  1.0 0.5482706784
C  C153  1  0.13470000  0.37120000  0.80640000  1.0 0.1884865901
C  C154  1  0.86530000  0.87120000  0.69360000  1.0 0.1884865901
C  C155  1  0.86530000  0.62880000  0.19360000  1.0 0.1884865901
C  C156  1  0.13470000  0.12880000  0.30640000  1.0 0.1884865901
C  C157  1  0.13020000  0.34490000  0.84220000  1.0 0.1000431376
C  C158  1  0.86980000  0.84490000  0.65780000  1.0 0.0886285986
C  C159  1  0.86980000  0.65510000  0.15780000  1.0 0.1077159423
C  C160  1  0.13020000  0.15510000  0.34220000  1.0 0.1000431376
C  C161  1  0.17340000  0.35970000  0.88730000  1.0 -0.1288082124
C  C162  1  0.82660000  0.85970000  0.61270000  1.0 -0.1186784403
C  C163  1  0.82660000  0.64030000  0.11270000  1.0 -0.1288082124
C  C164  1  0.17340000  0.14030000  0.38730000  1.0 -0.1186784403
C  C165  1  0.22010000  0.39460000  0.89520000  1.0 0.0688332981
C  C166  1  0.77990000  0.89460000  0.60480000  1.0 0.0688332981
C  C167  1  0.77990000  0.60540000  0.10480000  1.0 0.0808334714
C  C168  1  0.22010000  0.10540000  0.39520000  1.0 0.0688332981
C  C169  1  0.22680000  0.41870000  0.86000000  1.0 -0.0446159485
C  C170  1  0.77320000  0.91870000  0.64000000  1.0 -0.0446159485
C  C171  1  0.77320000  0.58130000  0.14000000  1.0 -0.0486949305
C  C172  1  0.22680000  0.08130000  0.36000000  1.0 -0.0446159485
C  C173  1  0.18520000  0.40810000  0.81640000  1.0 0.0109830351
C  C174  1  0.81480000  0.90810000  0.68360000  1.0 0.0109830351
C  C175  1  0.81480000  0.59190000  0.18360000  1.0 0.0183120995
C  C176  1  0.18520000  0.09190000  0.31640000  1.0 0.0109830351
C  C177  1  0.27620000  0.46230000  0.86750000  1.0 0.6280434437
C  C178  1  0.72380000  0.96230000  0.63250000  1.0 0.6280434437
C  C179  1  0.72380000  0.53770000  0.13250000  1.0 0.6280434437
C  C180  1  0.27620000  0.03770000  0.36750000  1.0 0.6280434437
C  C181  1  0.16250000  0.33710000  0.92310000  1.0 0.6198428898
C  C182  1  0.83750000  0.83710000  0.57690000  1.0 0.6280434437
C  C183  1  0.83750000  0.66290000  0.07690000  1.0 0.6280434437
C  C184  1  0.16250000  0.16290000  0.42310000  1.0 0.6280434437
C  C185  1  0.93620000  0.36720000  0.59970000  1.0 0.1799080773
C  C186  1  0.06380000  0.86720000  0.90030000  1.0 0.1799080773
C  C187  1  0.06380000  0.63280000  0.40030000  1.0 0.1799080773
C  C188  1  0.93620000  0.13280000  0.09970000  1.0 0.1799080773
C  C189  1  0.98850000  0.39930000  0.61170000  1.0 0.0519982592
C  C190  1  0.01150000  0.89930000  0.88830000  1.0 0.0519982592
C  C191  1  0.01150000  0.60070000  0.38830000  1.0 0.0597255049
C  C192  1  0.98850000  0.10070000  0.11170000  1.0 0.0597255049
C  C193  1  0.99290000  0.43450000  0.58020000  1.0 -0.0792418625
C  C194  1  0.00710000  0.93450000  0.91980000  1.0 -0.0792418625
C  C195  1  0.00710000  0.56550000  0.41980000  1.0 -0.0910459604
C  C196  1  0.99290000  0.06550000  0.08020000  1.0 -0.0792418625
C  C197  1  0.94490000  0.44010000  0.53560000  1.0 0.1000431376
C  C198  1  0.05510000  0.94010000  0.96440000  1.0 0.1000431376
C  C199  1  0.05510000  0.55990000  0.46440000  1.0 0.1077159423
C  C200  1  0.94490000  0.05990000  0.03560000  1.0 0.1077159423
C  C201  1  0.89330000  0.40790000  0.52460000  1.0 -0.0910459604
C  C202  1  0.10670000  0.90790000  0.97540000  1.0 -0.1010215939
C  C203  1  0.10670000  0.59210000  0.47540000  1.0 -0.1010215939
C  C204  1  0.89330000  0.09210000  0.02460000  1.0 -0.0910459604
C  C205  1  0.88750000  0.37090000  0.55520000  1.0 0.0519982592
C  C206  1  0.11250000  0.87090000  0.94480000  1.0 0.0597255049
C  C207  1  0.11250000  0.62910000  0.44480000  1.0 0.0597255049
C  C208  1  0.88750000  0.12910000  0.05520000  1.0 0.0519982592
C  C209  1  0.84230000  0.41150000  0.47740000  1.0 0.6603562562
C  C210  1  0.15770000  0.91150000  0.02260000  1.0 0.6603562562
C  C211  1  0.15770000  0.58850000  0.52260000  1.0 0.6603562562
C  C212  1  0.84230000  0.08850000  0.97740000  1.0 0.6603562562
C  C213  1  0.04910000  0.47040000  0.59350000  1.0 0.6395461662
C  C214  1  0.95090000  0.97040000  0.90650000  1.0 0.6395461662
C  C215  1  0.95090000  0.52960000  0.40650000  1.0 0.6395461662
C  C216  1  0.04910000  0.02960000  0.09350000  1.0 0.6395461662
N  N1  1  0.47180000  0.72670000  0.67890000  1.0 -0.469529468
N  N2  1  0.52820000  0.22670000  0.82110000  1.0 -0.469529468
N  N3  1  0.52820000  0.27330000  0.32110000  1.0 -0.4792883304
N  N4  1  0.47180000  0.77330000  0.17890000  1.0 -0.469529468
N  N5  1  0.56460000  0.73910000  0.74950000  1.0 -0.4414216698
N  N6  1  0.43540000  0.23910000  0.75050000  1.0 -0.4326026262
N  N7  1  0.43540000  0.26090000  0.25050000  1.0 -0.4414216698
N  N8  1  0.56460000  0.76090000  0.24950000  1.0 -0.4414216698
N  N9  1  0.54800000  0.79600000  0.68380000  1.0 -0.4537807749
N  N10  1  0.45200000  0.29600000  0.81620000  1.0 -0.4537807749
N  N11  1  0.45200000  0.20400000  0.31620000  1.0 -0.4582772227
N  N12  1  0.54800000  0.70400000  0.18380000  1.0 -0.4582772227
N  N13  1  0.49460000  0.67620000  0.74690000  1.0 -0.3797029824
N  N14  1  0.50540000  0.17620000  0.75310000  1.0 -0.3797029824
N  N15  1  0.50540000  0.32380000  0.25310000  1.0 -0.4005334829
N  N16  1  0.49460000  0.82380000  0.24690000  1.0 -0.3896499635
N  N17  1  0.63420000  0.80850000  0.74910000  1.0 -0.3578003468
N  N18  1  0.36580000  0.30850000  0.75090000  1.0 -0.3578003468
N  N19  1  0.36580000  0.19150000  0.25090000  1.0 -0.3578003468
N  N20  1  0.63420000  0.69150000  0.24910000  1.0 -0.3578003468
N  N21  1  0.45910000  0.78040000  0.62000000  1.0 -0.3743536295
N  N22  1  0.54090000  0.28040000  0.88000000  1.0 -0.3743536295
N  N23  1  0.54090000  0.21960000  0.38000000  1.0 -0.3797029824
N  N24  1  0.45910000  0.71960000  0.12000000  1.0 -0.3797029824
N  N25  1  0.93570000  0.28200000  0.69100000  1.0 -0.4792883304
N  N26  1  0.06430000  0.78200000  0.80900000  1.0 -0.469529468
N  N27  1  0.06430000  0.71800000  0.30900000  1.0 -0.4792883304
N  N28  1  0.93570000  0.21800000  0.19100000  1.0 -0.4792883304
N  N29  1  0.01460000  0.34420000  0.69470000  1.0 -0.4792883304
N  N30  1  0.98540000  0.84420000  0.80530000  1.0 -0.469529468
N  N31  1  0.98540000  0.65580000  0.30530000  1.0 -0.4792883304
N  N32  1  0.01460000  0.15580000  0.19470000  1.0 -0.4792883304
N  N33  1  0.02350000  0.30170000  0.76260000  1.0 -0.4537807749
N  N34  1  0.97650000  0.80170000  0.73740000  1.0 -0.4537807749
N  N35  1  0.97650000  0.69830000  0.23740000  1.0 -0.4582772227
N  N36  1  0.02350000  0.19830000  0.26260000  1.0 -0.4582772227
N  N37  1  0.92580000  0.32840000  0.62850000  1.0 -0.3797029824
N  N38  1  0.07420000  0.82840000  0.87150000  1.0 -0.3797029824
N  N39  1  0.07420000  0.67160000  0.37150000  1.0 -0.3797029824
N  N40  1  0.92580000  0.17160000  0.12850000  1.0 -0.3797029824
N  N41  1  0.09580000  0.36420000  0.76020000  1.0 -0.3797029824
N  N42  1  0.90420000  0.86420000  0.73980000  1.0 -0.3743536295
N  N43  1  0.90420000  0.63580000  0.23980000  1.0 -0.3743536295
N  N44  1  0.09580000  0.13580000  0.26020000  1.0 -0.3797029824
N  N45  1  0.95370000  0.23640000  0.75980000  1.0 -0.3896499635
N  N46  1  0.04630000  0.73640000  0.74020000  1.0 -0.3797029824
N  N47  1  0.04630000  0.76360000  0.24020000  1.0 -0.3797029824
N  N48  1  0.95370000  0.26360000  0.25980000  1.0 -0.3896499635
O  O1  1  0.59554000  0.95980000  0.62954000  1.0 -0.5587968053
O  O2  1  0.40446000  0.45980000  0.87046000  1.0 -0.5587968053
O  O3  1  0.40446000  0.04020000  0.37046000  1.0 -0.5525389434
O  O4  1  0.59554000  0.54020000  0.12954000  1.0 -0.5525389434
O  O5  1  0.54612000  0.00710000  0.56512000  1.0 -0.5897502636
O  O6  1  0.45388000  0.50710000  0.93488000  1.0 -0.5897502636
O  O7  1  0.45388000  0.99290000  0.43488000  1.0 -0.5897502636
O  O8  1  0.54612000  0.49290000  0.06512000  1.0 -0.5897502636
O  O9  1  0.35751000  0.91900000  0.44721000  1.0 -0.6443083407
O  O10  1  0.64249000  0.41900000  0.05279000  1.0 -0.6489787222
O  O11  1  0.64249000  0.08100000  0.55279000  1.0 -0.6489787222
O  O12  1  0.35751000  0.58100000  0.94721000  1.0 -0.6489787222
O  O13  1  0.32690000  0.82930000  0.45870000  1.0 -0.4005334829
O  O14  1  0.67310000  0.32930000  0.04130000  1.0 -0.406700951
O  O15  1  0.67310000  0.17070000  0.54130000  1.0 -0.406700951
O  O16  1  0.32690000  0.67070000  0.95870000  1.0 -0.4005334829
O  O17  1  0.76800000  0.97430000  0.83970000  1.0 -0.6489787222
O  O18  1  0.23200000  0.47430000  0.66030000  1.0 -0.6489787222
O  O19  1  0.23200000  0.02570000  0.16030000  1.0 -0.6489787222
O  O20  1  0.76800000  0.52570000  0.33970000  1.0 -0.6489787222
O  O21  1  0.82905000  0.93780000  0.90605000  1.0 -0.5801496825
O  O22  1  0.17095000  0.43780000  0.59395000  1.0 -0.5801496825
O  O23  1  0.17095000  0.06220000  0.09395000  1.0 -0.5801496825
O  O24  1  0.82905000  0.56220000  0.40605000  1.0 -0.5801496825
O  O25  1  0.77220000  0.73200000  0.94440000  1.0 -0.7423367323
O  O26  1  0.22780000  0.23200000  0.55560000  1.0 -0.7248898269
O  O27  1  0.22780000  0.26800000  0.05560000  1.0 -0.712176335
O  O28  1  0.77220000  0.76800000  0.44440000  1.0 -0.7457162412
O  O29  1  0.71520000  0.67160000  0.89100000  1.0 -0.7423367323
O  O30  1  0.28480000  0.17160000  0.60900000  1.0 -0.7423367323
O  O31  1  0.28480000  0.32840000  0.10900000  1.0 -0.7678469242
O  O32  1  0.71520000  0.82840000  0.39100000  1.0 -0.7678469242
O  O33  1  0.41650000  0.58660000  0.84230000  1.0 -0.5897502636
O  O34  1  0.58350000  0.08660000  0.65770000  1.0 -0.5897502636
O  O35  1  0.58350000  0.41340000  0.15770000  1.0 -0.5897502636
O  O36  1  0.41650000  0.91340000  0.34230000  1.0 -0.5897502636
O  O37  1  0.32459000  0.56110000  0.79809000  1.0 -0.6309244679
O  O38  1  0.67541000  0.06110000  0.70191000  1.0 -0.6309244679
O  O39  1  0.67541000  0.43890000  0.20191000  1.0 -0.6309244679
O  O40  1  0.32459000  0.93890000  0.29809000  1.0 -0.6309244679
O  O41  1  0.23060000  0.61020000  0.63700000  1.0 -0.6489787222
O  O42  1  0.76940000  0.11020000  0.86300000  1.0 -0.6489787222
O  O43  1  0.76940000  0.38980000  0.36300000  1.0 -0.6489787222
O  O44  1  0.23060000  0.88980000  0.13700000  1.0 -0.6443083407
O  O45  1  0.28840000  0.62900000  0.60640000  1.0 -0.4005334829
O  O46  1  0.71160000  0.12900000  0.89360000  1.0 -0.4005334829
O  O47  1  0.71160000  0.37100000  0.39360000  1.0 -0.3896499635
O  O48  1  0.28840000  0.87100000  0.10640000  1.0 -0.3896499635
O  O49  1  0.70780000  0.13320000  0.64360000  1.0 -0.7457162412
O  O50  1  0.29220000  0.63320000  0.85640000  1.0 -0.7457162412
O  O51  1  0.29220000  0.86680000  0.35640000  1.0 -0.7423367323
O  O52  1  0.70780000  0.36680000  0.14360000  1.0 -0.7457162412
O  O53  1  0.76230000  0.17340000  0.61580000  1.0 -0.3578003468
O  O54  1  0.23770000  0.67340000  0.88420000  1.0 -0.3578003468
O  O55  1  0.23770000  0.82660000  0.38420000  1.0 -0.3578003468
O  O56  1  0.76230000  0.32660000  0.11580000  1.0 -0.3578003468
O  O57  1  0.89480000  0.10250000  0.84810000  1.0 -0.5897502636
O  O58  1  0.10520000  0.60250000  0.65190000  1.0 -0.5897502636
O  O59  1  0.10520000  0.89750000  0.15190000  1.0 -0.5897502636
O  O60  1  0.89480000  0.39750000  0.34810000  1.0 -0.5897502636
O  O61  1  0.81331000  0.05770000  0.80111000  1.0 -0.6196686349
O  O62  1  0.18669000  0.55770000  0.69889000  1.0 -0.6147719742
O  O63  1  0.18669000  0.94230000  0.19889000  1.0 -0.6147719742
O  O64  1  0.81331000  0.44230000  0.30111000  1.0 -0.6196686349
O  O65  1  0.27270000  0.49180000  0.83570000  1.0 -0.6196686349
O  O66  1  0.72730000  0.99180000  0.66430000  1.0 -0.6196686349
O  O67  1  0.72730000  0.50820000  0.16430000  1.0 -0.6196686349
O  O68  1  0.27270000  0.00820000  0.33570000  1.0 -0.6196686349
O  O69  1  0.31832000  0.46940000  0.90552000  1.0 -0.5197974564
O  O70  1  0.68168000  0.96940000  0.59448000  1.0 -0.5197974564
O  O71  1  0.68168000  0.53060000  0.09448000  1.0 -0.5197974564
O  O72  1  0.31832000  0.03060000  0.40552000  1.0 -0.5197974564
O  O73  1  0.20680000  0.34450000  0.96350000  1.0 -0.8158459784
O  O74  1  0.79320000  0.84450000  0.53650000  1.0 -0.8402760149
O  O75  1  0.79320000  0.65550000  0.03650000  1.0 -0.8402760149
O  O76  1  0.20680000  0.15550000  0.46350000  1.0 -0.8402760149
O  O77  1  0.11540000  0.31470000  0.91680000  1.0 -0.4414216698
O  O78  1  0.88460000  0.81470000  0.58320000  1.0 -0.4414216698
O  O79  1  0.88460000  0.68530000  0.08320000  1.0 -0.4414216698
O  O80  1  0.11540000  0.18530000  0.41680000  1.0 -0.4414216698
O  O81  1  0.79790000  0.37460000  0.46810000  1.0 -0.4005334829
O  O82  1  0.20210000  0.87460000  0.03190000  1.0 -0.4005334829
O  O83  1  0.20210000  0.62540000  0.53190000  1.0 -0.4005334829
O  O84  1  0.79790000  0.12540000  0.96810000  1.0 -0.4005334829
O  O85  1  0.84123000  0.45170000  0.45163000  1.0 -0.6309244679
O  O86  1  0.15877000  0.95170000  0.04837000  1.0 -0.6309244679
O  O87  1  0.15877000  0.54830000  0.54837000  1.0 -0.6309244679
O  O88  1  0.84123000  0.04830000  0.95163000  1.0 -0.6309244679
O  O89  1  0.05118000  0.50650000  0.56528000  1.0 -0.5897502636
O  O90  1  0.94882000  0.00650000  0.93472000  1.0 -0.5897502636
O  O91  1  0.94882000  0.49350000  0.43472000  1.0 -0.5801496825
O  O92  1  0.05118000  0.99350000  0.06528000  1.0 -0.5801496825
O  O93  1  0.09136000  0.46570000  0.63086000  1.0 -0.5323195131
O  O94  1  0.90864000  0.96570000  0.86914000  1.0 -0.5323195131
O  O95  1  0.90864000  0.53430000  0.36914000  1.0 -0.5323195131
O  O96  1  0.09136000  0.03430000  0.13086000  1.0 -0.5323195131
O  O97  1  0.67500000  0.90080000  0.70580000  1.0 0.0688332981
O  O98  1  0.32500000  0.40080000  0.79420000  1.0 0.0688332981
O  O99  1  0.32500000  0.09920000  0.29420000  1.0 0.0688332981
O  O100  1  0.67500000  0.59920000  0.20580000  1.0 0.0688332981
O  O101  1  0.64480000  0.93240000  0.71710000  1.0 0.0688332981
O  O102  1  0.35520000  0.43240000  0.78290000  1.0 0.0688332981
O  O103  1  0.35520000  0.06760000  0.28290000  1.0 0.0688332981
O  O104  1  0.64480000  0.56760000  0.21710000  1.0 0.0688332981
