# DDEC6 charges by PACMAN v1.1 (https://github.com/mtap-research/PACMAN-charge/)
data_EKEMEO_ASR_pacman
_symmetry_space_group_name_H-M   'P 1'
_cell_length_a   16.78530000
_cell_length_b   16.78530000
_cell_length_c   16.78530000
_cell_angle_alpha   67.52430000
_cell_angle_beta   67.52430000
_cell_angle_gamma   67.52430000
_symmetry_Int_Tables_number   1
_chemical_formula_structural   CuH15(C7O2)3
_chemical_formula_sum   'Cu6 H90 C126 O36'
_cell_volume   3880.53777620
_cell_formula_units_Z   6
loop_
 _symmetry_equiv_pos_site_id
 _symmetry_equiv_pos_as_xyz
  1  'x, y, z'
loop_
 _atom_site_type_symbol
 _atom_site_label
 _atom_site_symmetry_multiplicity
 _atom_site_fract_x
 _atom_site_fract_y
 _atom_site_fract_z
 _atom_site_occupancy
 _atom_site_charge
Cu  Cu1  1  0.92591000  0.49561000  0.49561000  1.0 0.8597618236
Cu  Cu2  1  0.49561000  0.49561000  0.92591000  1.0 0.8597618236
Cu  Cu3  1  0.49561000  0.92591000  0.49561000  1.0 0.8597618236
Cu  Cu4  1  0.07409000  0.50439000  0.50439000  1.0 0.8597618236
Cu  Cu5  1  0.50439000  0.50439000  0.07409000  1.0 0.8597618236
Cu  Cu6  1  0.50439000  0.07409000  0.50439000  1.0 0.8597618236
H  H1  1  0.77145000  0.47150000  0.77145000  1.0 0.1486471425
H  H2  1  0.47150000  0.77145000  0.77145000  1.0 0.1486471425
H  H3  1  0.77145000  0.77145000  0.47150000  1.0 0.1486471425
H  H4  1  0.22855000  0.22855000  0.52850000  1.0 0.1486471425
H  H5  1  0.22855000  0.52850000  0.22855000  1.0 0.1486471425
H  H6  1  0.52850000  0.22855000  0.22855000  1.0 0.1486471425
H  H7  1  0.00100000  0.47990000  0.78670000  1.0 0.1227843066
H  H8  1  0.47990000  0.78670000  0.00100000  1.0 0.1227843066
H  H9  1  0.78670000  0.00100000  0.47990000  1.0 0.1227843066
H  H10  1  0.99900000  0.21330000  0.52010000  1.0 0.1227843066
H  H11  1  0.21330000  0.52010000  0.99900000  1.0 0.1227843066
H  H12  1  0.52010000  0.99900000  0.21330000  1.0 0.1227843066
H  H13  1  0.99900000  0.52010000  0.21330000  1.0 0.1227843066
H  H14  1  0.52010000  0.21330000  0.99900000  1.0 0.1227843066
H  H15  1  0.21330000  0.99900000  0.52010000  1.0 0.1227843066
H  H16  1  0.00100000  0.78670000  0.47990000  1.0 0.1227843066
H  H17  1  0.78670000  0.47990000  0.00100000  1.0 0.1227843066
H  H18  1  0.47990000  0.00100000  0.78670000  1.0 0.1227843066
H  H19  1  0.07370000  0.62410000  0.92320000  1.0 0.0741552133
H  H20  1  0.62410000  0.92320000  0.07370000  1.0 0.0741552133
H  H21  1  0.92320000  0.07370000  0.62410000  1.0 0.0741552133
H  H22  1  0.92630000  0.07680000  0.37590000  1.0 0.0741552133
H  H23  1  0.07680000  0.37590000  0.92630000  1.0 0.0741552133
H  H24  1  0.37590000  0.92630000  0.07680000  1.0 0.0741552133
H  H25  1  0.92630000  0.37590000  0.07680000  1.0 0.0741552133
H  H26  1  0.37590000  0.07680000  0.92630000  1.0 0.0741552133
H  H27  1  0.07680000  0.92630000  0.37590000  1.0 0.0741552133
H  H28  1  0.07370000  0.92320000  0.62410000  1.0 0.0741552133
H  H29  1  0.92320000  0.62410000  0.07370000  1.0 0.0741552133
H  H30  1  0.62410000  0.07370000  0.92320000  1.0 0.0741552133
H  H31  1  0.03040000  0.72420000  0.78720000  1.0 0.081496099
H  H32  1  0.72420000  0.78720000  0.03040000  1.0 0.081496099
H  H33  1  0.78720000  0.03040000  0.72420000  1.0 0.081496099
H  H34  1  0.96960000  0.21280000  0.27580000  1.0 0.081496099
H  H35  1  0.21280000  0.27580000  0.96960000  1.0 0.081496099
H  H36  1  0.27580000  0.96960000  0.21280000  1.0 0.081496099
H  H37  1  0.96960000  0.27580000  0.21280000  1.0 0.081496099
H  H38  1  0.27580000  0.21280000  0.96960000  1.0 0.081496099
H  H39  1  0.21280000  0.96960000  0.27580000  1.0 0.081496099
H  H40  1  0.03040000  0.78720000  0.72420000  1.0 0.081496099
H  H41  1  0.78720000  0.72420000  0.03040000  1.0 0.081496099
H  H42  1  0.72420000  0.03040000  0.78720000  1.0 0.081496099
H  H43  1  0.12180000  0.64770000  0.78940000  1.0 0.0971159599
H  H44  1  0.64770000  0.78940000  0.12180000  1.0 0.0971159599
H  H45  1  0.78940000  0.12180000  0.64770000  1.0 0.0971159599
H  H46  1  0.87820000  0.21060000  0.35230000  1.0 0.0971159599
H  H47  1  0.21060000  0.35230000  0.87820000  1.0 0.0971159599
H  H48  1  0.35230000  0.87820000  0.21060000  1.0 0.0971159599
H  H49  1  0.87820000  0.35230000  0.21060000  1.0 0.0971159599
H  H50  1  0.35230000  0.21060000  0.87820000  1.0 0.0971159599
H  H51  1  0.21060000  0.87820000  0.35230000  1.0 0.0971159599
H  H52  1  0.12180000  0.78940000  0.64770000  1.0 0.0971159599
H  H53  1  0.78940000  0.64770000  0.12180000  1.0 0.0971159599
H  H54  1  0.64770000  0.12180000  0.78940000  1.0 0.0971159599
H  H55  1  0.03340000  0.65880000  0.65880000  1.0 0.2015277513
H  H56  1  0.65880000  0.65880000  0.03340000  1.0 0.2015277513
H  H57  1  0.65880000  0.03340000  0.65880000  1.0 0.2015277513
H  H58  1  0.96660000  0.34120000  0.34120000  1.0 0.2015277513
H  H59  1  0.34120000  0.34120000  0.96660000  1.0 0.2015277513
H  H60  1  0.34120000  0.96660000  0.34120000  1.0 0.2015277513
H  H61  1  0.14040000  0.63920000  0.63920000  1.0 0.1486471425
H  H62  1  0.63920000  0.63920000  0.14040000  1.0 0.1486471425
H  H63  1  0.63920000  0.14040000  0.63920000  1.0 0.1486471425
H  H64  1  0.85960000  0.36080000  0.36080000  1.0 0.1486471425
H  H65  1  0.36080000  0.36080000  0.85960000  1.0 0.1486471425
H  H66  1  0.36080000  0.85960000  0.36080000  1.0 0.1486471425
H  H67  1  0.02290000  0.55840000  0.85820000  1.0 0.1324780006
H  H68  1  0.55840000  0.85820000  0.02290000  1.0 0.1324780006
H  H69  1  0.85820000  0.02290000  0.55840000  1.0 0.1324780006
H  H70  1  0.97710000  0.14180000  0.44160000  1.0 0.1324780006
H  H71  1  0.14180000  0.44160000  0.97710000  1.0 0.1324780006
H  H72  1  0.44160000  0.97710000  0.14180000  1.0 0.1324780006
H  H73  1  0.97710000  0.44160000  0.14180000  1.0 0.1324780006
H  H74  1  0.44160000  0.14180000  0.97710000  1.0 0.1324780006
H  H75  1  0.14180000  0.97710000  0.44160000  1.0 0.1324780006
H  H76  1  0.02290000  0.85820000  0.55840000  1.0 0.1324780006
H  H77  1  0.85820000  0.55840000  0.02290000  1.0 0.1324780006
H  H78  1  0.55840000  0.02290000  0.85820000  1.0 0.1324780006
H  H79  1  0.08560000  0.59200000  0.94070000  1.0 0.0923548788
H  H80  1  0.59200000  0.94070000  0.08560000  1.0 0.0923548788
H  H81  1  0.94070000  0.08560000  0.59200000  1.0 0.0923548788
H  H82  1  0.91440000  0.05930000  0.40800000  1.0 0.0923548788
H  H83  1  0.05930000  0.40800000  0.91440000  1.0 0.0923548788
H  H84  1  0.40800000  0.91440000  0.05930000  1.0 0.0923548788
H  H85  1  0.91440000  0.40800000  0.05930000  1.0 0.0923548788
H  H86  1  0.40800000  0.05930000  0.91440000  1.0 0.0923548788
H  H87  1  0.05930000  0.91440000  0.40800000  1.0 0.0923548788
H  H88  1  0.08560000  0.94070000  0.59200000  1.0 0.0923548788
H  H89  1  0.94070000  0.59200000  0.08560000  1.0 0.0923548788
H  H90  1  0.59200000  0.08560000  0.94070000  1.0 0.0923548788
C  C1  1  0.93478000  0.48058000  0.66618000  1.0 0.5832171036
C  C2  1  0.48058000  0.66618000  0.93478000  1.0 0.5832171036
C  C3  1  0.66618000  0.93478000  0.48058000  1.0 0.5832171036
C  C4  1  0.06522000  0.33382000  0.51942000  1.0 0.5832171036
C  C5  1  0.33382000  0.51942000  0.06522000  1.0 0.5832171036
C  C6  1  0.51942000  0.06522000  0.33382000  1.0 0.5832171036
C  C7  1  0.06522000  0.51942000  0.33382000  1.0 0.5832171036
C  C8  1  0.51942000  0.33382000  0.06522000  1.0 0.5832171036
C  C9  1  0.33382000  0.06522000  0.51942000  1.0 0.5832171036
C  C10  1  0.93478000  0.66618000  0.48058000  1.0 0.5832171036
C  C11  1  0.66618000  0.48058000  0.93478000  1.0 0.5832171036
C  C12  1  0.48058000  0.93478000  0.66618000  1.0 0.5832171036
C  C13  1  0.80394000  0.47429000  0.80394000  1.0 -0.1080875043
C  C14  1  0.47429000  0.80394000  0.80394000  1.0 -0.1080875043
C  C15  1  0.80394000  0.80394000  0.47429000  1.0 -0.1080875043
C  C16  1  0.19606000  0.19606000  0.52571000  1.0 -0.1080875043
C  C17  1  0.19606000  0.52571000  0.19606000  1.0 -0.1080875043
C  C18  1  0.52571000  0.19606000  0.19606000  1.0 -0.1080875043
C  C19  1  0.89212000  0.47632000  0.76422000  1.0 0.0088050773
C  C20  1  0.47632000  0.76422000  0.89212000  1.0 0.0088050773
C  C21  1  0.76422000  0.89212000  0.47632000  1.0 0.0088050773
C  C22  1  0.10788000  0.23578000  0.52368000  1.0 0.0088050773
C  C23  1  0.23578000  0.52368000  0.10788000  1.0 0.0088050773
C  C24  1  0.52368000  0.10788000  0.23578000  1.0 0.0088050773
C  C25  1  0.10788000  0.52368000  0.23578000  1.0 0.0088050773
C  C26  1  0.52368000  0.23578000  0.10788000  1.0 0.0088050773
C  C27  1  0.23578000  0.10788000  0.52368000  1.0 0.0088050773
C  C28  1  0.89212000  0.76422000  0.47632000  1.0 0.0088050773
C  C29  1  0.76422000  0.47632000  0.89212000  1.0 0.0088050773
C  C30  1  0.47632000  0.89212000  0.76422000  1.0 0.0088050773
C  C31  1  0.94128000  0.47968000  0.81328000  1.0 -0.2775917829
C  C32  1  0.47968000  0.81328000  0.94128000  1.0 -0.2775917829
C  C33  1  0.81328000  0.94128000  0.47968000  1.0 -0.2775917829
C  C34  1  0.05872000  0.18672000  0.52032000  1.0 -0.2775917829
C  C35  1  0.18672000  0.52032000  0.05872000  1.0 -0.2775917829
C  C36  1  0.52032000  0.05872000  0.18672000  1.0 -0.2775917829
C  C37  1  0.05872000  0.52032000  0.18672000  1.0 -0.2775917829
C  C38  1  0.52032000  0.18672000  0.05872000  1.0 -0.2775917829
C  C39  1  0.18672000  0.05872000  0.52032000  1.0 -0.2775917829
C  C40  1  0.94128000  0.81328000  0.47968000  1.0 -0.2775917829
C  C41  1  0.81328000  0.47968000  0.94128000  1.0 -0.2775917829
C  C42  1  0.47968000  0.94128000  0.81328000  1.0 -0.2775917829
C  C43  1  0.90127000  0.48282000  0.90127000  1.0 0.0324942209
C  C44  1  0.48282000  0.90127000  0.90127000  1.0 0.0324942209
C  C45  1  0.90127000  0.90127000  0.48282000  1.0 0.0324942209
C  C46  1  0.09873000  0.09873000  0.51718000  1.0 0.0324942209
C  C47  1  0.09873000  0.51718000  0.09873000  1.0 0.0324942209
C  C48  1  0.51718000  0.09873000  0.09873000  1.0 0.0324942209
C  C49  1  0.94590000  0.50660000  0.94590000  1.0 -0.0167265665
C  C50  1  0.50660000  0.94590000  0.94590000  1.0 -0.0167265665
C  C51  1  0.94590000  0.94590000  0.50660000  1.0 -0.0167265665
C  C52  1  0.05410000  0.05410000  0.49340000  1.0 -0.0167265665
C  C53  1  0.05410000  0.49340000  0.05410000  1.0 -0.0167265665
C  C54  1  0.49340000  0.05410000  0.05410000  1.0 -0.0167265665
C  C55  1  0.00340000  0.56070000  0.90240000  1.0 0.0599940192
C  C56  1  0.56070000  0.90240000  0.00340000  1.0 0.0599940192
C  C57  1  0.90240000  0.00340000  0.56070000  1.0 0.0599940192
C  C58  1  0.99660000  0.09760000  0.43930000  1.0 0.0599940192
C  C59  1  0.09760000  0.43930000  0.99660000  1.0 0.0599940192
C  C60  1  0.43930000  0.99660000  0.09760000  1.0 0.0599940192
C  C61  1  0.99660000  0.43930000  0.09760000  1.0 0.0599940192
C  C62  1  0.43930000  0.09760000  0.99660000  1.0 0.0599940192
C  C63  1  0.09760000  0.99660000  0.43930000  1.0 0.0599940192
C  C64  1  0.00340000  0.90240000  0.56070000  1.0 0.0599940192
C  C65  1  0.90240000  0.56070000  0.00340000  1.0 0.0599940192
C  C66  1  0.56070000  0.00340000  0.90240000  1.0 0.0599940192
C  C67  1  0.04370000  0.57760000  0.95050000  1.0 -0.0945614409
C  C68  1  0.57760000  0.95050000  0.04370000  1.0 -0.0945614409
C  C69  1  0.95050000  0.04370000  0.57760000  1.0 -0.0945614409
C  C70  1  0.95630000  0.04950000  0.42240000  1.0 -0.0945614409
C  C71  1  0.04950000  0.42240000  0.95630000  1.0 -0.0945614409
C  C72  1  0.42240000  0.95630000  0.04950000  1.0 -0.0945614409
C  C73  1  0.95630000  0.42240000  0.04950000  1.0 -0.0945614409
C  C74  1  0.42240000  0.04950000  0.95630000  1.0 -0.0945614409
C  C75  1  0.04950000  0.95630000  0.42240000  1.0 -0.0945614409
C  C76  1  0.04370000  0.95050000  0.57760000  1.0 -0.0945614409
C  C77  1  0.95050000  0.57760000  0.04370000  1.0 -0.0945614409
C  C78  1  0.57760000  0.04370000  0.95050000  1.0 -0.0945614409
C  C79  1  0.06550000  0.66610000  0.77570000  1.0 -0.1777230818
C  C80  1  0.66610000  0.77570000  0.06550000  1.0 -0.1777230818
C  C81  1  0.77570000  0.06550000  0.66610000  1.0 -0.1777230818
C  C82  1  0.93450000  0.22430000  0.33390000  1.0 -0.1777230818
C  C83  1  0.22430000  0.33390000  0.93450000  1.0 -0.1777230818
C  C84  1  0.33390000  0.93450000  0.22430000  1.0 -0.1777230818
C  C85  1  0.93450000  0.33390000  0.22430000  1.0 -0.1777230818
C  C86  1  0.33390000  0.22430000  0.93450000  1.0 -0.1777230818
C  C87  1  0.22430000  0.93450000  0.33390000  1.0 -0.1777230818
C  C88  1  0.06550000  0.77570000  0.66610000  1.0 -0.1777230818
C  C89  1  0.77570000  0.66610000  0.06550000  1.0 -0.1777230818
C  C90  1  0.66610000  0.06550000  0.77570000  1.0 -0.1777230818
C  C91  1  0.08060000  0.66970000  0.66970000  1.0 -0.2719887154
C  C92  1  0.66970000  0.66970000  0.08060000  1.0 -0.2719887154
C  C93  1  0.66970000  0.08060000  0.66970000  1.0 -0.2719887154
C  C94  1  0.91940000  0.33030000  0.33030000  1.0 -0.2719887154
C  C95  1  0.33030000  0.33030000  0.91940000  1.0 -0.2719887154
C  C96  1  0.33030000  0.91940000  0.33030000  1.0 -0.2719887154
C  C97  1  0.01410000  0.52900000  0.92130000  1.0 0.0014929386
C  C98  1  0.52900000  0.92130000  0.01410000  1.0 0.0014929386
C  C99  1  0.92130000  0.01410000  0.52900000  1.0 0.0014929386
C  C100  1  0.98590000  0.07870000  0.47100000  1.0 0.0014929386
C  C101  1  0.07870000  0.47100000  0.98590000  1.0 0.0014929386
C  C102  1  0.47100000  0.98590000  0.07870000  1.0 0.0014929386
C  C103  1  0.98590000  0.47100000  0.07870000  1.0 0.0014929386
C  C104  1  0.47100000  0.07870000  0.98590000  1.0 0.0014929386
C  C105  1  0.07870000  0.98590000  0.47100000  1.0 0.0014929386
C  C106  1  0.01410000  0.92130000  0.52900000  1.0 0.0014929386
C  C107  1  0.92130000  0.52900000  0.01410000  1.0 0.0014929386
C  C108  1  0.52900000  0.01410000  0.92130000  1.0 0.0014929386
C  C109  1  0.03875000  0.52790000  0.03875000  1.0 0.0088050773
C  C110  1  0.52790000  0.03875000  0.03875000  1.0 0.0088050773
C  C111  1  0.03875000  0.03875000  0.52790000  1.0 0.0088050773
C  C112  1  0.96125000  0.96125000  0.47210000  1.0 0.0088050773
C  C113  1  0.96125000  0.47210000  0.96125000  1.0 0.0088050773
C  C114  1  0.47210000  0.96125000  0.96125000  1.0 0.0088050773
C  C115  1  0.94450000  0.45440000  0.03190000  1.0 -0.0334585961
C  C116  1  0.45440000  0.03190000  0.94450000  1.0 -0.0334585961
C  C117  1  0.03190000  0.94450000  0.45440000  1.0 -0.0334585961
C  C118  1  0.05550000  0.96810000  0.54560000  1.0 -0.0334585961
C  C119  1  0.96810000  0.54560000  0.05550000  1.0 -0.0334585961
C  C120  1  0.54560000  0.05550000  0.96810000  1.0 -0.0334585961
C  C121  1  0.05550000  0.54560000  0.96810000  1.0 -0.0334585961
C  C122  1  0.54560000  0.96810000  0.05550000  1.0 -0.0334585961
C  C123  1  0.96810000  0.05550000  0.54560000  1.0 -0.0334585961
C  C124  1  0.94450000  0.03190000  0.45440000  1.0 -0.0334585961
C  C125  1  0.03190000  0.45440000  0.94450000  1.0 -0.0334585961
C  C126  1  0.45440000  0.94450000  0.03190000  1.0 -0.0334585961
O  O1  1  0.88727000  0.47833000  0.62489000  1.0 -0.5170939423
O  O2  1  0.47833000  0.62489000  0.88727000  1.0 -0.5170939423
O  O3  1  0.62489000  0.88727000  0.47833000  1.0 -0.5170939423
O  O4  1  0.11273000  0.37511000  0.52167000  1.0 -0.5170939423
O  O5  1  0.37511000  0.52167000  0.11273000  1.0 -0.5170939423
O  O6  1  0.52167000  0.11273000  0.37511000  1.0 -0.5170939423
O  O7  1  0.11273000  0.52167000  0.37511000  1.0 -0.5170939423
O  O8  1  0.52167000  0.37511000  0.11273000  1.0 -0.5170939423
O  O9  1  0.37511000  0.11273000  0.52167000  1.0 -0.5170939423
O  O10  1  0.88727000  0.62489000  0.47833000  1.0 -0.5170939423
O  O11  1  0.62489000  0.47833000  0.88727000  1.0 -0.5170939423
O  O12  1  0.47833000  0.88727000  0.62489000  1.0 -0.5170939423
O  O13  1  0.01325000  0.48615000  0.63275000  1.0 -0.514028828
O  O14  1  0.48615000  0.63275000  0.01325000  1.0 -0.514028828
O  O15  1  0.63275000  0.01325000  0.48615000  1.0 -0.514028828
O  O16  1  0.98675000  0.36725000  0.51385000  1.0 -0.514028828
O  O17  1  0.36725000  0.51385000  0.98675000  1.0 -0.514028828
O  O18  1  0.51385000  0.98675000  0.36725000  1.0 -0.514028828
O  O19  1  0.98675000  0.51385000  0.36725000  1.0 -0.514028828
O  O20  1  0.51385000  0.36725000  0.98675000  1.0 -0.514028828
O  O21  1  0.36725000  0.98675000  0.51385000  1.0 -0.514028828
O  O22  1  0.01325000  0.63275000  0.48615000  1.0 -0.514028828
O  O23  1  0.63275000  0.48615000  0.01325000  1.0 -0.514028828
O  O24  1  0.48615000  0.01325000  0.63275000  1.0 -0.514028828
O  O25  1  0.01260000  0.59510000  0.82910000  1.0 -0.1409761105
O  O26  1  0.59510000  0.82910000  0.01260000  1.0 -0.1409761105
O  O27  1  0.82910000  0.01260000  0.59510000  1.0 -0.1409761105
O  O28  1  0.98740000  0.17090000  0.40490000  1.0 -0.1409761105
O  O29  1  0.17090000  0.40490000  0.98740000  1.0 -0.1409761105
O  O30  1  0.40490000  0.98740000  0.17090000  1.0 -0.1409761105
O  O31  1  0.98740000  0.40490000  0.17090000  1.0 -0.1409761105
O  O32  1  0.40490000  0.17090000  0.98740000  1.0 -0.1409761105
O  O33  1  0.17090000  0.98740000  0.40490000  1.0 -0.1409761105
O  O34  1  0.01260000  0.82910000  0.59510000  1.0 -0.1409761105
O  O35  1  0.82910000  0.59510000  0.01260000  1.0 -0.1409761105
O  O36  1  0.59510000  0.01260000  0.82910000  1.0 -0.1409761105
