# DDEC6 charges by PACMAN v1.1 (https://github.com/mtap-research/PACMAN-charge/)
data_EKEQIV_FSR_pacman
_symmetry_space_group_name_H-M   'P 1'
_cell_length_a   9.61800000
_cell_length_b   13.99600000
_cell_length_c   19.84200000
_cell_angle_alpha   90.00000000
_cell_angle_beta   99.18200000
_cell_angle_gamma   90.00000000
_symmetry_Int_Tables_number   1
_chemical_formula_structural   CuMo4H12C14(N2O7)2
_chemical_formula_sum   'Cu4 Mo16 H48 C56 N16 O56'
_cell_volume   2636.77659509
_cell_formula_units_Z   4
loop_
 _symmetry_equiv_pos_site_id
 _symmetry_equiv_pos_as_xyz
  1  'x, y, z'
loop_
 _atom_site_type_symbol
 _atom_site_label
 _atom_site_symmetry_multiplicity
 _atom_site_fract_x
 _atom_site_fract_y
 _atom_site_fract_z
 _atom_site_occupancy
 _atom_site_charge
Cu  Cu1  1  0.76938000  0.09205000  0.71875000  1.0 0.7620969759
Cu  Cu2  1  0.23062000  0.59205000  0.78125000  1.0 0.7620969759
Cu  Cu3  1  0.23062000  0.90795000  0.28125000  1.0 0.7620969759
Cu  Cu4  1  0.76938000  0.40795000  0.21875000  1.0 0.7620969759
Mo  Mo1  1  0.29947000  0.09502000  0.98384000  1.0 2.1813254998
Mo  Mo2  1  0.70053000  0.59502000  0.51616000  1.0 2.1813254998
Mo  Mo3  1  0.70053000  0.90498000  0.01616000  1.0 2.1813254998
Mo  Mo4  1  0.29947000  0.40498000  0.48384000  1.0 2.1813254998
Mo  Mo5  1  0.92354000  0.10164000  0.03582000  1.0 2.1465131957
Mo  Mo6  1  0.07646000  0.60164000  0.46418000  1.0 2.1465131957
Mo  Mo7  1  0.07646000  0.89836000  0.96418000  1.0 2.1465131957
Mo  Mo8  1  0.92354000  0.39836000  0.53582000  1.0 2.1465131957
Mo  Mo9  1  0.00880000  0.11861000  0.87888000  1.0 2.1465131957
Mo  Mo10  1  0.99120000  0.61861000  0.62112000  1.0 2.141541128
Mo  Mo11  1  0.99120000  0.88139000  0.12112000  1.0 2.1465131957
Mo  Mo12  1  0.00880000  0.38139000  0.37888000  1.0 2.1465131957
Mo  Mo13  1  0.63966000  0.11074000  0.92142000  1.0 2.1465131957
Mo  Mo14  1  0.36034000  0.61074000  0.57858000  1.0 2.1465131957
Mo  Mo15  1  0.36034000  0.88926000  0.07858000  1.0 2.1465131957
Mo  Mo16  1  0.63966000  0.38926000  0.42142000  1.0 2.1465131957
H  H1  1  0.06640000  0.72250000  0.24720000  1.0 0.1219242497
H  H2  1  0.93360000  0.22250000  0.25280000  1.0 0.1219242497
H  H3  1  0.93360000  0.27750000  0.75280000  1.0 0.1219242497
H  H4  1  0.06640000  0.77750000  0.74720000  1.0 0.1219242497
H  H5  1  0.10360000  0.93620000  0.76290000  1.0 0.1401678109
H  H6  1  0.89640000  0.43620000  0.73710000  1.0 0.1401678109
H  H7  1  0.89640000  0.06380000  0.23710000  1.0 0.1401678109
H  H8  1  0.10360000  0.56380000  0.26290000  1.0 0.1401678109
H  H9  1  0.32370000  0.99170000  0.80960000  1.0 0.1325607383
H  H10  1  0.67630000  0.49170000  0.69040000  1.0 0.1325607383
H  H11  1  0.67630000  0.00830000  0.19040000  1.0 0.1325607383
H  H12  1  0.32370000  0.50830000  0.30960000  1.0 0.1325607383
H  H13  1  0.50690000  0.87940000  0.83980000  1.0 0.1325607383
H  H14  1  0.49310000  0.37940000  0.66020000  1.0 0.1325607383
H  H15  1  0.49310000  0.12060000  0.16020000  1.0 0.1325607383
H  H16  1  0.50690000  0.62060000  0.33980000  1.0 0.1325607383
H  H17  1  0.53210000  0.03300000  0.33750000  1.0 0.1219242497
H  H18  1  0.46790000  0.53300000  0.16250000  1.0 0.1219242497
H  H19  1  0.46790000  0.96700000  0.66250000  1.0 0.1219242497
H  H20  1  0.53210000  0.46700000  0.83750000  1.0 0.1219242497
H  H21  1  0.75550000  0.56010000  0.85650000  1.0 0.1401678109
H  H22  1  0.24450000  0.06010000  0.64350000  1.0 0.1401678109
H  H23  1  0.24450000  0.43990000  0.14350000  1.0 0.1401678109
H  H24  1  0.75550000  0.93990000  0.35650000  1.0 0.1401678109
H  H25  1  0.70980000  0.80450000  0.87870000  1.0 0.1325607383
H  H26  1  0.29020000  0.30450000  0.62130000  1.0 0.1325607383
H  H27  1  0.29020000  0.19550000  0.12130000  1.0 0.1325607383
H  H28  1  0.70980000  0.69550000  0.37870000  1.0 0.1325607383
H  H29  1  0.82360000  0.73190000  0.86180000  1.0 0.1487359673
H  H30  1  0.17640000  0.23190000  0.63820000  1.0 0.1487359673
H  H31  1  0.17640000  0.26810000  0.13820000  1.0 0.1487359673
H  H32  1  0.82360000  0.76810000  0.36180000  1.0 0.1487359673
H  H33  1  0.67660000  0.69340000  0.71480000  1.0 0.1401678109
H  H34  1  0.32340000  0.19340000  0.78520000  1.0 0.1401678109
H  H35  1  0.32340000  0.30660000  0.28520000  1.0 0.1401678109
H  H36  1  0.67660000  0.80660000  0.21480000  1.0 0.1401678109
H  H37  1  0.68600000  0.77800000  0.61290000  1.0 0.1401678109
H  H38  1  0.31400000  0.27800000  0.88710000  1.0 0.1401678109
H  H39  1  0.31400000  0.22200000  0.38710000  1.0 0.1401678109
H  H40  1  0.68600000  0.72200000  0.11290000  1.0 0.1401678109
H  H41  1  0.74220000  0.93770000  0.61930000  1.0 0.1219242497
H  H42  1  0.25780000  0.43770000  0.88070000  1.0 0.1219242497
H  H43  1  0.25780000  0.06230000  0.38070000  1.0 0.1219242497
H  H44  1  0.74220000  0.56230000  0.11930000  1.0 0.1219242497
H  H45  1  0.77530000  0.93480000  0.81680000  1.0 0.1325607383
H  H46  1  0.22470000  0.43480000  0.68320000  1.0 0.1325607383
H  H47  1  0.22470000  0.06520000  0.18320000  1.0 0.1325607383
H  H48  1  0.77530000  0.56520000  0.31680000  1.0 0.1325607383
C  C1  1  0.15570000  0.70150000  0.26650000  1.0 0.1050925375
C  C2  1  0.84430000  0.20150000  0.23350000  1.0 0.1050925375
C  C3  1  0.84430000  0.29850000  0.73350000  1.0 0.1050925375
C  C4  1  0.15570000  0.79850000  0.76650000  1.0 0.1050925375
C  C5  1  0.17740000  0.60650000  0.27540000  1.0 -0.1152141608
C  C6  1  0.82260000  0.10650000  0.22460000  1.0 -0.1152141608
C  C7  1  0.82260000  0.39350000  0.72460000  1.0 -0.1152141608
C  C8  1  0.17740000  0.89350000  0.77540000  1.0 -0.1152141608
C  C9  1  0.30730000  0.92670000  0.80290000  1.0 -0.0151686725
C  C10  1  0.69270000  0.42670000  0.69710000  1.0 -0.0151686725
C  C11  1  0.69270000  0.07330000  0.19710000  1.0 -0.0151686725
C  C12  1  0.30730000  0.57330000  0.30290000  1.0 -0.0151686725
C  C13  1  0.41700000  0.64080000  0.32090000  1.0 -0.1397493622
C  C14  1  0.58300000  0.14080000  0.17910000  1.0 -0.1397493622
C  C15  1  0.58300000  0.35920000  0.67910000  1.0 -0.1397493622
C  C16  1  0.41700000  0.85920000  0.82090000  1.0 -0.1397493622
C  C17  1  0.38870000  0.73690000  0.31020000  1.0 0.1401678109
C  C18  1  0.61130000  0.23690000  0.18980000  1.0 0.1401678109
C  C19  1  0.61130000  0.26310000  0.68980000  1.0 0.1401678109
C  C20  1  0.38870000  0.76310000  0.81020000  1.0 0.1401678109
C  C21  1  0.48450000  0.68450000  0.82630000  1.0 0.2023836718
C  C22  1  0.51550000  0.18450000  0.67370000  1.0 0.2023836718
C  C23  1  0.51550000  0.31550000  0.17370000  1.0 0.2023836718
C  C24  1  0.48450000  0.81550000  0.32630000  1.0 0.2023836718
C  C25  1  0.54020000  0.96680000  0.33630000  1.0 0.0059273596
C  C26  1  0.45980000  0.46680000  0.16370000  1.0 0.0059273596
C  C27  1  0.45980000  0.03320000  0.66370000  1.0 0.0059273596
C  C28  1  0.54020000  0.53320000  0.83630000  1.0 0.0059273596
C  C29  1  0.66470000  0.58480000  0.84710000  1.0 -0.0808782457
C  C30  1  0.33530000  0.08480000  0.65290000  1.0 -0.0808782457
C  C31  1  0.33530000  0.41520000  0.15290000  1.0 -0.0808782457
C  C32  1  0.66470000  0.91520000  0.34710000  1.0 -0.0808782457
C  C33  1  0.73060000  0.75760000  0.84570000  1.0 -0.1397493622
C  C34  1  0.26940000  0.25760000  0.65430000  1.0 -0.1397493622
C  C35  1  0.26940000  0.24240000  0.15430000  1.0 -0.1397493622
C  C36  1  0.73060000  0.74240000  0.34570000  1.0 -0.1397493622
C  C37  1  0.73040000  0.80690000  0.77610000  1.0 0.0490728421
C  C38  1  0.26960000  0.30690000  0.72390000  1.0 0.0490728421
C  C39  1  0.26960000  0.19310000  0.22390000  1.0 0.0490728421
C  C40  1  0.73040000  0.69310000  0.27610000  1.0 0.0490728421
C  C41  1  0.69980000  0.75800000  0.71560000  1.0 -0.090976555
C  C42  1  0.30020000  0.25800000  0.78440000  1.0 -0.090976555
C  C43  1  0.30020000  0.24200000  0.28440000  1.0 -0.090976555
C  C44  1  0.69980000  0.74200000  0.21560000  1.0 -0.090976555
C  C45  1  0.70480000  0.80840000  0.65510000  1.0 -0.090976555
C  C46  1  0.29520000  0.30840000  0.84490000  1.0 -0.090976555
C  C47  1  0.29520000  0.19160000  0.34490000  1.0 -0.090976555
C  C48  1  0.70480000  0.69160000  0.15510000  1.0 -0.090976555
C  C49  1  0.73810000  0.90420000  0.65940000  1.0 0.0593421766
C  C50  1  0.26190000  0.40420000  0.84060000  1.0 0.0593421766
C  C51  1  0.26190000  0.09580000  0.34060000  1.0 0.0593421766
C  C52  1  0.73810000  0.59580000  0.15940000  1.0 0.0593421766
C  C53  1  0.75900000  0.90240000  0.77540000  1.0 0.0387011169
C  C54  1  0.24100000  0.40240000  0.72460000  1.0 0.0387011169
C  C55  1  0.24100000  0.09760000  0.22460000  1.0 0.0387011169
C  C56  1  0.75900000  0.59760000  0.27540000  1.0 0.0387011169
N  N1  1  0.25630000  0.76630000  0.28410000  1.0 -0.2249164834
N  N2  1  0.74370000  0.26630000  0.21590000  1.0 -0.2249164834
N  N3  1  0.74370000  0.23370000  0.71590000  1.0 -0.2255499913
N  N4  1  0.25630000  0.73370000  0.78410000  1.0 -0.2255499913
N  N5  1  0.43100000  0.90310000  0.32320000  1.0 -0.3233918129
N  N6  1  0.56900000  0.40310000  0.17680000  1.0 -0.3233918129
N  N7  1  0.56900000  0.09690000  0.67680000  1.0 -0.3233918129
N  N8  1  0.43100000  0.59690000  0.82320000  1.0 -0.3233918129
N  N9  1  0.62740000  0.68070000  0.84130000  1.0 0.0347424586
N  N10  1  0.37260000  0.18070000  0.65870000  1.0 0.0347424586
N  N11  1  0.37260000  0.31930000  0.15870000  1.0 0.0347424586
N  N12  1  0.62740000  0.81930000  0.34130000  1.0 0.0347424586
N  N13  1  0.76480000  0.95100000  0.71880000  1.0 -0.2090059995
N  N14  1  0.23520000  0.45100000  0.78120000  1.0 -0.2090059995
N  N15  1  0.23520000  0.04900000  0.28120000  1.0 -0.2090059995
N  N16  1  0.76480000  0.54900000  0.21880000  1.0 -0.2090059995
O  O1  1  0.29940000  0.21380000  0.99830000  1.0 -0.6166756853
O  O2  1  0.70060000  0.71380000  0.50170000  1.0 -0.6166756853
O  O3  1  0.70060000  0.78620000  0.00170000  1.0 -0.6166756853
O  O4  1  0.29940000  0.28620000  0.49830000  1.0 -0.6166756853
O  O5  1  0.19920000  0.09610000  0.88450000  1.0 -0.8277595892
O  O6  1  0.80080000  0.59610000  0.61550000  1.0 -0.8277595892
O  O7  1  0.80080000  0.90390000  0.11550000  1.0 -0.8277595892
O  O8  1  0.19920000  0.40390000  0.38450000  1.0 -0.8277595892
O  O9  1  0.08380000  0.07710000  0.98570000  1.0 -1.0344140484
O  O10  1  0.91620000  0.57710000  0.51430000  1.0 -1.036100383
O  O11  1  0.91620000  0.92290000  0.01430000  1.0 -1.036100383
O  O12  1  0.08380000  0.42290000  0.48570000  1.0 -1.0344140484
O  O13  1  0.00930000  0.23960000  0.88540000  1.0 -0.6114089592
O  O14  1  0.99070000  0.73960000  0.61460000  1.0 -0.6114089592
O  O15  1  0.99070000  0.76040000  0.11460000  1.0 -0.6114089592
O  O16  1  0.00930000  0.26040000  0.38540000  1.0 -0.6114089592
O  O17  1  0.93160000  0.09760000  0.79450000  1.0 -0.7108178689
O  O18  1  0.06840000  0.59760000  0.70550000  1.0 -0.7108178689
O  O19  1  0.06840000  0.90240000  0.20550000  1.0 -0.7108178689
O  O20  1  0.93160000  0.40240000  0.29450000  1.0 -0.7108178689
O  O21  1  0.84620000  0.10030000  0.92810000  1.0 -0.9723346039
O  O22  1  0.15380000  0.60030000  0.57190000  1.0 -0.9723346039
O  O23  1  0.15380000  0.89970000  0.07190000  1.0 -0.9723346039
O  O24  1  0.84620000  0.39970000  0.42810000  1.0 -0.9723346039
O  O25  1  0.00030000  0.95090000  0.88750000  1.0 -0.7165223314
O  O26  1  0.99970000  0.45090000  0.61250000  1.0 -0.7165223314
O  O27  1  0.99970000  0.04910000  0.11250000  1.0 -0.7165223314
O  O28  1  0.00030000  0.54910000  0.38750000  1.0 -0.7165223314
O  O29  1  0.93320000  0.22080000  0.05000000  1.0 -0.5720115258
O  O30  1  0.06680000  0.72080000  0.45000000  1.0 -0.5720115258
O  O31  1  0.06680000  0.77920000  0.95000000  1.0 -0.5720115258
O  O32  1  0.93320000  0.27920000  0.55000000  1.0 -0.5720115258
O  O33  1  0.26520000  0.92870000  0.97000000  1.0 -0.8969281568
O  O34  1  0.73480000  0.42870000  0.53000000  1.0 -0.8969281568
O  O35  1  0.73480000  0.07130000  0.03000000  1.0 -0.8969281568
O  O36  1  0.26520000  0.57130000  0.47000000  1.0 -0.8969281568
O  O37  1  0.33830000  0.04920000  0.06760000  1.0 -0.7537556841
O  O38  1  0.66170000  0.54920000  0.43240000  1.0 -0.7537556841
O  O39  1  0.66170000  0.95080000  0.93240000  1.0 -0.7537556841
O  O40  1  0.33830000  0.45080000  0.56760000  1.0 -0.7537556841
O  O41  1  0.60010000  0.09940000  0.83560000  1.0 -0.6397551252
O  O42  1  0.39990000  0.59940000  0.66440000  1.0 -0.6397551252
O  O43  1  0.39990000  0.90060000  0.16440000  1.0 -0.6397551252
O  O44  1  0.60010000  0.40060000  0.33560000  1.0 -0.6397551252
O  O45  1  0.62940000  0.22970000  0.93540000  1.0 -0.5935237362
O  O46  1  0.37060000  0.72970000  0.56460000  1.0 -0.5935237362
O  O47  1  0.37060000  0.77030000  0.06460000  1.0 -0.5935237362
O  O48  1  0.62940000  0.27030000  0.43540000  1.0 -0.5935237362
O  O49  1  0.46330000  0.07590000  0.94900000  1.0 -0.8007341429
O  O50  1  0.53670000  0.57590000  0.55100000  1.0 -0.8007341429
O  O51  1  0.53670000  0.92410000  0.05100000  1.0 -0.8007341429
O  O52  1  0.46330000  0.42410000  0.44900000  1.0 -0.8007341429
O  O53  1  0.90900000  0.10140000  0.63410000  1.0 -0.4450761332
O  O54  1  0.09100000  0.60140000  0.86590000  1.0 -0.4437449827
O  O55  1  0.09100000  0.89860000  0.36590000  1.0 -0.4450761332
O  O56  1  0.90900000  0.39860000  0.13410000  1.0 -0.4450761332
