# DDEC6 charges by PACMAN v1.1 (https://github.com/mtap-research/PACMAN-charge/)
data_EKIDEH_FSR_pacman
_symmetry_space_group_name_H-M   'P 1'
_cell_length_a   10.36360000
_cell_length_b   16.97970000
_cell_length_c   17.94910000
_cell_angle_alpha   90.00000000
_cell_angle_beta   90.00000000
_cell_angle_gamma   90.00000000
_symmetry_Int_Tables_number   1
_chemical_formula_structural   RbGa6P6(O13F2)2
_chemical_formula_sum   'Rb4 Ga24 P24 O104 F16'
_cell_volume   3158.51782588
_cell_formula_units_Z   4
loop_
 _symmetry_equiv_pos_site_id
 _symmetry_equiv_pos_as_xyz
  1  'x, y, z'
loop_
 _atom_site_type_symbol
 _atom_site_label
 _atom_site_symmetry_multiplicity
 _atom_site_fract_x
 _atom_site_fract_y
 _atom_site_fract_z
 _atom_site_occupancy
 _atom_site_charge
Rb  Rb1  1  0.50000000  0.00000000  0.50000000  1.0 0.9100075466
Rb  Rb2  1  0.00000000  0.50000000  0.00000000  1.0 0.9100075466
Rb  Rb3  1  0.50000000  0.50000000  0.00000000  1.0 0.9100075466
Rb  Rb4  1  0.00000000  0.00000000  0.50000000  1.0 0.9100075466
Ga  Ga1  1  0.08722000  0.23997000  0.20212000  1.0 1.499589364
Ga  Ga2  1  0.58722000  0.26003000  0.29788000  1.0 1.499589364
Ga  Ga3  1  0.91278000  0.26003000  0.70212000  1.0 1.499589364
Ga  Ga4  1  0.41278000  0.23997000  0.79788000  1.0 1.499589364
Ga  Ga5  1  0.91278000  0.76003000  0.79788000  1.0 1.499589364
Ga  Ga6  1  0.41278000  0.73997000  0.70212000  1.0 1.499589364
Ga  Ga7  1  0.08722000  0.73997000  0.29788000  1.0 1.499589364
Ga  Ga8  1  0.58722000  0.76003000  0.20212000  1.0 1.499589364
Ga  Ga9  1  0.11248000  0.20173000  0.39846000  1.0 1.549261753
Ga  Ga10  1  0.61248000  0.29827000  0.10154000  1.0 1.549261753
Ga  Ga11  1  0.88752000  0.29827000  0.89846000  1.0 1.549261753
Ga  Ga12  1  0.38752000  0.20173000  0.60154000  1.0 1.549261753
Ga  Ga13  1  0.88752000  0.79827000  0.60154000  1.0 1.549261753
Ga  Ga14  1  0.38752000  0.70173000  0.89846000  1.0 1.549261753
Ga  Ga15  1  0.11248000  0.70173000  0.10154000  1.0 1.549261753
Ga  Ga16  1  0.61248000  0.79827000  0.39846000  1.0 1.549261753
Ga  Ga17  1  0.91274000  0.41602000  0.21780000  1.0 1.5427208645
Ga  Ga18  1  0.41274000  0.08398000  0.28220000  1.0 1.5427208645
Ga  Ga19  1  0.08726000  0.08398000  0.71780000  1.0 1.5427208645
Ga  Ga20  1  0.58726000  0.41602000  0.78220000  1.0 1.5427208645
Ga  Ga21  1  0.08726000  0.58398000  0.78220000  1.0 1.549261753
Ga  Ga22  1  0.58726000  0.91602000  0.71780000  1.0 1.5427208645
Ga  Ga23  1  0.91274000  0.91602000  0.28220000  1.0 1.5427208645
Ga  Ga24  1  0.41274000  0.58398000  0.21780000  1.0 1.5427208645
P  P1  1  0.88277000  0.28100000  0.32371000  1.0 1.5334909788
P  P2  1  0.38277000  0.21900000  0.17629000  1.0 1.5334909788
P  P3  1  0.11723000  0.21900000  0.82371000  1.0 1.5427208645
P  P4  1  0.61723000  0.28100000  0.67629000  1.0 1.5334909788
P  P5  1  0.11723000  0.71900000  0.67629000  1.0 1.5334909788
P  P6  1  0.61723000  0.78100000  0.82371000  1.0 1.5334909788
P  P7  1  0.88277000  0.78100000  0.17629000  1.0 1.5334909788
P  P8  1  0.38277000  0.71900000  0.32371000  1.0 1.5334909788
P  P9  1  0.10647000  0.06934000  0.27645000  1.0 1.5599021716
P  P10  1  0.60647000  0.43066000  0.22355000  1.0 1.5657940113
P  P11  1  0.89353000  0.43066000  0.77645000  1.0 1.5599021716
P  P12  1  0.39353000  0.06934000  0.72355000  1.0 1.5599021716
P  P13  1  0.89353000  0.93066000  0.72355000  1.0 1.5599021716
P  P14  1  0.39353000  0.56934000  0.77645000  1.0 1.5657940113
P  P15  1  0.10647000  0.56934000  0.22355000  1.0 1.5657940113
P  P16  1  0.60647000  0.93066000  0.27645000  1.0 1.5599021716
P  P17  1  0.90141000  0.30446000  0.07577000  1.0 1.5599021716
P  P18  1  0.40141000  0.19554000  0.42423000  1.0 1.5599021716
P  P19  1  0.09859000  0.19554000  0.57577000  1.0 1.5599021716
P  P20  1  0.59859000  0.30446000  0.92423000  1.0 1.5599021716
P  P21  1  0.09859000  0.69554000  0.92423000  1.0 1.5599021716
P  P22  1  0.59859000  0.80446000  0.57577000  1.0 1.5599021716
P  P23  1  0.90141000  0.80446000  0.42423000  1.0 1.549261753
P  P24  1  0.40141000  0.69554000  0.07577000  1.0 1.5599021716
O  O1  1  0.92540000  0.23601000  0.25468000  1.0 -0.7604649673
O  O2  1  0.42540000  0.26399000  0.24532000  1.0 -0.7604649673
O  O3  1  0.07460000  0.26399000  0.75468000  1.0 -0.7604649673
O  O4  1  0.57460000  0.23601000  0.74532000  1.0 -0.7604649673
O  O5  1  0.07460000  0.76399000  0.74532000  1.0 -0.7604649673
O  O6  1  0.57460000  0.73601000  0.75468000  1.0 -0.7604649673
O  O7  1  0.92540000  0.73601000  0.24532000  1.0 -0.7604649673
O  O8  1  0.42540000  0.76399000  0.25468000  1.0 -0.7604649673
O  O9  1  0.09180000  0.12600000  0.21070000  1.0 -0.7508100914
O  O10  1  0.59180000  0.37400000  0.28930000  1.0 -0.7508100914
O  O11  1  0.90820000  0.37400000  0.71070000  1.0 -0.7508100914
O  O12  1  0.40820000  0.12600000  0.78930000  1.0 -0.7508100914
O  O13  1  0.90820000  0.87400000  0.78930000  1.0 -0.7508100914
O  O14  1  0.40820000  0.62600000  0.71070000  1.0 -0.7508100914
O  O15  1  0.09180000  0.62600000  0.28930000  1.0 -0.7508100914
O  O16  1  0.59180000  0.87400000  0.21070000  1.0 -0.7508100914
O  O17  1  0.00620000  0.24977000  0.10568000  1.0 -0.693454315
O  O18  1  0.50620000  0.25023000  0.39432000  1.0 -0.693454315
O  O19  1  0.99380000  0.25023000  0.60568000  1.0 -0.693454315
O  O20  1  0.49380000  0.24977000  0.89432000  1.0 -0.693454315
O  O21  1  0.99380000  0.75023000  0.89432000  1.0 -0.693454315
O  O22  1  0.49380000  0.74977000  0.60568000  1.0 -0.693454315
O  O23  1  0.00620000  0.74977000  0.39432000  1.0 -0.693454315
O  O24  1  0.50620000  0.75023000  0.10568000  1.0 -0.693454315
O  O25  1  0.74930000  0.25254000  0.34768000  1.0 -0.6594765283
O  O26  1  0.24930000  0.24746000  0.15232000  1.0 -0.6594765283
O  O27  1  0.25070000  0.24746000  0.84768000  1.0 -0.6594765283
O  O28  1  0.75070000  0.25254000  0.65232000  1.0 -0.6594765283
O  O29  1  0.25070000  0.74746000  0.65232000  1.0 -0.6594765283
O  O30  1  0.75070000  0.75254000  0.84768000  1.0 -0.6594765283
O  O31  1  0.74930000  0.75254000  0.15232000  1.0 -0.6594765283
O  O32  1  0.24930000  0.74746000  0.34768000  1.0 -0.6594765283
O  O33  1  0.97170000  0.26793000  0.39150000  1.0 -0.7000269936
O  O34  1  0.47170000  0.23207000  0.10850000  1.0 -0.7000269936
O  O35  1  0.02830000  0.23207000  0.89150000  1.0 -0.7000269936
O  O36  1  0.52830000  0.26793000  0.60850000  1.0 -0.7000269936
O  O37  1  0.02830000  0.73207000  0.60850000  1.0 -0.7000269936
O  O38  1  0.52830000  0.76793000  0.89150000  1.0 -0.7000269936
O  O39  1  0.97170000  0.76793000  0.10850000  1.0 -0.7000269936
O  O40  1  0.47170000  0.73207000  0.39150000  1.0 -0.7000269936
O  O41  1  0.88140000  0.37001000  0.30884000  1.0 -0.7604649673
O  O42  1  0.38140000  0.12999000  0.19116000  1.0 -0.7604649673
O  O43  1  0.11860000  0.12999000  0.80884000  1.0 -0.7604649673
O  O44  1  0.61860000  0.37001000  0.69116000  1.0 -0.7604649673
O  O45  1  0.11860000  0.62999000  0.69116000  1.0 -0.7604649673
O  O46  1  0.61860000  0.87001000  0.80884000  1.0 -0.7604649673
O  O47  1  0.88140000  0.87001000  0.19116000  1.0 -0.7604649673
O  O48  1  0.38140000  0.62999000  0.30884000  1.0 -0.7604649673
O  O49  1  0.08050000  0.10646000  0.35364000  1.0 -0.7907426777
O  O50  1  0.58050000  0.39354000  0.14636000  1.0 -0.7907426777
O  O51  1  0.91950000  0.39354000  0.85364000  1.0 -0.7907426777
O  O52  1  0.41950000  0.10646000  0.64636000  1.0 -0.7907426777
O  O53  1  0.91950000  0.89354000  0.64636000  1.0 -0.7907426777
O  O54  1  0.41950000  0.60646000  0.85364000  1.0 -0.7907426777
O  O55  1  0.08050000  0.60646000  0.14636000  1.0 -0.7907426777
O  O56  1  0.58050000  0.89354000  0.35364000  1.0 -0.7907426777
O  O57  1  0.77330000  0.25927000  0.07657000  1.0 -0.7000269936
O  O58  1  0.27330000  0.24073000  0.42343000  1.0 -0.7000269936
O  O59  1  0.22670000  0.24073000  0.57657000  1.0 -0.7000269936
O  O60  1  0.72670000  0.25927000  0.92343000  1.0 -0.7000269936
O  O61  1  0.22670000  0.74073000  0.92343000  1.0 -0.7000269936
O  O62  1  0.72670000  0.75927000  0.57657000  1.0 -0.7000269936
O  O63  1  0.77330000  0.75927000  0.42343000  1.0 -0.7000269936
O  O64  1  0.27330000  0.74073000  0.07657000  1.0 -0.7000269936
O  O65  1  0.93430000  0.33184000  0.99653000  1.0 -0.7666402729
O  O66  1  0.43430000  0.16816000  0.50347000  1.0 -0.7666402729
O  O67  1  0.06570000  0.16816000  0.49653000  1.0 -0.7666402729
O  O68  1  0.56570000  0.33184000  0.00347000  1.0 -0.7666402729
O  O69  1  0.06570000  0.66816000  0.00347000  1.0 -0.7666402729
O  O70  1  0.56570000  0.83184000  0.49653000  1.0 -0.7666402729
O  O71  1  0.93430000  0.83184000  0.50347000  1.0 -0.7666402729
O  O72  1  0.43430000  0.66816000  0.99653000  1.0 -0.7666402729
O  O73  1  0.24140000  0.03119000  0.27788000  1.0 -0.6653773087
O  O74  1  0.74140000  0.46881000  0.22212000  1.0 -0.6594765283
O  O75  1  0.75860000  0.46881000  0.77788000  1.0 -0.6594765283
O  O76  1  0.25860000  0.03119000  0.72212000  1.0 -0.6653773087
O  O77  1  0.75860000  0.96881000  0.72212000  1.0 -0.6653773087
O  O78  1  0.25860000  0.53119000  0.77788000  1.0 -0.6594765283
O  O79  1  0.24140000  0.53119000  0.22212000  1.0 -0.6594765283
O  O80  1  0.74140000  0.96881000  0.27788000  1.0 -0.6653773087
O  O81  1  0.00240000  0.00650000  0.26534000  1.0 -0.693454315
O  O82  1  0.50240000  0.49350000  0.23466000  1.0 -0.693454315
O  O83  1  0.99760000  0.49350000  0.76534000  1.0 -0.693454315
O  O84  1  0.49760000  0.00650000  0.73466000  1.0 -0.693454315
O  O85  1  0.99760000  0.99350000  0.73466000  1.0 -0.693454315
O  O86  1  0.49760000  0.50650000  0.76534000  1.0 -0.693454315
O  O87  1  0.00240000  0.50650000  0.23466000  1.0 -0.693454315
O  O88  1  0.50240000  0.99350000  0.26534000  1.0 -0.693454315
O  O89  1  0.88580000  0.38112000  0.12196000  1.0 -0.8113682913
O  O90  1  0.38580000  0.11888000  0.37804000  1.0 -0.8113682913
O  O91  1  0.11420000  0.11888000  0.62196000  1.0 -0.8113682913
O  O92  1  0.61420000  0.38112000  0.87804000  1.0 -0.8113682913
O  O93  1  0.11420000  0.61888000  0.87804000  1.0 -0.8113682913
O  O94  1  0.61420000  0.88112000  0.62196000  1.0 -0.8113682913
O  O95  1  0.88580000  0.88112000  0.37804000  1.0 -0.8113682913
O  O96  1  0.38580000  0.61888000  0.12196000  1.0 -0.8113682913
O  O97  1  0.24250000  0.93190000  0.41180000  1.0 0.0207015325
O  O98  1  0.74250000  0.56810000  0.08820000  1.0 0.0207015325
O  O99  1  0.75750000  0.56810000  0.91180000  1.0 0.0207015325
O  O100  1  0.25750000  0.93190000  0.58820000  1.0 0.0207015325
O  O101  1  0.75750000  0.06810000  0.58820000  1.0 0.0269105108
O  O102  1  0.25750000  0.43190000  0.91180000  1.0 0.0207015325
O  O103  1  0.24250000  0.43190000  0.08820000  1.0 0.0142649668
O  O104  1  0.74250000  0.06810000  0.41180000  1.0 0.0207015325
F  F1  1  0.17010000  0.24478000  0.29840000  1.0 -0.4951781826
F  F2  1  0.67010000  0.25522000  0.20160000  1.0 -0.4913245138
F  F3  1  0.82990000  0.25522000  0.79840000  1.0 -0.4913245138
F  F4  1  0.32990000  0.24478000  0.70160000  1.0 -0.4951781826
F  F5  1  0.82990000  0.75522000  0.70160000  1.0 -0.4913245138
F  F6  1  0.32990000  0.74478000  0.79840000  1.0 -0.4913245138
F  F7  1  0.17010000  0.74478000  0.20160000  1.0 -0.4913245138
F  F8  1  0.67010000  0.75522000  0.29840000  1.0 -0.4913245138
F  F9  1  0.08190000  0.35644000  0.21266000  1.0 -0.4817496324
F  F10  1  0.58190000  0.14356000  0.28734000  1.0 -0.4817496324
F  F11  1  0.91810000  0.14356000  0.71266000  1.0 -0.4817496324
F  F12  1  0.41810000  0.35644000  0.78734000  1.0 -0.4817496324
F  F13  1  0.91810000  0.64356000  0.78734000  1.0 -0.4817496324
F  F14  1  0.41810000  0.85644000  0.71266000  1.0 -0.4817496324
F  F15  1  0.08190000  0.85644000  0.28734000  1.0 -0.4817496324
F  F16  1  0.58190000  0.64356000  0.21266000  1.0 -0.4817496324
