# DDEC6 charges by PACMAN v1.1 (https://github.com/mtap-research/PACMAN-charge/)
data_EKOPOK_ASR_pacman
_symmetry_space_group_name_H-M   'P 1'
_cell_length_a   15.58830000
_cell_length_b   15.58830000
_cell_length_c   15.58830000
_cell_angle_alpha   101.98800000
_cell_angle_beta   101.98800000
_cell_angle_gamma   125.77400000
_symmetry_Int_Tables_number   1
_chemical_formula_structural   CaCdH8(C8O5)2
_chemical_formula_sum   'Ca4 Cd4 H32 C64 O40'
_cell_volume   2735.49471356
_cell_formula_units_Z   4
loop_
 _symmetry_equiv_pos_site_id
 _symmetry_equiv_pos_as_xyz
  1  'x, y, z'
loop_
 _atom_site_type_symbol
 _atom_site_label
 _atom_site_symmetry_multiplicity
 _atom_site_fract_x
 _atom_site_fract_y
 _atom_site_fract_z
 _atom_site_occupancy
 _atom_site_charge
Ca  Ca1  1  0.45254000  0.04746000  0.00000000  1.0 1.3804702617
Ca  Ca2  1  0.04746000  0.45254000  0.00000000  1.0 1.3804702617
Ca  Ca3  1  0.54746000  0.54746000  0.59492000  1.0 1.3891349293
Ca  Ca4  1  0.95254000  0.95254000  0.40508000  1.0 1.3891349293
Cd  Cd1  1  0.73223000  0.23223000  0.96446000  1.0 0.9645117678
Cd  Cd2  1  0.26777000  0.76777000  0.03554000  1.0 0.9645117678
Cd  Cd3  1  0.23223000  0.26777000  0.50000000  1.0 0.9645117678
Cd  Cd4  1  0.76777000  0.73223000  0.50000000  1.0 0.9645117678
H  H1  1  0.05280000  0.77960000  0.65440000  1.0 0.3504248492
H  H2  1  0.12520000  0.39840000  0.34560000  1.0 0.3504248492
H  H3  1  0.60160000  0.94720000  0.72680000  1.0 0.3504248492
H  H4  1  0.22040000  0.87480000  0.27320000  1.0 0.3504248492
H  H5  1  0.55280000  0.89840000  0.27320000  1.0 0.3504248492
H  H6  1  0.62520000  0.27960000  0.72680000  1.0 0.3504248492
H  H7  1  0.10160000  0.37480000  0.65440000  1.0 0.3504248492
H  H8  1  0.72040000  0.44720000  0.34560000  1.0 0.3504248492
H  H9  1  0.32880000  0.92940000  0.77480000  1.0 0.1255483485
H  H10  1  0.15460000  0.55400000  0.22520000  1.0 0.1255483485
H  H11  1  0.44600000  0.67120000  0.60060000  1.0 0.1255483485
H  H12  1  0.07060000  0.84540000  0.39940000  1.0 0.1255483485
H  H13  1  0.82880000  0.05400000  0.39940000  1.0 0.1255483485
H  H14  1  0.65460000  0.42940000  0.60060000  1.0 0.1255483485
H  H15  1  0.94600000  0.34540000  0.77480000  1.0 0.1255483485
H  H16  1  0.57060000  0.17120000  0.22520000  1.0 0.1255483485
H  H17  1  0.09810000  0.91570000  0.58620000  1.0 0.1390562009
H  H18  1  0.32950000  0.51190000  0.41380000  1.0 0.1390562009
H  H19  1  0.48810000  0.90190000  0.81760000  1.0 0.1390562009
H  H20  1  0.08430000  0.67050000  0.18240000  1.0 0.1390562009
H  H21  1  0.59810000  0.01190000  0.18240000  1.0 0.1390562009
H  H22  1  0.82950000  0.41570000  0.81760000  1.0 0.1390562009
H  H23  1  0.98810000  0.17050000  0.58620000  1.0 0.1390562009
H  H24  1  0.58430000  0.40190000  0.41380000  1.0 0.1390562009
H  H25  1  0.43610000  0.20640000  0.71470000  1.0 0.123353197
H  H26  1  0.49170000  0.72140000  0.28530000  1.0 0.123353197
H  H27  1  0.27860000  0.56390000  0.77030000  1.0 0.123353197
H  H28  1  0.79360000  0.50830000  0.22970000  1.0 0.123353197
H  H29  1  0.93610000  0.22140000  0.22970000  1.0 0.123353197
H  H30  1  0.99170000  0.70640000  0.77030000  1.0 0.123353197
H  H31  1  0.77860000  0.00830000  0.71470000  1.0 0.123353197
H  H32  1  0.29360000  0.06390000  0.28530000  1.0 0.123353197
C  C1  1  0.52150000  0.14060000  0.82570000  1.0 0.5927011043
C  C2  1  0.31490000  0.69580000  0.17430000  1.0 0.5927011043
C  C3  1  0.30420000  0.47850000  0.61910000  1.0 0.5927011043
C  C4  1  0.85940000  0.68510000  0.38090000  1.0 0.5927011043
C  C5  1  0.02150000  0.19580000  0.38090000  1.0 0.5927011043
C  C6  1  0.81490000  0.64060000  0.61910000  1.0 0.5927011043
C  C7  1  0.80420000  0.18510000  0.82570000  1.0 0.5927011043
C  C8  1  0.35940000  0.97850000  0.17430000  1.0 0.5927011043
C  C9  1  0.23321000  0.12360000  0.58661000  1.0 0.5927011043
C  C10  1  0.53699000  0.64660000  0.41339000  1.0 0.5927011043
C  C11  1  0.35340000  0.76679000  0.89039000  1.0 0.5927011043
C  C12  1  0.87640000  0.46301000  0.10961000  1.0 0.5927011043
C  C13  1  0.73321000  0.14660000  0.10961000  1.0 0.5927011043
C  C14  1  0.03699000  0.62360000  0.89039000  1.0 0.5927011043
C  C15  1  0.85340000  0.96301000  0.58661000  1.0 0.5927011043
C  C16  1  0.37640000  0.26679000  0.41339000  1.0 0.5927011043
C  C17  1  0.40135000  0.07880000  0.75595000  1.0 -0.0251723598
C  C18  1  0.32285000  0.64540000  0.24405000  1.0 -0.0251723598
C  C19  1  0.35460000  0.59865000  0.67745000  1.0 -0.0251723598
C  C20  1  0.92120000  0.67715000  0.32255000  1.0 -0.0251723598
C  C21  1  0.90135000  0.14540000  0.32255000  1.0 -0.0251723598
C  C22  1  0.82285000  0.57880000  0.67745000  1.0 -0.0251723598
C  C23  1  0.85460000  0.17715000  0.75595000  1.0 -0.0251723598
C  C24  1  0.42120000  0.09865000  0.24405000  1.0 -0.0243858501
C  C25  1  0.31200000  0.96480000  0.74200000  1.0 -0.2308937183
C  C26  1  0.22280000  0.57000000  0.25800000  1.0 -0.2308937183
C  C27  1  0.43000000  0.68800000  0.65280000  1.0 -0.2308937183
C  C28  1  0.03520000  0.77720000  0.34720000  1.0 -0.2308937183
C  C29  1  0.81200000  0.07000000  0.34720000  1.0 -0.2308937183
C  C30  1  0.72280000  0.46480000  0.65280000  1.0 -0.2308937183
C  C31  1  0.93000000  0.27720000  0.74200000  1.0 -0.2308937183
C  C32  1  0.53520000  0.18800000  0.25800000  1.0 -0.2308937183
C  C33  1  0.19890000  0.90490000  0.67940000  1.0 0.2934136398
C  C34  1  0.22550000  0.51950000  0.32060000  1.0 0.2934136398
C  C35  1  0.48050000  0.80110000  0.70600000  1.0 0.2934136398
C  C36  1  0.09510000  0.77450000  0.29400000  1.0 0.2934136398
C  C37  1  0.69890000  0.01950000  0.29400000  1.0 0.2934136398
C  C38  1  0.72550000  0.40490000  0.70600000  1.0 0.2934136398
C  C39  1  0.98050000  0.27450000  0.67940000  1.0 0.2934136398
C  C40  1  0.59510000  0.30110000  0.32060000  1.0 0.2934136398
C  C41  1  0.17392000  0.95670000  0.62922000  1.0 -0.2308937183
C  C42  1  0.32748000  0.54470000  0.37078000  1.0 -0.2308937183
C  C43  1  0.45530000  0.82608000  0.78278000  1.0 -0.2308937183
C  C44  1  0.04330000  0.67252000  0.21722000  1.0 -0.2308937183
C  C45  1  0.67392000  0.04470000  0.21722000  1.0 -0.2308937183
C  C46  1  0.82748000  0.45670000  0.78278000  1.0 -0.2308937183
C  C47  1  0.95530000  0.17252000  0.62922000  1.0 -0.2308937183
C  C48  1  0.54330000  0.32608000  0.37078000  1.0 -0.2308937183
C  C49  1  0.26253000  0.07050000  0.64323000  1.0 0.0066703571
C  C50  1  0.42727000  0.61930000  0.35677000  1.0 0.0066703571
C  C51  1  0.38070000  0.73747000  0.80797000  1.0 0.0066703571
C  C52  1  0.92950000  0.57273000  0.19203000  1.0 0.0066703571
C  C53  1  0.76253000  0.11930000  0.19203000  1.0 0.0066703571
C  C54  1  0.92727000  0.57050000  0.80797000  1.0 0.0066703571
C  C55  1  0.88070000  0.07273000  0.64323000  1.0 0.0066703571
C  C56  1  0.42950000  0.23747000  0.35677000  1.0 0.0066703571
C  C57  1  0.37670000  0.13110000  0.70620000  1.0 -0.1434856683
C  C58  1  0.42490000  0.67050000  0.29380000  1.0 -0.1434856683
C  C59  1  0.32950000  0.62330000  0.75440000  1.0 -0.1434856683
C  C60  1  0.86890000  0.57510000  0.24560000  1.0 -0.1434856683
C  C61  1  0.87670000  0.17050000  0.24560000  1.0 -0.1434856683
C  C62  1  0.92490000  0.63110000  0.75440000  1.0 -0.1434856683
C  C63  1  0.82950000  0.07510000  0.70620000  1.0 -0.1434856683
C  C64  1  0.36890000  0.12330000  0.29380000  1.0 -0.1434856683
O  O1  1  0.53264000  0.10371000  0.88875000  1.0 -0.6320574202
O  O2  1  0.21496000  0.64389000  0.11125000  1.0 -0.6320574202
O  O3  1  0.35611000  0.46736000  0.57107000  1.0 -0.6320574202
O  O4  1  0.89629000  0.78504000  0.42893000  1.0 -0.6320574202
O  O5  1  0.03264000  0.14389000  0.42893000  1.0 -0.6320574202
O  O6  1  0.71496000  0.60371000  0.57107000  1.0 -0.6320574202
O  O7  1  0.85611000  0.28504000  0.88875000  1.0 -0.6320574202
O  O8  1  0.39629000  0.96736000  0.11125000  1.0 -0.6320574202
O  O9  1  0.60913000  0.22716000  0.82369000  1.0 -0.5303732708
O  O10  1  0.40347000  0.78544000  0.17631000  1.0 -0.5303732708
O  O11  1  0.21456000  0.39087000  0.61803000  1.0 -0.5303732708
O  O12  1  0.77284000  0.59653000  0.38197000  1.0 -0.5303732708
O  O13  1  0.10913000  0.28544000  0.38197000  1.0 -0.5303732708
O  O14  1  0.90347000  0.72716000  0.61803000  1.0 -0.5303732708
O  O15  1  0.71456000  0.09653000  0.82369000  1.0 -0.5303732708
O  O16  1  0.27284000  0.89087000  0.17631000  1.0 -0.5303732708
O  O17  1  0.30860000  0.23274000  0.61314000  1.0 -0.5303732708
O  O18  1  0.61960000  0.69546000  0.38686000  1.0 -0.5303732708
O  O19  1  0.30454000  0.69140000  0.92414000  1.0 -0.5303732708
O  O20  1  0.76726000  0.38040000  0.07586000  1.0 -0.5303732708
O  O21  1  0.80860000  0.19546000  0.07586000  1.0 -0.5303732708
O  O22  1  0.11960000  0.73274000  0.92414000  1.0 -0.5303732708
O  O23  1  0.80454000  0.88040000  0.61314000  1.0 -0.5303732708
O  O24  1  0.26726000  0.19140000  0.38686000  1.0 -0.5303732708
O  O25  1  0.13682000  0.06098000  0.51840000  1.0 -0.6204470985
O  O26  1  0.54258000  0.61842000  0.48160000  1.0 -0.6204470985
O  O27  1  0.38158000  0.86318000  0.92416000  1.0 -0.6204470985
O  O28  1  0.93902000  0.45742000  0.07584000  1.0 -0.6204470985
O  O29  1  0.63682000  0.11842000  0.07584000  1.0 -0.6204470985
O  O30  1  0.04258000  0.56098000  0.92416000  1.0 -0.6204470985
O  O31  1  0.88158000  0.95742000  0.51840000  1.0 -0.6204470985
O  O32  1  0.43902000  0.36318000  0.48160000  1.0 -0.6204470985
O  O33  1  0.11570000  0.79560000  0.67070000  1.0 -0.4539371871
O  O34  1  0.12490000  0.44500000  0.32930000  1.0 -0.4552579664
O  O35  1  0.55500000  0.88430000  0.67990000  1.0 -0.4552579664
O  O36  1  0.20440000  0.87510000  0.32010000  1.0 -0.4552579664
O  O37  1  0.61570000  0.94500000  0.32010000  1.0 -0.4552579664
O  O38  1  0.62490000  0.29560000  0.67990000  1.0 -0.4552579664
O  O39  1  0.05500000  0.37510000  0.67070000  1.0 -0.4552579664
O  O40  1  0.70440000  0.38430000  0.32930000  1.0 -0.4539371871
