# DDEC6 charges by PACMAN v1.1 (https://github.com/mtap-research/PACMAN-charge/)
data_EKOPUQ_ASR_pacman
_symmetry_space_group_name_H-M   'P 1'
_cell_length_a   19.82270000
_cell_length_b   19.82270000
_cell_length_c   9.95930000
_cell_angle_alpha   90.00000000
_cell_angle_beta   90.00000000
_cell_angle_gamma   90.00000000
_symmetry_Int_Tables_number   1
_chemical_formula_structural   CaCd2H66(C27O8)2
_chemical_formula_sum   'Ca2 Cd4 H132 C108 O32'
_cell_volume   3913.40171788
_cell_formula_units_Z   2
loop_
 _symmetry_equiv_pos_site_id
 _symmetry_equiv_pos_as_xyz
  1  'x, y, z'
loop_
 _atom_site_type_symbol
 _atom_site_label
 _atom_site_symmetry_multiplicity
 _atom_site_fract_x
 _atom_site_fract_y
 _atom_site_fract_z
 _atom_site_occupancy
 _atom_site_charge
Ca  Ca1  1  0.50000000  0.00000000  0.00000000  1.0 1.4042528286
Ca  Ca2  1  0.00000000  0.50000000  0.00000000  1.0 1.4042528286
Cd  Cd1  1  0.34248000  0.92919000  0.00000000  1.0 0.95411271
Cd  Cd2  1  0.65752000  0.07081000  0.00000000  1.0 0.95411271
Cd  Cd3  1  0.92919000  0.65752000  0.00000000  1.0 0.95411271
Cd  Cd4  1  0.07081000  0.34248000  0.00000000  1.0 0.95411271
H  H1  1  0.22580000  0.14740000  0.00000000  1.0 0.1704540863
H  H2  1  0.77420000  0.85260000  0.00000000  1.0 0.1704540863
H  H3  1  0.14740000  0.77420000  0.00000000  1.0 0.1704540863
H  H4  1  0.85260000  0.22580000  0.00000000  1.0 0.1704540863
H  H5  1  0.31300000  0.33030000  0.00000000  1.0 0.1481740936
H  H6  1  0.68700000  0.66970000  0.00000000  1.0 0.1481740936
H  H7  1  0.33030000  0.68700000  0.00000000  1.0 0.1481740936
H  H8  1  0.66970000  0.31300000  0.00000000  1.0 0.1481740936
H  H9  1  0.42810000  0.16660000  0.00000000  1.0 0.119721198
H  H10  1  0.57190000  0.83340000  0.00000000  1.0 0.119721198
H  H11  1  0.16660000  0.57190000  0.00000000  1.0 0.119721198
H  H12  1  0.83340000  0.42810000  0.00000000  1.0 0.119721198
H  H13  1  0.52690000  0.30910000  0.87150000  1.0 0.0874322115
H  H14  1  0.47310000  0.69090000  0.87150000  1.0 0.0874322115
H  H15  1  0.30910000  0.47310000  0.87150000  1.0 0.0874322115
H  H16  1  0.69090000  0.52690000  0.87150000  1.0 0.0874322115
H  H17  1  0.47310000  0.69090000  0.12850000  1.0 0.0874322115
H  H18  1  0.52690000  0.30910000  0.12850000  1.0 0.0874322115
H  H19  1  0.69090000  0.52690000  0.12850000  1.0 0.0874322115
H  H20  1  0.30910000  0.47310000  0.12850000  1.0 0.0874322115
H  H21  1  0.49870000  0.23530000  0.87830000  1.0 0.074884349
H  H22  1  0.50130000  0.76470000  0.87830000  1.0 0.074884349
H  H23  1  0.23530000  0.50130000  0.87830000  1.0 0.074884349
H  H24  1  0.76470000  0.49870000  0.87830000  1.0 0.074884349
H  H25  1  0.50130000  0.76470000  0.12170000  1.0 0.074884349
H  H26  1  0.49870000  0.23530000  0.12170000  1.0 0.074884349
H  H27  1  0.76470000  0.49870000  0.12170000  1.0 0.074884349
H  H28  1  0.23530000  0.50130000  0.12170000  1.0 0.074884349
H  H29  1  0.46020000  0.29050000  0.79550000  1.0 0.058040205
H  H30  1  0.53980000  0.70950000  0.79550000  1.0 0.058040205
H  H31  1  0.29050000  0.53980000  0.79550000  1.0 0.058040205
H  H32  1  0.70950000  0.46020000  0.79550000  1.0 0.058040205
H  H33  1  0.53980000  0.70950000  0.20450000  1.0 0.058040205
H  H34  1  0.46020000  0.29050000  0.20450000  1.0 0.058040205
H  H35  1  0.70950000  0.46020000  0.20450000  1.0 0.058040205
H  H36  1  0.29050000  0.53980000  0.20450000  1.0 0.058040205
H  H37  1  0.46510000  0.40020000  0.00000000  1.0 0.0874322115
H  H38  1  0.53490000  0.59980000  0.00000000  1.0 0.0874322115
H  H39  1  0.40020000  0.53490000  0.00000000  1.0 0.0874322115
H  H40  1  0.59980000  0.46510000  0.00000000  1.0 0.0874322115
H  H41  1  0.39910000  0.38170000  0.92130000  1.0 0.0406662575
H  H42  1  0.60090000  0.61830000  0.92130000  1.0 0.0406662575
H  H43  1  0.38170000  0.60090000  0.92130000  1.0 0.0406662575
H  H44  1  0.61830000  0.39910000  0.92130000  1.0 0.0406662575
H  H45  1  0.60090000  0.61830000  0.07870000  1.0 0.0406662575
H  H46  1  0.39910000  0.38170000  0.07870000  1.0 0.0406662575
H  H47  1  0.61830000  0.39910000  0.07870000  1.0 0.0406662575
H  H48  1  0.38170000  0.60090000  0.07870000  1.0 0.0406662575
H  H49  1  0.63520000  0.06610000  0.50000000  1.0 0.1379339486
H  H50  1  0.36480000  0.93390000  0.50000000  1.0 0.1379339486
H  H51  1  0.06610000  0.36480000  0.50000000  1.0 0.1379339486
H  H52  1  0.93390000  0.63520000  0.50000000  1.0 0.1379339486
H  H53  1  0.46570000  0.11050000  0.29920000  1.0 0.1284043679
H  H54  1  0.53430000  0.88950000  0.29920000  1.0 0.1284043679
H  H55  1  0.11050000  0.53430000  0.29920000  1.0 0.1284043679
H  H56  1  0.88950000  0.46570000  0.29920000  1.0 0.1284043679
H  H57  1  0.53430000  0.88950000  0.70080000  1.0 0.1284043679
H  H58  1  0.46570000  0.11050000  0.70080000  1.0 0.1284043679
H  H59  1  0.88950000  0.46570000  0.70080000  1.0 0.1284043679
H  H60  1  0.11050000  0.53430000  0.70080000  1.0 0.1284043679
H  H61  1  0.33650000  0.23450000  0.50000000  1.0 0.1379339486
H  H62  1  0.66350000  0.76550000  0.50000000  1.0 0.1379339486
H  H63  1  0.23450000  0.66350000  0.50000000  1.0 0.1379339486
H  H64  1  0.76550000  0.33650000  0.50000000  1.0 0.1379339486
H  H65  1  0.40500000  0.23390000  0.57870000  1.0 0.1284043679
H  H66  1  0.59500000  0.76610000  0.57870000  1.0 0.1284043679
H  H67  1  0.23390000  0.59500000  0.57870000  1.0 0.1284043679
H  H68  1  0.76610000  0.40500000  0.57870000  1.0 0.1284043679
H  H69  1  0.59500000  0.76610000  0.42130000  1.0 0.1284043679
H  H70  1  0.40500000  0.23390000  0.42130000  1.0 0.1284043679
H  H71  1  0.76610000  0.40500000  0.42130000  1.0 0.1284043679
H  H72  1  0.23390000  0.59500000  0.42130000  1.0 0.1284043679
H  H73  1  0.29910000  0.13720000  0.61460000  1.0 0.1379339486
H  H74  1  0.70090000  0.86280000  0.61460000  1.0 0.1379339486
H  H75  1  0.13720000  0.70090000  0.61460000  1.0 0.1379339486
H  H76  1  0.86280000  0.29910000  0.61460000  1.0 0.1379339486
H  H77  1  0.70090000  0.86280000  0.38540000  1.0 0.1379339486
H  H78  1  0.29910000  0.13720000  0.38540000  1.0 0.1379339486
H  H79  1  0.86280000  0.29910000  0.38540000  1.0 0.1379339486
H  H80  1  0.13720000  0.70090000  0.38540000  1.0 0.1379339486
H  H81  1  0.34210000  0.07090000  0.61640000  1.0 0.1379339486
H  H82  1  0.65790000  0.92910000  0.61640000  1.0 0.1379339486
H  H83  1  0.07090000  0.65790000  0.61640000  1.0 0.1379339486
H  H84  1  0.92910000  0.34210000  0.61640000  1.0 0.1379339486
H  H85  1  0.65790000  0.92910000  0.38360000  1.0 0.1379339486
H  H86  1  0.34210000  0.07090000  0.38360000  1.0 0.1379339486
H  H87  1  0.92910000  0.34210000  0.38360000  1.0 0.1379339486
H  H88  1  0.07090000  0.65790000  0.38360000  1.0 0.1379339486
H  H89  1  0.36640000  0.13430000  0.69710000  1.0 0.1284043679
H  H90  1  0.63360000  0.86570000  0.69710000  1.0 0.1284043679
H  H91  1  0.13430000  0.63360000  0.69710000  1.0 0.1284043679
H  H92  1  0.86570000  0.36640000  0.69710000  1.0 0.1284043679
H  H93  1  0.63360000  0.86570000  0.30290000  1.0 0.1284043679
H  H94  1  0.36640000  0.13430000  0.30290000  1.0 0.1284043679
H  H95  1  0.86570000  0.36640000  0.30290000  1.0 0.1284043679
H  H96  1  0.13430000  0.63360000  0.30290000  1.0 0.1284043679
H  H97  1  0.71760000  0.54520000  0.00000000  1.0 0.0874322115
H  H98  1  0.28240000  0.45480000  0.00000000  1.0 0.0874322115
H  H99  1  0.54520000  0.28240000  0.00000000  1.0 0.0874322115
H  H100  1  0.45480000  0.71760000  0.00000000  1.0 0.0874322115
H  H101  1  0.77210000  0.50380000  0.07870000  1.0 0.074884349
H  H102  1  0.22790000  0.49620000  0.07870000  1.0 0.074884349
H  H103  1  0.50380000  0.22790000  0.07870000  1.0 0.074884349
H  H104  1  0.49620000  0.77210000  0.07870000  1.0 0.074884349
H  H105  1  0.22790000  0.49620000  0.92130000  1.0 0.074884349
H  H106  1  0.77210000  0.50380000  0.92130000  1.0 0.074884349
H  H107  1  0.49620000  0.77210000  0.92130000  1.0 0.074884349
H  H108  1  0.50380000  0.22790000  0.92130000  1.0 0.074884349
H  H109  1  0.62700000  0.48680000  0.87160000  1.0 0.0874322115
H  H110  1  0.37300000  0.51320000  0.87160000  1.0 0.0874322115
H  H111  1  0.48680000  0.37300000  0.87160000  1.0 0.0874322115
H  H112  1  0.51320000  0.62700000  0.87160000  1.0 0.0874322115
H  H113  1  0.37300000  0.51320000  0.12840000  1.0 0.0874322115
H  H114  1  0.62700000  0.48680000  0.12840000  1.0 0.0874322115
H  H115  1  0.51320000  0.62700000  0.12840000  1.0 0.0874322115
H  H116  1  0.48680000  0.37300000  0.12840000  1.0 0.0874322115
H  H117  1  0.68300000  0.44740000  0.79300000  1.0 0.058040205
H  H118  1  0.31700000  0.55260000  0.79300000  1.0 0.058040205
H  H119  1  0.44740000  0.31700000  0.79300000  1.0 0.058040205
H  H120  1  0.55260000  0.68300000  0.79300000  1.0 0.058040205
H  H121  1  0.31700000  0.55260000  0.20700000  1.0 0.058040205
H  H122  1  0.68300000  0.44740000  0.20700000  1.0 0.058040205
H  H123  1  0.55260000  0.68300000  0.20700000  1.0 0.058040205
H  H124  1  0.44740000  0.31700000  0.20700000  1.0 0.058040205
H  H125  1  0.62620000  0.40770000  0.86890000  1.0 0.048053335
H  H126  1  0.37380000  0.59230000  0.86890000  1.0 0.048053335
H  H127  1  0.40770000  0.37380000  0.86890000  1.0 0.048053335
H  H128  1  0.59230000  0.62620000  0.86890000  1.0 0.048053335
H  H129  1  0.37380000  0.59230000  0.13110000  1.0 0.048053335
H  H130  1  0.62620000  0.40770000  0.13110000  1.0 0.048053335
H  H131  1  0.59230000  0.62620000  0.13110000  1.0 0.048053335
H  H132  1  0.40770000  0.37380000  0.13110000  1.0 0.048053335
C  C1  1  0.33740000  0.07100000  0.00000000  1.0 0.5659500573
C  C2  1  0.66260000  0.92900000  0.00000000  1.0 0.5659500573
C  C3  1  0.07100000  0.66260000  0.00000000  1.0 0.5659500573
C  C4  1  0.92900000  0.33740000  0.00000000  1.0 0.5659500573
C  C5  1  0.19040000  0.27750000  0.00000000  1.0 0.5324165239
C  C6  1  0.80960000  0.72250000  0.00000000  1.0 0.5324165239
C  C7  1  0.27750000  0.80960000  0.00000000  1.0 0.5324165239
C  C8  1  0.72250000  0.19040000  0.00000000  1.0 0.5324165239
C  C9  1  0.58980000  0.07520000  0.24890000  1.0 0.5659500573
C  C10  1  0.41020000  0.92480000  0.24890000  1.0 0.5659500573
C  C11  1  0.07520000  0.41020000  0.24890000  1.0 0.5659500573
C  C12  1  0.92480000  0.58980000  0.24890000  1.0 0.5659500573
C  C13  1  0.41020000  0.92480000  0.75110000  1.0 0.5659500573
C  C14  1  0.58980000  0.07520000  0.75110000  1.0 0.5659500573
C  C15  1  0.92480000  0.58980000  0.75110000  1.0 0.5659500573
C  C16  1  0.07520000  0.41020000  0.75110000  1.0 0.5659500573
C  C17  1  0.32910000  0.14590000  0.00000000  1.0 0.0123237046
C  C18  1  0.67090000  0.85410000  0.00000000  1.0 0.0123237046
C  C19  1  0.14590000  0.67090000  0.00000000  1.0 0.0123237046
C  C20  1  0.85410000  0.32910000  0.00000000  1.0 0.0123237046
C  C21  1  0.26410000  0.17460000  0.00000000  1.0 -0.1207530969
C  C22  1  0.73590000  0.82540000  0.00000000  1.0 -0.1207530969
C  C23  1  0.17460000  0.73590000  0.00000000  1.0 -0.1207530969
C  C24  1  0.82540000  0.26410000  0.00000000  1.0 -0.1207530969
C  C25  1  0.25860000  0.24420000  0.00000000  1.0 0.0287730987
C  C26  1  0.74140000  0.75580000  0.00000000  1.0 0.0287730987
C  C27  1  0.24420000  0.74140000  0.00000000  1.0 0.0287730987
C  C28  1  0.75580000  0.25860000  0.00000000  1.0 0.0287730987
C  C29  1  0.31700000  0.28350000  0.00000000  1.0 -0.1656224676
C  C30  1  0.68300000  0.71650000  0.00000000  1.0 -0.1656224676
C  C31  1  0.28350000  0.68300000  0.00000000  1.0 -0.1656224676
C  C32  1  0.71650000  0.31700000  0.00000000  1.0 -0.1656224676
C  C33  1  0.38010000  0.25550000  0.00000000  1.0 0.0169010484
C  C34  1  0.61990000  0.74450000  0.00000000  1.0 0.0169010484
C  C35  1  0.25550000  0.61990000  0.00000000  1.0 0.0169010484
C  C36  1  0.74450000  0.38010000  0.00000000  1.0 0.0169010484
C  C37  1  0.38560000  0.18640000  0.00000000  1.0 -0.2004041342
C  C38  1  0.61440000  0.81360000  0.00000000  1.0 -0.1914890373
C  C39  1  0.18640000  0.61440000  0.00000000  1.0 -0.1914890373
C  C40  1  0.81360000  0.38560000  0.00000000  1.0 -0.1914890373
C  C41  1  0.44540000  0.30090000  0.00000000  1.0 0.1818820699
C  C42  1  0.55460000  0.69910000  0.00000000  1.0 0.1818820699
C  C43  1  0.30090000  0.55460000  0.00000000  1.0 0.1818820699
C  C44  1  0.69910000  0.44540000  0.00000000  1.0 0.1818820699
C  C45  1  0.48670000  0.28220000  0.87450000  1.0 -0.2004041342
C  C46  1  0.51330000  0.71780000  0.87450000  1.0 -0.2004041342
C  C47  1  0.28220000  0.51330000  0.87450000  1.0 -0.2004041342
C  C48  1  0.71780000  0.48670000  0.87450000  1.0 -0.2004041342
C  C49  1  0.51330000  0.71780000  0.12550000  1.0 -0.2004041342
C  C50  1  0.48670000  0.28220000  0.12550000  1.0 -0.2004041342
C  C51  1  0.71780000  0.48670000  0.12550000  1.0 -0.2004041342
C  C52  1  0.28220000  0.51330000  0.12550000  1.0 -0.2004041342
C  C53  1  0.42550000  0.37230000  0.00000000  1.0 -0.1761718378
C  C54  1  0.57450000  0.62770000  0.00000000  1.0 -0.1761718378
C  C55  1  0.37230000  0.57450000  0.00000000  1.0 -0.1761718378
C  C56  1  0.62770000  0.42550000  0.00000000  1.0 -0.1761718378
C  C57  1  0.58970000  0.07760000  0.50000000  1.0 -0.107994257
C  C58  1  0.41030000  0.92240000  0.50000000  1.0 -0.107994257
C  C59  1  0.07760000  0.41030000  0.50000000  1.0 -0.107994257
C  C60  1  0.92240000  0.58970000  0.50000000  1.0 -0.107994257
C  C61  1  0.55580000  0.08610000  0.37940000  1.0 -0.0289780204
C  C62  1  0.44420000  0.91390000  0.37940000  1.0 -0.0289780204
C  C63  1  0.08610000  0.44420000  0.37940000  1.0 -0.0289780204
C  C64  1  0.91390000  0.55580000  0.37940000  1.0 -0.0289780204
C  C65  1  0.44420000  0.91390000  0.62060000  1.0 -0.0289780204
C  C66  1  0.55580000  0.08610000  0.62060000  1.0 -0.0289780204
C  C67  1  0.91390000  0.55580000  0.62060000  1.0 -0.0289780204
C  C68  1  0.08610000  0.44420000  0.62060000  1.0 -0.0289780204
C  C69  1  0.48800000  0.10490000  0.38060000  1.0 -0.1312955306
C  C70  1  0.51200000  0.89510000  0.38060000  1.0 -0.1312955306
C  C71  1  0.10490000  0.51200000  0.38060000  1.0 -0.1312955306
C  C72  1  0.89510000  0.48800000  0.38060000  1.0 -0.1312955306
C  C73  1  0.51200000  0.89510000  0.61940000  1.0 -0.1312955306
C  C74  1  0.48800000  0.10490000  0.61940000  1.0 -0.1312955306
C  C75  1  0.89510000  0.48800000  0.61940000  1.0 -0.1312955306
C  C76  1  0.10490000  0.51200000  0.61940000  1.0 -0.1312955306
C  C77  1  0.45230000  0.11550000  0.50000000  1.0 0.0831677779
C  C78  1  0.54770000  0.88450000  0.50000000  1.0 0.0831677779
C  C79  1  0.11550000  0.54770000  0.50000000  1.0 0.0831677779
C  C80  1  0.88450000  0.45230000  0.50000000  1.0 0.0831677779
C  C81  1  0.38130000  0.14260000  0.50000000  1.0 0.2162801526
C  C82  1  0.61870000  0.85740000  0.50000000  1.0 0.2162801526
C  C83  1  0.14260000  0.61870000  0.50000000  1.0 0.2162801526
C  C84  1  0.85740000  0.38130000  0.50000000  1.0 0.2162801526
C  C85  1  0.38200000  0.21800000  0.50000000  1.0 -0.4134449349
C  C86  1  0.61800000  0.78200000  0.50000000  1.0 -0.4134449349
C  C87  1  0.21800000  0.61800000  0.50000000  1.0 -0.4134449349
C  C88  1  0.78200000  0.38200000  0.50000000  1.0 -0.4134449349
C  C89  1  0.34410000  0.11930000  0.61690000  1.0 -0.4312930987
C  C90  1  0.65590000  0.88070000  0.61690000  1.0 -0.4312930987
C  C91  1  0.11930000  0.65590000  0.61690000  1.0 -0.4312930987
C  C92  1  0.88070000  0.34410000  0.61690000  1.0 -0.4312930987
C  C93  1  0.65590000  0.88070000  0.38310000  1.0 -0.4312930987
C  C94  1  0.34410000  0.11930000  0.38310000  1.0 -0.4312930987
C  C95  1  0.88070000  0.34410000  0.38310000  1.0 -0.4312930987
C  C96  1  0.11930000  0.65590000  0.38310000  1.0 -0.4312930987
C  C97  1  0.74420000  0.50480000  0.00000000  1.0 -0.1914890373
C  C98  1  0.25580000  0.49520000  0.00000000  1.0 -0.1914890373
C  C99  1  0.50480000  0.25580000  0.00000000  1.0 -0.1914890373
C  C100  1  0.49520000  0.74420000  0.00000000  1.0 -0.1914890373
C  C101  1  0.65460000  0.44700000  0.87100000  1.0 -0.2004041342
C  C102  1  0.34540000  0.55300000  0.87100000  1.0 -0.2004041342
C  C103  1  0.44700000  0.34540000  0.87100000  1.0 -0.2004041342
C  C104  1  0.55300000  0.65460000  0.87100000  1.0 -0.2004041342
C  C105  1  0.34540000  0.55300000  0.12900000  1.0 -0.2004041342
C  C106  1  0.65460000  0.44700000  0.12900000  1.0 -0.2004041342
C  C107  1  0.55300000  0.65460000  0.12900000  1.0 -0.2004041342
C  C108  1  0.44700000  0.34540000  0.12900000  1.0 -0.2004041342
O  O1  1  0.39590000  0.04810000  0.00000000  1.0 -0.6232119785
O  O2  1  0.60410000  0.95190000  0.00000000  1.0 -0.6232119785
O  O3  1  0.04810000  0.60410000  0.00000000  1.0 -0.6232119785
O  O4  1  0.95190000  0.39590000  0.00000000  1.0 -0.6232119785
O  O5  1  0.28690000  0.03290000  0.00000000  1.0 -0.4922817534
O  O6  1  0.71310000  0.96710000  0.00000000  1.0 -0.4922817534
O  O7  1  0.03290000  0.71310000  0.00000000  1.0 -0.4922817534
O  O8  1  0.96710000  0.28690000  0.00000000  1.0 -0.4922817534
O  O9  1  0.18740000  0.33980000  0.00000000  1.0 -0.5097022936
O  O10  1  0.81260000  0.66020000  0.00000000  1.0 -0.5097022936
O  O11  1  0.33980000  0.81260000  0.00000000  1.0 -0.5097022936
O  O12  1  0.66020000  0.18740000  0.00000000  1.0 -0.5097022936
O  O13  1  0.13870000  0.24190000  0.00000000  1.0 -0.4680576757
O  O14  1  0.86130000  0.75810000  0.00000000  1.0 -0.4680576757
O  O15  1  0.24190000  0.86130000  0.00000000  1.0 -0.4680576757
O  O16  1  0.75810000  0.13870000  0.00000000  1.0 -0.4680576757
O  O17  1  0.55370000  0.07370000  0.14400000  1.0 -0.6320915655
O  O18  1  0.44630000  0.92630000  0.14400000  1.0 -0.6320915655
O  O19  1  0.07370000  0.44630000  0.14400000  1.0 -0.6320915655
O  O20  1  0.92630000  0.55370000  0.14400000  1.0 -0.6320915655
O  O21  1  0.44630000  0.92630000  0.85600000  1.0 -0.6320915655
O  O22  1  0.55370000  0.07370000  0.85600000  1.0 -0.6320915655
O  O23  1  0.92630000  0.55370000  0.85600000  1.0 -0.6320915655
O  O24  1  0.07370000  0.44630000  0.85600000  1.0 -0.6320915655
O  O25  1  0.65260000  0.06990000  0.24190000  1.0 -0.4922817534
O  O26  1  0.34740000  0.93010000  0.24190000  1.0 -0.4922817534
O  O27  1  0.06990000  0.34740000  0.24190000  1.0 -0.4922817534
O  O28  1  0.93010000  0.65260000  0.24190000  1.0 -0.4922817534
O  O29  1  0.34740000  0.93010000  0.75810000  1.0 -0.4922817534
O  O30  1  0.65260000  0.06990000  0.75810000  1.0 -0.4922817534
O  O31  1  0.93010000  0.65260000  0.75810000  1.0 -0.4922817534
O  O32  1  0.06990000  0.34740000  0.75810000  1.0 -0.4922817534
