# DDEC6 charges by PACMAN v1.1 (https://github.com/mtap-research/PACMAN-charge/)
data_ELECIJ_FSR_pacman
_symmetry_space_group_name_H-M   'P 1'
_cell_length_a   11.44370000
_cell_length_b   17.72040000
_cell_length_c   27.88850000
_cell_angle_alpha   90.00000000
_cell_angle_beta   90.00000000
_cell_angle_gamma   90.00000000
_symmetry_Int_Tables_number   1
_chemical_formula_structural   EuH12C16O15
_chemical_formula_sum   'Eu8 H96 C128 O120'
_cell_volume   5655.42361746
_cell_formula_units_Z   8
loop_
 _symmetry_equiv_pos_site_id
 _symmetry_equiv_pos_as_xyz
  1  'x, y, z'
loop_
 _atom_site_type_symbol
 _atom_site_label
 _atom_site_symmetry_multiplicity
 _atom_site_fract_x
 _atom_site_fract_y
 _atom_site_fract_z
 _atom_site_occupancy
 _atom_site_charge
Eu  Eu1  1  0.18380000  0.22246000  0.06808000  1.0 2.030578607
Eu  Eu2  1  0.31620000  0.72246000  0.43192000  1.0 2.030578607
Eu  Eu3  1  0.31620000  0.77754000  0.56808000  1.0 2.030578607
Eu  Eu4  1  0.18380000  0.27754000  0.93192000  1.0 2.030578607
Eu  Eu5  1  0.81620000  0.77754000  0.93192000  1.0 2.030578607
Eu  Eu6  1  0.68380000  0.27754000  0.56808000  1.0 2.030578607
Eu  Eu7  1  0.68380000  0.22246000  0.43192000  1.0 2.030578607
Eu  Eu8  1  0.81620000  0.72246000  0.06808000  1.0 2.030578607
H  H1  1  0.31370000  0.07120000  0.16830000  1.0 0.3011228957
H  H2  1  0.18630000  0.57120000  0.33170000  1.0 0.3011228957
H  H3  1  0.18630000  0.92880000  0.66830000  1.0 0.3011228957
H  H4  1  0.31370000  0.42880000  0.83170000  1.0 0.3011228957
H  H5  1  0.68630000  0.92880000  0.83170000  1.0 0.3011228957
H  H6  1  0.81370000  0.42880000  0.66830000  1.0 0.3011228957
H  H7  1  0.81370000  0.07120000  0.33170000  1.0 0.3011228957
H  H8  1  0.68630000  0.57120000  0.16830000  1.0 0.3011228957
H  H9  1  0.54460000  0.29370000  0.31840000  1.0 0.2858876412
H  H10  1  0.95540000  0.79370000  0.18160000  1.0 0.2858876412
H  H11  1  0.95540000  0.70630000  0.81840000  1.0 0.2858876412
H  H12  1  0.54460000  0.20630000  0.68160000  1.0 0.2858876412
H  H13  1  0.45540000  0.70630000  0.68160000  1.0 0.2858876412
H  H14  1  0.04460000  0.20630000  0.81840000  1.0 0.2858876412
H  H15  1  0.04460000  0.29370000  0.18160000  1.0 0.2858876412
H  H16  1  0.45540000  0.79370000  0.31840000  1.0 0.2858876412
H  H17  1  0.08420000  0.41330000  0.90860000  1.0 0.33738538
H  H18  1  0.41580000  0.91330000  0.59140000  1.0 0.33738538
H  H19  1  0.41580000  0.58670000  0.40860000  1.0 0.33738538
H  H20  1  0.08420000  0.08670000  0.09140000  1.0 0.33738538
H  H21  1  0.91580000  0.58670000  0.09140000  1.0 0.33738538
H  H22  1  0.58420000  0.08670000  0.40860000  1.0 0.33738538
H  H23  1  0.58420000  0.41330000  0.59140000  1.0 0.33738538
H  H24  1  0.91580000  0.91330000  0.90860000  1.0 0.33738538
H  H25  1  0.86390000  0.19740000  0.07840000  1.0 0.2777348378
H  H26  1  0.63610000  0.69740000  0.42160000  1.0 0.2777348378
H  H27  1  0.63610000  0.80260000  0.57840000  1.0 0.2777348378
H  H28  1  0.86390000  0.30260000  0.92160000  1.0 0.2777348378
H  H29  1  0.13610000  0.80260000  0.92160000  1.0 0.2777348378
H  H30  1  0.36390000  0.30260000  0.57840000  1.0 0.2777348378
H  H31  1  0.36390000  0.19740000  0.42160000  1.0 0.2777348378
H  H32  1  0.13610000  0.69740000  0.07840000  1.0 0.2777348378
H  H33  1  0.44300000  0.05920000  0.27370000  1.0 0.1366193914
H  H34  1  0.05700000  0.55920000  0.22630000  1.0 0.1366193914
H  H35  1  0.05700000  0.94080000  0.77370000  1.0 0.1366193914
H  H36  1  0.44300000  0.44080000  0.72630000  1.0 0.1366193914
H  H37  1  0.55700000  0.94080000  0.72630000  1.0 0.1366193914
H  H38  1  0.94300000  0.44080000  0.77370000  1.0 0.1366193914
H  H39  1  0.94300000  0.05920000  0.22630000  1.0 0.1366193914
H  H40  1  0.55700000  0.55920000  0.27370000  1.0 0.1366193914
H  H41  1  0.42190000  0.30080000  0.21290000  1.0 0.1366193914
H  H42  1  0.07810000  0.80080000  0.28710000  1.0 0.1342003581
H  H43  1  0.07810000  0.69920000  0.71290000  1.0 0.1342003581
H  H44  1  0.42190000  0.19920000  0.78710000  1.0 0.1342003581
H  H45  1  0.57810000  0.69920000  0.78710000  1.0 0.1342003581
H  H46  1  0.92190000  0.19920000  0.71290000  1.0 0.1342003581
H  H47  1  0.92190000  0.30080000  0.28710000  1.0 0.1366193914
H  H48  1  0.57810000  0.80080000  0.21290000  1.0 0.1366193914
H  H49  1  0.99310000  0.52470000  0.91960000  1.0 0.1366193914
H  H50  1  0.50690000  0.02470000  0.58040000  1.0 0.1366193914
H  H51  1  0.50690000  0.47530000  0.41960000  1.0 0.1366193914
H  H52  1  0.99310000  0.97530000  0.08040000  1.0 0.1366193914
H  H53  1  0.00690000  0.47530000  0.08040000  1.0 0.1366193914
H  H54  1  0.49310000  0.97530000  0.41960000  1.0 0.1366193914
H  H55  1  0.49310000  0.52470000  0.58040000  1.0 0.1366193914
H  H56  1  0.00690000  0.02470000  0.91960000  1.0 0.1366193914
H  H57  1  0.57940000  0.20280000  0.06640000  1.0 0.0988906466
H  H58  1  0.92060000  0.70280000  0.43360000  1.0 0.0988906466
H  H59  1  0.92060000  0.79720000  0.56640000  1.0 0.0988906466
H  H60  1  0.57940000  0.29720000  0.93360000  1.0 0.0988906466
H  H61  1  0.42060000  0.79720000  0.93360000  1.0 0.0988906466
H  H62  1  0.07940000  0.29720000  0.56640000  1.0 0.0988906466
H  H63  1  0.07940000  0.20280000  0.43360000  1.0 0.0988906466
H  H64  1  0.42060000  0.70280000  0.06640000  1.0 0.0988906466
H  H65  1  0.35110000  0.06890000  0.16180000  1.0 0.3011228957
H  H66  1  0.14890000  0.56890000  0.33820000  1.0 0.3011228957
H  H67  1  0.14890000  0.93110000  0.66180000  1.0 0.3011228957
H  H68  1  0.35110000  0.43110000  0.83820000  1.0 0.3011228957
H  H69  1  0.64890000  0.93110000  0.83820000  1.0 0.3011228957
H  H70  1  0.85110000  0.43110000  0.66180000  1.0 0.3011228957
H  H71  1  0.85110000  0.06890000  0.33820000  1.0 0.3011228957
H  H72  1  0.64890000  0.56890000  0.16180000  1.0 0.3011228957
H  H73  1  0.50590000  0.28930000  0.32660000  1.0 0.2777348378
H  H74  1  0.99410000  0.78930000  0.17340000  1.0 0.2777348378
H  H75  1  0.99410000  0.71070000  0.82660000  1.0 0.2777348378
H  H76  1  0.50590000  0.21070000  0.67340000  1.0 0.2777348378
H  H77  1  0.49410000  0.71070000  0.67340000  1.0 0.2777348378
H  H78  1  0.00590000  0.21070000  0.82660000  1.0 0.2777348378
H  H79  1  0.00590000  0.28930000  0.17340000  1.0 0.2777348378
H  H80  1  0.49410000  0.78930000  0.32660000  1.0 0.2777348378
H  H81  1  0.49840000  0.19670000  0.07670000  1.0 0.2777348378
H  H82  1  0.00160000  0.69670000  0.42330000  1.0 0.2777348378
H  H83  1  0.00160000  0.80330000  0.57670000  1.0 0.2777348378
H  H84  1  0.49840000  0.30330000  0.92330000  1.0 0.2777348378
H  H85  1  0.50160000  0.80330000  0.92330000  1.0 0.2777348378
H  H86  1  0.99840000  0.30330000  0.57670000  1.0 0.2777348378
H  H87  1  0.99840000  0.19670000  0.42330000  1.0 0.2777348378
H  H88  1  0.50160000  0.69670000  0.07670000  1.0 0.2777348378
H  H89  1  0.78520000  0.20140000  0.06550000  1.0 0.1147262093
H  H90  1  0.71480000  0.70140000  0.43450000  1.0 0.1147262093
H  H91  1  0.71480000  0.79860000  0.56550000  1.0 0.1147262093
H  H92  1  0.78520000  0.29860000  0.93450000  1.0 0.1147262093
H  H93  1  0.21480000  0.79860000  0.93450000  1.0 0.1147262093
H  H94  1  0.28520000  0.29860000  0.56550000  1.0 0.1147262093
H  H95  1  0.28520000  0.20140000  0.43450000  1.0 0.1147262093
H  H96  1  0.21480000  0.70140000  0.06550000  1.0 0.1147262093
C  C1  1  0.32930000  0.20630000  0.15030000  1.0 0.5498329413
C  C2  1  0.17070000  0.70630000  0.34970000  1.0 0.5498329413
C  C3  1  0.17070000  0.79370000  0.65030000  1.0 0.5498329413
C  C4  1  0.32930000  0.29370000  0.84970000  1.0 0.5498329413
C  C5  1  0.67070000  0.79370000  0.84970000  1.0 0.5498329413
C  C6  1  0.82930000  0.29370000  0.65030000  1.0 0.5498329413
C  C7  1  0.82930000  0.20630000  0.34970000  1.0 0.5498329413
C  C8  1  0.67070000  0.70630000  0.15030000  1.0 0.5498329413
C  C9  1  0.38550000  0.19230000  0.19790000  1.0 -0.1454793575
C  C10  1  0.11450000  0.69230000  0.30210000  1.0 -0.1454793575
C  C11  1  0.11450000  0.80770000  0.69790000  1.0 -0.1454793575
C  C12  1  0.38550000  0.30770000  0.80210000  1.0 -0.1454793575
C  C13  1  0.61450000  0.80770000  0.80210000  1.0 -0.1454793575
C  C14  1  0.88550000  0.30770000  0.69790000  1.0 -0.1454793575
C  C15  1  0.88550000  0.19230000  0.30210000  1.0 -0.1454793575
C  C16  1  0.61450000  0.69230000  0.19790000  1.0 -0.1454793575
C  C17  1  0.39270000  0.12000000  0.21640000  1.0 0.2777348378
C  C18  1  0.10730000  0.62000000  0.28360000  1.0 0.2777348378
C  C19  1  0.10730000  0.88000000  0.71640000  1.0 0.2777348378
C  C20  1  0.39270000  0.38000000  0.78360000  1.0 0.2777348378
C  C21  1  0.60730000  0.88000000  0.78360000  1.0 0.2777348378
C  C22  1  0.89270000  0.38000000  0.71640000  1.0 0.2777348378
C  C23  1  0.89270000  0.12000000  0.28360000  1.0 0.2777348378
C  C24  1  0.60730000  0.62000000  0.21640000  1.0 0.2777348378
C  C25  1  0.43910000  0.10800000  0.26150000  1.0 -0.2761683867
C  C26  1  0.06090000  0.60800000  0.23850000  1.0 -0.2761683867
C  C27  1  0.06090000  0.89200000  0.76150000  1.0 -0.2761683867
C  C28  1  0.43910000  0.39200000  0.73850000  1.0 -0.2761683867
C  C29  1  0.56090000  0.89200000  0.73850000  1.0 -0.2761683867
C  C30  1  0.93910000  0.39200000  0.76150000  1.0 -0.2747171584
C  C31  1  0.93910000  0.10800000  0.23850000  1.0 -0.2761683867
C  C32  1  0.56090000  0.60800000  0.26150000  1.0 -0.2761683867
C  C33  1  0.47980000  0.16790000  0.28870000  1.0 -0.1570487047
C  C34  1  0.02020000  0.66790000  0.21130000  1.0 -0.1570487047
C  C35  1  0.02020000  0.83210000  0.78870000  1.0 -0.1570487047
C  C36  1  0.47980000  0.33210000  0.71130000  1.0 -0.1570487047
C  C37  1  0.52020000  0.83210000  0.71130000  1.0 -0.1570487047
C  C38  1  0.97980000  0.33210000  0.78870000  1.0 -0.1570487047
C  C39  1  0.97980000  0.16790000  0.21130000  1.0 -0.1570487047
C  C40  1  0.52020000  0.66790000  0.28870000  1.0 -0.1570487047
C  C41  1  0.47340000  0.24010000  0.26990000  1.0 0.2608943221
C  C42  1  0.02660000  0.74010000  0.23010000  1.0 0.2608943221
C  C43  1  0.02660000  0.75990000  0.76990000  1.0 0.2608943221
C  C44  1  0.47340000  0.25990000  0.73010000  1.0 0.2608943221
C  C45  1  0.52660000  0.75990000  0.73010000  1.0 0.2608943221
C  C46  1  0.97340000  0.25990000  0.76990000  1.0 0.2608943221
C  C47  1  0.97340000  0.24010000  0.23010000  1.0 0.2608943221
C  C48  1  0.52660000  0.74010000  0.26990000  1.0 0.2608943221
C  C49  1  0.42630000  0.25200000  0.22510000  1.0 -0.2474631208
C  C50  1  0.07370000  0.75200000  0.27490000  1.0 -0.2474631208
C  C51  1  0.07370000  0.74800000  0.72510000  1.0 -0.2440694559
C  C52  1  0.42630000  0.24800000  0.77490000  1.0 -0.2440694559
C  C53  1  0.57370000  0.74800000  0.77490000  1.0 -0.2440694559
C  C54  1  0.92630000  0.24800000  0.72510000  1.0 -0.2440694559
C  C55  1  0.92630000  0.25200000  0.27490000  1.0 -0.2474631208
C  C56  1  0.57370000  0.75200000  0.22510000  1.0 -0.2474631208
C  C57  1  0.52800000  0.15150000  0.33750000  1.0 0.5886616346
C  C58  1  0.97200000  0.65150000  0.16250000  1.0 0.5886616346
C  C59  1  0.97200000  0.84850000  0.83750000  1.0 0.5886616346
C  C60  1  0.52800000  0.34850000  0.66250000  1.0 0.5886616346
C  C61  1  0.47200000  0.84850000  0.66250000  1.0 0.5886616346
C  C62  1  0.02800000  0.34850000  0.83750000  1.0 0.5886616346
C  C63  1  0.02800000  0.15150000  0.16250000  1.0 0.5886616346
C  C64  1  0.47200000  0.65150000  0.33750000  1.0 0.5886616346
C  C65  1  0.12510000  0.37180000  0.03764000  1.0 0.6195206281
C  C66  1  0.37490000  0.87180000  0.46236000  1.0 0.6195206281
C  C67  1  0.37490000  0.62820000  0.53764000  1.0 0.6195206281
C  C68  1  0.12510000  0.12820000  0.96236000  1.0 0.6195206281
C  C69  1  0.87490000  0.62820000  0.96236000  1.0 0.6195206281
C  C70  1  0.62510000  0.12820000  0.53764000  1.0 0.6195206281
C  C71  1  0.62510000  0.37180000  0.46236000  1.0 0.6195206281
C  C72  1  0.87490000  0.87180000  0.03764000  1.0 0.6195206281
C  C73  1  0.06350000  0.43760000  0.01653000  1.0 -0.115878456
C  C74  1  0.43650000  0.93760000  0.48347000  1.0 -0.115878456
C  C75  1  0.43650000  0.56240000  0.51653000  1.0 -0.115878456
C  C76  1  0.06350000  0.06240000  0.98347000  1.0 -0.115878456
C  C77  1  0.93650000  0.56240000  0.98347000  1.0 -0.115878456
C  C78  1  0.56350000  0.06240000  0.51653000  1.0 -0.115878456
C  C79  1  0.56350000  0.43760000  0.48347000  1.0 -0.115878456
C  C80  1  0.93650000  0.93760000  0.01653000  1.0 -0.115878456
C  C81  1  0.05830000  0.45290000  0.96757000  1.0 0.2728691262
C  C82  1  0.44170000  0.95290000  0.53243000  1.0 0.2728691262
C  C83  1  0.44170000  0.54710000  0.46757000  1.0 0.2728691262
C  C84  1  0.05830000  0.04710000  0.03243000  1.0 0.2728691262
C  C85  1  0.94170000  0.54710000  0.03243000  1.0 0.2728691262
C  C86  1  0.55830000  0.04710000  0.46757000  1.0 0.2728691262
C  C87  1  0.55830000  0.45290000  0.53243000  1.0 0.2728691262
C  C88  1  0.94170000  0.95290000  0.96757000  1.0 0.2728691262
C  C89  1  0.99590000  0.51450000  0.95228000  1.0 -0.2277475087
C  C90  1  0.50410000  0.01450000  0.54772000  1.0 -0.2277475087
C  C91  1  0.50410000  0.48550000  0.45228000  1.0 -0.2277475087
C  C92  1  0.99590000  0.98550000  0.04772000  1.0 -0.2277475087
C  C93  1  0.00410000  0.48550000  0.04772000  1.0 -0.2277475087
C  C94  1  0.49590000  0.98550000  0.45228000  1.0 -0.2277475087
C  C95  1  0.49590000  0.51450000  0.54772000  1.0 -0.2277475087
C  C96  1  0.00410000  0.01450000  0.95228000  1.0 -0.2277475087
C  C97  1  0.93590000  0.25000000  0.00000000  1.0 0.6195206281
C  C98  1  0.56410000  0.75000000  0.50000000  1.0 0.6195206281
C  C99  1  0.06410000  0.75000000  0.00000000  1.0 0.6195206281
C  C100  1  0.43590000  0.25000000  0.50000000  1.0 0.6195206281
C  C101  1  0.80500000  0.25000000  0.00000000  1.0 -0.2131241027
C  C102  1  0.69500000  0.75000000  0.50000000  1.0 -0.2162857864
C  C103  1  0.19500000  0.75000000  0.00000000  1.0 -0.2162857864
C  C104  1  0.30500000  0.25000000  0.50000000  1.0 -0.2162857864
C  C105  1  0.74310000  0.22150000  0.03860000  1.0 0.0547808756
C  C106  1  0.75690000  0.72150000  0.46140000  1.0 0.0547808756
C  C107  1  0.75690000  0.77850000  0.53860000  1.0 0.0547808756
C  C108  1  0.74310000  0.27850000  0.96140000  1.0 0.0547808756
C  C109  1  0.25690000  0.77850000  0.96140000  1.0 0.0556889114
C  C110  1  0.24310000  0.27850000  0.53860000  1.0 0.0547808756
C  C111  1  0.24310000  0.22150000  0.46140000  1.0 0.0547808756
C  C112  1  0.25690000  0.72150000  0.03860000  1.0 0.0547808756
C  C113  1  0.62160000  0.22190000  0.03920000  1.0 0.0764889207
C  C114  1  0.87840000  0.72190000  0.46080000  1.0 0.0764889207
C  C115  1  0.87840000  0.77810000  0.53920000  1.0 0.0764889207
C  C116  1  0.62160000  0.27810000  0.96080000  1.0 0.0764889207
C  C117  1  0.37840000  0.77810000  0.96080000  1.0 0.0764889207
C  C118  1  0.12160000  0.27810000  0.53920000  1.0 0.0764889207
C  C119  1  0.12160000  0.22190000  0.46080000  1.0 0.0764889207
C  C120  1  0.37840000  0.72190000  0.03920000  1.0 0.0764889207
C  C121  1  0.56130000  0.25000000  0.00000000  1.0 -0.2277475087
C  C122  1  0.93870000  0.75000000  0.50000000  1.0 -0.2277475087
C  C123  1  0.43870000  0.75000000  0.00000000  1.0 -0.2277475087
C  C124  1  0.06130000  0.25000000  0.50000000  1.0 -0.2277475087
C  C125  1  0.43050000  0.25000000  0.00000000  1.0 0.6557288703
C  C126  1  0.06950000  0.75000000  0.50000000  1.0 0.6546930608
C  C127  1  0.56950000  0.75000000  0.00000000  1.0 0.6546930608
C  C128  1  0.93050000  0.25000000  0.50000000  1.0 0.6546930608
O  O1  1  0.30200000  0.14970000  0.12485000  1.0 -0.6269468728
O  O2  1  0.19800000  0.64970000  0.37515000  1.0 -0.6269468728
O  O3  1  0.19800000  0.85030000  0.62485000  1.0 -0.6269468728
O  O4  1  0.30200000  0.35030000  0.87515000  1.0 -0.6269468728
O  O5  1  0.69800000  0.85030000  0.87515000  1.0 -0.6269468728
O  O6  1  0.80200000  0.35030000  0.62485000  1.0 -0.6269468728
O  O7  1  0.80200000  0.14970000  0.37515000  1.0 -0.6269468728
O  O8  1  0.69800000  0.64970000  0.12485000  1.0 -0.6269468728
O  O9  1  0.30410000  0.27210000  0.13729000  1.0 -0.5683969173
O  O10  1  0.19590000  0.77210000  0.36271000  1.0 -0.5683969173
O  O11  1  0.19590000  0.72790000  0.63729000  1.0 -0.5761600795
O  O12  1  0.30410000  0.22790000  0.86271000  1.0 -0.5761600795
O  O13  1  0.69590000  0.72790000  0.86271000  1.0 -0.5761600795
O  O14  1  0.80410000  0.22790000  0.63729000  1.0 -0.5761600795
O  O15  1  0.80410000  0.27210000  0.36271000  1.0 -0.5683969173
O  O16  1  0.69590000  0.77210000  0.13729000  1.0 -0.5683969173
O  O17  1  0.53460000  0.08530000  0.35122000  1.0 -0.506443907
O  O18  1  0.96540000  0.58530000  0.14878000  1.0 -0.506443907
O  O19  1  0.96540000  0.91470000  0.85122000  1.0 -0.506443907
O  O20  1  0.53460000  0.41470000  0.64878000  1.0 -0.506443907
O  O21  1  0.46540000  0.91470000  0.64878000  1.0 -0.506443907
O  O22  1  0.03460000  0.41470000  0.85122000  1.0 -0.5049007896
O  O23  1  0.03460000  0.08530000  0.14878000  1.0 -0.506443907
O  O24  1  0.46540000  0.58530000  0.35122000  1.0 -0.506443907
O  O25  1  0.56170000  0.20760000  0.36188000  1.0 -0.6585813525
O  O26  1  0.93830000  0.70760000  0.13812000  1.0 -0.6585813525
O  O27  1  0.93830000  0.79240000  0.86188000  1.0 -0.6585813525
O  O28  1  0.56170000  0.29240000  0.63812000  1.0 -0.6585813525
O  O29  1  0.43830000  0.79240000  0.63812000  1.0 -0.6585813525
O  O30  1  0.06170000  0.29240000  0.86188000  1.0 -0.6585813525
O  O31  1  0.06170000  0.20760000  0.13812000  1.0 -0.6585813525
O  O32  1  0.43830000  0.70760000  0.36188000  1.0 -0.6585813525
O  O33  1  0.33900000  0.05850000  0.19460000  1.0 -0.1326197877
O  O34  1  0.16100000  0.55850000  0.30540000  1.0 -0.1326197877
O  O35  1  0.16100000  0.94150000  0.69460000  1.0 -0.1326197877
O  O36  1  0.33900000  0.44150000  0.80540000  1.0 -0.1326197877
O  O37  1  0.66100000  0.94150000  0.80540000  1.0 -0.1326197877
O  O38  1  0.83900000  0.44150000  0.69460000  1.0 -0.1326197877
O  O39  1  0.83900000  0.05850000  0.30540000  1.0 -0.1326197877
O  O40  1  0.66100000  0.55850000  0.19460000  1.0 -0.1326197877
O  O41  1  0.53500000  0.30080000  0.28960000  1.0 -0.0559367701
O  O42  1  0.96500000  0.80080000  0.21040000  1.0 -0.0559367701
O  O43  1  0.96500000  0.69920000  0.78960000  1.0 -0.0559367701
O  O44  1  0.53500000  0.19920000  0.71040000  1.0 -0.0559367701
O  O45  1  0.46500000  0.69920000  0.71040000  1.0 -0.0559367701
O  O46  1  0.03500000  0.19920000  0.78960000  1.0 -0.0559367701
O  O47  1  0.03500000  0.30080000  0.21040000  1.0 -0.0559367701
O  O48  1  0.46500000  0.80080000  0.28960000  1.0 -0.0559367701
O  O49  1  0.11670000  0.35680000  0.08154000  1.0 -0.5968475777
O  O50  1  0.38330000  0.85680000  0.41846000  1.0 -0.5968475777
O  O51  1  0.38330000  0.64320000  0.58154000  1.0 -0.5968475777
O  O52  1  0.11670000  0.14320000  0.91846000  1.0 -0.5968475777
O  O53  1  0.88330000  0.64320000  0.91846000  1.0 -0.5968475777
O  O54  1  0.61670000  0.14320000  0.58154000  1.0 -0.5968475777
O  O55  1  0.61670000  0.35680000  0.41846000  1.0 -0.5968475777
O  O56  1  0.88330000  0.85680000  0.08154000  1.0 -0.5968475777
O  O57  1  0.18680000  0.32865000  0.01064000  1.0 -0.7555014032
O  O58  1  0.31320000  0.82865000  0.48936000  1.0 -0.7555014032
O  O59  1  0.31320000  0.67135000  0.51064000  1.0 -0.7555014032
O  O60  1  0.18680000  0.17135000  0.98936000  1.0 -0.7555014032
O  O61  1  0.81320000  0.67135000  0.98936000  1.0 -0.7555014032
O  O62  1  0.68680000  0.17135000  0.51064000  1.0 -0.7555014032
O  O63  1  0.68680000  0.32865000  0.48936000  1.0 -0.7555014032
O  O64  1  0.81320000  0.82865000  0.01064000  1.0 -0.7555014032
O  O65  1  0.11510000  0.40850000  0.93496000  1.0 -0.5683969173
O  O66  1  0.38490000  0.90850000  0.56504000  1.0 -0.5683969173
O  O67  1  0.38490000  0.59150000  0.43496000  1.0 -0.5683969173
O  O68  1  0.11510000  0.09150000  0.06504000  1.0 -0.5683969173
O  O69  1  0.88490000  0.59150000  0.06504000  1.0 -0.5683969173
O  O70  1  0.61510000  0.09150000  0.43496000  1.0 -0.5683969173
O  O71  1  0.61510000  0.40850000  0.56504000  1.0 -0.5683969173
O  O72  1  0.88490000  0.90850000  0.93496000  1.0 -0.5683969173
O  O73  1  0.98590000  0.23000000  0.03799000  1.0 -0.6406423475
O  O74  1  0.51410000  0.73000000  0.46201000  1.0 -0.6406423475
O  O75  1  0.51410000  0.77000000  0.53799000  1.0 -0.6406423475
O  O76  1  0.98590000  0.27000000  0.96201000  1.0 -0.6406423475
O  O77  1  0.01410000  0.77000000  0.96201000  1.0 -0.6406423475
O  O78  1  0.48590000  0.27000000  0.53799000  1.0 -0.6406423475
O  O79  1  0.48590000  0.23000000  0.46201000  1.0 -0.6406423475
O  O80  1  0.01410000  0.73000000  0.03799000  1.0 -0.6406423475
O  O81  1  0.37900000  0.23060000  0.03803000  1.0 -0.6406423475
O  O82  1  0.12100000  0.73060000  0.46197000  1.0 -0.6406423475
O  O83  1  0.12100000  0.76940000  0.53803000  1.0 -0.6406423475
O  O84  1  0.37900000  0.26940000  0.96197000  1.0 -0.6406423475
O  O85  1  0.62100000  0.76940000  0.96197000  1.0 -0.6406423475
O  O86  1  0.87900000  0.26940000  0.53803000  1.0 -0.6406423475
O  O87  1  0.87900000  0.23060000  0.46197000  1.0 -0.6406423475
O  O88  1  0.62100000  0.73060000  0.03803000  1.0 -0.6406423475
O  O89  1  0.79260000  0.19390000  0.08010000  1.0 -0.3754953283
O  O90  1  0.70740000  0.69390000  0.41990000  1.0 -0.3730318311
O  O91  1  0.70740000  0.80610000  0.58010000  1.0 -0.3754953283
O  O92  1  0.79260000  0.30610000  0.91990000  1.0 -0.3730318311
O  O93  1  0.20740000  0.80610000  0.91990000  1.0 -0.3754953283
O  O94  1  0.29260000  0.30610000  0.58010000  1.0 -0.3730318311
O  O95  1  0.29260000  0.19390000  0.41990000  1.0 -0.3754953283
O  O96  1  0.20740000  0.69390000  0.08010000  1.0 -0.3730318311
O  O97  1  0.37800000  0.05640000  0.18780000  1.0 -0.1326197877
O  O98  1  0.12200000  0.55640000  0.31220000  1.0 -0.1326197877
O  O99  1  0.12200000  0.94360000  0.68780000  1.0 -0.1326197877
O  O100  1  0.37800000  0.44360000  0.81220000  1.0 -0.1326197877
O  O101  1  0.62200000  0.94360000  0.81220000  1.0 -0.1326197877
O  O102  1  0.87800000  0.44360000  0.68780000  1.0 -0.1326197877
O  O103  1  0.87800000  0.05640000  0.31220000  1.0 -0.1326197877
O  O104  1  0.62200000  0.55640000  0.18780000  1.0 -0.1326197877
O  O105  1  0.48300000  0.30290000  0.30020000  1.0 -0.0559367701
O  O106  1  0.01700000  0.80290000  0.19980000  1.0 -0.0522237017
O  O107  1  0.01700000  0.69710000  0.80020000  1.0 -0.0559367701
O  O108  1  0.48300000  0.19710000  0.69980000  1.0 -0.0559367701
O  O109  1  0.51700000  0.69710000  0.69980000  1.0 -0.0559367701
O  O110  1  0.98300000  0.19710000  0.80020000  1.0 -0.0559367701
O  O111  1  0.98300000  0.30290000  0.19980000  1.0 -0.0559367701
O  O112  1  0.51700000  0.80290000  0.30020000  1.0 -0.0522237017
O  O113  1  0.56960000  0.19270000  0.07910000  1.0 -0.3433326806
O  O114  1  0.93040000  0.69270000  0.42090000  1.0 -0.3433326806
O  O115  1  0.93040000  0.80730000  0.57910000  1.0 -0.3433326806
O  O116  1  0.56960000  0.30730000  0.92090000  1.0 -0.3433326806
O  O117  1  0.43040000  0.80730000  0.92090000  1.0 -0.3433326806
O  O118  1  0.06960000  0.30730000  0.57910000  1.0 -0.3433326806
O  O119  1  0.06960000  0.19270000  0.42090000  1.0 -0.3433326806
O  O120  1  0.43040000  0.69270000  0.07910000  1.0 -0.3433326806
