# DDEC6 charges by PACMAN v1.1 (https://github.com/mtap-research/PACMAN-charge/)
data_ELOGUJ_ASR_pacman
_symmetry_space_group_name_H-M   'P 1'
_cell_length_a   13.09900000
_cell_length_b   20.08400000
_cell_length_c   26.86700000
_cell_angle_alpha   90.00000000
_cell_angle_beta   90.00000000
_cell_angle_gamma   90.00000000
_symmetry_Int_Tables_number   1
_chemical_formula_structural   VCo2H20W12C24(N4O17)2
_chemical_formula_sum   'V4 Co8 H80 W48 C96 N32 O136'
_cell_volume   7068.17884997
_cell_formula_units_Z   4
loop_
 _symmetry_equiv_pos_site_id
 _symmetry_equiv_pos_as_xyz
  1  'x, y, z'
loop_
 _atom_site_type_symbol
 _atom_site_label
 _atom_site_symmetry_multiplicity
 _atom_site_fract_x
 _atom_site_fract_y
 _atom_site_fract_z
 _atom_site_occupancy
 _atom_site_charge
V  V1  1  0.60340000  0.25000000  0.76358000  1.0 1.4301422977
V  V2  1  0.10340000  0.75000000  0.73642000  1.0 1.4301422977
V  V3  1  0.89660000  0.25000000  0.26358000  1.0 1.4301422977
V  V4  1  0.39660000  0.75000000  0.23642000  1.0 1.4301422977
Co  Co1  1  0.60690000  0.89045000  0.74025000  1.0 0.9188862884
Co  Co2  1  0.10690000  0.10955000  0.75975000  1.0 0.9188862884
Co  Co3  1  0.89310000  0.60955000  0.24025000  1.0 0.9188862884
Co  Co4  1  0.39310000  0.39045000  0.25975000  1.0 0.9188862884
Co  Co5  1  0.39310000  0.10955000  0.25975000  1.0 0.9188862884
Co  Co6  1  0.89310000  0.89045000  0.24025000  1.0 0.9188862884
Co  Co7  1  0.10690000  0.39045000  0.75975000  1.0 0.9188862884
Co  Co8  1  0.60690000  0.60955000  0.74025000  1.0 0.9188862884
H  H1  1  0.75060000  0.82680000  0.05270000  1.0 0.10114028
H  H2  1  0.25060000  0.17320000  0.44730000  1.0 0.10114028
H  H3  1  0.74940000  0.67320000  0.55270000  1.0 0.10114028
H  H4  1  0.24940000  0.32680000  0.94730000  1.0 0.10114028
H  H5  1  0.24940000  0.17320000  0.94730000  1.0 0.10114028
H  H6  1  0.74940000  0.82680000  0.55270000  1.0 0.10114028
H  H7  1  0.25060000  0.32680000  0.44730000  1.0 0.10114028
H  H8  1  0.75060000  0.67320000  0.05270000  1.0 0.10114028
H  H9  1  0.98040000  0.99450000  0.06720000  1.0 0.10114028
H  H10  1  0.48040000  0.00550000  0.43280000  1.0 0.10114028
H  H11  1  0.51960000  0.50550000  0.56720000  1.0 0.10114028
H  H12  1  0.01960000  0.49450000  0.93280000  1.0 0.10114028
H  H13  1  0.01960000  0.00550000  0.93280000  1.0 0.10114028
H  H14  1  0.51960000  0.99450000  0.56720000  1.0 0.10114028
H  H15  1  0.48040000  0.49450000  0.43280000  1.0 0.10114028
H  H16  1  0.98040000  0.50550000  0.06720000  1.0 0.10114028
H  H17  1  0.52660000  0.82270000  0.92050000  1.0 0.1095138016
H  H18  1  0.02660000  0.17730000  0.57950000  1.0 0.1095138016
H  H19  1  0.97340000  0.67730000  0.42050000  1.0 0.1095138016
H  H20  1  0.47340000  0.32270000  0.07950000  1.0 0.1095138016
H  H21  1  0.47340000  0.17730000  0.07950000  1.0 0.1095138016
H  H22  1  0.97340000  0.82270000  0.42050000  1.0 0.1095138016
H  H23  1  0.02660000  0.32270000  0.57950000  1.0 0.1095138016
H  H24  1  0.52660000  0.67730000  0.92050000  1.0 0.1095138016
H  H25  1  0.48340000  0.82250000  0.83440000  1.0 0.1189890859
H  H26  1  0.98340000  0.17750000  0.66560000  1.0 0.1095138016
H  H27  1  0.01660000  0.67750000  0.33440000  1.0 0.1189890859
H  H28  1  0.51660000  0.32250000  0.16560000  1.0 0.1095138016
H  H29  1  0.51660000  0.17750000  0.16560000  1.0 0.1095138016
H  H30  1  0.01660000  0.82250000  0.33440000  1.0 0.1189890859
H  H31  1  0.98340000  0.32250000  0.66560000  1.0 0.1095138016
H  H32  1  0.48340000  0.67750000  0.83440000  1.0 0.1189890859
H  H33  1  0.73160000  0.92930000  0.84440000  1.0 0.1095138016
H  H34  1  0.23160000  0.07070000  0.65560000  1.0 0.1095138016
H  H35  1  0.76840000  0.57070000  0.34440000  1.0 0.1095138016
H  H36  1  0.26840000  0.42930000  0.15560000  1.0 0.1095138016
H  H37  1  0.26840000  0.07070000  0.15560000  1.0 0.1095138016
H  H38  1  0.76840000  0.92930000  0.34440000  1.0 0.1095138016
H  H39  1  0.23160000  0.42930000  0.65560000  1.0 0.1095138016
H  H40  1  0.73160000  0.57070000  0.84440000  1.0 0.1095138016
H  H41  1  0.68220000  0.80710000  0.97310000  1.0 0.0920815769
H  H42  1  0.18220000  0.19290000  0.52690000  1.0 0.0920815769
H  H43  1  0.81780000  0.69290000  0.47310000  1.0 0.0920815769
H  H44  1  0.31780000  0.30710000  0.02690000  1.0 0.0920815769
H  H45  1  0.31780000  0.19290000  0.02690000  1.0 0.0920815769
H  H46  1  0.81780000  0.80710000  0.47310000  1.0 0.0920815769
H  H47  1  0.18220000  0.30710000  0.52690000  1.0 0.0920815769
H  H48  1  0.68220000  0.69290000  0.97310000  1.0 0.0920815769
H  H49  1  0.74750000  0.99040000  0.92880000  1.0 0.1095138016
H  H50  1  0.24750000  0.00960000  0.57120000  1.0 0.1095138016
H  H51  1  0.75250000  0.50960000  0.42880000  1.0 0.1095138016
H  H52  1  0.25250000  0.49040000  0.07120000  1.0 0.1095138016
H  H53  1  0.25250000  0.00960000  0.07120000  1.0 0.1095138016
H  H54  1  0.75250000  0.99040000  0.42880000  1.0 0.1095138016
H  H55  1  0.24750000  0.49040000  0.57120000  1.0 0.1095138016
H  H56  1  0.74750000  0.50960000  0.92880000  1.0 0.1095138016
H  H57  1  0.01630000  0.98620000  0.15460000  1.0 0.127719497
H  H58  1  0.51630000  0.01380000  0.34540000  1.0 0.127719497
H  H59  1  0.48370000  0.51380000  0.65460000  1.0 0.127719497
H  H60  1  0.98370000  0.48620000  0.84540000  1.0 0.127719497
H  H61  1  0.98370000  0.01380000  0.84540000  1.0 0.1189890859
H  H62  1  0.48370000  0.98620000  0.65460000  1.0 0.127719497
H  H63  1  0.51630000  0.48620000  0.34540000  1.0 0.127719497
H  H64  1  0.01630000  0.51380000  0.15460000  1.0 0.127719497
H  H65  1  0.83960000  0.00600000  0.00200000  1.0 0.10114028
H  H66  1  0.33960000  0.99400000  0.49800000  1.0 0.10114028
H  H67  1  0.66040000  0.49400000  0.50200000  1.0 0.10114028
H  H68  1  0.16040000  0.50600000  0.99800000  1.0 0.10114028
H  H69  1  0.16040000  0.99400000  0.99800000  1.0 0.10114028
H  H70  1  0.66040000  0.00600000  0.50200000  1.0 0.10114028
H  H71  1  0.33960000  0.50600000  0.49800000  1.0 0.10114028
H  H72  1  0.83960000  0.49400000  0.00200000  1.0 0.10114028
H  H73  1  0.77610000  0.87330000  0.13160000  1.0 0.1189890859
H  H74  1  0.27610000  0.12670000  0.36840000  1.0 0.1189890859
H  H75  1  0.72390000  0.62670000  0.63160000  1.0 0.1189890859
H  H76  1  0.22390000  0.37330000  0.86840000  1.0 0.1189890859
H  H77  1  0.22390000  0.12670000  0.86840000  1.0 0.1189890859
H  H78  1  0.72390000  0.87330000  0.63160000  1.0 0.1189890859
H  H79  1  0.27610000  0.37330000  0.36840000  1.0 0.1189890859
H  H80  1  0.77610000  0.62670000  0.13160000  1.0 0.1189890859
W  W1  1  0.52874000  0.16622000  0.65363000  1.0 2.3792350733
W  W2  1  0.02874000  0.83378000  0.84637000  1.0 2.3792350733
W  W3  1  0.97126000  0.33378000  0.15363000  1.0 2.3792350733
W  W4  1  0.47126000  0.66622000  0.34637000  1.0 2.3792350733
W  W5  1  0.47126000  0.83378000  0.34637000  1.0 2.3792350733
W  W6  1  0.97126000  0.16622000  0.15363000  1.0 2.3792350733
W  W7  1  0.02874000  0.66622000  0.84637000  1.0 2.3792350733
W  W8  1  0.52874000  0.33378000  0.65363000  1.0 2.3792350733
W  W9  1  0.75134000  0.25000000  0.65380000  1.0 2.4096817219
W  W10  1  0.25134000  0.75000000  0.84620000  1.0 2.4096817219
W  W11  1  0.74866000  0.25000000  0.15380000  1.0 2.4096817219
W  W12  1  0.24866000  0.75000000  0.34620000  1.0 2.4096817219
W  W13  1  0.44110000  0.25000000  0.86842000  1.0 2.3502998793
W  W14  1  0.94110000  0.75000000  0.63158000  1.0 2.3502998793
W  W15  1  0.05890000  0.25000000  0.36842000  1.0 2.3502998793
W  W16  1  0.55890000  0.75000000  0.13158000  1.0 2.3502998793
W  W17  1  0.36822000  0.16667000  0.76624000  1.0 2.3792350733
W  W18  1  0.86822000  0.83333000  0.73376000  1.0 2.3792350733
W  W19  1  0.13178000  0.33333333  0.26624000  1.0 2.3792350733
W  W20  1  0.63178000  0.66666667  0.23376000  1.0 2.3792350733
W  W21  1  0.63178000  0.83333000  0.23376000  1.0 2.3792350733
W  W22  1  0.13178000  0.16667000  0.26624000  1.0 2.3792350733
W  W23  1  0.86822000  0.66666667  0.73376000  1.0 2.3792350733
W  W24  1  0.36822000  0.33333333  0.76624000  1.0 2.3792350733
W  W25  1  0.68514000  0.34216000  0.86864000  1.0 2.4324558222
W  W26  1  0.18514000  0.65784000  0.63136000  1.0 2.4324558222
W  W27  1  0.81486000  0.15784000  0.36864000  1.0 2.4324558222
W  W28  1  0.31486000  0.84216000  0.13136000  1.0 2.4324558222
W  W29  1  0.31486000  0.65784000  0.13136000  1.0 2.4324558222
W  W30  1  0.81486000  0.34216000  0.36864000  1.0 2.4324558222
W  W31  1  0.18514000  0.84216000  0.63136000  1.0 2.4324558222
W  W32  1  0.68514000  0.15784000  0.86864000  1.0 2.4324558222
W  W33  1  0.61145000  0.07493000  0.76589000  1.0 2.3984121078
W  W34  1  0.11145000  0.92507000  0.73411000  1.0 2.3984121078
W  W35  1  0.88855000  0.42507000  0.26589000  1.0 2.3984121078
W  W36  1  0.38855000  0.57493000  0.23411000  1.0 2.3984121078
W  W37  1  0.38855000  0.92507000  0.23411000  1.0 2.3984121078
W  W38  1  0.88855000  0.07493000  0.26589000  1.0 2.3984121078
W  W39  1  0.11145000  0.57493000  0.73411000  1.0 2.3984121078
W  W40  1  0.61145000  0.42507000  0.76589000  1.0 2.3984121078
W  W41  1  0.83299000  0.15837000  0.76670000  1.0 2.3984121078
W  W42  1  0.33299000  0.84163000  0.73330000  1.0 2.3984121078
W  W43  1  0.66701000  0.34163000  0.26670000  1.0 2.3984121078
W  W44  1  0.16701000  0.65837000  0.23330000  1.0 2.3984121078
W  W45  1  0.16701000  0.84163000  0.23330000  1.0 2.3984121078
W  W46  1  0.66701000  0.15837000  0.26670000  1.0 2.3984121078
W  W47  1  0.33299000  0.65837000  0.73330000  1.0 2.3984121078
W  W48  1  0.83299000  0.34163000  0.76670000  1.0 2.3984121078
C  C1  1  0.75600000  0.85850000  0.02760000  1.0 -0.1985209143
C  C2  1  0.25600000  0.14150000  0.47240000  1.0 -0.1985209143
C  C3  1  0.74400000  0.64150000  0.52760000  1.0 -0.1985209143
C  C4  1  0.24400000  0.35850000  0.97240000  1.0 -0.1985209143
C  C5  1  0.24400000  0.14150000  0.97240000  1.0 -0.1985209143
C  C6  1  0.74400000  0.85850000  0.52760000  1.0 -0.1985209143
C  C7  1  0.25600000  0.35850000  0.47240000  1.0 -0.1985209143
C  C8  1  0.75600000  0.64150000  0.02760000  1.0 -0.1985209143
C  C9  1  0.94400000  0.96890000  0.09010000  1.0 -0.1577775615
C  C10  1  0.44400000  0.03110000  0.40990000  1.0 -0.1577775615
C  C11  1  0.55600000  0.53110000  0.59010000  1.0 -0.1577775615
C  C12  1  0.05600000  0.46890000  0.90990000  1.0 -0.1577775615
C  C13  1  0.05600000  0.03110000  0.90990000  1.0 -0.1577775615
C  C14  1  0.55600000  0.96890000  0.59010000  1.0 -0.1577775615
C  C15  1  0.44400000  0.46890000  0.40990000  1.0 -0.1577775615
C  C16  1  0.94400000  0.53110000  0.09010000  1.0 -0.1577775615
C  C17  1  0.80980000  0.91740000  0.03520000  1.0 0.1496430852
C  C18  1  0.30980000  0.08260000  0.46480000  1.0 0.1496430852
C  C19  1  0.69020000  0.58260000  0.53520000  1.0 0.1496430852
C  C20  1  0.19020000  0.41740000  0.96480000  1.0 0.1496430852
C  C21  1  0.19020000  0.08260000  0.96480000  1.0 0.1496430852
C  C22  1  0.69020000  0.91740000  0.53520000  1.0 0.1496430852
C  C23  1  0.30980000  0.41740000  0.46480000  1.0 0.1496430852
C  C24  1  0.80980000  0.58260000  0.03520000  1.0 0.1496430852
C  C25  1  0.70730000  0.89530000  0.94460000  1.0 0.127719497
C  C26  1  0.20730000  0.10470000  0.55540000  1.0 0.127719497
C  C27  1  0.79270000  0.60470000  0.44460000  1.0 0.127719497
C  C28  1  0.29270000  0.39530000  0.05540000  1.0 0.127719497
C  C29  1  0.29270000  0.10470000  0.05540000  1.0 0.127719497
C  C30  1  0.79270000  0.89530000  0.44460000  1.0 0.127719497
C  C31  1  0.20730000  0.39530000  0.55540000  1.0 0.127719497
C  C32  1  0.70730000  0.60470000  0.94460000  1.0 0.127719497
C  C33  1  0.56240000  0.84390000  0.89510000  1.0 -0.1697613603
C  C34  1  0.06240000  0.15610000  0.60490000  1.0 -0.1697613603
C  C35  1  0.93760000  0.65610000  0.39510000  1.0 -0.1697613603
C  C36  1  0.43760000  0.34390000  0.10490000  1.0 -0.1697613603
C  C37  1  0.43760000  0.15610000  0.10490000  1.0 -0.1697613603
C  C38  1  0.93760000  0.84390000  0.39510000  1.0 -0.1697613603
C  C39  1  0.06240000  0.34390000  0.60490000  1.0 -0.1697613603
C  C40  1  0.56240000  0.65610000  0.89510000  1.0 -0.1697613603
C  C41  1  0.54050000  0.84350000  0.84770000  1.0 -0.0447216878
C  C42  1  0.04050000  0.15650000  0.65230000  1.0 -0.0455067779
C  C43  1  0.95950000  0.65650000  0.34770000  1.0 -0.0447216878
C  C44  1  0.45950000  0.34350000  0.15230000  1.0 -0.0447216878
C  C45  1  0.45950000  0.15650000  0.15230000  1.0 -0.0447216878
C  C46  1  0.95950000  0.84350000  0.34770000  1.0 -0.0447216878
C  C47  1  0.04050000  0.34350000  0.65230000  1.0 -0.0447216878
C  C48  1  0.54050000  0.65650000  0.84770000  1.0 -0.0447216878
C  C49  1  0.67600000  0.90230000  0.85280000  1.0 0.1189890859
C  C50  1  0.17600000  0.09770000  0.64720000  1.0 0.1189890859
C  C51  1  0.82400000  0.59770000  0.35280000  1.0 0.1189890859
C  C52  1  0.32400000  0.40230000  0.14720000  1.0 0.1189890859
C  C53  1  0.32400000  0.09770000  0.14720000  1.0 0.1189890859
C  C54  1  0.82400000  0.90230000  0.35280000  1.0 0.1189890859
C  C55  1  0.17600000  0.40230000  0.64720000  1.0 0.1189890859
C  C56  1  0.67600000  0.59770000  0.85280000  1.0 0.1189890859
C  C57  1  0.71100000  0.84850000  0.98000000  1.0 -0.1822208787
C  C58  1  0.21100000  0.15150000  0.52000000  1.0 -0.1822208787
C  C59  1  0.78900000  0.65150000  0.48000000  1.0 -0.1822208787
C  C60  1  0.28900000  0.34850000  0.02000000  1.0 -0.1822208787
C  C61  1  0.28900000  0.15150000  0.02000000  1.0 -0.1822208787
C  C62  1  0.78900000  0.84850000  0.48000000  1.0 -0.1822208787
C  C63  1  0.21100000  0.34850000  0.52000000  1.0 -0.1822208787
C  C64  1  0.71100000  0.65150000  0.98000000  1.0 -0.1822208787
C  C65  1  0.75230000  0.95660000  0.95240000  1.0 -0.187130653
C  C66  1  0.25230000  0.04340000  0.54760000  1.0 -0.187130653
C  C67  1  0.74770000  0.54340000  0.45240000  1.0 -0.187130653
C  C68  1  0.24770000  0.45660000  0.04760000  1.0 -0.187130653
C  C69  1  0.24770000  0.04340000  0.04760000  1.0 -0.187130653
C  C70  1  0.74770000  0.95660000  0.45240000  1.0 -0.187130653
C  C71  1  0.25230000  0.45660000  0.54760000  1.0 -0.187130653
C  C72  1  0.75230000  0.54340000  0.95240000  1.0 -0.187130653
C  C73  1  0.96470000  0.96330000  0.13810000  1.0 -0.0455067779
C  C74  1  0.46470000  0.03670000  0.36190000  1.0 -0.0455067779
C  C75  1  0.53530000  0.53670000  0.63810000  1.0 -0.0455067779
C  C76  1  0.03530000  0.46330000  0.86190000  1.0 -0.0455067779
C  C77  1  0.03530000  0.03670000  0.86190000  1.0 -0.0455067779
C  C78  1  0.53530000  0.96330000  0.63810000  1.0 -0.0455067779
C  C79  1  0.46470000  0.46330000  0.36190000  1.0 -0.0455067779
C  C80  1  0.96470000  0.53670000  0.13810000  1.0 -0.0455067779
C  C81  1  0.80600000  0.96600000  0.99710000  1.0 -0.1822208787
C  C82  1  0.30600000  0.03400000  0.50290000  1.0 -0.1822208787
C  C83  1  0.69400000  0.53400000  0.49710000  1.0 -0.1822208787
C  C84  1  0.19400000  0.46600000  0.00290000  1.0 -0.1822208787
C  C85  1  0.19400000  0.03400000  0.00290000  1.0 -0.1822208787
C  C86  1  0.69400000  0.96600000  0.49710000  1.0 -0.1822208787
C  C87  1  0.30600000  0.46600000  0.50290000  1.0 -0.1822208787
C  C88  1  0.80600000  0.53400000  0.99710000  1.0 -0.1822208787
C  C89  1  0.83230000  0.90060000  0.12640000  1.0 0.0920815769
C  C90  1  0.33230000  0.09940000  0.37360000  1.0 0.0920815769
C  C91  1  0.66770000  0.59940000  0.62640000  1.0 0.0920815769
C  C92  1  0.16770000  0.40060000  0.87360000  1.0 0.0920815769
C  C93  1  0.16770000  0.09940000  0.87360000  1.0 0.0920815769
C  C94  1  0.66770000  0.90060000  0.62640000  1.0 0.0920815769
C  C95  1  0.33230000  0.40060000  0.37360000  1.0 0.0920815769
C  C96  1  0.83230000  0.59940000  0.12640000  1.0 0.0920815769
N  N1  1  0.61140000  0.87760000  0.81970000  1.0 -0.290939205
N  N2  1  0.11140000  0.12240000  0.68030000  1.0 -0.290939205
N  N3  1  0.88860000  0.62240000  0.31970000  1.0 -0.290939205
N  N4  1  0.38860000  0.37760000  0.18030000  1.0 -0.290939205
N  N5  1  0.38860000  0.12240000  0.18030000  1.0 -0.290939205
N  N6  1  0.88860000  0.87760000  0.31970000  1.0 -0.290939205
N  N7  1  0.11140000  0.37760000  0.68030000  1.0 -0.290939205
N  N8  1  0.61140000  0.62240000  0.81970000  1.0 -0.290939205
N  N9  1  0.65380000  0.88410000  0.90030000  1.0 -0.025859561
N  N10  1  0.15380000  0.11590000  0.59970000  1.0 -0.025859561
N  N11  1  0.84620000  0.61590000  0.40030000  1.0 -0.025859561
N  N12  1  0.34620000  0.38410000  0.09970000  1.0 -0.025859561
N  N13  1  0.34620000  0.11590000  0.09970000  1.0 -0.025859561
N  N14  1  0.84620000  0.88410000  0.40030000  1.0 -0.025859561
N  N15  1  0.15380000  0.38410000  0.59970000  1.0 -0.025859561
N  N16  1  0.65380000  0.61590000  0.90030000  1.0 -0.025859561
N  N17  1  0.85980000  0.92960000  0.08010000  1.0 -0.0219800924
N  N18  1  0.35980000  0.07040000  0.41990000  1.0 -0.0219800924
N  N19  1  0.64020000  0.57040000  0.58010000  1.0 -0.0219800924
N  N20  1  0.14020000  0.42960000  0.91990000  1.0 -0.0219800924
N  N21  1  0.14020000  0.07040000  0.91990000  1.0 -0.0219800924
N  N22  1  0.64020000  0.92960000  0.58010000  1.0 -0.0219800924
N  N23  1  0.35980000  0.42960000  0.41990000  1.0 -0.0219800924
N  N24  1  0.85980000  0.57040000  0.08010000  1.0 -0.0219800924
N  N25  1  0.89780000  0.91800000  0.16070000  1.0 -0.290939205
N  N26  1  0.39780000  0.08200000  0.33930000  1.0 -0.290939205
N  N27  1  0.60220000  0.58200000  0.66070000  1.0 -0.290939205
N  N28  1  0.10220000  0.41800000  0.83930000  1.0 -0.290939205
N  N29  1  0.10220000  0.08200000  0.83930000  1.0 -0.290939205
N  N30  1  0.60220000  0.91800000  0.66070000  1.0 -0.290939205
N  N31  1  0.39780000  0.41800000  0.33930000  1.0 -0.290939205
N  N32  1  0.89780000  0.58200000  0.16070000  1.0 -0.290939205
O  O1  1  0.71930000  0.25000000  0.87610000  1.0 -1.0484189546
O  O2  1  0.21930000  0.75000000  0.62390000  1.0 -1.0484189546
O  O3  1  0.78070000  0.25000000  0.37610000  1.0 -1.0484189546
O  O4  1  0.28070000  0.75000000  0.12390000  1.0 -1.0484189546
O  O5  1  0.29810000  0.25000000  0.75520000  1.0 -0.9115977145
O  O6  1  0.79810000  0.75000000  0.74480000  1.0 -0.9115977145
O  O7  1  0.20190000  0.25000000  0.25520000  1.0 -0.9115977145
O  O8  1  0.70190000  0.75000000  0.24480000  1.0 -0.9115977145
O  O9  1  0.35950000  0.18370000  0.83720000  1.0 -0.9499928127
O  O10  1  0.85950000  0.81630000  0.66280000  1.0 -0.9499928127
O  O11  1  0.14050000  0.31630000  0.33720000  1.0 -0.9499928127
O  O12  1  0.64050000  0.68370000  0.16280000  1.0 -0.9499928127
O  O13  1  0.64050000  0.81630000  0.16280000  1.0 -0.9499928127
O  O14  1  0.14050000  0.18370000  0.33720000  1.0 -0.9499928127
O  O15  1  0.85950000  0.68370000  0.66280000  1.0 -0.9499928127
O  O16  1  0.35950000  0.31630000  0.83720000  1.0 -0.9499928127
O  O17  1  0.66320000  0.18280000  0.62690000  1.0 -1.0026015795
O  O18  1  0.16320000  0.81720000  0.87310000  1.0 -1.0026015795
O  O19  1  0.83680000  0.31720000  0.12690000  1.0 -1.0026015795
O  O20  1  0.33680000  0.68280000  0.37310000  1.0 -1.0026015795
O  O21  1  0.33680000  0.81720000  0.37310000  1.0 -1.0026015795
O  O22  1  0.83680000  0.18280000  0.12690000  1.0 -1.0026015795
O  O23  1  0.16320000  0.68280000  0.87310000  1.0 -1.0026015795
O  O24  1  0.66320000  0.31720000  0.62690000  1.0 -1.0026015795
O  O25  1  0.79920000  0.18500000  0.70100000  1.0 -0.9652862108
O  O26  1  0.29920000  0.81500000  0.79900000  1.0 -0.9652862108
O  O27  1  0.70080000  0.31500000  0.20100000  1.0 -0.9652862108
O  O28  1  0.20080000  0.68500000  0.29900000  1.0 -0.9652862108
O  O29  1  0.20080000  0.81500000  0.29900000  1.0 -0.9652862108
O  O30  1  0.70080000  0.18500000  0.20100000  1.0 -0.9652862108
O  O31  1  0.29920000  0.68500000  0.79900000  1.0 -0.9652862108
O  O32  1  0.79920000  0.31500000  0.70100000  1.0 -0.9652862108
O  O33  1  0.75680000  0.07800000  0.75570000  1.0 -0.8822808943
O  O34  1  0.25680000  0.92200000  0.74430000  1.0 -0.8822808943
O  O35  1  0.74320000  0.42200000  0.25570000  1.0 -0.8822808943
O  O36  1  0.24320000  0.57800000  0.24430000  1.0 -0.8822808943
O  O37  1  0.24320000  0.92200000  0.24430000  1.0 -0.8822808943
O  O38  1  0.74320000  0.07800000  0.25570000  1.0 -0.8822808943
O  O39  1  0.25680000  0.57800000  0.74430000  1.0 -0.8822808943
O  O40  1  0.75680000  0.42200000  0.75570000  1.0 -0.8822808943
O  O41  1  0.60300000  0.25000000  0.70210000  1.0 -1.0421792424
O  O42  1  0.10300000  0.75000000  0.79790000  1.0 -1.0421792424
O  O43  1  0.89700000  0.25000000  0.20210000  1.0 -1.0421792424
O  O44  1  0.39700000  0.75000000  0.29790000  1.0 -1.0421792424
O  O45  1  0.54380000  0.31740000  0.87620000  1.0 -1.0094938434
O  O46  1  0.04380000  0.68260000  0.62380000  1.0 -1.0094938434
O  O47  1  0.95620000  0.18260000  0.37620000  1.0 -1.0094938434
O  O48  1  0.45620000  0.81740000  0.12380000  1.0 -1.0094938434
O  O49  1  0.45620000  0.68260000  0.12380000  1.0 -1.0094938434
O  O50  1  0.95620000  0.31740000  0.37620000  1.0 -1.0094938434
O  O51  1  0.04380000  0.81740000  0.62380000  1.0 -1.0094938434
O  O52  1  0.54380000  0.18260000  0.87620000  1.0 -1.0094938434
O  O53  1  0.26760000  0.11320000  0.75940000  1.0 -0.7682559683
O  O54  1  0.76760000  0.88680000  0.74060000  1.0 -0.7682559683
O  O55  1  0.23240000  0.38680000  0.25940000  1.0 -0.7682559683
O  O56  1  0.73240000  0.61320000  0.24060000  1.0 -0.7682559683
O  O57  1  0.73240000  0.88680000  0.24060000  1.0 -0.7682559683
O  O58  1  0.23240000  0.11320000  0.25940000  1.0 -0.7682559683
O  O59  1  0.76760000  0.61320000  0.74060000  1.0 -0.7682559683
O  O60  1  0.26760000  0.38680000  0.75940000  1.0 -0.7682559683
O  O61  1  0.59530000  0.10600000  0.69920000  1.0 -0.9586561477
O  O62  1  0.09530000  0.89400000  0.80080000  1.0 -0.9586561477
O  O63  1  0.90470000  0.39400000  0.19920000  1.0 -0.9586561477
O  O64  1  0.40470000  0.60600000  0.30080000  1.0 -0.9586561477
O  O65  1  0.40470000  0.89400000  0.30080000  1.0 -0.9586561477
O  O66  1  0.90470000  0.10600000  0.19920000  1.0 -0.9586561477
O  O67  1  0.09530000  0.60600000  0.80080000  1.0 -0.9586561477
O  O68  1  0.59530000  0.39400000  0.69920000  1.0 -0.9586561477
O  O69  1  0.47720000  0.10600000  0.77840000  1.0 -0.9263656295
O  O70  1  0.97720000  0.89400000  0.72160000  1.0 -0.9263656295
O  O71  1  0.02280000  0.39400000  0.27840000  1.0 -0.9263656295
O  O72  1  0.52280000  0.60600000  0.22160000  1.0 -0.9263656295
O  O73  1  0.52280000  0.89400000  0.22160000  1.0 -0.9263656295
O  O74  1  0.02280000  0.10600000  0.27840000  1.0 -0.9263656295
O  O75  1  0.97720000  0.60600000  0.72160000  1.0 -0.9263656295
O  O76  1  0.47720000  0.39400000  0.77840000  1.0 -0.9263656295
O  O77  1  0.66200000  0.31580000  0.78330000  1.0 -1.0094938434
O  O78  1  0.16200000  0.68420000  0.71670000  1.0 -1.0094938434
O  O79  1  0.83800000  0.18420000  0.28330000  1.0 -1.0094938434
O  O80  1  0.33800000  0.81580000  0.21670000  1.0 -1.0094938434
O  O81  1  0.33800000  0.68420000  0.21670000  1.0 -1.0094938434
O  O82  1  0.83800000  0.31580000  0.28330000  1.0 -1.0094938434
O  O83  1  0.16200000  0.81580000  0.71670000  1.0 -1.0094938434
O  O84  1  0.66200000  0.18420000  0.78330000  1.0 -1.0094938434
O  O85  1  0.81460000  0.35490000  0.83710000  1.0 -0.942718879
O  O86  1  0.31460000  0.64510000  0.66290000  1.0 -0.942718879
O  O87  1  0.68540000  0.14510000  0.33710000  1.0 -0.942718879
O  O88  1  0.18540000  0.85490000  0.16290000  1.0 -0.942718879
O  O89  1  0.18540000  0.64510000  0.16290000  1.0 -0.942718879
O  O90  1  0.68540000  0.35490000  0.33710000  1.0 -0.942718879
O  O91  1  0.31460000  0.85490000  0.66290000  1.0 -0.942718879
O  O92  1  0.81460000  0.14510000  0.83710000  1.0 -0.942718879
O  O93  1  0.41960000  0.17060000  0.69940000  1.0 -0.9499928127
O  O94  1  0.91960000  0.82940000  0.80060000  1.0 -0.9499928127
O  O95  1  0.08040000  0.32940000  0.19940000  1.0 -0.9499928127
O  O96  1  0.58040000  0.67060000  0.30060000  1.0 -0.9499928127
O  O97  1  0.58040000  0.82940000  0.30060000  1.0 -0.9499928127
O  O98  1  0.08040000  0.17060000  0.19940000  1.0 -0.9499928127
O  O99  1  0.91960000  0.67060000  0.80060000  1.0 -0.9499928127
O  O100  1  0.41960000  0.32940000  0.69940000  1.0 -0.9499928127
O  O101  1  0.48800000  0.25000000  0.62610000  1.0 -0.9499928127
O  O102  1  0.98800000  0.75000000  0.87390000  1.0 -0.9499928127
O  O103  1  0.01200000  0.25000000  0.12610000  1.0 -0.9499928127
O  O104  1  0.51200000  0.75000000  0.37390000  1.0 -0.9499928127
O  O105  1  0.63840000  0.42180000  0.83640000  1.0 -0.9499928127
O  O106  1  0.13840000  0.57820000  0.66360000  1.0 -0.9499928127
O  O107  1  0.86160000  0.07820000  0.33640000  1.0 -0.9499928127
O  O108  1  0.36160000  0.92180000  0.16360000  1.0 -0.9499928127
O  O109  1  0.36160000  0.57820000  0.16360000  1.0 -0.9499928127
O  O110  1  0.86160000  0.42180000  0.33640000  1.0 -0.9499928127
O  O111  1  0.13840000  0.92180000  0.66360000  1.0 -0.9499928127
O  O112  1  0.63840000  0.07820000  0.83640000  1.0 -0.9499928127
O  O113  1  0.85820000  0.25000000  0.77890000  1.0 -0.9115977145
O  O114  1  0.35820000  0.75000000  0.72110000  1.0 -0.9115977145
O  O115  1  0.64180000  0.25000000  0.27890000  1.0 -0.9115977145
O  O116  1  0.14180000  0.75000000  0.22110000  1.0 -0.9115977145
O  O117  1  0.59330000  0.99120000  0.75790000  1.0 -0.747424916
O  O118  1  0.09330000  0.00880000  0.74210000  1.0 -0.747424916
O  O119  1  0.90670000  0.50880000  0.25790000  1.0 -0.747424916
O  O120  1  0.40670000  0.49120000  0.24210000  1.0 -0.747424916
O  O121  1  0.40670000  0.00880000  0.24210000  1.0 -0.747424916
O  O122  1  0.90670000  0.99120000  0.25790000  1.0 -0.747424916
O  O123  1  0.09330000  0.49120000  0.74210000  1.0 -0.747424916
O  O124  1  0.59330000  0.50880000  0.75790000  1.0 -0.747424916
O  O125  1  0.48660000  0.25000000  0.78460000  1.0 -1.0273235298
O  O126  1  0.98660000  0.75000000  0.71540000  1.0 -1.0273235298
O  O127  1  0.01340000  0.25000000  0.28460000  1.0 -1.0273235298
O  O128  1  0.51340000  0.75000000  0.21540000  1.0 -1.0273235298
O  O129  1  0.95390000  0.12810000  0.75900000  1.0 -0.7682559683
O  O130  1  0.45390000  0.87190000  0.74100000  1.0 -0.7682559683
O  O131  1  0.54610000  0.37190000  0.25900000  1.0 -0.7682559683
O  O132  1  0.04610000  0.62810000  0.24100000  1.0 -0.7682559683
O  O133  1  0.04610000  0.87190000  0.24100000  1.0 -0.7682559683
O  O134  1  0.54610000  0.12810000  0.25900000  1.0 -0.7682559683
O  O135  1  0.45390000  0.62810000  0.74100000  1.0 -0.7682559683
O  O136  1  0.95390000  0.37190000  0.75900000  1.0 -0.7682559683
