# DDEC6 charges by PACMAN v1.1 (https://github.com/mtap-research/PACMAN-charge/)
data_ELUJAY_ASR_pacman
_symmetry_space_group_name_H-M   'P 1'
_cell_length_a   15.26870000
_cell_length_b   15.26870000
_cell_length_c   15.26870000
_cell_angle_alpha   128.86600000
_cell_angle_beta   127.98600000
_cell_angle_gamma   75.93800000
_symmetry_Int_Tables_number   1
_chemical_formula_structural   Sm2ZnH12C32(NO4)4
_chemical_formula_sum   'Sm4 Zn2 H24 C64 N8 O32'
_cell_volume   2124.12474234
_cell_formula_units_Z   2
loop_
 _symmetry_equiv_pos_site_id
 _symmetry_equiv_pos_as_xyz
  1  'x, y, z'
loop_
 _atom_site_type_symbol
 _atom_site_label
 _atom_site_symmetry_multiplicity
 _atom_site_fract_x
 _atom_site_fract_y
 _atom_site_fract_z
 _atom_site_occupancy
 _atom_site_charge
Sm  Sm1  1  0.28406000  0.45951000  0.05761000  1.0 2.0292435832
Sm  Sm2  1  0.71594000  0.77355000  0.17545000  1.0 2.0292435832
Sm  Sm3  1  0.40190000  0.95951000  0.67545000  1.0 2.0292435832
Sm  Sm4  1  0.59810000  0.27355000  0.55761000  1.0 2.0292435832
Zn  Zn1  1  0.50000000  0.11790000  0.61790000  1.0 1.036082203
Zn  Zn2  1  0.50000000  0.61790000  0.11790000  1.0 1.036082203
H  H1  1  0.83170000  0.08870000  0.88880000  1.0 0.1183476098
H  H2  1  0.16830000  0.05710000  0.25700000  1.0 0.1183476098
H  H3  1  0.19990000  0.58870000  0.75700000  1.0 0.1183476098
H  H4  1  0.80010000  0.55710000  0.38880000  1.0 0.1183476098
H  H5  1  0.92810000  0.28200000  0.85770000  1.0 0.1468762405
H  H6  1  0.07190000  0.92960000  0.35390000  1.0 0.1468762405
H  H7  1  0.42430000  0.78200000  0.85390000  1.0 0.1468762405
H  H8  1  0.57570000  0.42960000  0.35770000  1.0 0.1468762405
H  H9  1  0.16430000  0.23540000  0.14430000  1.0 0.1413590086
H  H10  1  0.83570000  0.98000000  0.07110000  1.0 0.1413590086
H  H11  1  0.09110000  0.73540000  0.57110000  1.0 0.1413590086
H  H12  1  0.90890000  0.48000000  0.64430000  1.0 0.1413590086
H  H13  1  0.39830000  0.34430000  0.76060000  1.0 0.131686727
H  H14  1  0.60170000  0.36230000  0.94600000  1.0 0.131686727
H  H15  1  0.58370000  0.84430000  0.44600000  1.0 0.131686727
H  H16  1  0.41630000  0.86230000  0.26060000  1.0 0.131686727
H  H17  1  0.05890000  0.33360000  0.56490000  1.0 0.1413590086
H  H18  1  0.94110000  0.50600000  0.27470000  1.0 0.1413590086
H  H19  1  0.76870000  0.83360000  0.77470000  1.0 0.1413590086
H  H20  1  0.23130000  0.00600000  0.06490000  1.0 0.1413590086
H  H21  1  0.19870000  0.31170000  0.40040000  1.0 0.131686727
H  H22  1  0.80130000  0.20170000  0.11300000  1.0 0.131686727
H  H23  1  0.91130000  0.81170000  0.61300000  1.0 0.131686727
H  H24  1  0.08870000  0.70170000  0.90040000  1.0 0.131686727
C  C1  1  0.41120000  0.30140000  0.57280000  1.0 0.5758441337
C  C2  1  0.58880000  0.16160000  0.89020000  1.0 0.5758441337
C  C3  1  0.72860000  0.80140000  0.39020000  1.0 0.5758441337
C  C4  1  0.27140000  0.66160000  0.07280000  1.0 0.5758441337
C  C5  1  0.88780000  0.13680000  0.92000000  1.0 -0.1506623613
C  C6  1  0.11220000  0.03220000  0.24900000  1.0 -0.1506623613
C  C7  1  0.21680000  0.63680000  0.74900000  1.0 -0.1506623613
C  C8  1  0.78320000  0.53220000  0.42000000  1.0 -0.1506623613
C  C9  1  0.05860000  0.27130000  0.00690000  1.0 0.0151047506
C  C10  1  0.94140000  0.94830000  0.21270000  1.0 0.0151047506
C  C11  1  0.26440000  0.77130000  0.71270000  1.0 0.0151047506
C  C12  1  0.73560000  0.44830000  0.50690000  1.0 0.0151047506
C  C13  1  0.85640000  0.18990000  0.85970000  1.0 -0.052832523
C  C14  1  0.14360000  0.00330000  0.33350000  1.0 -0.052832523
C  C15  1  0.33020000  0.68990000  0.83350000  1.0 -0.052832523
C  C16  1  0.66980000  0.50330000  0.35970000  1.0 -0.052832523
C  C17  1  0.94620000  0.25190000  0.90290000  1.0 -0.0944551132
C  C18  1  0.05380000  0.95670000  0.30570000  1.0 -0.0944551132
C  C19  1  0.34900000  0.75190000  0.80570000  1.0 -0.0944551132
C  C20  1  0.65100000  0.45670000  0.40290000  1.0 -0.0944551132
C  C21  1  0.73810000  0.18140000  0.75630000  1.0 0.6272324868
C  C22  1  0.26190000  0.01820000  0.44330000  1.0 0.6272324868
C  C23  1  0.42510000  0.68140000  0.94330000  1.0 0.6272324868
C  C24  1  0.57490000  0.51820000  0.25630000  1.0 0.6272324868
C  C25  1  0.08820000  0.22230000  0.07210000  1.0 -0.1443404794
C  C26  1  0.91180000  0.98390000  0.13410000  1.0 -0.1443404794
C  C27  1  0.15020000  0.72230000  0.63410000  1.0 -0.1443404794
C  C28  1  0.84980000  0.48390000  0.57210000  1.0 -0.1443404794
C  C29  1  0.00480000  0.15530000  0.02890000  1.0 0.1413590086
C  C30  1  0.99520000  0.02410000  0.15050000  1.0 0.1413590086
C  C31  1  0.12640000  0.65530000  0.65050000  1.0 0.1413590086
C  C32  1  0.87360000  0.52410000  0.52890000  1.0 0.1413590086
C  C33  1  0.14980000  0.34450000  0.04830000  1.0 0.5561356493
C  C34  1  0.85020000  0.89850000  0.19470000  1.0 0.5561356493
C  C35  1  0.29620000  0.84450000  0.69470000  1.0 0.5561356493
C  C36  1  0.70380000  0.39850000  0.54830000  1.0 0.5561356493
C  C37  1  0.25010000  0.37680000  0.80790000  1.0 0.5758441337
C  C38  1  0.74990000  0.55780000  0.12670000  1.0 0.5758441337
C  C39  1  0.56890000  0.87680000  0.62670000  1.0 0.5758441337
C  C40  1  0.43110000  0.05780000  0.30790000  1.0 0.5758441337
C  C41  1  0.32700000  0.33740000  0.68660000  1.0 -0.1060398142
C  C42  1  0.67300000  0.35960000  0.01040000  1.0 -0.1060398142
C  C43  1  0.65080000  0.83740000  0.51040000  1.0 -0.1060398142
C  C44  1  0.34920000  0.85960000  0.18660000  1.0 -0.1060398142
C  C45  1  0.31070000  0.31630000  0.57240000  1.0 -0.0082585114
C  C46  1  0.68930000  0.26170000  0.00560000  1.0 -0.0082585114
C  C47  1  0.74390000  0.81630000  0.50560000  1.0 -0.0082585114
C  C48  1  0.25610000  0.76170000  0.07240000  1.0 -0.0082585114
C  C49  1  0.23190000  0.34780000  0.68450000  1.0 -0.0082585114
C  C50  1  0.76810000  0.45260000  0.11590000  1.0 -0.0082585114
C  C51  1  0.66330000  0.84780000  0.61590000  1.0 -0.0082585114
C  C52  1  0.33670000  0.95260000  0.18450000  1.0 -0.0082585114
C  C53  1  0.12260000  0.33380000  0.56960000  1.0 -0.1506623613
C  C54  1  0.87740000  0.44700000  0.21120000  1.0 -0.1506623613
C  C55  1  0.76420000  0.83380000  0.71120000  1.0 -0.1506623613
C  C56  1  0.23580000  0.94700000  0.06960000  1.0 -0.1506623613
C  C57  1  0.20610000  0.31550000  0.46800000  1.0 -0.1506623613
C  C58  1  0.79390000  0.26190000  0.10940000  1.0 -0.1506623613
C  C59  1  0.84750000  0.81550000  0.60940000  1.0 -0.1506623613
C  C60  1  0.15250000  0.76190000  0.96800000  1.0 -0.1506623613
C  C61  1  0.11150000  0.32050000  0.46640000  1.0 0.1468762405
C  C62  1  0.88850000  0.35490000  0.20900000  1.0 0.1468762405
C  C63  1  0.85410000  0.82050000  0.70900000  1.0 0.1468762405
C  C64  1  0.14590000  0.85490000  0.96640000  1.0 0.1468762405
N  N1  1  0.03910000  0.10890000  0.10020000  1.0 -0.0800691895
N  N2  1  0.96090000  0.06110000  0.06980000  1.0 -0.0800691895
N  N3  1  0.00870000  0.60890000  0.56980000  1.0 -0.0800691895
N  N4  1  0.99130000  0.56110000  0.60020000  1.0 -0.0800691895
N  N5  1  0.00100000  0.31320000  0.36040000  1.0 -0.1506623613
N  N6  1  0.99900000  0.35940000  0.31220000  1.0 -0.1506623613
N  N7  1  0.95280000  0.81320000  0.81220000  1.0 -0.1506623613
N  N8  1  0.04720000  0.85940000  0.86040000  1.0 -0.1506623613
O  O1  1  0.41100000  0.32100000  0.50720000  1.0 -0.5418329887
O  O2  1  0.58900000  0.09620000  0.91000000  1.0 -0.5418329887
O  O3  1  0.81380000  0.82100000  0.41000000  1.0 -0.5418329887
O  O4  1  0.18620000  0.59620000  0.00720000  1.0 -0.5418329887
O  O5  1  0.49370000  0.27300000  0.64430000  1.0 -0.6420393042
O  O6  1  0.50630000  0.15060000  0.77930000  1.0 -0.6420393042
O  O7  1  0.62870000  0.77300000  0.27930000  1.0 -0.6420393042
O  O8  1  0.37130000  0.65060000  0.14430000  1.0 -0.6420393042
O  O9  1  0.25180000  0.36470000  0.13890000  1.0 -0.5594062261
O  O10  1  0.74820000  0.88710000  0.11290000  1.0 -0.5594062261
O  O11  1  0.22580000  0.86470000  0.61290000  1.0 -0.5594062261
O  O12  1  0.77420000  0.38710000  0.63890000  1.0 -0.5594062261
O  O13  1  0.11100000  0.36770000  0.96390000  1.0 -0.6477653436
O  O14  1  0.88900000  0.85290000  0.25670000  1.0 -0.6477653436
O  O15  1  0.40380000  0.86770000  0.75670000  1.0 -0.6477653436
O  O16  1  0.59620000  0.35290000  0.46390000  1.0 -0.6477653436
O  O17  1  0.66360000  0.12030000  0.71930000  1.0 -0.5241082363
O  O18  1  0.33640000  0.05570000  0.45670000  1.0 -0.5241082363
O  O19  1  0.40100000  0.62030000  0.95670000  1.0 -0.5241082363
O  O20  1  0.59900000  0.55570000  0.21930000  1.0 -0.5241082363
O  O21  1  0.72130000  0.23710000  0.71420000  1.0 -0.6720407061
O  O22  1  0.27870000  0.99290000  0.51580000  1.0 -0.6720407061
O  O23  1  0.52290000  0.73710000  0.01580000  1.0 -0.6720407061
O  O24  1  0.47710000  0.49290000  0.21420000  1.0 -0.6720407061
O  O25  1  0.16620000  0.35970000  0.79870000  1.0 -0.609087532
O  O26  1  0.83380000  0.63250000  0.19350000  1.0 -0.609087532
O  O27  1  0.56100000  0.85970000  0.69350000  1.0 -0.609087532
O  O28  1  0.43900000  0.13250000  0.29870000  1.0 -0.609087532
O  O29  1  0.35440000  0.42600000  0.92940000  1.0 -0.7038124852
O  O30  1  0.64560000  0.57500000  0.07160000  1.0 -0.7038124852
O  O31  1  0.49660000  0.92600000  0.57160000  1.0 -0.7038124852
O  O32  1  0.50340000  0.07500000  0.42940000  1.0 -0.7038124852
