# DDEC6 charges by PACMAN v1.1 (https://github.com/mtap-research/PACMAN-charge/)
data_EMAMUC_FSR_pacman
_symmetry_space_group_name_H-M   'P 1'
_cell_length_a   18.73920000
_cell_length_b   18.73920000
_cell_length_c   9.18340000
_cell_angle_alpha   76.82570000
_cell_angle_beta   103.17400000
_cell_angle_gamma   138.29900000
_symmetry_Int_Tables_number   1
_chemical_formula_structural   NiH16C16(N2O3)2
_chemical_formula_sum   'Ni4 H64 C64 N16 O24'
_cell_volume   2080.51300635
_cell_formula_units_Z   4
loop_
 _symmetry_equiv_pos_site_id
 _symmetry_equiv_pos_as_xyz
  1  'x, y, z'
loop_
 _atom_site_type_symbol
 _atom_site_label
 _atom_site_symmetry_multiplicity
 _atom_site_fract_x
 _atom_site_fract_y
 _atom_site_fract_z
 _atom_site_occupancy
 _atom_site_charge
Ni  Ni1  1  0.41492000  0.15178000  0.95245000  1.0 0.833239971
Ni  Ni2  1  0.15178000  0.41492000  0.54755000  1.0 0.833239971
Ni  Ni3  1  0.58508000  0.84822000  0.04755000  1.0 0.833239971
Ni  Ni4  1  0.84822000  0.58508000  0.45245000  1.0 0.833239971
H  H1  1  0.43730000  0.18990000  0.61750000  1.0 0.1105586796
H  H2  1  0.18990000  0.43730000  0.88250000  1.0 0.1105586796
H  H3  1  0.56270000  0.81010000  0.38250000  1.0 0.1105586796
H  H4  1  0.81010000  0.56270000  0.11750000  1.0 0.1105586796
H  H5  1  0.34110000  0.14410000  0.17870000  1.0 0.3981091588
H  H6  1  0.14410000  0.34110000  0.32130000  1.0 0.3981091588
H  H7  1  0.65890000  0.85590000  0.82130000  1.0 0.3981091588
H  H8  1  0.85590000  0.65890000  0.67870000  1.0 0.3981091588
H  H9  1  0.41640000  0.26300000  0.09250000  1.0 0.3981091588
H  H10  1  0.26300000  0.41640000  0.40750000  1.0 0.3981091588
H  H11  1  0.58360000  0.73700000  0.90750000  1.0 0.3981091588
H  H12  1  0.73700000  0.58360000  0.59250000  1.0 0.3981091588
H  H13  1  0.59570000  0.36330000  0.89450000  1.0 0.4190987034
H  H14  1  0.36330000  0.59570000  0.60550000  1.0 0.4190987034
H  H15  1  0.40430000  0.63670000  0.10550000  1.0 0.4190987034
H  H16  1  0.63670000  0.40430000  0.39450000  1.0 0.4190987034
H  H17  1  0.49790000  0.33530000  0.78610000  1.0 0.3795742078
H  H18  1  0.33530000  0.49790000  0.71390000  1.0 0.3795742078
H  H19  1  0.50210000  0.66470000  0.21390000  1.0 0.3795742078
H  H20  1  0.66470000  0.50210000  0.28610000  1.0 0.3795742078
H  H21  1  0.21050000  0.82750000  0.33530000  1.0 0.1301119535
H  H22  1  0.82750000  0.21050000  0.16470000  1.0 0.1301119535
H  H23  1  0.78950000  0.17250000  0.66470000  1.0 0.1301119535
H  H24  1  0.17250000  0.78950000  0.83530000  1.0 0.1301119535
H  H25  1  0.31000000  0.72220000  0.13890000  1.0 0.1301119535
H  H26  1  0.72220000  0.31000000  0.36110000  1.0 0.1301119535
H  H27  1  0.69000000  0.27780000  0.86110000  1.0 0.1301119535
H  H28  1  0.27780000  0.69000000  0.63890000  1.0 0.1301119535
H  H29  1  0.45500000  0.02600000  0.93990000  1.0 0.1105586796
H  H30  1  0.02600000  0.45500000  0.56010000  1.0 0.1105586796
H  H31  1  0.54500000  0.97400000  0.06010000  1.0 0.1105586796
H  H32  1  0.97400000  0.54500000  0.43990000  1.0 0.1105586796
H  H33  1  0.48250000  0.97430000  0.77530000  1.0 0.1396059229
H  H34  1  0.97430000  0.48250000  0.72470000  1.0 0.1396059229
H  H35  1  0.51750000  0.02570000  0.22470000  1.0 0.1396059229
H  H36  1  0.02570000  0.51750000  0.27530000  1.0 0.1396059229
H  H37  1  0.29780000  0.84840000  0.10620000  1.0 0.1105586796
H  H38  1  0.84840000  0.29780000  0.39380000  1.0 0.1105586796
H  H39  1  0.70220000  0.15160000  0.89380000  1.0 0.1105586796
H  H40  1  0.15160000  0.70220000  0.60620000  1.0 0.1105586796
H  H41  1  0.45880000  0.13940000  0.44220000  1.0 0.1490818693
H  H42  1  0.13940000  0.45880000  0.05780000  1.0 0.1490818693
H  H43  1  0.54120000  0.86060000  0.55780000  1.0 0.1490818693
H  H44  1  0.86060000  0.54120000  0.94220000  1.0 0.1490818693
H  H45  1  0.21150000  0.69370000  0.35970000  1.0 0.1105586796
H  H46  1  0.69370000  0.21150000  0.14030000  1.0 0.1105586796
H  H47  1  0.78850000  0.30630000  0.64030000  1.0 0.1105586796
H  H48  1  0.30630000  0.78850000  0.85970000  1.0 0.1105586796
H  H49  1  0.04390000  0.90250000  0.68070000  1.0 0.1396059229
H  H50  1  0.90250000  0.04390000  0.81930000  1.0 0.1396059229
H  H51  1  0.95610000  0.09750000  0.31930000  1.0 0.1396059229
H  H52  1  0.09750000  0.95610000  0.18070000  1.0 0.1396059229
H  H53  1  0.18670000  0.95370000  0.84510000  1.0 0.1214887185
H  H54  1  0.95370000  0.18670000  0.65490000  1.0 0.1214887185
H  H55  1  0.81330000  0.04630000  0.15490000  1.0 0.1214887185
H  H56  1  0.04630000  0.81330000  0.34510000  1.0 0.1214887185
H  H57  1  0.22190000  0.21290000  0.57000000  1.0 0.1396059229
H  H58  1  0.21290000  0.22190000  0.93000000  1.0 0.1396059229
H  H59  1  0.77810000  0.78710000  0.43000000  1.0 0.1396059229
H  H60  1  0.78710000  0.77810000  0.07000000  1.0 0.1396059229
H  H61  1  0.35700000  0.25540000  0.74150000  1.0 0.0833265297
H  H62  1  0.25540000  0.35700000  0.75850000  1.0 0.0833265297
H  H63  1  0.64300000  0.74460000  0.25850000  1.0 0.0833265297
H  H64  1  0.74460000  0.64300000  0.24150000  1.0 0.0850706084
C  C1  1  0.44562000  0.14538000  0.64890000  1.0 0.0833265297
C  C2  1  0.14538000  0.44562000  0.85110000  1.0 0.0833265297
C  C3  1  0.55438000  0.85462000  0.35110000  1.0 0.0833265297
C  C4  1  0.85462000  0.55438000  0.14890000  1.0 0.0833265297
C  C5  1  0.24731000  0.86109000  0.24960000  1.0 -0.2377023303
C  C6  1  0.86109000  0.24731000  0.25040000  1.0 -0.2377023303
C  C7  1  0.75269000  0.13891000  0.75040000  1.0 -0.2377023303
C  C8  1  0.13891000  0.75269000  0.74960000  1.0 -0.2377023303
C  C9  1  0.27634000  0.69046000  0.22730000  1.0 -0.2457459585
C  C10  1  0.69046000  0.27634000  0.27270000  1.0 -0.2457459585
C  C11  1  0.72366000  0.30954000  0.77270000  1.0 -0.2457459585
C  C12  1  0.30954000  0.72366000  0.72730000  1.0 -0.2457459585
C  C13  1  0.45674000  0.04946000  0.83870000  1.0 0.0850706084
C  C14  1  0.04946000  0.45674000  0.66130000  1.0 0.0850706084
C  C15  1  0.54326000  0.95054000  0.16130000  1.0 0.0850706084
C  C16  1  0.95054000  0.54326000  0.33870000  1.0 0.0850706084
C  C17  1  0.47466000  0.05234000  0.59000000  1.0 0.2016962452
C  C18  1  0.05234000  0.47466000  0.91000000  1.0 0.2016962452
C  C19  1  0.52534000  0.94766000  0.41000000  1.0 0.2016962452
C  C20  1  0.94766000  0.52534000  0.09000000  1.0 0.2016962452
C  C21  1  0.47295000  0.01765000  0.74120000  1.0 -0.2009806947
C  C22  1  0.01765000  0.47295000  0.75880000  1.0 -0.2009806947
C  C23  1  0.52705000  0.98235000  0.25880000  1.0 -0.2009806947
C  C24  1  0.98235000  0.52705000  0.24120000  1.0 -0.2009806947
C  C25  1  0.26797000  0.81843000  0.19770000  1.0 -0.0666608806
C  C26  1  0.81843000  0.26797000  0.30230000  1.0 -0.0666608806
C  C27  1  0.73203000  0.18157000  0.80230000  1.0 -0.0666608806
C  C28  1  0.18157000  0.73203000  0.69770000  1.0 -0.0666608806
C  C29  1  0.45947000  0.11653000  0.54320000  1.0 -0.1779183464
C  C30  1  0.11653000  0.45947000  0.95680000  1.0 -0.1779183464
C  C31  1  0.54053000  0.88347000  0.45680000  1.0 -0.1779183464
C  C32  1  0.88347000  0.54053000  0.04320000  1.0 -0.1779183464
C  C33  1  0.25702000  0.59998000  0.31120000  1.0 0.6103280319
C  C34  1  0.59998000  0.25702000  0.18880000  1.0 0.6103280319
C  C35  1  0.74298000  0.40002000  0.68880000  1.0 0.6103280319
C  C36  1  0.40002000  0.74298000  0.81120000  1.0 0.6103280319
C  C37  1  0.28071000  0.96169000  0.17620000  1.0 0.6103280319
C  C38  1  0.96169000  0.28071000  0.32380000  1.0 0.6103280319
C  C39  1  0.71929000  0.03831000  0.82380000  1.0 0.6103280319
C  C40  1  0.03831000  0.71929000  0.67620000  1.0 0.6103280319
C  C41  1  0.24739000  0.72781000  0.27310000  1.0 -0.0666608806
C  C42  1  0.72781000  0.24739000  0.22690000  1.0 -0.0666608806
C  C43  1  0.75261000  0.27219000  0.72690000  1.0 -0.0666608806
C  C44  1  0.27219000  0.75261000  0.77310000  1.0 -0.0666608806
C  C45  1  0.10740000  0.97500000  0.69100000  1.0 -0.1888133825
C  C46  1  0.97500000  0.10740000  0.80900000  1.0 -0.1888133825
C  C47  1  0.89260000  0.02500000  0.30900000  1.0 -0.1888133825
C  C48  1  0.02500000  0.89260000  0.19100000  1.0 -0.1888133825
C  C49  1  0.11820000  0.05300000  0.60940000  1.0 0.1591646133
C  C50  1  0.05300000  0.11820000  0.89060000  1.0 0.1591646133
C  C51  1  0.88180000  0.94700000  0.39060000  1.0 0.1591646133
C  C52  1  0.94700000  0.88180000  0.10940000  1.0 0.1591646133
C  C53  1  0.19385000  0.00675000  0.79000000  1.0 0.1105586796
C  C54  1  0.00675000  0.19385000  0.71000000  1.0 0.1105586796
C  C55  1  0.80615000  0.99325000  0.21000000  1.0 0.1105586796
C  C56  1  0.99325000  0.80615000  0.29000000  1.0 0.1105586796
C  C57  1  0.21245000  0.15855000  0.62620000  1.0 -0.2009806947
C  C58  1  0.15855000  0.21245000  0.87380000  1.0 -0.2009806947
C  C59  1  0.78755000  0.84145000  0.37380000  1.0 -0.2009806947
C  C60  1  0.84145000  0.78755000  0.12620000  1.0 -0.2009806947
C  C61  1  0.29345000  0.18335000  0.72810000  1.0 0.0344380338
C  C62  1  0.18335000  0.29345000  0.77190000  1.0 0.0344380338
C  C63  1  0.70655000  0.81665000  0.27190000  1.0 0.0344380338
C  C64  1  0.81665000  0.70655000  0.22810000  1.0 0.0344380338
N  N1  1  0.44319000  0.11281000  0.79580000  1.0 -0.2377023303
N  N2  1  0.11281000  0.44319000  0.70420000  1.0 -0.2377023303
N  N3  1  0.55681000  0.88719000  0.20420000  1.0 -0.2377023303
N  N4  1  0.88719000  0.55681000  0.29580000  1.0 -0.2377023303
N  N5  1  0.28497000  0.10803000  0.80930000  1.0 -0.2377023303
N  N6  1  0.10803000  0.28497000  0.69070000  1.0 -0.2377023303
N  N7  1  0.71503000  0.89197000  0.19070000  1.0 -0.2377023303
N  N8  1  0.89197000  0.71503000  0.30930000  1.0 -0.2377023303
N  N9  1  0.49035000  0.02645000  0.47490000  1.0 -0.1003568189
N  N10  1  0.02645000  0.49035000  0.02510000  1.0 -0.1003568189
N  N11  1  0.50965000  0.97355000  0.52510000  1.0 -0.1003568189
N  N12  1  0.97355000  0.50965000  0.97490000  1.0 -0.1003568189
N  N13  1  0.03630000  0.04390000  0.48550000  1.0 -0.0666608806
N  N14  1  0.04390000  0.03630000  0.01450000  1.0 -0.0666608806
N  N15  1  0.96370000  0.95610000  0.51450000  1.0 -0.0624468566
N  N16  1  0.95610000  0.96370000  0.98550000  1.0 -0.0666608806
O  O1  1  0.38534000  0.19406000  0.10210000  1.0 -0.7424342351
O  O2  1  0.19406000  0.38534000  0.39790000  1.0 -0.7424342351
O  O3  1  0.61466000  0.80594000  0.89790000  1.0 -0.7424342351
O  O4  1  0.80594000  0.61466000  0.60210000  1.0 -0.7424342351
O  O5  1  0.26624000  0.00116000  0.24210000  1.0 -0.578900458
O  O6  1  0.00116000  0.26624000  0.25790000  1.0 -0.578900458
O  O7  1  0.73376000  0.99884000  0.75790000  1.0 -0.578900458
O  O8  1  0.99884000  0.73376000  0.74210000  1.0 -0.578900458
O  O9  1  0.19436000  0.54444000  0.41290000  1.0 -0.5502496378
O  O10  1  0.54444000  0.19436000  0.08710000  1.0 -0.5502496378
O  O11  1  0.80564000  0.45556000  0.58710000  1.0 -0.5502496378
O  O12  1  0.45556000  0.80564000  0.91290000  1.0 -0.5502496378
O  O13  1  0.52300000  0.31360000  0.86060000  1.0 -0.7424342351
O  O14  1  0.31360000  0.52300000  0.63940000  1.0 -0.7424342351
O  O15  1  0.47700000  0.68640000  0.13940000  1.0 -0.7424342351
O  O16  1  0.68640000  0.47700000  0.36060000  1.0 -0.7424342351
O  O17  1  0.32186000  0.99914000  0.05240000  1.0 -0.578900458
O  O18  1  0.99914000  0.32186000  0.44760000  1.0 -0.578900458
O  O19  1  0.67814000  0.00086000  0.94760000  1.0 -0.578900458
O  O20  1  0.00086000  0.67814000  0.55240000  1.0 -0.578900458
O  O21  1  0.30566000  0.58414000  0.27480000  1.0 -0.578900458
O  O22  1  0.58414000  0.30566000  0.22520000  1.0 -0.578900458
O  O23  1  0.69434000  0.41586000  0.72520000  1.0 -0.578900458
O  O24  1  0.41586000  0.69434000  0.77480000  1.0 -0.578900458
