# DDEC6 charges by PACMAN v1.1 (https://github.com/mtap-research/PACMAN-charge/)
data_EMEHOW_ASR_pacman
_symmetry_space_group_name_H-M   'P 1'
_cell_length_a   19.16830000
_cell_length_b   19.16830000
_cell_length_c   16.77200000
_cell_angle_alpha   81.95020000
_cell_angle_beta   98.04980000
_cell_angle_gamma   58.91810000
_symmetry_Int_Tables_number   1
_chemical_formula_structural   Ni5H52C96(N4O9)2
_chemical_formula_sum   'Ni5 H52 C96 N8 O18'
_cell_volume   5059.22629561
_cell_formula_units_Z   1
loop_
 _symmetry_equiv_pos_site_id
 _symmetry_equiv_pos_as_xyz
  1  'x, y, z'
loop_
 _atom_site_type_symbol
 _atom_site_label
 _atom_site_symmetry_multiplicity
 _atom_site_fract_x
 _atom_site_fract_y
 _atom_site_fract_z
 _atom_site_occupancy
 _atom_site_charge
Ni  Ni1  1  0.75596000  0.75596000  0.00000000  1.0 0.4666201653
Ni  Ni2  1  0.24404000  0.24404000  0.00000000  1.0 0.4666201653
Ni  Ni3  1  0.19204000  0.80796000  0.53180000  1.0 0.9697193833
Ni  Ni4  1  0.80796000  0.19204000  0.46820000  1.0 0.9697193833
Ni  Ni5  1  0.00000000  0.00000000  0.50000000  1.0 0.9782443078
H  H1  1  0.91996000  0.88440000  0.07669000  1.0 0.129188547
H  H2  1  0.65913000  0.56021000  0.06407000  1.0 0.129188547
H  H3  1  0.91280000  0.66856000  0.29970000  1.0 0.129188547
H  H4  1  0.87633000  0.56617000  0.28876000  1.0 0.129188547
H  H5  1  0.02721000  0.69771000  0.24387000  1.0 0.1196273106
H  H6  1  0.81203000  0.91975000  0.20909000  1.0 0.1196273106
H  H7  1  0.70086000  0.56870000  0.24387000  1.0 0.1196273106
H  H8  1  0.89640000  0.43717000  0.15501000  1.0 0.1196273106
H  H9  1  0.09065000  0.72611000  0.34918000  1.0 0.129188547
H  H10  1  0.87465000  0.94741000  0.31369000  1.0 0.1350273075
H  H11  1  0.72538000  0.44354000  0.32300000  1.0 0.129188547
H  H12  1  0.93077000  0.31393000  0.24261000  1.0 0.1196273106
H  H13  1  0.13159000  0.91519000  0.61639000  1.0 0.3951815995
H  H14  1  0.88440000  0.91996000  0.92331000  1.0 0.129188547
H  H15  1  0.56021000  0.65913000  0.93593000  1.0 0.129188547
H  H16  1  0.66856000  0.91280000  0.70030000  1.0 0.129188547
H  H17  1  0.56617000  0.87633000  0.71124000  1.0 0.129188547
H  H18  1  0.69771000  0.02721000  0.75613000  1.0 0.1196273106
H  H19  1  0.91975000  0.81203000  0.79091000  1.0 0.1196273106
H  H20  1  0.56870000  0.70086000  0.75613000  1.0 0.1196273106
H  H21  1  0.43717000  0.89641000  0.84499000  1.0 0.1196273106
H  H22  1  0.72611000  0.09065000  0.65082000  1.0 0.129188547
H  H23  1  0.94741000  0.87465000  0.68631000  1.0 0.1350273075
H  H24  1  0.44354000  0.72538000  0.67700000  1.0 0.129188547
H  H25  1  0.31393000  0.93077000  0.75739000  1.0 0.1196273106
H  H26  1  0.91519000  0.13159000  0.38361000  1.0 0.3951815995
H  H27  1  0.08004000  0.11560000  0.92331000  1.0 0.129188547
H  H28  1  0.34087000  0.43979000  0.93593000  1.0 0.129188547
H  H29  1  0.08720000  0.33144000  0.70030000  1.0 0.129188547
H  H30  1  0.12367000  0.43383000  0.71124000  1.0 0.129188547
H  H31  1  0.97279000  0.30229000  0.75613000  1.0 0.1196273106
H  H32  1  0.18797000  0.08025000  0.79091000  1.0 0.1196273106
H  H33  1  0.29914000  0.43130000  0.75613000  1.0 0.1196273106
H  H34  1  0.10360000  0.56282000  0.84499000  1.0 0.1196273106
H  H35  1  0.90935000  0.27389000  0.65082000  1.0 0.129188547
H  H36  1  0.12535000  0.05259000  0.68631000  1.0 0.1350273075
H  H37  1  0.27462000  0.55646000  0.67700000  1.0 0.129188547
H  H38  1  0.06923000  0.68607000  0.75739000  1.0 0.1196273106
H  H39  1  0.86841000  0.08481000  0.38361000  1.0 0.3936633797
H  H40  1  0.11560000  0.08004000  0.07669000  1.0 0.129188547
H  H41  1  0.43979000  0.34087000  0.06407000  1.0 0.129188547
H  H42  1  0.33144000  0.08720000  0.29970000  1.0 0.129188547
H  H43  1  0.43383000  0.12367000  0.28876000  1.0 0.129188547
H  H44  1  0.30229000  0.97279000  0.24387000  1.0 0.1196273106
H  H45  1  0.08025000  0.18797000  0.20909000  1.0 0.1196273106
H  H46  1  0.43130000  0.29914000  0.24387000  1.0 0.1196273106
H  H47  1  0.56283000  0.10359000  0.15501000  1.0 0.1196273106
H  H48  1  0.27389000  0.90935000  0.34918000  1.0 0.129188547
H  H49  1  0.05259000  0.12535000  0.31369000  1.0 0.1350273075
H  H50  1  0.55646000  0.27462000  0.32300000  1.0 0.129188547
H  H51  1  0.68607000  0.06923000  0.24261000  1.0 0.1196273106
H  H52  1  0.08481000  0.86841000  0.61639000  1.0 0.3936633797
C  C1  1  0.85527000  0.82187000  0.06820000  1.0 0.1600494714
C  C2  1  0.71683000  0.63023000  0.05930000  1.0 0.1600494714
C  C3  1  0.85504000  0.72044000  0.17030000  1.0 0.1600494714
C  C4  1  0.81882000  0.63042000  0.16060000  1.0 0.1676121684
C  C5  1  0.87051000  0.78351000  0.14970000  1.0 -0.0709238393
C  C6  1  0.88981000  0.86981000  0.04220000  1.0 -0.1803193414
C  C7  1  0.65874000  0.60554000  0.03510000  1.0 -0.1673703255
C  C8  1  0.77898000  0.59238000  0.13350000  1.0 -0.0709238393
C  C9  1  0.88449000  0.66569000  0.25180000  1.0 -0.1673703255
C  C10  1  0.86404000  0.61024000  0.24580000  1.0 -0.1803193414
C  C11  1  0.91345000  0.80165000  0.21710000  1.0 0.0825577149
C  C12  1  0.79525000  0.51425000  0.18940000  1.0 0.0825577149
C  C13  1  0.99568000  0.74808000  0.25860000  1.0 -0.1429421162
C  C14  1  0.86767000  0.88007000  0.23790000  1.0 -0.1429421162
C  C15  1  0.74530000  0.51710000  0.24070000  1.0 -0.1576389043
C  C16  1  0.86200000  0.43920000  0.18980000  1.0 -0.1481772406
C  C17  1  0.03448000  0.76488000  0.32150000  1.0 -0.0896279492
C  C18  1  0.90582000  0.89642000  0.30000000  1.0 -0.0815465269
C  C19  1  0.76060000  0.44160000  0.28920000  1.0 -0.0815465269
C  C20  1  0.88140000  0.36440000  0.24020000  1.0 -0.0896279492
C  C21  1  0.98791000  0.84171000  0.34350000  1.0 -0.0190921971
C  C22  1  0.82770000  0.36530000  0.28630000  1.0 -0.0333792247
C  C23  1  0.02984000  0.86064000  0.41210000  1.0 0.5980652453
C  C24  1  0.84326000  0.28486000  0.33900000  1.0 0.5851581128
C  C25  1  0.82187000  0.85527000  0.93180000  1.0 0.1600494714
C  C26  1  0.63023000  0.71683000  0.94070000  1.0 0.1600494714
C  C27  1  0.72044000  0.85504000  0.82970000  1.0 0.1600494714
C  C28  1  0.63042000  0.81882000  0.83940000  1.0 0.1676121684
C  C29  1  0.78351000  0.87051000  0.85030000  1.0 -0.0709238393
C  C30  1  0.86981000  0.88981000  0.95780000  1.0 -0.1803193414
C  C31  1  0.60554000  0.65874000  0.96490000  1.0 -0.1673703255
C  C32  1  0.59238000  0.77898000  0.86650000  1.0 -0.0709238393
C  C33  1  0.66569000  0.88449000  0.74820000  1.0 -0.1673703255
C  C34  1  0.61024000  0.86404000  0.75420000  1.0 -0.1803193414
C  C35  1  0.80165000  0.91345000  0.78290000  1.0 0.0825577149
C  C36  1  0.51425000  0.79525000  0.81060000  1.0 0.0825577149
C  C37  1  0.74808000  0.99568000  0.74140000  1.0 -0.1429421162
C  C38  1  0.88007000  0.86767000  0.76210000  1.0 -0.1429421162
C  C39  1  0.51710000  0.74530000  0.75930000  1.0 -0.1576389043
C  C40  1  0.43920000  0.86200000  0.81020000  1.0 -0.1481772406
C  C41  1  0.76488000  0.03448000  0.67850000  1.0 -0.0896279492
C  C42  1  0.89642000  0.90582000  0.70000000  1.0 -0.0815465269
C  C43  1  0.44160000  0.76060000  0.71080000  1.0 -0.0815465269
C  C44  1  0.36440000  0.88140000  0.75980000  1.0 -0.0896279492
C  C45  1  0.84171000  0.98791000  0.65650000  1.0 -0.0190921971
C  C46  1  0.36530000  0.82770000  0.71370000  1.0 -0.0333792247
C  C47  1  0.86064000  0.02984000  0.58790000  1.0 0.5980652453
C  C48  1  0.28486000  0.84326000  0.66100000  1.0 0.5844841035
C  C49  1  0.14473000  0.17813000  0.93180000  1.0 0.1600494714
C  C50  1  0.28317000  0.36977000  0.94070000  1.0 0.1600494714
C  C51  1  0.14496000  0.27956000  0.82970000  1.0 0.1600494714
C  C52  1  0.18118000  0.36958000  0.83940000  1.0 0.1676121684
C  C53  1  0.12949000  0.21649000  0.85030000  1.0 -0.0709238393
C  C54  1  0.11019000  0.13019000  0.95780000  1.0 -0.1803193414
C  C55  1  0.34126000  0.39446000  0.96490000  1.0 -0.1673703255
C  C56  1  0.22102000  0.40762000  0.86650000  1.0 -0.0709238393
C  C57  1  0.11551000  0.33431000  0.74820000  1.0 -0.1673703255
C  C58  1  0.13596000  0.38976000  0.75420000  1.0 -0.1803193414
C  C59  1  0.08655000  0.19835000  0.78290000  1.0 0.0825577149
C  C60  1  0.20475000  0.48575000  0.81060000  1.0 0.0825577149
C  C61  1  0.00432000  0.25192000  0.74140000  1.0 -0.1429421162
C  C62  1  0.13233000  0.11993000  0.76210000  1.0 -0.1429421162
C  C63  1  0.25470000  0.48290000  0.75930000  1.0 -0.1576389043
C  C64  1  0.13800000  0.56080000  0.81020000  1.0 -0.1481772406
C  C65  1  0.96552000  0.23512000  0.67850000  1.0 -0.0896279492
C  C66  1  0.09418000  0.10358000  0.70000000  1.0 -0.0815465269
C  C67  1  0.23940000  0.55840000  0.71080000  1.0 -0.0815465269
C  C68  1  0.11860000  0.63560000  0.75980000  1.0 -0.0896279492
C  C69  1  0.01209000  0.15829000  0.65650000  1.0 -0.0190921971
C  C70  1  0.17230000  0.63470000  0.71370000  1.0 -0.0333792247
C  C71  1  0.97016000  0.13936000  0.58790000  1.0 0.5980652453
C  C72  1  0.15674000  0.71514000  0.66100000  1.0 0.5851581128
C  C73  1  0.17813000  0.14473000  0.06820000  1.0 0.1600494714
C  C74  1  0.36977000  0.28317000  0.05930000  1.0 0.1600494714
C  C75  1  0.27956000  0.14496000  0.17030000  1.0 0.1600494714
C  C76  1  0.36958000  0.18118000  0.16060000  1.0 0.1676121684
C  C77  1  0.21649000  0.12949000  0.14970000  1.0 -0.0709238393
C  C78  1  0.13019000  0.11019000  0.04220000  1.0 -0.1803193414
C  C79  1  0.39446000  0.34126000  0.03510000  1.0 -0.1673703255
C  C80  1  0.40762000  0.22102000  0.13350000  1.0 -0.0709238393
C  C81  1  0.33431000  0.11551000  0.25180000  1.0 -0.1673703255
C  C82  1  0.38976000  0.13596000  0.24580000  1.0 -0.1803193414
C  C83  1  0.19835000  0.08655000  0.21710000  1.0 0.0825577149
C  C84  1  0.48575000  0.20475000  0.18940000  1.0 0.0825577149
C  C85  1  0.25192000  0.00432000  0.25860000  1.0 -0.1429421162
C  C86  1  0.11993000  0.13233000  0.23790000  1.0 -0.1429421162
C  C87  1  0.48290000  0.25470000  0.24070000  1.0 -0.1576389043
C  C88  1  0.56080000  0.13800000  0.18980000  1.0 -0.1481772406
C  C89  1  0.23512000  0.96552000  0.32150000  1.0 -0.0896279492
C  C90  1  0.10358000  0.09418000  0.30000000  1.0 -0.0815465269
C  C91  1  0.55840000  0.23940000  0.28920000  1.0 -0.0815465269
C  C92  1  0.63560000  0.11860000  0.24020000  1.0 -0.0896279492
C  C93  1  0.15829000  0.01209000  0.34350000  1.0 -0.0190921971
C  C94  1  0.63470000  0.17230000  0.28630000  1.0 -0.0333792247
C  C95  1  0.13936000  0.97016000  0.41210000  1.0 0.5980652453
C  C96  1  0.71514000  0.15674000  0.33900000  1.0 0.5844841035
N  N1  1  0.81358000  0.69878000  0.11510000  1.0 -0.2778120655
N  N2  1  0.69878000  0.81358000  0.88490000  1.0 -0.2778120655
N  N3  1  0.18642000  0.30122000  0.88490000  1.0 -0.2778120655
N  N4  1  0.30122000  0.18642000  0.11510000  1.0 -0.2778120655
N  N5  1  0.81359000  0.81359000  0.00000000  1.0 -0.2698625592
N  N6  1  0.69888000  0.69888000  0.00000000  1.0 -0.2778120655
N  N7  1  0.18641000  0.18641000  0.00000000  1.0 -0.2698625592
N  N8  1  0.30112000  0.30112000  0.00000000  1.0 -0.2778120655
O  O1  1  0.10507000  0.80767000  0.44730000  1.0 -0.5321893611
O  O2  1  0.98411000  0.93031000  0.42730000  1.0 -0.5321893611
O  O3  1  0.79819000  0.28939000  0.38480000  1.0 -0.4969849406
O  O4  1  0.90307000  0.21807000  0.32820000  1.0 -0.5321893611
O  O5  1  0.80767000  0.10507000  0.55270000  1.0 -0.5321893611
O  O6  1  0.93031000  0.98411000  0.57270000  1.0 -0.5321893611
O  O7  1  0.28939000  0.79819000  0.61520000  1.0 -0.4969849406
O  O8  1  0.21807000  0.90307000  0.67180000  1.0 -0.5321893611
O  O9  1  0.89493000  0.19233000  0.55270000  1.0 -0.5321893611
O  O10  1  0.01589000  0.06969000  0.57270000  1.0 -0.5321893611
O  O11  1  0.20181000  0.71061000  0.61520000  1.0 -0.4969849406
O  O12  1  0.09693000  0.78193000  0.67180000  1.0 -0.5321893611
O  O13  1  0.19233000  0.89493000  0.44730000  1.0 -0.5321893611
O  O14  1  0.06969000  0.01589000  0.42730000  1.0 -0.5321893611
O  O15  1  0.71061000  0.20181000  0.38480000  1.0 -0.4969849406
O  O16  1  0.78193000  0.09693000  0.32820000  1.0 -0.5321893611
O  O17  1  0.10380000  0.89620000  0.58100000  1.0 -0.7851722209
O  O18  1  0.89620000  0.10380000  0.41900000  1.0 -0.783870515
