# DDEC6 charges by PACMAN v1.1 (https://github.com/mtap-research/PACMAN-charge/)
data_EMEHUB_FSR_pacman
_symmetry_space_group_name_H-M   'P 1'
_cell_length_a   10.48140000
_cell_length_b   10.48140000
_cell_length_c   10.48140000
_cell_angle_alpha   98.27400000
_cell_angle_beta   98.27400000
_cell_angle_gamma   135.41300000
_symmetry_Int_Tables_number   1
_chemical_formula_structural   CuSiH32C40(N2F3)2
_chemical_formula_sum   'Cu1 Si1 H32 C40 N4 F6'
_cell_volume   747.91149176
_cell_formula_units_Z   1
loop_
 _symmetry_equiv_pos_site_id
 _symmetry_equiv_pos_as_xyz
  1  'x, y, z'
loop_
 _atom_site_type_symbol
 _atom_site_label
 _atom_site_symmetry_multiplicity
 _atom_site_fract_x
 _atom_site_fract_y
 _atom_site_fract_z
 _atom_site_occupancy
 _atom_site_charge
Cu  Cu1  1  0.00000000  0.00000000  0.00000000  1.0 0.2956391881
Si  Si1  1  0.50000000  0.50000000  0.00000000  1.0 1.5650108168
H  H1  1  0.29040000  0.41260000  0.19280000  1.0 0.0533441264
H  H2  1  0.09760000  0.29040000  0.87780000  1.0 0.0533441264
H  H3  1  0.21980000  0.09760000  0.80720000  1.0 0.0533441264
H  H4  1  0.41260000  0.21980000  0.12220000  1.0 0.0533441264
H  H5  1  0.78020000  0.58740000  0.87780000  1.0 0.0533441264
H  H6  1  0.90240000  0.78020000  0.19280000  1.0 0.0533441264
H  H7  1  0.70960000  0.90240000  0.12220000  1.0 0.0533441264
H  H8  1  0.58740000  0.70960000  0.80720000  1.0 0.0533441264
H  H9  1  0.70960000  0.58740000  0.80720000  1.0 0.0533441264
H  H10  1  0.90240000  0.70960000  0.12220000  1.0 0.0533441264
H  H11  1  0.78020000  0.90240000  0.19280000  1.0 0.0533441264
H  H12  1  0.58740000  0.78020000  0.87780000  1.0 0.0533441264
H  H13  1  0.21980000  0.41260000  0.12220000  1.0 0.0533441264
H  H14  1  0.09760000  0.21980000  0.80720000  1.0 0.0533441264
H  H15  1  0.29040000  0.09760000  0.87780000  1.0 0.0533441264
H  H16  1  0.41260000  0.29040000  0.19280000  1.0 0.0533441264
H  H17  1  0.30400000  0.60370000  0.37290000  1.0 0.065467638
H  H18  1  0.93110000  0.30400000  0.70030000  1.0 0.065467638
H  H19  1  0.23080000  0.93110000  0.62710000  1.0 0.065467638
H  H20  1  0.60370000  0.23080000  0.29970000  1.0 0.065467638
H  H21  1  0.76920000  0.39630000  0.70030000  1.0 0.065467638
H  H22  1  0.06890000  0.76920000  0.37290000  1.0 0.065467638
H  H23  1  0.69600000  0.06890000  0.29970000  1.0 0.065467638
H  H24  1  0.39630000  0.69600000  0.62710000  1.0 0.065467638
H  H25  1  0.69600000  0.39630000  0.62710000  1.0 0.065467638
H  H26  1  0.06890000  0.69600000  0.29970000  1.0 0.065467638
H  H27  1  0.76920000  0.06890000  0.37290000  1.0 0.065467638
H  H28  1  0.39630000  0.76920000  0.70030000  1.0 0.065467638
H  H29  1  0.23080000  0.60370000  0.29970000  1.0 0.065467638
H  H30  1  0.93110000  0.23080000  0.62710000  1.0 0.065467638
H  H31  1  0.30400000  0.93110000  0.70030000  1.0 0.065467638
H  H32  1  0.60370000  0.30400000  0.37290000  1.0 0.065467638
C  C1  1  0.16310000  0.33957000  0.22187000  1.0 0.0533441264
C  C2  1  0.94123000  0.16310000  0.82353000  1.0 0.0533441264
C  C3  1  0.11770000  0.94123000  0.77813000  1.0 0.0533441264
C  C4  1  0.33957000  0.11770000  0.17647000  1.0 0.0533441264
C  C5  1  0.88230000  0.66043000  0.82353000  1.0 0.0533441264
C  C6  1  0.05877000  0.88230000  0.22187000  1.0 0.0533441264
C  C7  1  0.83690000  0.05877000  0.17647000  1.0 0.0533441264
C  C8  1  0.66043000  0.83690000  0.77813000  1.0 0.0533441264
C  C9  1  0.83690000  0.66043000  0.77813000  1.0 0.0533441264
C  C10  1  0.05877000  0.83690000  0.17647000  1.0 0.0533441264
C  C11  1  0.88230000  0.05877000  0.22187000  1.0 0.0533441264
C  C12  1  0.66043000  0.88230000  0.82353000  1.0 0.0533441264
C  C13  1  0.11770000  0.33957000  0.17647000  1.0 0.0533441264
C  C14  1  0.94123000  0.11770000  0.77813000  1.0 0.0533441264
C  C15  1  0.16310000  0.94123000  0.82353000  1.0 0.0533441264
C  C16  1  0.33957000  0.16310000  0.22187000  1.0 0.0533441264
C  C17  1  0.17196000  0.44718000  0.32534000  1.0 -0.0078200358
C  C18  1  0.84662000  0.17196000  0.72478000  1.0 -0.0078200358
C  C19  1  0.12184000  0.84662000  0.67466000  1.0 -0.0078200358
C  C20  1  0.44718000  0.12184000  0.27522000  1.0 -0.0078200358
C  C21  1  0.87816000  0.55282000  0.72478000  1.0 -0.0078200358
C  C22  1  0.15338000  0.87816000  0.32534000  1.0 -0.0078200358
C  C23  1  0.82804000  0.15338000  0.27522000  1.0 -0.0078200358
C  C24  1  0.55282000  0.82804000  0.67466000  1.0 -0.0078200358
C  C25  1  0.82804000  0.55282000  0.67466000  1.0 -0.0078200358
C  C26  1  0.15338000  0.82804000  0.27522000  1.0 -0.0078200358
C  C27  1  0.87816000  0.15338000  0.32534000  1.0 -0.0078200358
C  C28  1  0.55282000  0.87816000  0.72478000  1.0 -0.0078200358
C  C29  1  0.12184000  0.44718000  0.27522000  1.0 -0.0078200358
C  C30  1  0.84662000  0.12184000  0.67466000  1.0 -0.0078200358
C  C31  1  0.17196000  0.84662000  0.72478000  1.0 -0.0078200358
C  C32  1  0.44718000  0.17196000  0.32534000  1.0 -0.0078200358
C  C33  1  0.00000000  0.35210000  0.35210000  1.0 0.0778005505
C  C34  1  0.64790000  0.00000000  0.64790000  1.0 0.0778005505
C  C35  1  0.00000000  0.64790000  0.64790000  1.0 0.0778005505
C  C36  1  0.35210000  0.00000000  0.35210000  1.0 0.0778005505
C  C37  1  0.00000000  0.45530000  0.45530000  1.0 -0.2502516796
C  C38  1  0.54470000  0.00000000  0.54470000  1.0 -0.2502516796
C  C39  1  0.00000000  0.54470000  0.54470000  1.0 -0.2502516796
C  C40  1  0.45530000  0.00000000  0.45530000  1.0 -0.2502516796
N  N1  1  0.00000000  0.14897000  0.14897000  1.0 -0.1861225952
N  N2  1  0.85103000  0.00000000  0.85103000  1.0 -0.1861225952
N  N3  1  0.00000000  0.85103000  0.85103000  1.0 -0.1861225952
N  N4  1  0.14897000  0.00000000  0.14897000  1.0 -0.1861225952
F  F1  1  0.28300000  0.28300000  0.00000000  1.0 -0.5011857738
F  F2  1  0.71700000  0.71700000  0.00000000  1.0 -0.5011857738
F  F3  1  0.58780000  0.58780000  0.17560000  1.0 -0.5133393099
F  F4  1  0.41220000  0.58780000  0.00000000  1.0 -0.5133393099
F  F5  1  0.41220000  0.41220000  0.82440000  1.0 -0.5133393099
F  F6  1  0.58780000  0.41220000  0.00000000  1.0 -0.5133393099
