# DDEC6 charges by PACMAN v1.1 (https://github.com/mtap-research/PACMAN-charge/)
data_EMIGIR_FSR_pacman
_symmetry_space_group_name_H-M   'P 1'
_cell_length_a   22.56290000
_cell_length_b   22.66170000
_cell_length_c   33.70150000
_cell_angle_alpha   90.00000000
_cell_angle_beta   90.00000000
_cell_angle_gamma   90.00000000
_symmetry_Int_Tables_number   1
_chemical_formula_structural   In10H7C7(S4N)4
_chemical_formula_sum   'In80 H56 C56 S128 N32'
_cell_volume   17232.03768085
_cell_formula_units_Z   8
loop_
 _symmetry_equiv_pos_site_id
 _symmetry_equiv_pos_as_xyz
  1  'x, y, z'
loop_
 _atom_site_type_symbol
 _atom_site_label
 _atom_site_symmetry_multiplicity
 _atom_site_fract_x
 _atom_site_fract_y
 _atom_site_fract_z
 _atom_site_occupancy
 _atom_site_charge
In  In1  1  0.69295000  0.41117000  0.75875000  1.0 0.8331421254
In  In2  1  0.30705000  0.08883000  0.25875000  1.0 0.8593966551
In  In3  1  0.19295000  0.58883000  0.74125000  1.0 0.8331421254
In  In4  1  0.80705000  0.91117000  0.24125000  1.0 0.8351115373
In  In5  1  0.76668000  0.32307000  0.83822000  1.0 0.9405392913
In  In6  1  0.23332000  0.17693000  0.33822000  1.0 0.9405392913
In  In7  1  0.26668000  0.67693000  0.66178000  1.0 0.9405392913
In  In8  1  0.73332000  0.82307000  0.16178000  1.0 0.9405392913
In  In9  1  0.68414000  0.48158000  0.85968000  1.0 0.8893013137
In  In10  1  0.31586000  0.01842000  0.35968000  1.0 0.8893013137
In  In11  1  0.18414000  0.51842000  0.64032000  1.0 0.8893013137
In  In12  1  0.81586000  0.98158000  0.14032000  1.0 0.8893013137
In  In13  1  0.83580000  0.47658000  0.79383000  1.0 0.9507875529
In  In14  1  0.16420000  0.02342000  0.29383000  1.0 0.9648694781
In  In15  1  0.33580000  0.52342000  0.70617000  1.0 0.9405392913
In  In16  1  0.66420000  0.97658000  0.20617000  1.0 0.9405392913
In  In17  1  0.84584000  0.25606000  0.92468000  1.0 0.8893013137
In  In18  1  0.15416000  0.24394000  0.42468000  1.0 0.8810160347
In  In19  1  0.34584000  0.74394000  0.57532000  1.0 0.9040953902
In  In20  1  0.65416000  0.75606000  0.07532000  1.0 0.8893013137
In  In21  1  0.76587000  0.39444000  0.95003000  1.0 0.9179409432
In  In22  1  0.23413000  0.10556000  0.45003000  1.0 0.9349969414
In  In23  1  0.26587000  0.60556000  0.54997000  1.0 0.9179409432
In  In24  1  0.73413000  0.89444000  0.04997000  1.0 0.9179409432
In  In25  1  0.91976000  0.38992000  0.88431000  1.0 0.9507875529
In  In26  1  0.08024000  0.11008000  0.38431000  1.0 0.9507875529
In  In27  1  0.41976000  0.61008000  0.61569000  1.0 0.9507875529
In  In28  1  0.58024000  0.88992000  0.11569000  1.0 0.9507875529
In  In29  1  0.69297000  0.54157000  0.96269000  1.0 0.8170933214
In  In30  1  0.30703000  0.95843000  0.46269000  1.0 0.8113306848
In  In31  1  0.19297000  0.45843000  0.53731000  1.0 0.8170933214
In  In32  1  0.80703000  0.04157000  0.03731000  1.0 0.8170933214
In  In33  1  0.83713000  0.54635000  0.90667000  1.0 0.9405392913
In  In34  1  0.16287000  0.95365000  0.40667000  1.0 0.9405392913
In  In35  1  0.33713000  0.45365000  0.59333000  1.0 0.9405392913
In  In36  1  0.66287000  0.04635000  0.09333000  1.0 0.9405392913
In  In37  1  0.97215000  0.53626000  0.84427000  1.0 0.8810160347
In  In38  1  0.02785000  0.96374000  0.34427000  1.0 0.8593966551
In  In39  1  0.47215000  0.46374000  0.65573000  1.0 0.8810160347
In  In40  1  0.52785000  0.03626000  0.15573000  1.0 0.8593966551
In  In41  1  0.30705000  0.58883000  0.24125000  1.0 0.8331421254
In  In42  1  0.69295000  0.91117000  0.74125000  1.0 0.8331421254
In  In43  1  0.80705000  0.41117000  0.25875000  1.0 0.8351115373
In  In44  1  0.19295000  0.08883000  0.75875000  1.0 0.8546134022
In  In45  1  0.23332000  0.67693000  0.16178000  1.0 0.9405392913
In  In46  1  0.76668000  0.82307000  0.66178000  1.0 0.9405392913
In  In47  1  0.73332000  0.32307000  0.33822000  1.0 0.9405392913
In  In48  1  0.26668000  0.17693000  0.83822000  1.0 0.9405392913
In  In49  1  0.31586000  0.51842000  0.14032000  1.0 0.8893013137
In  In50  1  0.68414000  0.98158000  0.64032000  1.0 0.8893013137
In  In51  1  0.81586000  0.48158000  0.35968000  1.0 0.8893013137
In  In52  1  0.18414000  0.01842000  0.85968000  1.0 0.8893013137
In  In53  1  0.16420000  0.52342000  0.20617000  1.0 0.9405392913
In  In54  1  0.83580000  0.97658000  0.70617000  1.0 0.9405392913
In  In55  1  0.66420000  0.47658000  0.29383000  1.0 0.9507875529
In  In56  1  0.33580000  0.02342000  0.79383000  1.0 0.9648694781
In  In57  1  0.15416000  0.74394000  0.07532000  1.0 0.8810160347
In  In58  1  0.84584000  0.75606000  0.57532000  1.0 0.8893013137
In  In59  1  0.65416000  0.25606000  0.42468000  1.0 0.8893013137
In  In60  1  0.34584000  0.24394000  0.92468000  1.0 0.8810160347
In  In61  1  0.23413000  0.60556000  0.04997000  1.0 0.9179409432
In  In62  1  0.76587000  0.89444000  0.54997000  1.0 0.9179409432
In  In63  1  0.73413000  0.39444000  0.45003000  1.0 0.9179409432
In  In64  1  0.26587000  0.10556000  0.95003000  1.0 0.9405392913
In  In65  1  0.08024000  0.61008000  0.11569000  1.0 0.9507875529
In  In66  1  0.91976000  0.88992000  0.61569000  1.0 0.9507875529
In  In67  1  0.58024000  0.38992000  0.38431000  1.0 0.9507875529
In  In68  1  0.41976000  0.11008000  0.88431000  1.0 0.9507875529
In  In69  1  0.30703000  0.45843000  0.03731000  1.0 0.8170933214
In  In70  1  0.69297000  0.04157000  0.53731000  1.0 0.8170933214
In  In71  1  0.80703000  0.54157000  0.46269000  1.0 0.8170933214
In  In72  1  0.19297000  0.95843000  0.96269000  1.0 0.8113306848
In  In73  1  0.16287000  0.45365000  0.09333000  1.0 0.9349969414
In  In74  1  0.83713000  0.04635000  0.59333000  1.0 0.9405392913
In  In75  1  0.66287000  0.54635000  0.40667000  1.0 0.9405392913
In  In76  1  0.33713000  0.95365000  0.90667000  1.0 0.9405392913
In  In77  1  0.02785000  0.46374000  0.15573000  1.0 0.8593966551
In  In78  1  0.97215000  0.03626000  0.65573000  1.0 0.8593966551
In  In79  1  0.52785000  0.53626000  0.34427000  1.0 0.8810160347
In  In80  1  0.47215000  0.96374000  0.84427000  1.0 0.8593966551
H  H1  1  0.57600000  0.46570000  0.71890000  1.0 0.0909061996
H  H2  1  0.42400000  0.03430000  0.21890000  1.0 0.0909061996
H  H3  1  0.07600000  0.53430000  0.78110000  1.0 0.0824581919
H  H4  1  0.92400000  0.96570000  0.28110000  1.0 0.0824581919
H  H5  1  0.65780000  0.33060000  0.67730000  1.0 0.1368445767
H  H6  1  0.34220000  0.16940000  0.17730000  1.0 0.1368445767
H  H7  1  0.15780000  0.66940000  0.82270000  1.0 0.1368445767
H  H8  1  0.84220000  0.83060000  0.32270000  1.0 0.1368445767
H  H9  1  0.79380000  0.16250000  0.98810000  1.0 0.0909061996
H  H10  1  0.20620000  0.33750000  0.48810000  1.0 0.0909061996
H  H11  1  0.29380000  0.83750000  0.51190000  1.0 0.0957649661
H  H12  1  0.70620000  0.66250000  0.01190000  1.0 0.0909061996
H  H13  1  0.94500000  0.14100000  0.93360000  1.0 0.1088792783
H  H14  1  0.05500000  0.35900000  0.43360000  1.0 0.1088792783
H  H15  1  0.44500000  0.85900000  0.56640000  1.0 0.1088792783
H  H16  1  0.55500000  0.64100000  0.06640000  1.0 0.1088792783
H  H17  1  0.95990000  0.03970000  0.01060000  1.0 0.16672817
H  H18  1  0.04010000  0.46030000  0.51060000  1.0 0.16672817
H  H19  1  0.45990000  0.96030000  0.48940000  1.0 0.16672817
H  H20  1  0.54010000  0.53970000  0.98940000  1.0 0.16672817
H  H21  1  0.97020000  0.02780000  0.96430000  1.0 0.1598385017
H  H22  1  0.02980000  0.47220000  0.46430000  1.0 0.1598385017
H  H23  1  0.47020000  0.97220000  0.53570000  1.0 0.1598385017
H  H24  1  0.52980000  0.52780000  0.03570000  1.0 0.1598385017
H  H25  1  0.91460000  0.99870000  0.98650000  1.0 0.1598385017
H  H26  1  0.08540000  0.50130000  0.48650000  1.0 0.1598385017
H  H27  1  0.41460000  0.00130000  0.51350000  1.0 0.1598385017
H  H28  1  0.58540000  0.49870000  0.01350000  1.0 0.1598385017
H  H29  1  0.42400000  0.53430000  0.28110000  1.0 0.0824581919
H  H30  1  0.57600000  0.96570000  0.78110000  1.0 0.0824581919
H  H31  1  0.92400000  0.46570000  0.21890000  1.0 0.0909061996
H  H32  1  0.07600000  0.03430000  0.71890000  1.0 0.0909061996
H  H33  1  0.34220000  0.66940000  0.32270000  1.0 0.1368445767
H  H34  1  0.65780000  0.83060000  0.82270000  1.0 0.1368445767
H  H35  1  0.84220000  0.33060000  0.17730000  1.0 0.1368445767
H  H36  1  0.15780000  0.16940000  0.67730000  1.0 0.1368445767
H  H37  1  0.20620000  0.83750000  0.01190000  1.0 0.0957649661
H  H38  1  0.79380000  0.66250000  0.51190000  1.0 0.0909061996
H  H39  1  0.70620000  0.16250000  0.48810000  1.0 0.0909061996
H  H40  1  0.29380000  0.33750000  0.98810000  1.0 0.0909061996
H  H41  1  0.05500000  0.85900000  0.06640000  1.0 0.1088792783
H  H42  1  0.94500000  0.64100000  0.56640000  1.0 0.1088792783
H  H43  1  0.55500000  0.14100000  0.43360000  1.0 0.1088792783
H  H44  1  0.44500000  0.35900000  0.93360000  1.0 0.1088792783
H  H45  1  0.04010000  0.96030000  0.98940000  1.0 0.16672817
H  H46  1  0.95990000  0.53970000  0.48940000  1.0 0.16672817
H  H47  1  0.54010000  0.03970000  0.51060000  1.0 0.16672817
H  H48  1  0.45990000  0.46030000  0.01060000  1.0 0.16672817
H  H49  1  0.02980000  0.97220000  0.03570000  1.0 0.1598385017
H  H50  1  0.97020000  0.52780000  0.53570000  1.0 0.1598385017
H  H51  1  0.52980000  0.02780000  0.46430000  1.0 0.1598385017
H  H52  1  0.47020000  0.47220000  0.96430000  1.0 0.1598385017
H  H53  1  0.08540000  0.00130000  0.01350000  1.0 0.1598385017
H  H54  1  0.91460000  0.49870000  0.51350000  1.0 0.1598385017
H  H55  1  0.58540000  0.99870000  0.48650000  1.0 0.1598385017
H  H56  1  0.41460000  0.50130000  0.98650000  1.0 0.1598385017
C  C1  1  0.58600000  0.43330000  0.70230000  1.0 0.310146862
C  C2  1  0.41400000  0.06670000  0.20230000  1.0 0.2994473614
C  C3  1  0.08600000  0.56670000  0.79770000  1.0 0.2994473614
C  C4  1  0.91400000  0.93330000  0.29770000  1.0 0.2994473614
C  C5  1  0.62980000  0.36150000  0.68090000  1.0 0.1266871629
C  C6  1  0.37020000  0.13850000  0.18090000  1.0 0.1201909629
C  C7  1  0.12980000  0.63850000  0.81910000  1.0 0.1201909629
C  C8  1  0.87020000  0.86150000  0.31910000  1.0 0.1088792783
C  C9  1  0.58020000  0.36960000  0.65800000  1.0 0.2120406055
C  C10  1  0.41980000  0.13040000  0.15800000  1.0 0.2120406055
C  C11  1  0.08020000  0.63040000  0.84200000  1.0 0.2120406055
C  C12  1  0.91980000  0.86960000  0.34200000  1.0 0.2037788419
C  C13  1  0.83090000  0.14700000  0.97970000  1.0 0.2297231847
C  C14  1  0.16910000  0.35300000  0.47970000  1.0 0.2297231847
C  C15  1  0.33090000  0.85300000  0.52030000  1.0 0.2297231847
C  C16  1  0.66910000  0.64700000  0.02030000  1.0 0.2297231847
C  C17  1  0.91160000  0.13540000  0.95040000  1.0 0.0033493639
C  C18  1  0.08840000  0.36460000  0.45040000  1.0 0.0033493639
C  C19  1  0.41160000  0.86460000  0.54960000  1.0 0.0033493639
C  C20  1  0.58840000  0.63540000  0.04960000  1.0 0.0033493639
C  C21  1  0.90220000  0.08850000  0.97480000  1.0 0.2480890521
C  C22  1  0.09780000  0.41150000  0.47480000  1.0 0.2480890521
C  C23  1  0.40220000  0.91150000  0.52520000  1.0 0.2480890521
C  C24  1  0.59780000  0.58850000  0.02520000  1.0 0.2480890521
C  C25  1  0.94020000  0.03360000  0.98500000  1.0 -0.4295732143
C  C26  1  0.05980000  0.46640000  0.48500000  1.0 -0.4295732143
C  C27  1  0.44020000  0.96640000  0.51500000  1.0 -0.4295732143
C  C28  1  0.55980000  0.53360000  0.01500000  1.0 -0.4295732143
C  C29  1  0.41400000  0.56670000  0.29770000  1.0 0.2994473614
C  C30  1  0.58600000  0.93330000  0.79770000  1.0 0.2994473614
C  C31  1  0.91400000  0.43330000  0.20230000  1.0 0.310146862
C  C32  1  0.08600000  0.06670000  0.70230000  1.0 0.2994473614
C  C33  1  0.37020000  0.63850000  0.31910000  1.0 0.1201909629
C  C34  1  0.62980000  0.86150000  0.81910000  1.0 0.1088792783
C  C35  1  0.87020000  0.36150000  0.18090000  1.0 0.1201909629
C  C36  1  0.12980000  0.13850000  0.68090000  1.0 0.1201909629
C  C37  1  0.41980000  0.63040000  0.34200000  1.0 0.2120406055
C  C38  1  0.58020000  0.86960000  0.84200000  1.0 0.2120406055
C  C39  1  0.91980000  0.36960000  0.15800000  1.0 0.2120406055
C  C40  1  0.08020000  0.13040000  0.65800000  1.0 0.2120406055
C  C41  1  0.16910000  0.85300000  0.02030000  1.0 0.2297231847
C  C42  1  0.83090000  0.64700000  0.52030000  1.0 0.2297231847
C  C43  1  0.66910000  0.14700000  0.47970000  1.0 0.2297231847
C  C44  1  0.33090000  0.35300000  0.97970000  1.0 0.2297231847
C  C45  1  0.08840000  0.86460000  0.04960000  1.0 0.0033493639
C  C46  1  0.91160000  0.63540000  0.54960000  1.0 0.0033493639
C  C47  1  0.58840000  0.13540000  0.45040000  1.0 0.0033493639
C  C48  1  0.41160000  0.36460000  0.95040000  1.0 0.0033493639
C  C49  1  0.09780000  0.91150000  0.02520000  1.0 0.2480890521
C  C50  1  0.90220000  0.58850000  0.52520000  1.0 0.2480890521
C  C51  1  0.59780000  0.08850000  0.47480000  1.0 0.2480890521
C  C52  1  0.40220000  0.41150000  0.97480000  1.0 0.2480890521
C  C53  1  0.05980000  0.96640000  0.01500000  1.0 -0.4295732143
C  C54  1  0.94020000  0.53360000  0.51500000  1.0 -0.4295732143
C  C55  1  0.55980000  0.03360000  0.48500000  1.0 -0.4295732143
C  C56  1  0.44020000  0.46640000  0.98500000  1.0 -0.4295732143
S  S1  1  0.70920000  0.31010000  0.77880000  1.0 -0.6001922789
S  S2  1  0.29080000  0.18990000  0.27880000  1.0 -0.6256594571
S  S3  1  0.20920000  0.68990000  0.72120000  1.0 -0.5885967625
S  S4  1  0.79080000  0.81010000  0.22120000  1.0 -0.6001922789
S  S5  1  0.62740000  0.47050000  0.79986000  1.0 -0.5716505355
S  S6  1  0.37260000  0.02950000  0.29986000  1.0 -0.5716505355
S  S7  1  0.12740000  0.52950000  0.70014000  1.0 -0.5716505355
S  S8  1  0.87260000  0.97050000  0.20014000  1.0 -0.5716505355
S  S9  1  0.77850000  0.46390000  0.73399000  1.0 -0.6095657891
S  S10  1  0.22150000  0.03610000  0.23399000  1.0 -0.6210532757
S  S11  1  0.27850000  0.53610000  0.76601000  1.0 -0.6095657891
S  S12  1  0.72150000  0.96390000  0.26601000  1.0 -0.6095657891
S  S13  1  0.79030000  0.22800000  0.86590000  1.0 -0.6095657891
S  S14  1  0.20970000  0.27200000  0.36590000  1.0 -0.6001922789
S  S15  1  0.29030000  0.77200000  0.63410000  1.0 -0.6210532757
S  S16  1  0.70970000  0.72800000  0.13410000  1.0 -0.6428413006
S  S17  1  0.70750000  0.38200000  0.88721000  1.0 -0.6857630821
S  S18  1  0.29250000  0.11800000  0.38721000  1.0 -0.6803902707
S  S19  1  0.20750000  0.61800000  0.61279000  1.0 -0.6803902707
S  S20  1  0.79250000  0.88200000  0.11279000  1.0 -0.6803902707
S  S21  1  0.86090000  0.37720000  0.82192000  1.0 -0.6493024441
S  S22  1  0.13910000  0.12280000  0.32192000  1.0 -0.6493024441
S  S23  1  0.36090000  0.62280000  0.67808000  1.0 -0.6428413006
S  S24  1  0.63910000  0.87720000  0.17808000  1.0 -0.6493024441
S  S25  1  0.62540000  0.53750000  0.90647000  1.0 -0.5716505355
S  S26  1  0.37460000  0.96250000  0.40647000  1.0 -0.5716505355
S  S27  1  0.12540000  0.46250000  0.59353000  1.0 -0.5716505355
S  S28  1  0.87460000  0.03750000  0.09353000  1.0 -0.5716505355
S  S29  1  0.77840000  0.53470000  0.84424000  1.0 -0.6803902707
S  S30  1  0.22160000  0.96530000  0.34424000  1.0 -0.6713037642
S  S31  1  0.27840000  0.46530000  0.65576000  1.0 -0.6713037642
S  S32  1  0.72160000  0.03470000  0.15576000  1.0 -0.6803902707
S  S33  1  0.92510000  0.53080000  0.77948000  1.0 -0.5885967625
S  S34  1  0.07490000  0.96920000  0.27948000  1.0 -0.5716505355
S  S35  1  0.42510000  0.46920000  0.72052000  1.0 -0.5885967625
S  S36  1  0.57490000  0.03080000  0.22052000  1.0 -0.5716505355
S  S37  1  0.78680000  0.29890000  0.97755000  1.0 -0.6095657891
S  S38  1  0.21320000  0.20110000  0.47755000  1.0 -0.5885967625
S  S39  1  0.28680000  0.70110000  0.52245000  1.0 -0.6001922789
S  S40  1  0.71320000  0.79890000  0.02245000  1.0 -0.5885967625
S  S41  1  0.94390000  0.29590000  0.91310000  1.0 -0.6001922789
S  S42  1  0.05610000  0.20410000  0.41310000  1.0 -0.6001922789
S  S43  1  0.44390000  0.70410000  0.58690000  1.0 -0.6095657891
S  S44  1  0.55610000  0.79590000  0.08690000  1.0 -0.6001922789
S  S45  1  0.70740000  0.44880000  0.99715000  1.0 -0.5716505355
S  S46  1  0.29260000  0.05120000  0.49715000  1.0 -0.5716505355
S  S47  1  0.20740000  0.55120000  0.50285000  1.0 -0.5716505355
S  S48  1  0.79260000  0.94880000  0.00285000  1.0 -0.5716505355
S  S49  1  0.86120000  0.44690000  0.93434000  1.0 -0.6713037642
S  S50  1  0.13880000  0.05310000  0.43434000  1.0 -0.6713037642
S  S51  1  0.36120000  0.55310000  0.56566000  1.0 -0.6602736922
S  S52  1  0.63880000  0.94690000  0.06566000  1.0 -0.6713037642
S  S53  1  0.01010000  0.44200000  0.86841000  1.0 -0.6210532757
S  S54  1  0.98990000  0.05800000  0.36841000  1.0 -0.6001922789
S  S55  1  0.51010000  0.55800000  0.63159000  1.0 -0.6095657891
S  S56  1  0.48990000  0.94200000  0.13159000  1.0 -0.6095657891
S  S57  1  0.77990000  0.60290000  0.95350000  1.0 -0.5716505355
S  S58  1  0.22010000  0.89710000  0.45350000  1.0 -0.5885967625
S  S59  1  0.27990000  0.39710000  0.54650000  1.0 -0.5716505355
S  S60  1  0.72010000  0.10290000  0.04650000  1.0 -0.5885967625
S  S61  1  0.92790000  0.59970000  0.89367000  1.0 -0.6095657891
S  S62  1  0.07210000  0.90030000  0.39367000  1.0 -0.6001922789
S  S63  1  0.42790000  0.40030000  0.60633000  1.0 -0.6493024441
S  S64  1  0.57210000  0.09970000  0.10633000  1.0 -0.6001922789
S  S65  1  0.29080000  0.68990000  0.22120000  1.0 -0.5885967625
S  S66  1  0.70920000  0.81010000  0.72120000  1.0 -0.5885967625
S  S67  1  0.79080000  0.31010000  0.27880000  1.0 -0.6001922789
S  S68  1  0.20920000  0.18990000  0.77880000  1.0 -0.6256594571
S  S69  1  0.37260000  0.52950000  0.20014000  1.0 -0.5716505355
S  S70  1  0.62740000  0.97050000  0.70014000  1.0 -0.5716505355
S  S71  1  0.87260000  0.47050000  0.29986000  1.0 -0.5716505355
S  S72  1  0.12740000  0.02950000  0.79986000  1.0 -0.5716505355
S  S73  1  0.22150000  0.53610000  0.26601000  1.0 -0.6095657891
S  S74  1  0.77850000  0.96390000  0.76601000  1.0 -0.6095657891
S  S75  1  0.72150000  0.46390000  0.23399000  1.0 -0.6095657891
S  S76  1  0.27850000  0.03610000  0.73399000  1.0 -0.6210532757
S  S77  1  0.20970000  0.77200000  0.13410000  1.0 -0.6095657891
S  S78  1  0.79030000  0.72800000  0.63410000  1.0 -0.6428413006
S  S79  1  0.70970000  0.22800000  0.36590000  1.0 -0.6095657891
S  S80  1  0.29030000  0.27200000  0.86590000  1.0 -0.6001922789
S  S81  1  0.29250000  0.61800000  0.11279000  1.0 -0.6803902707
S  S82  1  0.70750000  0.88200000  0.61279000  1.0 -0.6803902707
S  S83  1  0.79250000  0.38200000  0.38721000  1.0 -0.6857630821
S  S84  1  0.20750000  0.11800000  0.88721000  1.0 -0.6803902707
S  S85  1  0.13910000  0.62280000  0.17808000  1.0 -0.6493024441
S  S86  1  0.86090000  0.87720000  0.67808000  1.0 -0.6493024441
S  S87  1  0.63910000  0.37720000  0.32192000  1.0 -0.6493024441
S  S88  1  0.36090000  0.12280000  0.82192000  1.0 -0.6493024441
S  S89  1  0.37460000  0.46250000  0.09353000  1.0 -0.5716505355
S  S90  1  0.62540000  0.03750000  0.59353000  1.0 -0.5716505355
S  S91  1  0.87460000  0.53750000  0.40647000  1.0 -0.5716505355
S  S92  1  0.12540000  0.96250000  0.90647000  1.0 -0.5716505355
S  S93  1  0.22160000  0.46530000  0.15576000  1.0 -0.6803902707
S  S94  1  0.77840000  0.03470000  0.65576000  1.0 -0.6803902707
S  S95  1  0.72160000  0.53470000  0.34424000  1.0 -0.6803902707
S  S96  1  0.27840000  0.96530000  0.84424000  1.0 -0.6713037642
S  S97  1  0.07490000  0.46920000  0.22052000  1.0 -0.5716505355
S  S98  1  0.92510000  0.03080000  0.72052000  1.0 -0.5716505355
S  S99  1  0.57490000  0.53080000  0.27948000  1.0 -0.5885967625
S  S100  1  0.42510000  0.96920000  0.77948000  1.0 -0.5716505355
S  S101  1  0.21320000  0.70110000  0.02245000  1.0 -0.5885967625
S  S102  1  0.78680000  0.79890000  0.52245000  1.0 -0.5885967625
S  S103  1  0.71320000  0.29890000  0.47755000  1.0 -0.6095657891
S  S104  1  0.28680000  0.20110000  0.97755000  1.0 -0.5885967625
S  S105  1  0.05610000  0.70410000  0.08690000  1.0 -0.6001922789
S  S106  1  0.94390000  0.79590000  0.58690000  1.0 -0.6095657891
S  S107  1  0.55610000  0.29590000  0.41310000  1.0 -0.6001922789
S  S108  1  0.44390000  0.20410000  0.91310000  1.0 -0.6001922789
S  S109  1  0.29260000  0.55120000  0.00285000  1.0 -0.5716505355
S  S110  1  0.70740000  0.94880000  0.50285000  1.0 -0.5716505355
S  S111  1  0.79260000  0.44880000  0.49715000  1.0 -0.5716505355
S  S112  1  0.20740000  0.05120000  0.99715000  1.0 -0.5716505355
S  S113  1  0.13880000  0.55310000  0.06566000  1.0 -0.6713037642
S  S114  1  0.86120000  0.94690000  0.56566000  1.0 -0.6713037642
S  S115  1  0.63880000  0.44690000  0.43434000  1.0 -0.6713037642
S  S116  1  0.36120000  0.05310000  0.93434000  1.0 -0.6713037642
S  S117  1  0.98990000  0.55800000  0.13159000  1.0 -0.6001922789
S  S118  1  0.01010000  0.94200000  0.63159000  1.0 -0.6095657891
S  S119  1  0.48990000  0.44200000  0.36841000  1.0 -0.6210532757
S  S120  1  0.51010000  0.05800000  0.86841000  1.0 -0.6001922789
S  S121  1  0.22010000  0.39710000  0.04650000  1.0 -0.5753852936
S  S122  1  0.77990000  0.10290000  0.54650000  1.0 -0.5885967625
S  S123  1  0.72010000  0.60290000  0.45350000  1.0 -0.5716505355
S  S124  1  0.27990000  0.89710000  0.95350000  1.0 -0.5885967625
S  S125  1  0.07210000  0.40030000  0.10633000  1.0 -0.6001922789
S  S126  1  0.92790000  0.09970000  0.60633000  1.0 -0.6001922789
S  S127  1  0.57210000  0.59970000  0.39367000  1.0 -0.6095657891
S  S128  1  0.42790000  0.90030000  0.89367000  1.0 -0.6001922789
N  N1  1  0.63320000  0.40140000  0.70790000  1.0 -0.1305545928
N  N2  1  0.36680000  0.09860000  0.20790000  1.0 -0.1118467959
N  N3  1  0.13320000  0.59860000  0.79210000  1.0 -0.1205662551
N  N4  1  0.86680000  0.90140000  0.29210000  1.0 -0.1205662551
N  N5  1  0.55370000  0.41760000  0.67240000  1.0 -0.2067984404
N  N6  1  0.44630000  0.08240000  0.17240000  1.0 -0.2027536171
N  N7  1  0.05370000  0.58240000  0.82760000  1.0 -0.1893315005
N  N8  1  0.94630000  0.91760000  0.32760000  1.0 -0.2067984404
N  N9  1  0.86420000  0.17340000  0.95410000  1.0 -0.1893315005
N  N10  1  0.13580000  0.32660000  0.45410000  1.0 -0.1893315005
N  N11  1  0.36420000  0.82660000  0.54590000  1.0 -0.1893315005
N  N12  1  0.63580000  0.67340000  0.04590000  1.0 -0.1829418155
N  N13  1  0.85230000  0.09690000  0.99330000  1.0 -0.2878987069
N  N14  1  0.14770000  0.40310000  0.49330000  1.0 -0.2878987069
N  N15  1  0.35230000  0.90310000  0.50670000  1.0 -0.2878987069
N  N16  1  0.64770000  0.59690000  0.00670000  1.0 -0.2878987069
N  N17  1  0.36680000  0.59860000  0.29210000  1.0 -0.1205662551
N  N18  1  0.63320000  0.90140000  0.79210000  1.0 -0.1205662551
N  N19  1  0.86680000  0.40140000  0.20790000  1.0 -0.1305545928
N  N20  1  0.13320000  0.09860000  0.70790000  1.0 -0.1118467959
N  N21  1  0.44630000  0.58240000  0.32760000  1.0 -0.1893315005
N  N22  1  0.55370000  0.91760000  0.82760000  1.0 -0.2067984404
N  N23  1  0.94630000  0.41760000  0.17240000  1.0 -0.2189204308
N  N24  1  0.05370000  0.08240000  0.67240000  1.0 -0.2027536171
N  N25  1  0.13580000  0.82660000  0.04590000  1.0 -0.1893315005
N  N26  1  0.86420000  0.67340000  0.54590000  1.0 -0.1829418155
N  N27  1  0.63580000  0.17340000  0.45410000  1.0 -0.1893315005
N  N28  1  0.36420000  0.32660000  0.95410000  1.0 -0.1893315005
N  N29  1  0.14770000  0.90310000  0.00670000  1.0 -0.2878987069
N  N30  1  0.85230000  0.59690000  0.50670000  1.0 -0.2878987069
N  N31  1  0.64770000  0.09690000  0.49330000  1.0 -0.2878987069
N  N32  1  0.35230000  0.40310000  0.99330000  1.0 -0.2878987069
