# DDEC6 charges by PACMAN v1.1 (https://github.com/mtap-research/PACMAN-charge/)
data_EMIGEN_ASR_pacman
_symmetry_space_group_name_H-M   'P 1'
_cell_length_a   25.31610000
_cell_length_b   25.31610000
_cell_length_c   25.31610000
_cell_angle_alpha   121.23100000
_cell_angle_beta   121.23100000
_cell_angle_gamma   87.88140000
_symmetry_Int_Tables_number   1
_chemical_formula_structural   In5H7C5(S4N)2
_chemical_formula_sum   'In40 H56 C40 S64 N16'
_cell_volume   11251.06573485
_cell_formula_units_Z   8
loop_
 _symmetry_equiv_pos_site_id
 _symmetry_equiv_pos_as_xyz
  1  'x, y, z'
loop_
 _atom_site_type_symbol
 _atom_site_label
 _atom_site_symmetry_multiplicity
 _atom_site_fract_x
 _atom_site_fract_y
 _atom_site_fract_z
 _atom_site_occupancy
 _atom_site_charge
In  In1  1  0.11035000  0.43125000  0.61322000  1.0 0.8326699341
In  In2  1  0.81803000  0.49713000  0.38678000  1.0 0.8326699341
In  In3  1  0.18125000  0.36035000  0.11322000  1.0 0.8326699341
In  In4  1  0.24713000  0.06803000  0.88678000  1.0 0.8326699341
In  In5  1  0.93895000  0.47478000  0.34021000  1.0 0.9115406823
In  In6  1  0.13457000  0.59874000  0.65979000  1.0 0.9115406823
In  In7  1  0.22478000  0.18895000  0.84021000  1.0 0.9115406823
In  In8  1  0.34874000  0.38457000  0.15979000  1.0 0.9115406823
In  In9  1  0.95737000  0.45737000  0.50000000  1.0 0.9115406823
In  In10  1  0.20737000  0.20737000  0.00000000  1.0 0.9115406823
In  In11  1  0.07578000  0.46239000  0.31975000  1.0 0.8326699341
In  In12  1  0.14264000  0.75603000  0.68025000  1.0 0.8326699341
In  In13  1  0.21239000  0.32578000  0.81975000  1.0 0.8326699341
In  In14  1  0.50603000  0.39264000  0.18025000  1.0 0.8375050629
In  In15  1  0.11565000  0.61565000  0.50000000  1.0 0.8981921429
In  In16  1  0.36565000  0.36565000  0.00000000  1.0 0.8981921429
In  In17  1  0.09910000  0.43862000  0.46384000  1.0 0.9115406823
In  In18  1  0.97478000  0.63526000  0.53616000  1.0 0.9115406823
In  In19  1  0.18862000  0.34910000  0.96384000  1.0 0.9115406823
In  In20  1  0.38526000  0.22478000  0.03616000  1.0 0.9115406823
In  In21  1  0.50287000  0.88965000  0.32090000  1.0 0.8326699341
In  In22  1  0.56875000  0.18197000  0.67910000  1.0 0.8326699341
In  In23  1  0.93197000  0.81875000  0.17910000  1.0 0.8326699341
In  In24  1  0.63965000  0.75287000  0.82090000  1.0 0.8326699341
In  In25  1  0.40126000  0.06105000  0.53583000  1.0 0.9115406823
In  In26  1  0.52522000  0.86543000  0.46417000  1.0 0.9115406823
In  In27  1  0.61543000  0.77522000  0.96417000  1.0 0.9115406823
In  In28  1  0.81105000  0.65126000  0.03583000  1.0 0.9115406823
In  In29  1  0.54263000  0.04263000  0.50000000  1.0 0.9115406823
In  In30  1  0.79263000  0.79263000  0.00000000  1.0 0.9342044795
In  In31  1  0.24397000  0.92422000  0.38661000  1.0 0.8326699341
In  In32  1  0.53761000  0.85736000  0.61339000  1.0 0.8326699341
In  In33  1  0.60736000  0.78761000  0.11339000  1.0 0.8326699341
In  In34  1  0.67422000  0.49397000  0.88661000  1.0 0.8326699341
In  In35  1  0.38435000  0.88435000  0.50000000  1.0 0.8981921429
In  In36  1  0.63435000  0.63435000  0.00000000  1.0 0.8981921429
In  In37  1  0.36474000  0.90090000  0.33952000  1.0 0.9115406823
In  In38  1  0.56138000  0.02522000  0.66048000  1.0 0.9115406823
In  In39  1  0.77522000  0.81138000  0.16048000  1.0 0.9115406823
In  In40  1  0.65090000  0.61474000  0.83952000  1.0 0.9115406823
H  H1  1  0.11190000  0.29890000  0.56560000  1.0 0.139659053
H  H2  1  0.73330000  0.54630000  0.43440000  1.0 0.139659053
H  H3  1  0.04890000  0.36190000  0.06560000  1.0 0.139659053
H  H4  1  0.29630000  0.98330000  0.93440000  1.0 0.139659053
H  H5  1  0.19190000  0.26140000  0.64950000  1.0 0.151405298
H  H6  1  0.61190000  0.54240000  0.35050000  1.0 0.151405298
H  H7  1  0.01140000  0.44190000  0.14950000  1.0 0.151405298
H  H8  1  0.29240000  0.86190000  0.85050000  1.0 0.151405298
H  H9  1  0.13070000  0.44370000  0.78860000  1.0 0.151405298
H  H10  1  0.65510000  0.34210000  0.21140000  1.0 0.151405298
H  H11  1  0.19370000  0.38070000  0.28860000  1.0 0.151405298
H  H12  1  0.09210000  0.90510000  0.71140000  1.0 0.151405298
H  H13  1  0.14740000  0.47430000  0.75590000  1.0 0.139659053
H  H14  1  0.71840000  0.39150000  0.24410000  1.0 0.139659053
H  H15  1  0.22430000  0.39740000  0.25590000  1.0 0.139659053
H  H16  1  0.14150000  0.96840000  0.74410000  1.0 0.139659053
H  H17  1  0.20660000  0.53180000  0.86080000  1.0 0.1580738833
H  H18  1  0.67100000  0.34580000  0.13920000  1.0 0.1580738833
H  H19  1  0.28180000  0.45660000  0.36080000  1.0 0.1580738833
H  H20  1  0.09580000  0.92100000  0.63920000  1.0 0.1580738833
H  H21  1  0.21810000  0.47570000  0.87360000  1.0 0.1669023575
H  H22  1  0.60210000  0.34450000  0.12640000  1.0 0.1669023575
H  H23  1  0.22570000  0.46810000  0.37360000  1.0 0.1669023575
H  H24  1  0.09450000  0.85210000  0.62640000  1.0 0.1669023575
H  H25  1  0.24700000  0.48730000  0.83590000  1.0 0.1669023575
H  H26  1  0.65140000  0.41110000  0.16410000  1.0 0.1669023575
H  H27  1  0.23730000  0.49700000  0.33590000  1.0 0.1669023575
H  H28  1  0.16110000  0.90140000  0.66410000  1.0 0.1669023575
H  H29  1  0.45370000  0.88810000  0.18700000  1.0 0.139659053
H  H30  1  0.70110000  0.26670000  0.81300000  1.0 0.139659053
H  H31  1  0.01670000  0.95110000  0.31300000  1.0 0.139659053
H  H32  1  0.63810000  0.70370000  0.68700000  1.0 0.139659053
H  H33  1  0.45760000  0.80810000  0.06950000  1.0 0.151405298
H  H34  1  0.73860000  0.38810000  0.93050000  1.0 0.151405298
H  H35  1  0.13810000  0.98860000  0.43050000  1.0 0.151405298
H  H36  1  0.55810000  0.70760000  0.56950000  1.0 0.151405298
H  H37  1  0.65790000  0.86930000  0.31300000  1.0 0.151405298
H  H38  1  0.55630000  0.34490000  0.68700000  1.0 0.151405298
H  H39  1  0.09490000  0.80630000  0.18700000  1.0 0.151405298
H  H40  1  0.61930000  0.90790000  0.81300000  1.0 0.151405298
H  H41  1  0.60850000  0.85260000  0.32690000  1.0 0.139659053
H  H42  1  0.52570000  0.28160000  0.67310000  1.0 0.139659053
H  H43  1  0.03160000  0.77570000  0.17310000  1.0 0.139659053
H  H44  1  0.60260000  0.85850000  0.82690000  1.0 0.139659053
H  H45  1  0.65420000  0.79340000  0.32520000  1.0 0.1580738833
H  H46  1  0.46820000  0.32900000  0.67480000  1.0 0.1580738833
H  H47  1  0.07900000  0.71820000  0.17480000  1.0 0.1580738833
H  H48  1  0.54340000  0.90420000  0.82520000  1.0 0.1580738833
H  H49  1  0.65550000  0.78190000  0.25760000  1.0 0.1669023575
H  H50  1  0.52430000  0.39790000  0.74240000  1.0 0.1669023575
H  H51  1  0.14790000  0.77430000  0.24240000  1.0 0.1669023575
H  H52  1  0.53190000  0.90550000  0.75760000  1.0 0.1669023575
H  H53  1  0.58890000  0.75300000  0.24030000  1.0 0.1669023575
H  H54  1  0.51270000  0.34860000  0.75970000  1.0 0.1669023575
H  H55  1  0.09860000  0.76270000  0.25970000  1.0 0.1669023575
H  H56  1  0.50300000  0.83890000  0.74030000  1.0 0.1669023575
C  C1  1  0.15980000  0.38660000  0.72380000  1.0 0.340320194
C  C2  1  0.66280000  0.43600000  0.27620000  1.0 0.340320194
C  C3  1  0.13660000  0.40980000  0.22380000  1.0 0.340320194
C  C4  1  0.18600000  0.91280000  0.77620000  1.0 0.340320194
C  C5  1  0.13860000  0.32260000  0.62000000  1.0 0.0999648923
C  C6  1  0.70260000  0.51860000  0.38000000  1.0 0.0999648923
C  C7  1  0.07260000  0.38860000  0.12000000  1.0 0.0999648923
C  C8  1  0.26860000  0.95260000  0.88000000  1.0 0.0999648923
C  C9  1  0.17500000  0.29670000  0.66170000  1.0 0.0768063672
C  C10  1  0.63500000  0.51330000  0.33830000  1.0 0.0768063672
C  C11  1  0.04670000  0.42500000  0.16170000  1.0 0.0768063672
C  C12  1  0.26330000  0.88500000  0.83830000  1.0 0.0768063672
C  C13  1  0.16300000  0.45200000  0.78100000  1.0 -0.1100006105
C  C14  1  0.67100000  0.38200000  0.21900000  1.0 -0.1100006105
C  C15  1  0.20200000  0.41300000  0.28100000  1.0 -0.1100006105
C  C16  1  0.13200000  0.92100000  0.71900000  1.0 -0.1100006105
C  C17  1  0.21000000  0.48800000  0.84000000  1.0 -0.0912349049
C  C18  1  0.64800000  0.37000000  0.16000000  1.0 -0.0912349049
C  C19  1  0.23800000  0.46000000  0.34000000  1.0 -0.0912349049
C  C20  1  0.12000000  0.89800000  0.66000000  1.0 -0.0912349049
C  C21  1  0.56400000  0.84020000  0.22680000  1.0 0.340320194
C  C22  1  0.61340000  0.33720000  0.77320000  1.0 0.340320194
C  C23  1  0.08720000  0.86340000  0.27320000  1.0 0.340320194
C  C24  1  0.59020000  0.81400000  0.72680000  1.0 0.340320194
C  C25  1  0.48140000  0.86140000  0.18400000  1.0 0.0999648923
C  C26  1  0.67740000  0.29740000  0.81600000  1.0 0.0999648923
C  C27  1  0.04740000  0.92740000  0.31600000  1.0 0.0999648923
C  C28  1  0.61140000  0.73140000  0.68400000  1.0 0.0999648923
C  C29  1  0.48670000  0.82500000  0.12170000  1.0 0.0768063672
C  C30  1  0.70330000  0.36500000  0.87830000  1.0 0.0768063672
C  C31  1  0.11500000  0.95330000  0.37830000  1.0 0.0768063672
C  C32  1  0.57500000  0.73670000  0.62170000  1.0 0.0768063672
C  C33  1  0.61800000  0.83700000  0.28900000  1.0 -0.1100006105
C  C34  1  0.54800000  0.32900000  0.71100000  1.0 -0.1100006105
C  C35  1  0.07900000  0.79800000  0.21100000  1.0 -0.1100006105
C  C36  1  0.58700000  0.86800000  0.78900000  1.0 -0.1100006105
C  C37  1  0.63000000  0.79000000  0.27800000  1.0 -0.0912349049
C  C38  1  0.51200000  0.35200000  0.72200000  1.0 -0.0912349049
C  C39  1  0.10200000  0.76200000  0.22200000  1.0 -0.0912349049
C  C40  1  0.54000000  0.88000000  0.77800000  1.0 -0.0912349049
S  S1  1  0.17260000  0.54280000  0.71920000  1.0 -0.6015677092
S  S2  1  0.82360000  0.45340000  0.28080000  1.0 -0.6015677092
S  S3  1  0.29280000  0.42260000  0.21920000  1.0 -0.6015677092
S  S4  1  0.20340000  0.07360000  0.78080000  1.0 -0.6015677092
S  S5  1  0.95820000  0.43620000  0.24540000  1.0 -0.6261659419
S  S6  1  0.19080000  0.71280000  0.75460000  1.0 -0.6261659419
S  S7  1  0.18620000  0.20820000  0.74540000  1.0 -0.6261659419
S  S8  1  0.46280000  0.44080000  0.25460000  1.0 -0.6261659419
S  S9  1  0.99588000  0.59468000  0.43840000  1.0 -0.769348765
S  S10  1  0.15628000  0.55748000  0.56160000  1.0 -0.769348765
S  S11  1  0.34468000  0.24588000  0.93840000  1.0 -0.769348765
S  S12  1  0.30748000  0.40628000  0.06160000  1.0 -0.769348765
S  S13  1  0.97901000  0.41631000  0.40210000  1.0 -0.7567595934
S  S14  1  0.01421000  0.57691000  0.59790000  1.0 -0.7530761009
S  S15  1  0.16631000  0.22901000  0.90210000  1.0 -0.7530761009
S  S16  1  0.32691000  0.26421000  0.09790000  1.0 -0.7530761009
S  S17  1  0.99570000  0.40160000  0.55970000  1.0 -0.6073364054
S  S18  1  0.84190000  0.43600000  0.44030000  1.0 -0.6015677092
S  S19  1  0.15160000  0.24570000  0.05970000  1.0 -0.6015677092
S  S20  1  0.18600000  0.09190000  0.94030000  1.0 -0.6015677092
S  S21  1  0.13510000  0.57670000  0.40480000  1.0 -0.6015677092
S  S22  1  0.17190000  0.73030000  0.59520000  1.0 -0.6073364054
S  S23  1  0.32670000  0.38510000  0.90480000  1.0 -0.6073364054
S  S24  1  0.48030000  0.42190000  0.09520000  1.0 -0.6015677092
S  S25  1  0.11980000  0.39910000  0.36910000  1.0 -0.6073364054
S  S26  1  0.03000000  0.75070000  0.63090000  1.0 -0.6073364054
S  S27  1  0.14910000  0.36980000  0.86910000  1.0 -0.6073364054
S  S28  1  0.50070000  0.28000000  0.13090000  1.0 -0.6226203068
S  S29  1  0.13780000  0.38270000  0.52290000  1.0 -0.6261659419
S  S30  1  0.85980000  0.61490000  0.47710000  1.0 -0.6226203068
S  S31  1  0.13270000  0.38780000  0.02290000  1.0 -0.6261659419
S  S32  1  0.36490000  0.10980000  0.97710000  1.0 -0.6261659419
S  S33  1  0.54660000  0.82740000  0.37020000  1.0 -0.6015677092
S  S34  1  0.45720000  0.17640000  0.62980000  1.0 -0.6015677092
S  S35  1  0.92640000  0.70720000  0.12980000  1.0 -0.5934617316
S  S36  1  0.57740000  0.79660000  0.87020000  1.0 -0.5934617316
S  S37  1  0.28720000  0.04180000  0.47800000  1.0 -0.6261659419
S  S38  1  0.56380000  0.80920000  0.52200000  1.0 -0.6261659419
S  S39  1  0.55920000  0.81380000  0.02200000  1.0 -0.6226203068
S  S40  1  0.79180000  0.53720000  0.97800000  1.0 -0.6226203068
S  S41  1  0.44252000  0.00412000  0.59880000  1.0 -0.769348765
S  S42  1  0.40532000  0.84372000  0.40120000  1.0 -0.769348765
S  S43  1  0.59372000  0.65532000  0.90120000  1.0 -0.769348765
S  S44  1  0.75412000  0.69252000  0.09880000  1.0 -0.769348765
S  S45  1  0.42309000  0.02099000  0.43730000  1.0 -0.7530761009
S  S46  1  0.58369000  0.98579000  0.56270000  1.0 -0.7567595934
S  S47  1  0.73579000  0.83369000  0.06270000  1.0 -0.7567595934
S  S48  1  0.77099000  0.67309000  0.93730000  1.0 -0.7567595934
S  S49  1  0.56400000  0.00430000  0.40590000  1.0 -0.6015677092
S  S50  1  0.59840000  0.15810000  0.59410000  1.0 -0.6015677092
S  S51  1  0.90810000  0.84840000  0.09410000  1.0 -0.6015677092
S  S52  1  0.75430000  0.81400000  0.90590000  1.0 -0.6015677092
S  S53  1  0.26970000  0.86490000  0.44160000  1.0 -0.6015677092
S  S54  1  0.42330000  0.82810000  0.55840000  1.0 -0.6015677092
S  S55  1  0.57810000  0.67330000  0.05840000  1.0 -0.6015677092
S  S56  1  0.61490000  0.51970000  0.94160000  1.0 -0.6015677092
S  S57  1  0.24930000  0.88020000  0.27930000  1.0 -0.6073364054
S  S58  1  0.60090000  0.97000000  0.72070000  1.0 -0.6073364054
S  S59  1  0.72000000  0.85090000  0.22070000  1.0 -0.6073364054
S  S60  1  0.63020000  0.49930000  0.77930000  1.0 -0.6073364054
S  S61  1  0.38510000  0.86220000  0.24490000  1.0 -0.6226203068
S  S62  1  0.61730000  0.14020000  0.75510000  1.0 -0.6261659419
S  S63  1  0.89020000  0.86730000  0.25510000  1.0 -0.6226203068
S  S64  1  0.61220000  0.63510000  0.74490000  1.0 -0.6226203068
N  N1  1  0.14760000  0.38040000  0.66540000  1.0 -0.281016404
N  N2  1  0.71500000  0.48220000  0.33460000  1.0 -0.281016404
N  N3  1  0.13040000  0.39760000  0.16540000  1.0 -0.281016404
N  N4  1  0.23220000  0.96500000  0.83460000  1.0 -0.281016404
N  N5  1  0.17520000  0.33990000  0.72710000  1.0 -0.3175457885
N  N6  1  0.61280000  0.44810000  0.27290000  1.0 -0.3175457885
N  N7  1  0.08990000  0.42520000  0.22710000  1.0 -0.3175457885
N  N8  1  0.19810000  0.86280000  0.77290000  1.0 -0.3175457885
N  N9  1  0.51780000  0.85240000  0.23280000  1.0 -0.281016404
N  N10  1  0.61960000  0.28500000  0.76720000  1.0 -0.281016404
N  N11  1  0.03500000  0.86960000  0.26720000  1.0 -0.281016404
N  N12  1  0.60240000  0.76780000  0.73280000  1.0 -0.281016404
N  N13  1  0.55190000  0.82480000  0.16470000  1.0 -0.3175457885
N  N14  1  0.66010000  0.38720000  0.83530000  1.0 -0.3175457885
N  N15  1  0.13720000  0.91010000  0.33530000  1.0 -0.3175457885
N  N16  1  0.57480000  0.80190000  0.66470000  1.0 -0.3175457885
