# DDEC6 charges by PACMAN v1.1 (https://github.com/mtap-research/PACMAN-charge/)
data_EMIHEO_FSR_pacman
_symmetry_space_group_name_H-M   'P 1'
_cell_length_a   23.31630000
_cell_length_b   23.31630000
_cell_length_c   23.31630000
_cell_angle_alpha   97.29410000
_cell_angle_beta   97.29410000
_cell_angle_gamma   138.25200000
_symmetry_Int_Tables_number   1
_chemical_formula_structural   Cd4In16H4C6S31N4
_chemical_formula_sum   'Cd8 In32 H8 C12 S62 N8'
_cell_volume   7886.32629309
_cell_formula_units_Z   2
loop_
 _symmetry_equiv_pos_site_id
 _symmetry_equiv_pos_as_xyz
  1  'x, y, z'
loop_
 _atom_site_type_symbol
 _atom_site_label
 _atom_site_symmetry_multiplicity
 _atom_site_fract_x
 _atom_site_fract_y
 _atom_site_fract_z
 _atom_site_occupancy
 _atom_site_charge
Cd  Cd1  1  0.06711000  0.02271000  0.91688000  1.0 0.7775896731
Cd  Cd2  1  0.10583000  0.15023000  0.08312000  1.0 0.7775896731
Cd  Cd3  1  0.84977000  0.93289000  0.95560000  1.0 0.7775896731
Cd  Cd4  1  0.97729000  0.89417000  0.04440000  1.0 0.7723194007
Cd  Cd5  1  0.18289000  0.59977000  0.45560000  1.0 0.7775896731
Cd  Cd6  1  0.14417000  0.72729000  0.54440000  1.0 0.7853119019
Cd  Cd7  1  0.40023000  0.85583000  0.58312000  1.0 0.7775896731
Cd  Cd8  1  0.27271000  0.81711000  0.41688000  1.0 0.7775896731
In  In1  1  0.31587000  0.23558000  0.04089000  1.0 0.9777008607
In  In2  1  0.19469000  0.27498000  0.95911000  1.0 0.9777008607
In  In3  1  0.72502000  0.68413000  0.91971000  1.0 0.9777008607
In  In4  1  0.76442000  0.80531000  0.08029000  1.0 0.9777008607
In  In5  1  0.93413000  0.47502000  0.41971000  1.0 0.9777008607
In  In6  1  0.05531000  0.51442000  0.58029000  1.0 0.9777008607
In  In7  1  0.52498000  0.94469000  0.45911000  1.0 0.9777008607
In  In8  1  0.48558000  0.06587000  0.54089000  1.0 0.9777008607
In  In9  1  0.81539000  0.81157000  0.79342000  1.0 0.9777008607
In  In10  1  0.01815000  0.02197000  0.20658000  1.0 0.9777008607
In  In11  1  0.97803000  0.18461000  0.99618000  1.0 0.9973741416
In  In12  1  0.18843000  0.98185000  0.00382000  1.0 0.9777008607
In  In13  1  0.43461000  0.72803000  0.49618000  1.0 0.9742365721
In  In14  1  0.23185000  0.93843000  0.50382000  1.0 0.9742365721
In  In15  1  0.27197000  0.76815000  0.70658000  1.0 0.9742365721
In  In16  1  0.06157000  0.56539000  0.29342000  1.0 0.9777008607
In  In17  1  0.94007000  0.77151000  0.88158000  1.0 0.9777008607
In  In18  1  0.88993000  0.05849000  0.11842000  1.0 0.9777008607
In  In19  1  0.94151000  0.05993000  0.83144000  1.0 0.9777008607
In  In20  1  0.22849000  0.11007000  0.16856000  1.0 0.9777008607
In  In21  1  0.30993000  0.69151000  0.33144000  1.0 0.9777008607
In  In22  1  0.36007000  0.97849000  0.66856000  1.0 0.9742365721
In  In23  1  0.30849000  0.63993000  0.61842000  1.0 0.9742365721
In  In24  1  0.02151000  0.69007000  0.38158000  1.0 0.9941910747
In  In25  1  0.41881000  0.18722000  0.12123000  1.0 0.9344238285
In  In26  1  0.06599000  0.29758000  0.87877000  1.0 0.9015368703
In  In27  1  0.70242000  0.58119000  0.76841000  1.0 0.9015368703
In  In28  1  0.81278000  0.93401000  0.23159000  1.0 0.9079227987
In  In29  1  0.83119000  0.45242000  0.26841000  1.0 0.9079227987
In  In30  1  0.18401000  0.56278000  0.73159000  1.0 0.9015368703
In  In31  1  0.54758000  0.81599000  0.37877000  1.0 0.9015368703
In  In32  1  0.43722000  0.16881000  0.62123000  1.0 0.9015368703
H  H1  1  0.54560000  0.18820000  0.07500000  1.0 0.1275316123
H  H2  1  0.11320000  0.47060000  0.92500000  1.0 0.1144868526
H  H3  1  0.52940000  0.45440000  0.64260000  1.0 0.1144868526
H  H4  1  0.81180000  0.88680000  0.35740000  1.0 0.116367856
H  H5  1  0.70440000  0.27940000  0.14260000  1.0 0.1144868526
H  H6  1  0.13680000  0.56180000  0.85740000  1.0 0.1144868526
H  H7  1  0.72060000  0.86320000  0.42500000  1.0 0.1144868526
H  H8  1  0.43820000  0.29560000  0.57500000  1.0 0.1144868526
C  C1  1  0.62500000  0.31800000  0.19300000  1.0 0.3934083426
C  C2  1  0.12500000  0.43200000  0.80700000  1.0 0.3934083426
C  C3  1  0.56800000  0.37500000  0.69300000  1.0 0.3934083426
C  C4  1  0.68200000  0.87500000  0.30700000  1.0 0.3954536263
C  C5  1  0.57750000  0.22900000  0.11450000  1.0 0.2100342307
C  C6  1  0.11450000  0.46300000  0.88550000  1.0 0.2019509567
C  C7  1  0.53700000  0.42250000  0.65150000  1.0 0.2019509567
C  C8  1  0.77100000  0.88550000  0.34850000  1.0 0.2019509567
C  C9  1  0.67250000  0.28700000  0.15150000  1.0 0.2100342307
C  C10  1  0.13550000  0.52100000  0.84850000  1.0 0.2019509567
C  C11  1  0.71300000  0.86450000  0.38550000  1.0 0.2019509567
C  C12  1  0.47900000  0.32750000  0.61450000  1.0 0.2019509567
S  S1  1  0.00000000  0.00000000  0.00000000  1.0 -0.5788401123
S  S2  1  0.25000000  0.75000000  0.50000000  1.0 -0.5920488791
S  S3  1  0.96300000  0.87520000  0.83420000  1.0 -0.6114890818
S  S4  1  0.04100000  0.12880000  0.16580000  1.0 -0.6114890818
S  S5  1  0.87120000  0.03700000  0.91220000  1.0 -0.6190606481
S  S6  1  0.12480000  0.95900000  0.08780000  1.0 -0.6114890818
S  S7  1  0.28700000  0.62120000  0.41220000  1.0 -0.6114890818
S  S8  1  0.20900000  0.87480000  0.58780000  1.0 -0.6114890818
S  S9  1  0.37880000  0.79100000  0.66580000  1.0 -0.6190606481
S  S10  1  0.12520000  0.71300000  0.33420000  1.0 -0.6190606481
S  S11  1  0.21500000  0.08730000  0.95830000  1.0 -0.6114890818
S  S12  1  0.12900000  0.25670000  0.04170000  1.0 -0.6190606481
S  S13  1  0.74330000  0.78500000  0.87230000  1.0 -0.6190606481
S  S14  1  0.91270000  0.87100000  0.12770000  1.0 -0.6114890818
S  S15  1  0.03500000  0.49330000  0.37230000  1.0 -0.6114890818
S  S16  1  0.12100000  0.66270000  0.62770000  1.0 -0.6190606481
S  S17  1  0.50670000  0.87900000  0.54170000  1.0 -0.6190606481
S  S18  1  0.33730000  0.96500000  0.45830000  1.0 -0.6114890818
S  S19  1  0.09250000  0.12930000  0.87260000  1.0 -0.601262724
S  S20  1  0.25670000  0.21990000  0.12740000  1.0 -0.601262724
S  S21  1  0.78010000  0.90750000  0.03680000  1.0 -0.601262724
S  S22  1  0.87070000  0.74330000  0.96320000  1.0 -0.6114890818
S  S23  1  0.15750000  0.53010000  0.53680000  1.0 -0.601262724
S  S24  1  0.99330000  0.62070000  0.46320000  1.0 -0.6190606481
S  S25  1  0.46990000  0.00670000  0.62740000  1.0 -0.6114890818
S  S26  1  0.37930000  0.84250000  0.37260000  1.0 -0.6114890818
S  S27  1  0.34080000  0.34080000  0.00000000  1.0 -0.6601522323
S  S28  1  0.65920000  0.65920000  0.00000000  1.0 -0.6601522323
S  S29  1  0.90920000  0.40920000  0.50000000  1.0 -0.6601522323
S  S30  1  0.59080000  0.09080000  0.50000000  1.0 -0.6601522323
S  S31  1  0.46020000  0.30040000  0.08180000  1.0 -0.6190606481
S  S32  1  0.21860000  0.37840000  0.91820000  1.0 -0.6114890818
S  S33  1  0.62160000  0.53980000  0.84020000  1.0 -0.6114890818
S  S34  1  0.69960000  0.78140000  0.15980000  1.0 -0.6190606481
S  S35  1  0.78980000  0.37160000  0.34020000  1.0 -0.6190606481
S  S36  1  0.03140000  0.44960000  0.65980000  1.0 -0.6114890818
S  S37  1  0.62840000  0.96860000  0.41820000  1.0 -0.6114890818
S  S38  1  0.55040000  0.21020000  0.58180000  1.0 -0.6190606481
S  S39  1  0.83770000  0.62630000  0.80120000  1.0 -0.6320534702
S  S40  1  0.82510000  0.03650000  0.19880000  1.0 -0.6668705698
S  S41  1  0.96350000  0.16230000  0.78860000  1.0 -0.6320534702
S  S42  1  0.37370000  0.17490000  0.21140000  1.0 -0.64072386
S  S43  1  0.41230000  0.71350000  0.28860000  1.0 -0.6320534702
S  S44  1  0.42490000  0.12370000  0.71140000  1.0 -0.6320534702
S  S45  1  0.28650000  0.57510000  0.69880000  1.0 -0.6320534702
S  S46  1  0.87630000  0.58770000  0.30120000  1.0 -0.64072386
S  S47  1  0.83970000  0.91490000  0.75060000  1.0 -0.6888126727
S  S48  1  0.16430000  0.08910000  0.24940000  1.0 -0.6888126727
S  S49  1  0.91090000  0.16030000  0.07520000  1.0 -0.69556663
S  S50  1  0.08510000  0.83570000  0.92480000  1.0 -0.6820554194
S  S51  1  0.41030000  0.66090000  0.57520000  1.0 -0.6888126727
S  S52  1  0.08570000  0.83510000  0.42480000  1.0 -0.6888126727
S  S53  1  0.33910000  0.91430000  0.74940000  1.0 -0.6820554194
S  S54  1  0.16490000  0.58970000  0.25060000  1.0 -0.6888126727
S  S55  1  0.71390000  0.66820000  0.71190000  1.0 -0.5920488791
S  S56  1  0.95630000  0.00200000  0.28810000  1.0 -0.6190606481
S  S57  1  0.99800000  0.28610000  0.95430000  1.0 -0.601262724
S  S58  1  0.33180000  0.04370000  0.04570000  1.0 -0.601262724
S  S59  1  0.53610000  0.74800000  0.45430000  1.0 -0.5920488791
S  S60  1  0.29370000  0.08180000  0.54570000  1.0 -0.5920488791
S  S61  1  0.25200000  0.70630000  0.78810000  1.0 -0.5920488791
S  S62  1  0.91820000  0.46390000  0.21190000  1.0 -0.5920488791
N  N1  1  0.54790000  0.24730000  0.14720000  1.0 -0.2809789162
N  N2  1  0.10010000  0.40070000  0.85280000  1.0 -0.2889711839
N  N3  1  0.59930000  0.45210000  0.69940000  1.0 -0.2889711839
N  N4  1  0.75270000  0.89990000  0.30060000  1.0 -0.2809789162
N  N5  1  0.70210000  0.34930000  0.19940000  1.0 -0.2809789162
N  N6  1  0.14990000  0.50270000  0.80060000  1.0 -0.2889711839
N  N7  1  0.65070000  0.85010000  0.35280000  1.0 -0.2809789162
N  N8  1  0.49730000  0.29790000  0.64720000  1.0 -0.2889711839
