# DDEC6 charges by PACMAN v1.1 (https://github.com/mtap-research/PACMAN-charge/)
data_EMOSOO_ASR_pacman
_symmetry_space_group_name_H-M   'P 1'
_cell_length_a   7.44970000
_cell_length_b   13.30340000
_cell_length_c   18.34400000
_cell_angle_alpha   90.00000000
_cell_angle_beta   90.00000000
_cell_angle_gamma   90.00000000
_symmetry_Int_Tables_number   1
_chemical_formula_structural   Zn5(PO4)4
_chemical_formula_sum   'Zn20 P16 O64'
_cell_volume   1818.00668225
_cell_formula_units_Z   4
loop_
 _symmetry_equiv_pos_site_id
 _symmetry_equiv_pos_as_xyz
  1  'x, y, z'
loop_
 _atom_site_type_symbol
 _atom_site_label
 _atom_site_symmetry_multiplicity
 _atom_site_fract_x
 _atom_site_fract_y
 _atom_site_fract_z
 _atom_site_occupancy
 _atom_site_charge
Zn  Zn1  1  0.06080000  0.87830000  0.05650000  1.0 1.1000603152
Zn  Zn2  1  0.56080000  0.12170000  0.44350000  1.0 1.1000603152
Zn  Zn3  1  0.43920000  0.62170000  0.55650000  1.0 1.1000603152
Zn  Zn4  1  0.93920000  0.37830000  0.94350000  1.0 1.1000603152
Zn  Zn5  1  0.93920000  0.12170000  0.94350000  1.0 1.1000603152
Zn  Zn6  1  0.43920000  0.87830000  0.55650000  1.0 1.1000603152
Zn  Zn7  1  0.56080000  0.37830000  0.44350000  1.0 1.1000603152
Zn  Zn8  1  0.06080000  0.62170000  0.05650000  1.0 1.1000603152
Zn  Zn9  1  0.85990000  0.25000000  0.16690000  1.0 1.2540218246
Zn  Zn10  1  0.35990000  0.75000000  0.33310000  1.0 1.2566660853
Zn  Zn11  1  0.64010000  0.25000000  0.66690000  1.0 1.2566660853
Zn  Zn12  1  0.14010000  0.75000000  0.83310000  1.0 1.2566660853
Zn  Zn13  1  0.49110000  0.12840000  0.96610000  1.0 1.0501150501
Zn  Zn14  1  0.99110000  0.87160000  0.53390000  1.0 1.0501150501
Zn  Zn15  1  0.00890000  0.37160000  0.46610000  1.0 1.0501150501
Zn  Zn16  1  0.50890000  0.62840000  0.03390000  1.0 1.0501150501
Zn  Zn17  1  0.50890000  0.87160000  0.03390000  1.0 1.0501150501
Zn  Zn18  1  0.00890000  0.12840000  0.46610000  1.0 1.0501150501
Zn  Zn19  1  0.99110000  0.62840000  0.53390000  1.0 1.0501150501
Zn  Zn20  1  0.49110000  0.37160000  0.96610000  1.0 1.0501150501
P  P1  1  0.75160000  0.04810000  0.08540000  1.0 1.5533712518
P  P2  1  0.25160000  0.95190000  0.41460000  1.0 1.5591978741
P  P3  1  0.74840000  0.45190000  0.58540000  1.0 1.5533712518
P  P4  1  0.24840000  0.54810000  0.91460000  1.0 1.5591978741
P  P5  1  0.24840000  0.95190000  0.91460000  1.0 1.5591978741
P  P6  1  0.74840000  0.04810000  0.58540000  1.0 1.5533712518
P  P7  1  0.25160000  0.54810000  0.41460000  1.0 1.5591978741
P  P8  1  0.75160000  0.45190000  0.08540000  1.0 1.5533712518
P  P9  1  0.18800000  0.25000000  0.04260000  1.0 1.5591978741
P  P10  1  0.68800000  0.75000000  0.45740000  1.0 1.5591978741
P  P11  1  0.31200000  0.25000000  0.54260000  1.0 1.5591978741
P  P12  1  0.81200000  0.75000000  0.95740000  1.0 1.5591978741
P  P13  1  0.81520000  0.25000000  0.34540000  1.0 1.5220875454
P  P14  1  0.31520000  0.75000000  0.15460000  1.0 1.5220875454
P  P15  1  0.68480000  0.25000000  0.84540000  1.0 1.5220875454
P  P16  1  0.18480000  0.75000000  0.65460000  1.0 1.5220875454
O  O1  1  0.93310000  0.99570000  0.08470000  1.0 -0.7407081488
O  O2  1  0.43310000  0.00430000  0.41530000  1.0 -0.7407081488
O  O3  1  0.56690000  0.50430000  0.58470000  1.0 -0.7407081488
O  O4  1  0.06690000  0.49570000  0.91530000  1.0 -0.7407081488
O  O5  1  0.06690000  0.00430000  0.91530000  1.0 -0.7407081488
O  O6  1  0.56690000  0.99570000  0.58470000  1.0 -0.7407081488
O  O7  1  0.43310000  0.49570000  0.41530000  1.0 -0.7407081488
O  O8  1  0.93310000  0.50430000  0.08470000  1.0 -0.7407081488
O  O9  1  0.72940000  0.10010000  0.00920000  1.0 -0.7685137677
O  O10  1  0.22940000  0.89990000  0.49080000  1.0 -0.7685137677
O  O11  1  0.77060000  0.39990000  0.50920000  1.0 -0.7585187344
O  O12  1  0.27060000  0.60010000  0.99080000  1.0 -0.7685137677
O  O13  1  0.27060000  0.89990000  0.99080000  1.0 -0.7685137677
O  O14  1  0.77060000  0.10010000  0.50920000  1.0 -0.7585187344
O  O15  1  0.22940000  0.60010000  0.49080000  1.0 -0.7685137677
O  O16  1  0.72940000  0.39990000  0.00920000  1.0 -0.7685137677
O  O17  1  0.74210000  0.12490000  0.14610000  1.0 -0.7136271807
O  O18  1  0.24210000  0.87510000  0.35390000  1.0 -0.7136271807
O  O19  1  0.75790000  0.37510000  0.64610000  1.0 -0.7136271807
O  O20  1  0.25790000  0.62490000  0.85390000  1.0 -0.7136271807
O  O21  1  0.25790000  0.87510000  0.85390000  1.0 -0.7136271807
O  O22  1  0.75790000  0.12490000  0.64610000  1.0 -0.7136271807
O  O23  1  0.24210000  0.62490000  0.35390000  1.0 -0.7136271807
O  O24  1  0.74210000  0.37510000  0.14610000  1.0 -0.7136271807
O  O25  1  0.59290000  0.97680000  0.09580000  1.0 -0.7191608338
O  O26  1  0.09290000  0.02320000  0.40420000  1.0 -0.7191608338
O  O27  1  0.90710000  0.52320000  0.59580000  1.0 -0.7191608338
O  O28  1  0.40710000  0.47680000  0.90420000  1.0 -0.7191608338
O  O29  1  0.40710000  0.02320000  0.90420000  1.0 -0.7191608338
O  O30  1  0.90710000  0.97680000  0.59580000  1.0 -0.7191608338
O  O31  1  0.09290000  0.47680000  0.40420000  1.0 -0.7191608338
O  O32  1  0.59290000  0.52320000  0.09580000  1.0 -0.7191608338
O  O33  1  0.05210000  0.25000000  0.97680000  1.0 -0.7685137677
O  O34  1  0.55210000  0.75000000  0.52320000  1.0 -0.7685137677
O  O35  1  0.44790000  0.25000000  0.47680000  1.0 -0.7685137677
O  O36  1  0.94790000  0.75000000  0.02320000  1.0 -0.7685137677
O  O37  1  0.30230000  0.34490000  0.03640000  1.0 -0.7407081488
O  O38  1  0.80230000  0.65510000  0.46360000  1.0 -0.7407081488
O  O39  1  0.19770000  0.15510000  0.53640000  1.0 -0.7407081488
O  O40  1  0.69770000  0.84490000  0.96360000  1.0 -0.7407081488
O  O41  1  0.69770000  0.65510000  0.96360000  1.0 -0.7407081488
O  O42  1  0.19770000  0.34490000  0.53640000  1.0 -0.7407081488
O  O43  1  0.80230000  0.84490000  0.46360000  1.0 -0.7407081488
O  O44  1  0.30230000  0.15510000  0.03640000  1.0 -0.7407081488
O  O45  1  0.08830000  0.25000000  0.11390000  1.0 -0.7191608338
O  O46  1  0.58830000  0.75000000  0.38610000  1.0 -0.7191608338
O  O47  1  0.41170000  0.25000000  0.61390000  1.0 -0.7191608338
O  O48  1  0.91170000  0.75000000  0.88610000  1.0 -0.7191608338
O  O49  1  0.96530000  0.25000000  0.40660000  1.0 -0.7585187344
O  O50  1  0.46530000  0.75000000  0.09340000  1.0 -0.7585187344
O  O51  1  0.53470000  0.25000000  0.90660000  1.0 -0.7585187344
O  O52  1  0.03470000  0.75000000  0.59340000  1.0 -0.7585187344
O  O53  1  0.70350000  0.15460000  0.35670000  1.0 -0.7278096515
O  O54  1  0.20350000  0.84540000  0.14330000  1.0 -0.7278096515
O  O55  1  0.79650000  0.34540000  0.85670000  1.0 -0.7278096515
O  O56  1  0.29650000  0.65460000  0.64330000  1.0 -0.7278096515
O  O57  1  0.29650000  0.84540000  0.64330000  1.0 -0.7278096515
O  O58  1  0.79650000  0.15460000  0.85670000  1.0 -0.7278096515
O  O59  1  0.20350000  0.65460000  0.14330000  1.0 -0.7278096515
O  O60  1  0.70350000  0.34540000  0.35670000  1.0 -0.7278096515
O  O61  1  0.90400000  0.25000000  0.27120000  1.0 -0.6879590142
O  O62  1  0.40400000  0.75000000  0.22880000  1.0 -0.6879590142
O  O63  1  0.59600000  0.25000000  0.77120000  1.0 -0.6879590142
O  O64  1  0.09600000  0.75000000  0.72880000  1.0 -0.6879590142
