# DDEC6 charges by PACMAN v1.1 (https://github.com/mtap-research/PACMAN-charge/)
data_EMOXAI_ASR_pacman
_symmetry_space_group_name_H-M   'P 1'
_cell_length_a   18.35720000
_cell_length_b   18.35720000
_cell_length_c   24.22820000
_cell_angle_alpha   90.00000000
_cell_angle_beta   90.00000000
_cell_angle_gamma   120.00000000
_symmetry_Int_Tables_number   1
_chemical_formula_structural   CuH3C13NO5F2
_chemical_formula_sum   'Cu12 H36 C156 N12 O60 F24'
_cell_volume   7070.73662711
_cell_formula_units_Z   12
loop_
 _symmetry_equiv_pos_site_id
 _symmetry_equiv_pos_as_xyz
  1  'x, y, z'
loop_
 _atom_site_type_symbol
 _atom_site_label
 _atom_site_symmetry_multiplicity
 _atom_site_fract_x
 _atom_site_fract_y
 _atom_site_fract_z
 _atom_site_occupancy
 _atom_site_charge
Cu  Cu1  1  0.47511000  0.95022000  0.54403000  1.0 0.8708929421
Cu  Cu2  1  0.47511000  0.52489000  0.54403000  1.0 0.8708929421
Cu  Cu3  1  0.04978000  0.52489000  0.54403000  1.0 0.8708929421
Cu  Cu4  1  0.52489000  0.04978000  0.04403000  1.0 0.8708929421
Cu  Cu5  1  0.52489000  0.47511000  0.04403000  1.0 0.8708929421
Cu  Cu6  1  0.95022000  0.47511000  0.04403000  1.0 0.8708929421
Cu  Cu7  1  0.52489000  0.04978000  0.45597000  1.0 0.8708929421
Cu  Cu8  1  0.95022000  0.47511000  0.45597000  1.0 0.8708929421
Cu  Cu9  1  0.52489000  0.47511000  0.45597000  1.0 0.8708929421
Cu  Cu10  1  0.47511000  0.95022000  0.95597000  1.0 0.8708929421
Cu  Cu11  1  0.04978000  0.52489000  0.95597000  1.0 0.8708929421
Cu  Cu12  1  0.47511000  0.52489000  0.95597000  1.0 0.8708929421
H  H1  1  0.63522000  0.92620000  0.36180000  1.0 0.1371510676
H  H2  1  0.29098000  0.36478000  0.36180000  1.0 0.1371510676
H  H3  1  0.07380000  0.70902000  0.36180000  1.0 0.1371510676
H  H4  1  0.36478000  0.07380000  0.86180000  1.0 0.1371510676
H  H5  1  0.70902000  0.63522000  0.86180000  1.0 0.1371510676
H  H6  1  0.92620000  0.29098000  0.86180000  1.0 0.1371510676
H  H7  1  0.70902000  0.07380000  0.63820000  1.0 0.1371510676
H  H8  1  0.92620000  0.63522000  0.63820000  1.0 0.1371510676
H  H9  1  0.36478000  0.29098000  0.63820000  1.0 0.1371510676
H  H10  1  0.29098000  0.92620000  0.13820000  1.0 0.1371510676
H  H11  1  0.07380000  0.36478000  0.13820000  1.0 0.1371510676
H  H12  1  0.63522000  0.70902000  0.13820000  1.0 0.1371510676
H  H13  1  0.36478000  0.07380000  0.63820000  1.0 0.1371510676
H  H14  1  0.70902000  0.63522000  0.63820000  1.0 0.1371510676
H  H15  1  0.92620000  0.29098000  0.63820000  1.0 0.1371510676
H  H16  1  0.63522000  0.92620000  0.13820000  1.0 0.1371510676
H  H17  1  0.29098000  0.36478000  0.13820000  1.0 0.1371510676
H  H18  1  0.07380000  0.70902000  0.13820000  1.0 0.1371510676
H  H19  1  0.29098000  0.92620000  0.36180000  1.0 0.1371510676
H  H20  1  0.07380000  0.36478000  0.36180000  1.0 0.1371510676
H  H21  1  0.63522000  0.70902000  0.36180000  1.0 0.1371510676
H  H22  1  0.70902000  0.07380000  0.86180000  1.0 0.1371510676
H  H23  1  0.92620000  0.63522000  0.86180000  1.0 0.1371510676
H  H24  1  0.36478000  0.29098000  0.86180000  1.0 0.1371510676
H  H25  1  0.53179000  0.76589000  0.48802000  1.0 0.1371510676
H  H26  1  0.23411000  0.46821000  0.48802000  1.0 0.1371510676
H  H27  1  0.23411000  0.76589000  0.48802000  1.0 0.1371510676
H  H28  1  0.46821000  0.23411000  0.98802000  1.0 0.1371510676
H  H29  1  0.76589000  0.53179000  0.98802000  1.0 0.1371510676
H  H30  1  0.76589000  0.23411000  0.98802000  1.0 0.1371510676
H  H31  1  0.76589000  0.23411000  0.51198000  1.0 0.1371510676
H  H32  1  0.76589000  0.53179000  0.51198000  1.0 0.1371510676
H  H33  1  0.46821000  0.23411000  0.51198000  1.0 0.1371510676
H  H34  1  0.23411000  0.76589000  0.01198000  1.0 0.1371510676
H  H35  1  0.23411000  0.46821000  0.01198000  1.0 0.1371510676
H  H36  1  0.53179000  0.76589000  0.01198000  1.0 0.1371510676
C  C1  1  0.55150000  0.91100000  0.45456000  1.0 0.5834939481
C  C2  1  0.57770000  0.85430000  0.42873000  1.0 -0.0215528571
C  C3  1  0.62120000  0.87530000  0.37866000  1.0 -0.1022995299
C  C4  1  0.76740000  0.92940000  0.29940000  1.0 -0.1022995299
C  C5  1  0.35950000  0.44850000  0.45456000  1.0 0.5834939481
C  C6  1  0.27660000  0.42230000  0.42873000  1.0 -0.0215528571
C  C7  1  0.25410000  0.37880000  0.37866000  1.0 -0.1022995299
C  C8  1  0.16200000  0.23260000  0.29940000  1.0 -0.1022995299
C  C9  1  0.08900000  0.64050000  0.45456000  1.0 0.5834939481
C  C10  1  0.14570000  0.72340000  0.42873000  1.0 -0.0215528571
C  C11  1  0.12470000  0.74590000  0.37866000  1.0 -0.1022995299
C  C12  1  0.07060000  0.83800000  0.29940000  1.0 -0.1022995299
C  C13  1  0.44850000  0.08900000  0.95456000  1.0 0.5834939481
C  C14  1  0.42230000  0.14570000  0.92873000  1.0 -0.0215528571
C  C15  1  0.37880000  0.12470000  0.87866000  1.0 -0.1022995299
C  C16  1  0.23260000  0.07060000  0.79940000  1.0 -0.1022995299
C  C17  1  0.64050000  0.55150000  0.95456000  1.0 0.5834939481
C  C18  1  0.72340000  0.57770000  0.92873000  1.0 -0.0215528571
C  C19  1  0.74590000  0.62120000  0.87866000  1.0 -0.1022995299
C  C20  1  0.83800000  0.76740000  0.79940000  1.0 -0.1022995299
C  C21  1  0.91100000  0.35950000  0.95456000  1.0 0.5834939481
C  C22  1  0.85430000  0.27660000  0.92873000  1.0 -0.0215528571
C  C23  1  0.87530000  0.25410000  0.87866000  1.0 -0.1022995299
C  C24  1  0.92940000  0.16200000  0.79940000  1.0 -0.1022995299
C  C25  1  0.64050000  0.08900000  0.54544000  1.0 0.5834939481
C  C26  1  0.72340000  0.14570000  0.57127000  1.0 -0.0215528571
C  C27  1  0.74590000  0.12470000  0.62134000  1.0 -0.1022995299
C  C28  1  0.83800000  0.07060000  0.70060000  1.0 -0.1022995299
C  C29  1  0.91100000  0.55150000  0.54544000  1.0 0.5834939481
C  C30  1  0.85430000  0.57770000  0.57127000  1.0 -0.0215528571
C  C31  1  0.87530000  0.62120000  0.62134000  1.0 -0.1022995299
C  C32  1  0.92940000  0.76740000  0.70060000  1.0 -0.1022995299
C  C33  1  0.44850000  0.35950000  0.54544000  1.0 0.5834939481
C  C34  1  0.42230000  0.27660000  0.57127000  1.0 -0.0215528571
C  C35  1  0.37880000  0.25410000  0.62134000  1.0 -0.1022995299
C  C36  1  0.23260000  0.16200000  0.70060000  1.0 -0.1022995299
C  C37  1  0.35950000  0.91100000  0.04544000  1.0 0.5834939481
C  C38  1  0.27660000  0.85430000  0.07127000  1.0 -0.0215528571
C  C39  1  0.25410000  0.87530000  0.12134000  1.0 -0.1022995299
C  C40  1  0.16200000  0.92940000  0.20060000  1.0 -0.1022995299
C  C41  1  0.08900000  0.44850000  0.04544000  1.0 0.5834939481
C  C42  1  0.14570000  0.42230000  0.07127000  1.0 -0.0215528571
C  C43  1  0.12470000  0.37880000  0.12134000  1.0 -0.1022995299
C  C44  1  0.07060000  0.23260000  0.20060000  1.0 -0.1022995299
C  C45  1  0.55150000  0.64050000  0.04544000  1.0 0.5834939481
C  C46  1  0.57770000  0.72340000  0.07127000  1.0 -0.0215528571
C  C47  1  0.62120000  0.74590000  0.12134000  1.0 -0.1022995299
C  C48  1  0.76740000  0.83800000  0.20060000  1.0 -0.1022995299
C  C49  1  0.44850000  0.08900000  0.54544000  1.0 0.5834939481
C  C50  1  0.42230000  0.14570000  0.57127000  1.0 -0.0215528571
C  C51  1  0.37880000  0.12470000  0.62134000  1.0 -0.1022995299
C  C52  1  0.23260000  0.07060000  0.70060000  1.0 -0.1022995299
C  C53  1  0.64050000  0.55150000  0.54544000  1.0 0.5834939481
C  C54  1  0.72340000  0.57770000  0.57127000  1.0 -0.0215528571
C  C55  1  0.74590000  0.62120000  0.62134000  1.0 -0.1022995299
C  C56  1  0.83800000  0.76740000  0.70060000  1.0 -0.1022995299
C  C57  1  0.91100000  0.35950000  0.54544000  1.0 0.5834939481
C  C58  1  0.85430000  0.27660000  0.57127000  1.0 -0.0215528571
C  C59  1  0.87530000  0.25410000  0.62134000  1.0 -0.1022995299
C  C60  1  0.92940000  0.16200000  0.70060000  1.0 -0.1022995299
C  C61  1  0.55150000  0.91100000  0.04544000  1.0 0.5834939481
C  C62  1  0.57770000  0.85430000  0.07127000  1.0 -0.0215528571
C  C63  1  0.62120000  0.87530000  0.12134000  1.0 -0.1022995299
C  C64  1  0.76740000  0.92940000  0.20060000  1.0 -0.1022995299
C  C65  1  0.35950000  0.44850000  0.04544000  1.0 0.5834939481
C  C66  1  0.27660000  0.42230000  0.07127000  1.0 -0.0215528571
C  C67  1  0.25410000  0.37880000  0.12134000  1.0 -0.1022995299
C  C68  1  0.16200000  0.23260000  0.20060000  1.0 -0.1022995299
C  C69  1  0.08900000  0.64050000  0.04544000  1.0 0.5834939481
C  C70  1  0.14570000  0.72340000  0.07127000  1.0 -0.0215528571
C  C71  1  0.12470000  0.74590000  0.12134000  1.0 -0.1022995299
C  C72  1  0.07060000  0.83800000  0.20060000  1.0 -0.1022995299
C  C73  1  0.35950000  0.91100000  0.45456000  1.0 0.5834939481
C  C74  1  0.27660000  0.85430000  0.42873000  1.0 -0.0215528571
C  C75  1  0.25410000  0.87530000  0.37866000  1.0 -0.1022995299
C  C76  1  0.16200000  0.92940000  0.29940000  1.0 -0.1022995299
C  C77  1  0.08900000  0.44850000  0.45456000  1.0 0.5834939481
C  C78  1  0.14570000  0.42230000  0.42873000  1.0 -0.0215528571
C  C79  1  0.12470000  0.37880000  0.37866000  1.0 -0.1022995299
C  C80  1  0.07060000  0.23260000  0.29940000  1.0 -0.1022995299
C  C81  1  0.55150000  0.64050000  0.45456000  1.0 0.5834939481
C  C82  1  0.57770000  0.72340000  0.42873000  1.0 -0.0215528571
C  C83  1  0.62120000  0.74590000  0.37866000  1.0 -0.1022995299
C  C84  1  0.76740000  0.83800000  0.29940000  1.0 -0.1022995299
C  C85  1  0.64050000  0.08900000  0.95456000  1.0 0.5834939481
C  C86  1  0.72340000  0.14570000  0.92873000  1.0 -0.0215528571
C  C87  1  0.74590000  0.12470000  0.87866000  1.0 -0.1022995299
C  C88  1  0.83800000  0.07060000  0.79940000  1.0 -0.1022995299
C  C89  1  0.91100000  0.55150000  0.95456000  1.0 0.5834939481
C  C90  1  0.85430000  0.57770000  0.92873000  1.0 -0.0215528571
C  C91  1  0.87530000  0.62120000  0.87866000  1.0 -0.1022995299
C  C92  1  0.92940000  0.76740000  0.79940000  1.0 -0.1022995299
C  C93  1  0.44850000  0.35950000  0.95456000  1.0 0.5834939481
C  C94  1  0.42230000  0.27660000  0.92873000  1.0 -0.0215528571
C  C95  1  0.37880000  0.25410000  0.87866000  1.0 -0.1022995299
C  C96  1  0.23260000  0.16200000  0.79940000  1.0 -0.1022995299
C  C97  1  0.80480000  0.96120000  0.25000000  1.0 0.2021421941
C  C98  1  0.15640000  0.19520000  0.25000000  1.0 0.2021421941
C  C99  1  0.03880000  0.84360000  0.25000000  1.0 0.2021421941
C  C100  1  0.19520000  0.03880000  0.75000000  1.0 0.2021421941
C  C101  1  0.84360000  0.80480000  0.75000000  1.0 0.2021421941
C  C102  1  0.96120000  0.15640000  0.75000000  1.0 0.2021421941
C  C103  1  0.84360000  0.03880000  0.75000000  1.0 0.2021421941
C  C104  1  0.96120000  0.80480000  0.75000000  1.0 0.2021421941
C  C105  1  0.19520000  0.15640000  0.75000000  1.0 0.2021421941
C  C106  1  0.15640000  0.96120000  0.25000000  1.0 0.2021421941
C  C107  1  0.03880000  0.19520000  0.25000000  1.0 0.2021421941
C  C108  1  0.80480000  0.84360000  0.25000000  1.0 0.2021421941
C  C109  1  0.64360000  0.82180000  0.35380000  1.0 0.0797805329
C  C110  1  0.55830000  0.77915000  0.45380000  1.0 -0.086265452
C  C111  1  0.68900000  0.84450000  0.29960000  1.0 0.0258608449
C  C112  1  0.17820000  0.35640000  0.35380000  1.0 0.0749308692
C  C113  1  0.22085000  0.44170000  0.45380000  1.0 -0.086265452
C  C114  1  0.15550000  0.31100000  0.29960000  1.0 0.0258608449
C  C115  1  0.17820000  0.82180000  0.35380000  1.0 0.0797805329
C  C116  1  0.22085000  0.77915000  0.45380000  1.0 -0.086265452
C  C117  1  0.15550000  0.84450000  0.29960000  1.0 0.0258608449
C  C118  1  0.35640000  0.17820000  0.85380000  1.0 0.0749308692
C  C119  1  0.44170000  0.22085000  0.95380000  1.0 -0.086265452
C  C120  1  0.31100000  0.15550000  0.79960000  1.0 0.0258608449
C  C121  1  0.82180000  0.64360000  0.85380000  1.0 0.0797805329
C  C122  1  0.77915000  0.55830000  0.95380000  1.0 -0.086265452
C  C123  1  0.84450000  0.68900000  0.79960000  1.0 0.0258608449
C  C124  1  0.82180000  0.17820000  0.85380000  1.0 0.0749308692
C  C125  1  0.77915000  0.22085000  0.95380000  1.0 -0.086265452
C  C126  1  0.84450000  0.15550000  0.79960000  1.0 0.0258608449
C  C127  1  0.82180000  0.17820000  0.64620000  1.0 0.0797805329
C  C128  1  0.77915000  0.22085000  0.54620000  1.0 -0.086265452
C  C129  1  0.84450000  0.15550000  0.70040000  1.0 0.0258608449
C  C130  1  0.82180000  0.64360000  0.64620000  1.0 0.0797805329
C  C131  1  0.77915000  0.55830000  0.54620000  1.0 -0.086265452
C  C132  1  0.84450000  0.68900000  0.70040000  1.0 0.0258608449
C  C133  1  0.35640000  0.17820000  0.64620000  1.0 0.0749308692
C  C134  1  0.44170000  0.22085000  0.54620000  1.0 -0.086265452
C  C135  1  0.31100000  0.15550000  0.70040000  1.0 0.0258608449
C  C136  1  0.17820000  0.82180000  0.14620000  1.0 0.0797805329
C  C137  1  0.22085000  0.77915000  0.04620000  1.0 -0.086265452
C  C138  1  0.15550000  0.84450000  0.20040000  1.0 0.0258608449
C  C139  1  0.17820000  0.35640000  0.14620000  1.0 0.0749308692
C  C140  1  0.22085000  0.44170000  0.04620000  1.0 -0.086265452
C  C141  1  0.15550000  0.31100000  0.20040000  1.0 0.0258608449
C  C142  1  0.64360000  0.82180000  0.14620000  1.0 0.0797805329
C  C143  1  0.55830000  0.77915000  0.04620000  1.0 -0.086265452
C  C144  1  0.68900000  0.84450000  0.20040000  1.0 0.0258608449
C  C145  1  0.64880000  0.82440000  0.25000000  1.0 0.1173088018
C  C146  1  0.17560000  0.35120000  0.25000000  1.0 0.1173088018
C  C147  1  0.17560000  0.82440000  0.25000000  1.0 0.1173088018
C  C148  1  0.35120000  0.17560000  0.75000000  1.0 0.1173088018
C  C149  1  0.82440000  0.64880000  0.75000000  1.0 0.1173088018
C  C150  1  0.82440000  0.17560000  0.75000000  1.0 0.1173088018
C  C151  1  0.88950000  0.11050000  0.25000000  1.0 0.4405800106
C  C152  1  0.22100000  0.11050000  0.25000000  1.0 0.4405800106
C  C153  1  0.88950000  0.77900000  0.25000000  1.0 0.4405800106
C  C154  1  0.11050000  0.88950000  0.75000000  1.0 0.4405800106
C  C155  1  0.77900000  0.88950000  0.75000000  1.0 0.4405800106
C  C156  1  0.11050000  0.22100000  0.75000000  1.0 0.4405800106
N  N1  1  0.56790000  0.81980000  0.25000000  1.0 -0.142065428
N  N2  1  0.25190000  0.43210000  0.25000000  1.0 -0.142065428
N  N3  1  0.18020000  0.74810000  0.25000000  1.0 -0.142065428
N  N4  1  0.43210000  0.18020000  0.75000000  1.0 -0.142065428
N  N5  1  0.74810000  0.56790000  0.75000000  1.0 -0.142065428
N  N6  1  0.81980000  0.25190000  0.75000000  1.0 -0.142065428
N  N7  1  0.74810000  0.18020000  0.75000000  1.0 -0.142065428
N  N8  1  0.81980000  0.56790000  0.75000000  1.0 -0.142065428
N  N9  1  0.43210000  0.25190000  0.75000000  1.0 -0.142065428
N  N10  1  0.25190000  0.81980000  0.25000000  1.0 -0.142065428
N  N11  1  0.18020000  0.43210000  0.25000000  1.0 -0.142065428
N  N12  1  0.56790000  0.74810000  0.25000000  1.0 -0.142065428
O  O1  1  0.52010000  0.89070000  0.50230000  1.0 -0.5298518189
O  O2  1  0.56170000  0.97310000  0.42746000  1.0 -0.5107450385
O  O3  1  0.37060000  0.47990000  0.50230000  1.0 -0.5298518189
O  O4  1  0.41140000  0.43830000  0.42746000  1.0 -0.5107450385
O  O5  1  0.10930000  0.62940000  0.50230000  1.0 -0.5298518189
O  O6  1  0.02690000  0.58860000  0.42746000  1.0 -0.5107450385
O  O7  1  0.47990000  0.10930000  0.00230000  1.0 -0.5298518189
O  O8  1  0.43830000  0.02690000  0.92746000  1.0 -0.5107450385
O  O9  1  0.62940000  0.52010000  0.00230000  1.0 -0.5298518189
O  O10  1  0.58860000  0.56170000  0.92746000  1.0 -0.5107450385
O  O11  1  0.89070000  0.37060000  0.00230000  1.0 -0.5298518189
O  O12  1  0.97310000  0.41140000  0.92746000  1.0 -0.5107450385
O  O13  1  0.62940000  0.10930000  0.49770000  1.0 -0.5298518189
O  O14  1  0.58860000  0.02690000  0.57254000  1.0 -0.5107450385
O  O15  1  0.89070000  0.52010000  0.49770000  1.0 -0.5298518189
O  O16  1  0.97310000  0.56170000  0.57254000  1.0 -0.5107450385
O  O17  1  0.47990000  0.37060000  0.49770000  1.0 -0.5298518189
O  O18  1  0.43830000  0.41140000  0.57254000  1.0 -0.5107450385
O  O19  1  0.37060000  0.89070000  0.99770000  1.0 -0.5298518189
O  O20  1  0.41140000  0.97310000  0.07254000  1.0 -0.5107450385
O  O21  1  0.10930000  0.47990000  0.99770000  1.0 -0.5298518189
O  O22  1  0.02690000  0.43830000  0.07254000  1.0 -0.5107450385
O  O23  1  0.52010000  0.62940000  0.99770000  1.0 -0.5298518189
O  O24  1  0.56170000  0.58860000  0.07254000  1.0 -0.5107450385
O  O25  1  0.47990000  0.10930000  0.49770000  1.0 -0.5298518189
O  O26  1  0.43830000  0.02690000  0.57254000  1.0 -0.5107450385
O  O27  1  0.62940000  0.52010000  0.49770000  1.0 -0.5298518189
O  O28  1  0.58860000  0.56170000  0.57254000  1.0 -0.5107450385
O  O29  1  0.89070000  0.37060000  0.49770000  1.0 -0.5298518189
O  O30  1  0.97310000  0.41140000  0.57254000  1.0 -0.5107450385
O  O31  1  0.52010000  0.89070000  0.99770000  1.0 -0.5298518189
O  O32  1  0.56170000  0.97310000  0.07254000  1.0 -0.5107450385
O  O33  1  0.37060000  0.47990000  0.99770000  1.0 -0.5298518189
O  O34  1  0.41140000  0.43830000  0.07254000  1.0 -0.5107450385
O  O35  1  0.10930000  0.62940000  0.99770000  1.0 -0.5298518189
O  O36  1  0.02690000  0.58860000  0.07254000  1.0 -0.5107450385
O  O37  1  0.37060000  0.89070000  0.50230000  1.0 -0.5298518189
O  O38  1  0.41140000  0.97310000  0.42746000  1.0 -0.5107450385
O  O39  1  0.10930000  0.47990000  0.50230000  1.0 -0.5298518189
O  O40  1  0.02690000  0.43830000  0.42746000  1.0 -0.5107450385
O  O41  1  0.52010000  0.62940000  0.50230000  1.0 -0.5298518189
O  O42  1  0.56170000  0.58860000  0.42746000  1.0 -0.5107450385
O  O43  1  0.62940000  0.10930000  0.00230000  1.0 -0.5298518189
O  O44  1  0.58860000  0.02690000  0.92746000  1.0 -0.5107450385
O  O45  1  0.89070000  0.52010000  0.00230000  1.0 -0.5298518189
O  O46  1  0.97310000  0.56170000  0.92746000  1.0 -0.5107450385
O  O47  1  0.47990000  0.37060000  0.00230000  1.0 -0.5298518189
O  O48  1  0.43830000  0.41140000  0.92746000  1.0 -0.5107450385
O  O49  1  0.89110000  0.03670000  0.25000000  1.0 -0.1078388056
O  O50  1  0.14560000  0.10890000  0.25000000  1.0 -0.1078388056
O  O51  1  0.96330000  0.85440000  0.25000000  1.0 -0.1078388056
O  O52  1  0.10890000  0.96330000  0.75000000  1.0 -0.1078388056
O  O53  1  0.85440000  0.89110000  0.75000000  1.0 -0.1078388056
O  O54  1  0.03670000  0.14560000  0.75000000  1.0 -0.1078388056
O  O55  1  0.85440000  0.96330000  0.75000000  1.0 -0.1078388056
O  O56  1  0.03670000  0.89110000  0.75000000  1.0 -0.1078388056
O  O57  1  0.10890000  0.14560000  0.75000000  1.0 -0.1078388056
O  O58  1  0.14560000  0.03670000  0.25000000  1.0 -0.1078388056
O  O59  1  0.96330000  0.10890000  0.25000000  1.0 -0.1078388056
O  O60  1  0.89110000  0.85440000  0.25000000  1.0 -0.1078388056
F  F1  1  0.83180000  0.03000000  0.25000000  1.0 0.0797805329
F  F2  1  0.19820000  0.16820000  0.25000000  1.0 0.0797805329
F  F3  1  0.97000000  0.80180000  0.25000000  1.0 0.0797805329
F  F4  1  0.16820000  0.97000000  0.75000000  1.0 0.0797805329
F  F5  1  0.80180000  0.83180000  0.75000000  1.0 0.0797805329
F  F6  1  0.03000000  0.19820000  0.75000000  1.0 0.0797805329
F  F7  1  0.80180000  0.97000000  0.75000000  1.0 0.0797805329
F  F8  1  0.03000000  0.83180000  0.75000000  1.0 0.0797805329
F  F9  1  0.16820000  0.19820000  0.75000000  1.0 0.0797805329
F  F10  1  0.19820000  0.03000000  0.25000000  1.0 0.0797805329
F  F11  1  0.97000000  0.16820000  0.25000000  1.0 0.0797805329
F  F12  1  0.83180000  0.80180000  0.25000000  1.0 0.0797805329
F  F13  1  0.87075000  0.12925000  0.29730000  1.0 -0.2432187281
F  F14  1  0.25850000  0.12925000  0.29730000  1.0 -0.2432187281
F  F15  1  0.87075000  0.74150000  0.29730000  1.0 -0.2432187281
F  F16  1  0.12925000  0.87075000  0.79730000  1.0 -0.2432187281
F  F17  1  0.74150000  0.87075000  0.79730000  1.0 -0.2432187281
F  F18  1  0.12925000  0.25850000  0.79730000  1.0 -0.2432187281
F  F19  1  0.74150000  0.87075000  0.70270000  1.0 -0.2469623137
F  F20  1  0.12925000  0.87075000  0.70270000  1.0 -0.2469623137
F  F21  1  0.12925000  0.25850000  0.70270000  1.0 -0.2432187281
F  F22  1  0.25850000  0.12925000  0.20270000  1.0 -0.2432187281
F  F23  1  0.87075000  0.12925000  0.20270000  1.0 -0.2469623137
F  F24  1  0.87075000  0.74150000  0.20270000  1.0 -0.2432187281
