# DDEC6 charges by PACMAN v1.1 (https://github.com/mtap-research/PACMAN-charge/)
data_EMUYAM01_ASR_pacman
_symmetry_space_group_name_H-M   'P 1'
_cell_length_a   15.29000000
_cell_length_b   15.29000000
_cell_length_c   6.90500000
_cell_angle_alpha   90.00000000
_cell_angle_beta   90.00000000
_cell_angle_gamma   120.00000000
_symmetry_Int_Tables_number   1
_chemical_formula_structural   FeAg2H16(C7N3)4
_chemical_formula_sum   'Fe3 Ag6 H48 C84 N36'
_cell_volume   1398.00680509
_cell_formula_units_Z   3
loop_
 _symmetry_equiv_pos_site_id
 _symmetry_equiv_pos_as_xyz
  1  'x, y, z'
loop_
 _atom_site_type_symbol
 _atom_site_label
 _atom_site_symmetry_multiplicity
 _atom_site_fract_x
 _atom_site_fract_y
 _atom_site_fract_z
 _atom_site_occupancy
 _atom_site_charge
Fe  Fe1  1  0.50000000  0.00000000  0.50000000  1.0 0.6250039596
Fe  Fe2  1  0.00000000  0.50000000  0.50000000  1.0 0.6250039596
Fe  Fe3  1  0.50000000  0.50000000  0.50000000  1.0 0.6250039596
Ag  Ag1  1  0.26446000  0.73554000  0.99999000  1.0 0.2592192848
Ag  Ag2  1  0.26446000  0.52892000  0.99999000  1.0 0.2592192848
Ag  Ag3  1  0.47108000  0.73554000  0.99999000  1.0 0.2592192848
Ag  Ag4  1  0.73554000  0.26446000  0.00001000  1.0 0.2592192848
Ag  Ag5  1  0.73554000  0.47108000  0.00001000  1.0 0.2592192848
Ag  Ag6  1  0.52892000  0.26446000  0.00001000  1.0 0.2592192848
H  H1  1  0.69890000  0.16730000  0.36920000  1.0 0.0608464897
H  H2  1  0.83270000  0.53160000  0.36920000  1.0 0.0608464897
H  H3  1  0.46840000  0.30110000  0.36920000  1.0 0.0608464897
H  H4  1  0.30110000  0.83270000  0.63080000  1.0 0.0608464897
H  H5  1  0.16730000  0.46840000  0.63080000  1.0 0.0608464897
H  H6  1  0.53160000  0.69890000  0.63080000  1.0 0.0608464897
H  H7  1  0.84940000  0.18790000  0.24710000  1.0 0.107524227
H  H8  1  0.81210000  0.66150000  0.24710000  1.0 0.107524227
H  H9  1  0.33850000  0.15060000  0.24710000  1.0 0.107524227
H  H10  1  0.15060000  0.81210000  0.75290000  1.0 0.107524227
H  H11  1  0.18790000  0.33850000  0.75290000  1.0 0.107524227
H  H12  1  0.66150000  0.84940000  0.75290000  1.0 0.107524227
H  H13  1  0.86610000  0.04770000  0.18680000  1.0 0.0788926302
H  H14  1  0.95230000  0.81840000  0.18680000  1.0 0.0788926302
H  H15  1  0.18160000  0.13390000  0.18680000  1.0 0.0788926302
H  H16  1  0.13390000  0.95230000  0.81320000  1.0 0.0788926302
H  H17  1  0.04770000  0.18160000  0.81320000  1.0 0.0788926302
H  H18  1  0.81840000  0.86610000  0.81320000  1.0 0.0788926302
H  H19  1  0.58180000  0.86630000  0.37080000  1.0 0.0788926302
H  H20  1  0.13370000  0.71550000  0.37080000  1.0 0.0788926302
H  H21  1  0.28450000  0.41820000  0.37080000  1.0 0.0788926302
H  H22  1  0.41820000  0.13370000  0.62920000  1.0 0.0788926302
H  H23  1  0.86630000  0.28450000  0.62920000  1.0 0.0788926302
H  H24  1  0.71550000  0.58180000  0.62920000  1.0 0.0788926302
H  H25  1  0.71460000  0.13320000  0.37180000  1.0 0.0788926302
H  H26  1  0.86680000  0.58140000  0.37180000  1.0 0.0788926302
H  H27  1  0.41860000  0.28540000  0.37180000  1.0 0.0788926302
H  H28  1  0.28540000  0.86680000  0.62820000  1.0 0.0788926302
H  H29  1  0.13320000  0.41860000  0.62820000  1.0 0.0788926302
H  H30  1  0.58140000  0.71460000  0.62820000  1.0 0.0788926302
H  H31  1  0.81900000  0.95280000  0.18870000  1.0 0.0788926302
H  H32  1  0.04720000  0.86620000  0.18870000  1.0 0.0788926302
H  H33  1  0.13380000  0.18100000  0.18870000  1.0 0.0788926302
H  H34  1  0.18100000  0.04720000  0.81130000  1.0 0.0788926302
H  H35  1  0.95280000  0.13380000  0.81130000  1.0 0.0788926302
H  H36  1  0.86620000  0.81900000  0.81130000  1.0 0.0788926302
H  H37  1  0.66230000  0.81220000  0.24800000  1.0 0.107524227
H  H38  1  0.18780000  0.85010000  0.24800000  1.0 0.107524227
H  H39  1  0.14990000  0.33770000  0.24800000  1.0 0.107524227
H  H40  1  0.33770000  0.18780000  0.75200000  1.0 0.107524227
H  H41  1  0.81220000  0.14990000  0.75200000  1.0 0.107524227
H  H42  1  0.85010000  0.66230000  0.75200000  1.0 0.107524227
H  H43  1  0.53170000  0.83200000  0.36920000  1.0 0.0608464897
H  H44  1  0.16800000  0.69970000  0.36920000  1.0 0.0608464897
H  H45  1  0.30030000  0.46830000  0.36920000  1.0 0.0608464897
H  H46  1  0.46830000  0.16800000  0.63080000  1.0 0.0608464897
H  H47  1  0.83200000  0.30030000  0.63080000  1.0 0.0608464897
H  H48  1  0.69970000  0.53170000  0.63080000  1.0 0.0608464897
C  C1  1  0.35740000  0.83710000  0.20980000  1.0 -0.1267379574
C  C2  1  0.16290000  0.52030000  0.20980000  1.0 -0.1267379574
C  C3  1  0.47970000  0.64260000  0.20980000  1.0 -0.1267379574
C  C4  1  0.64260000  0.16290000  0.79020000  1.0 -0.1267379574
C  C5  1  0.83710000  0.47970000  0.79020000  1.0 -0.1267379574
C  C6  1  0.52030000  0.35740000  0.79020000  1.0 -0.1267379574
C  C7  1  0.47950000  0.83710000  0.79070000  1.0 -0.1267379574
C  C8  1  0.16290000  0.64240000  0.79070000  1.0 -0.1267379574
C  C9  1  0.35760000  0.52050000  0.79070000  1.0 -0.1267379574
C  C10  1  0.52050000  0.16290000  0.20930000  1.0 -0.1267379574
C  C11  1  0.83710000  0.35760000  0.20930000  1.0 -0.1267379574
C  C12  1  0.64240000  0.47950000  0.20930000  1.0 -0.1267379574
C  C13  1  0.70560000  0.11110000  0.34500000  1.0 0.0297467519
C  C14  1  0.88890000  0.59450000  0.34500000  1.0 0.0297467519
C  C15  1  0.40550000  0.29440000  0.34500000  1.0 0.0297467519
C  C16  1  0.29440000  0.88890000  0.65500000  1.0 0.0297467519
C  C17  1  0.11110000  0.40550000  0.65500000  1.0 0.0297467519
C  C18  1  0.59450000  0.70560000  0.65500000  1.0 0.0297467519
C  C19  1  0.79580000  0.12350000  0.27190000  1.0 -0.0953684937
C  C20  1  0.87650000  0.67230000  0.27190000  1.0 -0.0953684937
C  C21  1  0.32770000  0.20420000  0.27190000  1.0 -0.0953684937
C  C22  1  0.20420000  0.87650000  0.72810000  1.0 -0.0953684937
C  C23  1  0.12350000  0.32770000  0.72810000  1.0 -0.0953684937
C  C24  1  0.67230000  0.79580000  0.72810000  1.0 -0.0953684937
C  C25  1  0.80580000  0.03950000  0.23580000  1.0 -0.0095365607
C  C26  1  0.96050000  0.76630000  0.23580000  1.0 -0.0095365607
C  C27  1  0.23370000  0.19420000  0.23580000  1.0 -0.0095365607
C  C28  1  0.19420000  0.96050000  0.76420000  1.0 -0.0095365607
C  C29  1  0.03950000  0.23370000  0.76420000  1.0 -0.0095365607
C  C30  1  0.76630000  0.80580000  0.76420000  1.0 -0.0095365607
C  C31  1  0.72560000  0.94310000  0.27290000  1.0 0.0297467519
C  C32  1  0.05690000  0.78250000  0.27290000  1.0 0.0297467519
C  C33  1  0.21750000  0.27440000  0.27290000  1.0 0.0297467519
C  C34  1  0.27440000  0.05690000  0.72710000  1.0 0.0297467519
C  C35  1  0.94310000  0.21750000  0.72710000  1.0 0.0297467519
C  C36  1  0.78250000  0.72560000  0.72710000  1.0 0.0297467519
C  C37  1  0.63540000  0.93080000  0.34600000  1.0 0.0608464897
C  C38  1  0.06920000  0.70460000  0.34600000  1.0 0.0608464897
C  C39  1  0.29540000  0.36460000  0.34600000  1.0 0.0608464897
C  C40  1  0.36460000  0.06920000  0.65400000  1.0 0.0608464897
C  C41  1  0.93080000  0.29540000  0.65400000  1.0 0.0608464897
C  C42  1  0.70460000  0.63540000  0.65400000  1.0 0.0608464897
C  C43  1  0.73970000  0.86090000  0.24230000  1.0 -0.0679499974
C  C44  1  0.13910000  0.87880000  0.24230000  1.0 -0.0679499974
C  C45  1  0.12120000  0.26030000  0.24230000  1.0 -0.0679499974
C  C46  1  0.26030000  0.13910000  0.75770000  1.0 -0.0679499974
C  C47  1  0.86090000  0.12120000  0.75770000  1.0 -0.0679499974
C  C48  1  0.87880000  0.73970000  0.75770000  1.0 -0.0679499974
C  C49  1  0.70410000  0.06880000  0.34700000  1.0 0.065675262
C  C50  1  0.93120000  0.63530000  0.34700000  1.0 0.065675262
C  C51  1  0.36470000  0.29590000  0.34700000  1.0 0.0608464897
C  C52  1  0.29590000  0.93120000  0.65300000  1.0 0.0608464897
C  C53  1  0.06880000  0.36470000  0.65300000  1.0 0.0608464897
C  C54  1  0.63530000  0.70410000  0.65300000  1.0 0.065675262
C  C55  1  0.78240000  0.05690000  0.27440000  1.0 0.0297467519
C  C56  1  0.94310000  0.72550000  0.27440000  1.0 0.0297467519
C  C57  1  0.27450000  0.21760000  0.27440000  1.0 0.0297467519
C  C58  1  0.21760000  0.94310000  0.72560000  1.0 0.0297467519
C  C59  1  0.05690000  0.27450000  0.72560000  1.0 0.0297467519
C  C60  1  0.72550000  0.78240000  0.72560000  1.0 0.0297467519
C  C61  1  0.76670000  0.96080000  0.23730000  1.0 -0.0095365607
C  C62  1  0.03920000  0.80590000  0.23730000  1.0 -0.0095365607
C  C63  1  0.19410000  0.23330000  0.23730000  1.0 -0.0095365607
C  C64  1  0.23330000  0.03920000  0.76270000  1.0 -0.0095365607
C  C65  1  0.96080000  0.19410000  0.76270000  1.0 -0.0095365607
C  C66  1  0.80590000  0.76670000  0.76270000  1.0 -0.0095365607
C  C67  1  0.67280000  0.87650000  0.27280000  1.0 -0.0922084119
C  C68  1  0.12350000  0.79630000  0.27280000  1.0 -0.0922084119
C  C69  1  0.20370000  0.32720000  0.27280000  1.0 -0.0922084119
C  C70  1  0.32720000  0.12350000  0.72720000  1.0 -0.0922084119
C  C71  1  0.87650000  0.20370000  0.72720000  1.0 -0.0922084119
C  C72  1  0.79630000  0.67280000  0.72720000  1.0 -0.0922084119
C  C73  1  0.59460000  0.88840000  0.34540000  1.0 0.0297467519
C  C74  1  0.11160000  0.70620000  0.34540000  1.0 0.0297467519
C  C75  1  0.29380000  0.40540000  0.34540000  1.0 0.0297467519
C  C76  1  0.40540000  0.11160000  0.65460000  1.0 0.0297467519
C  C77  1  0.88840000  0.29380000  0.65460000  1.0 0.0297467519
C  C78  1  0.70620000  0.59460000  0.65460000  1.0 0.0297467519
C  C79  1  0.87980000  0.13990000  0.24030000  1.0 -0.0679499974
C  C80  1  0.86010000  0.73990000  0.24030000  1.0 -0.0679499974
C  C81  1  0.26010000  0.12020000  0.24030000  1.0 -0.0679499974
C  C82  1  0.12020000  0.86010000  0.75970000  1.0 -0.0679499974
C  C83  1  0.13990000  0.26010000  0.75970000  1.0 -0.0679499974
C  C84  1  0.73990000  0.87980000  0.75970000  1.0 -0.0679499974
N  N1  1  0.48550000  0.89590000  0.68230000  1.0 -0.2376679496
N  N2  1  0.10410000  0.58960000  0.68230000  1.0 -0.2376679496
N  N3  1  0.41040000  0.51450000  0.68230000  1.0 -0.2376679496
N  N4  1  0.51450000  0.10410000  0.31770000  1.0 -0.2376679496
N  N5  1  0.89590000  0.41040000  0.31770000  1.0 -0.2376679496
N  N6  1  0.58960000  0.48550000  0.31770000  1.0 -0.2376679496
N  N7  1  0.41070000  0.89640000  0.31710000  1.0 -0.2376679496
N  N8  1  0.10360000  0.51430000  0.31710000  1.0 -0.2376679496
N  N9  1  0.48570000  0.58930000  0.31710000  1.0 -0.2376679496
N  N10  1  0.58930000  0.10360000  0.68290000  1.0 -0.2376679496
N  N11  1  0.89640000  0.48570000  0.68290000  1.0 -0.2376679496
N  N12  1  0.51430000  0.41070000  0.68290000  1.0 -0.2376679496
N  N13  1  0.62540000  0.01480000  0.38210000  1.0 -0.1241415258
N  N14  1  0.98520000  0.61060000  0.38210000  1.0 -0.1241415258
N  N15  1  0.38940000  0.37460000  0.38210000  1.0 -0.1241415258
N  N16  1  0.37460000  0.98520000  0.61790000  1.0 -0.1267379574
N  N17  1  0.01480000  0.38940000  0.61790000  1.0 -0.1267379574
N  N18  1  0.61060000  0.62540000  0.61790000  1.0 -0.1241415258
N  N19  1  0.75300000  0.79390000  0.21520000  1.0 -0.0760707983
N  N20  1  0.20610000  0.95910000  0.21520000  1.0 -0.0760707983
N  N21  1  0.04090000  0.24700000  0.21520000  1.0 -0.0760707983
N  N22  1  0.24700000  0.20610000  0.78480000  1.0 -0.0760707983
N  N23  1  0.79390000  0.04090000  0.78480000  1.0 -0.0760707983
N  N24  1  0.95910000  0.75300000  0.78480000  1.0 -0.0760707983
N  N25  1  0.61020000  0.98460000  0.38250000  1.0 -0.1267379574
N  N26  1  0.01540000  0.62560000  0.38250000  1.0 -0.1267379574
N  N27  1  0.37440000  0.38980000  0.38250000  1.0 -0.1267379574
N  N28  1  0.38980000  0.01540000  0.61750000  1.0 -0.1267379574
N  N29  1  0.98460000  0.37440000  0.61750000  1.0 -0.1267379574
N  N30  1  0.62560000  0.61020000  0.61750000  1.0 -0.1267379574
N  N31  1  0.96040000  0.20660000  0.21710000  1.0 -0.0679499974
N  N32  1  0.79340000  0.75380000  0.21710000  1.0 -0.0679499974
N  N33  1  0.24620000  0.03960000  0.21710000  1.0 -0.0679499974
N  N34  1  0.03960000  0.79340000  0.78290000  1.0 -0.0679499974
N  N35  1  0.20660000  0.24620000  0.78290000  1.0 -0.0679499974
N  N36  1  0.75380000  0.96040000  0.78290000  1.0 -0.0679499974
