# DDEC6 charges by PACMAN v1.1 (https://github.com/mtap-research/PACMAN-charge/)
data_ENCDBZ_FSR_pacman
_symmetry_space_group_name_H-M   'P 1'
_cell_length_a   8.26200000
_cell_length_b   8.26200000
_cell_length_c   15.49500000
_cell_angle_alpha   90.00000000
_cell_angle_beta   90.00000000
_cell_angle_gamma   90.00000000
_symmetry_Int_Tables_number   1
_chemical_formula_structural   Cd(CN)4
_chemical_formula_sum   'Cd4 C16 N16'
_cell_volume   1057.69867878
_cell_formula_units_Z   4
loop_
 _symmetry_equiv_pos_site_id
 _symmetry_equiv_pos_as_xyz
  1  'x, y, z'
loop_
 _atom_site_type_symbol
 _atom_site_label
 _atom_site_symmetry_multiplicity
 _atom_site_fract_x
 _atom_site_fract_y
 _atom_site_fract_z
 _atom_site_occupancy
 _atom_site_charge
Cd  Cd1  1  0.50000000  0.50000000  0.25000000  1.0 0.4618380099
Cd  Cd2  1  0.50000000  0.50000000  0.75000000  1.0 0.4618380099
Cd  Cd3  1  0.50000000  0.00000000  0.00000000  1.0 0.7512174874
Cd  Cd4  1  0.00000000  0.50000000  0.50000000  1.0 0.7512174874
C  C1  1  0.50000000  0.28100000  0.16100000  1.0 0.1124432712
C  C2  1  0.71900000  0.50000000  0.66100000  1.0 0.1124432712
C  C3  1  0.50000000  0.71900000  0.83900000  1.0 0.1124432712
C  C4  1  0.50000000  0.71900000  0.16100000  1.0 0.1124432712
C  C5  1  0.28100000  0.50000000  0.33900000  1.0 0.1124432712
C  C6  1  0.28100000  0.50000000  0.66100000  1.0 0.1124432712
C  C7  1  0.50000000  0.28100000  0.83900000  1.0 0.1124432712
C  C8  1  0.71900000  0.50000000  0.33900000  1.0 0.1124432712
C  C9  1  0.10100000  0.03200000  0.00000000  1.0 0.0787706628
C  C10  1  0.96800000  0.10100000  0.50000000  1.0 0.0787706628
C  C11  1  0.10100000  0.96800000  0.00000000  1.0 0.0787706628
C  C12  1  0.89900000  0.96800000  0.00000000  1.0 0.0787706628
C  C13  1  0.03200000  0.10100000  0.50000000  1.0 0.0787706628
C  C14  1  0.03200000  0.89900000  0.50000000  1.0 0.0787706628
C  C15  1  0.89900000  0.03200000  0.00000000  1.0 0.0787706628
C  C16  1  0.96800000  0.89900000  0.50000000  1.0 0.0787706628
N  N1  1  0.50000000  0.19600000  0.10900000  1.0 -0.4376250551
N  N2  1  0.80400000  0.50000000  0.60900000  1.0 -0.4376250551
N  N3  1  0.50000000  0.80400000  0.89100000  1.0 -0.4376250551
N  N4  1  0.50000000  0.80400000  0.10900000  1.0 -0.4376250551
N  N5  1  0.19600000  0.50000000  0.39100000  1.0 -0.4376250551
N  N6  1  0.19600000  0.50000000  0.60900000  1.0 -0.4376250551
N  N7  1  0.50000000  0.19600000  0.89100000  1.0 -0.4376250551
N  N8  1  0.80400000  0.50000000  0.39100000  1.0 -0.4376250551
N  N9  1  0.21500000  0.05900000  0.00000000  1.0 -0.0568527532
N  N10  1  0.94100000  0.21500000  0.50000000  1.0 -0.0568527532
N  N11  1  0.21500000  0.94100000  0.00000000  1.0 -0.0568527532
N  N12  1  0.78500000  0.94100000  0.00000000  1.0 -0.0568527532
N  N13  1  0.05900000  0.21500000  0.50000000  1.0 -0.0568527532
N  N14  1  0.05900000  0.78500000  0.50000000  1.0 -0.0568527532
N  N15  1  0.78500000  0.05900000  0.00000000  1.0 -0.0568527532
N  N16  1  0.94100000  0.78500000  0.50000000  1.0 -0.0568527532
