# DDEC6 charges by PACMAN v1.1 (https://github.com/mtap-research/PACMAN-charge/)
data_ENCDBZ01_ASR_pacman
_symmetry_space_group_name_H-M   'P 1'
_cell_length_a   8.26500000
_cell_length_b   8.26500000
_cell_length_c   15.51200000
_cell_angle_alpha   90.00000000
_cell_angle_beta   90.00000000
_cell_angle_gamma   90.00000000
_symmetry_Int_Tables_number   1
_chemical_formula_structural   CdH8C3N4
_chemical_formula_sum   'Cd4 H32 C12 N16'
_cell_volume   1059.62821020
_cell_formula_units_Z   4
loop_
 _symmetry_equiv_pos_site_id
 _symmetry_equiv_pos_as_xyz
  1  'x, y, z'
loop_
 _atom_site_type_symbol
 _atom_site_label
 _atom_site_symmetry_multiplicity
 _atom_site_fract_x
 _atom_site_fract_y
 _atom_site_fract_z
 _atom_site_occupancy
 _atom_site_charge
Cd  Cd1  1  0.50000000  0.50000000  0.25000000  1.0 0.5386786793
Cd  Cd2  1  0.50000000  0.50000000  0.75000000  1.0 0.5386786793
Cd  Cd3  1  0.50000000  0.00000000  0.00000000  1.0 0.8216997121
Cd  Cd4  1  0.00000000  0.50000000  0.50000000  1.0 0.8216997121
H  H1  1  0.21037000  0.17509000  0.98435000  1.0 0.1033964936
H  H2  1  0.82491000  0.21037000  0.48435000  1.0 0.1033964936
H  H3  1  0.78963000  0.82491000  0.98435000  1.0 0.1033964936
H  H4  1  0.17509000  0.78963000  0.48435000  1.0 0.1033964936
H  H5  1  0.78963000  0.17509000  0.01565000  1.0 0.1033964936
H  H6  1  0.17509000  0.21037000  0.51565000  1.0 0.1033964936
H  H7  1  0.21037000  0.82491000  0.01565000  1.0 0.1033964936
H  H8  1  0.82491000  0.78963000  0.51565000  1.0 0.1033964936
H  H9  1  0.21037000  0.07763000  0.08507000  1.0 0.1051277012
H  H10  1  0.92237000  0.21037000  0.58507000  1.0 0.1051277012
H  H11  1  0.78963000  0.92237000  0.08507000  1.0 0.1051277012
H  H12  1  0.07763000  0.78963000  0.58507000  1.0 0.1051277012
H  H13  1  0.78963000  0.07763000  0.91493000  1.0 0.1051277012
H  H14  1  0.07763000  0.21037000  0.41493000  1.0 0.1051277012
H  H15  1  0.21037000  0.92237000  0.91493000  1.0 0.1051277012
H  H16  1  0.92237000  0.78963000  0.41493000  1.0 0.1051277012
H  H17  1  0.09931000  0.88550000  0.03229000  1.0 0.0420451226
H  H18  1  0.11450000  0.09931000  0.53229000  1.0 0.0420451226
H  H19  1  0.90069000  0.11450000  0.03229000  1.0 0.0420451226
H  H20  1  0.88550000  0.90069000  0.53229000  1.0 0.0420451226
H  H21  1  0.90069000  0.88550000  0.96771000  1.0 0.0420451226
H  H22  1  0.88550000  0.09931000  0.46771000  1.0 0.0420451226
H  H23  1  0.09931000  0.11450000  0.96771000  1.0 0.0420451226
H  H24  1  0.11450000  0.90069000  0.46771000  1.0 0.0420451226
H  H25  1  0.09931000  0.98296000  0.93158000  1.0 0.0420451226
H  H26  1  0.01704000  0.09931000  0.43158000  1.0 0.0420451226
H  H27  1  0.90069000  0.01704000  0.93158000  1.0 0.0420451226
H  H28  1  0.98296000  0.90069000  0.43158000  1.0 0.0420451226
H  H29  1  0.90069000  0.98296000  0.06842000  1.0 0.0420451226
H  H30  1  0.98296000  0.09931000  0.56842000  1.0 0.0420451226
H  H31  1  0.09931000  0.01704000  0.06842000  1.0 0.0420451226
H  H32  1  0.01704000  0.90069000  0.56842000  1.0 0.0420451226
C  C1  1  0.49900000  0.29130000  0.15970000  1.0 -0.0313213118
C  C2  1  0.70870000  0.49900000  0.65970000  1.0 -0.0313213118
C  C3  1  0.50100000  0.70870000  0.15970000  1.0 -0.0313213118
C  C4  1  0.29130000  0.50100000  0.65970000  1.0 -0.0313213118
C  C5  1  0.50100000  0.29130000  0.84030000  1.0 -0.0313213118
C  C6  1  0.29130000  0.49900000  0.34030000  1.0 -0.0313213118
C  C7  1  0.49900000  0.70870000  0.84030000  1.0 -0.0313213118
C  C8  1  0.70870000  0.50100000  0.34030000  1.0 -0.0313213118
C  C9  1  0.08220000  0.00000000  0.00000000  1.0 -0.0837301746
C  C10  1  0.00000000  0.08220000  0.50000000  1.0 -0.0837301746
C  C11  1  0.91780000  0.00000000  0.00000000  1.0 -0.0837301746
C  C12  1  0.00000000  0.91780000  0.50000000  1.0 -0.0837301746
N  N1  1  0.52000000  0.19620000  0.10770000  1.0 -0.3863626722
N  N2  1  0.80380000  0.52000000  0.60770000  1.0 -0.3863626722
N  N3  1  0.48000000  0.80380000  0.10770000  1.0 -0.3863626722
N  N4  1  0.19620000  0.48000000  0.60770000  1.0 -0.3863626722
N  N5  1  0.48000000  0.19620000  0.89230000  1.0 -0.3863626722
N  N6  1  0.19620000  0.52000000  0.39230000  1.0 -0.3863626722
N  N7  1  0.52000000  0.80380000  0.89230000  1.0 -0.3863626722
N  N8  1  0.80380000  0.48000000  0.39230000  1.0 -0.3863626722
N  N9  1  0.21880000  0.05900000  0.01630000  1.0 -0.1731599666
N  N10  1  0.94100000  0.21880000  0.51630000  1.0 -0.1731599666
N  N11  1  0.78120000  0.94100000  0.01630000  1.0 -0.1731599666
N  N12  1  0.05900000  0.78120000  0.51630000  1.0 -0.1731599666
N  N13  1  0.78120000  0.05900000  0.98370000  1.0 -0.1731599666
N  N14  1  0.05900000  0.21880000  0.48370000  1.0 -0.1731599666
N  N15  1  0.21880000  0.94100000  0.98370000  1.0 -0.1731599666
N  N16  1  0.94100000  0.78120000  0.48370000  1.0 -0.1731599666
