# DDEC6 charges by PACMAN v1.1 (https://github.com/mtap-research/PACMAN-charge/)
data_ENIHUG01_ASR_pacman
_symmetry_space_group_name_H-M   'P 1'
_cell_length_a   17.44730000
_cell_length_b   17.44730000
_cell_length_c   17.44730000
_cell_angle_alpha   97.42980000
_cell_angle_beta   97.42980000
_cell_angle_gamma   97.42980000
_symmetry_Int_Tables_number   1
_chemical_formula_structural   Cu2H13C27NO8
_chemical_formula_sum   'Cu6 H39 C81 N3 O24'
_cell_volume   5164.37797283
_cell_formula_units_Z   3
loop_
 _symmetry_equiv_pos_site_id
 _symmetry_equiv_pos_as_xyz
  1  'x, y, z'
loop_
 _atom_site_type_symbol
 _atom_site_label
 _atom_site_symmetry_multiplicity
 _atom_site_fract_x
 _atom_site_fract_y
 _atom_site_fract_z
 _atom_site_occupancy
 _atom_site_charge
Cu  Cu1  1  0.71866000  0.40117000  0.40117000  1.0 0.8851083272
Cu  Cu2  1  0.40117000  0.40117000  0.71866000  1.0 0.8851083272
Cu  Cu3  1  0.40117000  0.71866000  0.40117000  1.0 0.8851083272
Cu  Cu4  1  0.86628000  0.45990000  0.45990000  1.0 0.881652589
Cu  Cu5  1  0.45990000  0.45990000  0.86628000  1.0 0.881652589
Cu  Cu6  1  0.45990000  0.86628000  0.45990000  1.0 0.881652589
H  H1  1  0.74250000  0.38100000  0.16180000  1.0 0.1374786192
H  H2  1  0.38100000  0.16180000  0.74250000  1.0 0.1374786192
H  H3  1  0.16180000  0.74250000  0.38100000  1.0 0.1374786192
H  H4  1  0.38100000  0.74250000  0.16180000  1.0 0.1374786192
H  H5  1  0.16180000  0.38100000  0.74250000  1.0 0.1374786192
H  H6  1  0.74250000  0.16180000  0.38100000  1.0 0.1374786192
H  H7  1  0.76930000  0.37670000  0.03910000  1.0 0.1265212736
H  H8  1  0.37670000  0.03910000  0.76930000  1.0 0.1265212736
H  H9  1  0.03910000  0.76930000  0.37670000  1.0 0.1265212736
H  H10  1  0.37670000  0.76930000  0.03910000  1.0 0.1265212736
H  H11  1  0.03910000  0.37670000  0.76930000  1.0 0.1265212736
H  H12  1  0.76930000  0.03910000  0.37670000  1.0 0.1265212736
H  H13  1  0.98820000  0.47240000  0.11390000  1.0 0.1265212736
H  H14  1  0.47240000  0.11390000  0.98820000  1.0 0.1265212736
H  H15  1  0.11390000  0.98820000  0.47240000  1.0 0.1265212736
H  H16  1  0.47240000  0.98820000  0.11390000  1.0 0.1265212736
H  H17  1  0.11390000  0.47240000  0.98820000  1.0 0.1265212736
H  H18  1  0.98820000  0.11390000  0.47240000  1.0 0.1265212736
H  H19  1  0.96160000  0.47440000  0.24290000  1.0 0.1374786192
H  H20  1  0.47440000  0.24290000  0.96160000  1.0 0.1374786192
H  H21  1  0.24290000  0.96160000  0.47440000  1.0 0.1374786192
H  H22  1  0.47440000  0.96160000  0.24290000  1.0 0.1374786192
H  H23  1  0.24290000  0.47440000  0.96160000  1.0 0.1374786192
H  H24  1  0.96160000  0.24290000  0.47440000  1.0 0.1374786192
H  H25  1  0.78060000  0.44190000  0.93950000  1.0 0.1195550279
H  H26  1  0.44190000  0.93950000  0.78060000  1.0 0.1195550279
H  H27  1  0.93950000  0.78060000  0.44190000  1.0 0.1195550279
H  H28  1  0.44190000  0.78060000  0.93950000  1.0 0.1195550279
H  H29  1  0.93950000  0.44190000  0.78060000  1.0 0.1195550279
H  H30  1  0.78060000  0.93950000  0.44190000  1.0 0.1195550279
H  H31  1  0.69750000  0.44000000  0.85080000  1.0 0.1195550279
H  H32  1  0.44000000  0.85080000  0.69750000  1.0 0.1195550279
H  H33  1  0.85080000  0.69750000  0.44000000  1.0 0.1195550279
H  H34  1  0.44000000  0.69750000  0.85080000  1.0 0.1195550279
H  H35  1  0.85080000  0.44000000  0.69750000  1.0 0.1195550279
H  H36  1  0.69750000  0.85080000  0.44000000  1.0 0.1195550279
H  H37  1  0.61605000  0.41480000  0.61605000  1.0 0.1374786192
H  H38  1  0.41480000  0.61605000  0.61605000  1.0 0.1374786192
H  H39  1  0.61605000  0.61605000  0.41480000  1.0 0.1374786192
C  C1  1  0.83060000  0.43540000  0.29740000  1.0 0.5892165058
C  C2  1  0.43540000  0.29740000  0.83060000  1.0 0.5892165058
C  C3  1  0.29740000  0.83060000  0.43540000  1.0 0.5892165058
C  C4  1  0.43540000  0.83060000  0.29740000  1.0 0.5892165058
C  C5  1  0.29740000  0.43540000  0.83060000  1.0 0.5892165058
C  C6  1  0.83060000  0.29740000  0.43540000  1.0 0.5892165058
C  C7  1  0.84836000  0.42924000  0.21320000  1.0 -0.0215020735
C  C8  1  0.42924000  0.21320000  0.84836000  1.0 -0.0215020735
C  C9  1  0.21320000  0.84836000  0.42924000  1.0 -0.0215020735
C  C10  1  0.42924000  0.84836000  0.21320000  1.0 -0.0215020735
C  C11  1  0.21320000  0.42924000  0.84836000  1.0 -0.0215020735
C  C12  1  0.84836000  0.21320000  0.42924000  1.0 -0.0215020735
C  C13  1  0.79360000  0.40060000  0.15320000  1.0 -0.0864125686
C  C14  1  0.40060000  0.15320000  0.79360000  1.0 -0.0864125686
C  C15  1  0.15320000  0.79360000  0.40060000  1.0 -0.0864125686
C  C16  1  0.40060000  0.79360000  0.15320000  1.0 -0.0864125686
C  C17  1  0.15320000  0.40060000  0.79360000  1.0 -0.0864125686
C  C18  1  0.79360000  0.15320000  0.40060000  1.0 -0.0864125686
C  C19  1  0.80940000  0.39920000  0.08120000  1.0 -0.1615250356
C  C20  1  0.39920000  0.08120000  0.80940000  1.0 -0.1615250356
C  C21  1  0.08120000  0.80940000  0.39920000  1.0 -0.1615250356
C  C22  1  0.39920000  0.80940000  0.08120000  1.0 -0.1615250356
C  C23  1  0.08120000  0.39920000  0.80940000  1.0 -0.1615250356
C  C24  1  0.80940000  0.08120000  0.39920000  1.0 -0.1615250356
C  C25  1  0.88110000  0.42830000  0.06380000  1.0 0.0459129317
C  C26  1  0.42830000  0.06380000  0.88110000  1.0 0.0459129317
C  C27  1  0.06380000  0.88110000  0.42830000  1.0 0.0459129317
C  C28  1  0.42830000  0.88110000  0.06380000  1.0 0.0459129317
C  C29  1  0.06380000  0.42830000  0.88110000  1.0 0.0459129317
C  C30  1  0.88110000  0.06380000  0.42830000  1.0 0.0459129317
C  C31  1  0.93700000  0.45430000  0.12320000  1.0 -0.1203533283
C  C32  1  0.45430000  0.12320000  0.93700000  1.0 -0.1203533283
C  C33  1  0.12320000  0.93700000  0.45430000  1.0 -0.1203533283
C  C34  1  0.45430000  0.93700000  0.12320000  1.0 -0.1203533283
C  C35  1  0.12320000  0.45430000  0.93700000  1.0 -0.1203533283
C  C36  1  0.93700000  0.12320000  0.45430000  1.0 -0.1203533283
C  C37  1  0.92120000  0.45530000  0.20010000  1.0 -0.1003873817
C  C38  1  0.45530000  0.20010000  0.92120000  1.0 -0.1003873817
C  C39  1  0.20010000  0.92120000  0.45530000  1.0 -0.1003873817
C  C40  1  0.45530000  0.92120000  0.20010000  1.0 -0.1003873817
C  C41  1  0.20010000  0.45530000  0.92120000  1.0 -0.1003873817
C  C42  1  0.92120000  0.20010000  0.45530000  1.0 -0.1003873817
C  C43  1  0.89430000  0.42920000  0.98430000  1.0 0.2126932108
C  C44  1  0.42920000  0.98430000  0.89430000  1.0 0.2126932108
C  C45  1  0.98430000  0.89430000  0.42920000  1.0 0.2126932108
C  C46  1  0.42920000  0.89430000  0.98430000  1.0 0.2126932108
C  C47  1  0.98430000  0.42920000  0.89430000  1.0 0.2155516499
C  C48  1  0.89430000  0.98430000  0.42920000  1.0 0.2126932108
C  C49  1  0.83096000  0.43750000  0.92564000  1.0 -0.2756240017
C  C50  1  0.43750000  0.92564000  0.83096000  1.0 -0.2748238093
C  C51  1  0.92564000  0.83096000  0.43750000  1.0 -0.2756240017
C  C52  1  0.43750000  0.83096000  0.92564000  1.0 -0.2756240017
C  C53  1  0.92564000  0.43750000  0.83096000  1.0 -0.2756240017
C  C54  1  0.83096000  0.92564000  0.43750000  1.0 -0.2748238093
C  C55  1  0.84455000  0.43930000  0.84455000  1.0 0.1086184237
C  C56  1  0.43930000  0.84455000  0.84455000  1.0 0.1086184237
C  C57  1  0.84455000  0.84455000  0.43930000  1.0 0.1086184237
C  C58  1  0.78545000  0.43900000  0.78545000  1.0 0.04067043
C  C59  1  0.43900000  0.78545000  0.78545000  1.0 0.04067043
C  C60  1  0.78545000  0.78545000  0.43900000  1.0 0.04067043
C  C61  1  0.70880000  0.43720000  0.79880000  1.0 -0.1372662034
C  C62  1  0.43720000  0.79880000  0.70880000  1.0 -0.1372662034
C  C63  1  0.79880000  0.70880000  0.43720000  1.0 -0.1372662034
C  C64  1  0.43720000  0.70880000  0.79880000  1.0 -0.1372662034
C  C65  1  0.79880000  0.43720000  0.70880000  1.0 -0.1372662034
C  C66  1  0.70880000  0.79880000  0.43720000  1.0 -0.1372662034
C  C67  1  0.64686000  0.43140000  0.73604000  1.0 -0.0215020735
C  C68  1  0.43140000  0.73604000  0.64686000  1.0 -0.0215020735
C  C69  1  0.73604000  0.64686000  0.43140000  1.0 -0.0215020735
C  C70  1  0.43140000  0.64686000  0.73604000  1.0 -0.0215020735
C  C71  1  0.73604000  0.43140000  0.64686000  1.0 -0.0215020735
C  C72  1  0.64686000  0.73604000  0.43140000  1.0 -0.0215020735
C  C73  1  0.56570000  0.42920000  0.75490000  1.0 0.5825569981
C  C74  1  0.42920000  0.75490000  0.56570000  1.0 0.5825569981
C  C75  1  0.75490000  0.56570000  0.42920000  1.0 0.5825569981
C  C76  1  0.42920000  0.56570000  0.75490000  1.0 0.5825569981
C  C77  1  0.75490000  0.42920000  0.56570000  1.0 0.5825569981
C  C78  1  0.56570000  0.75490000  0.42920000  1.0 0.5825569981
C  C79  1  0.65810000  0.42400000  0.65810000  1.0 -0.1003873817
C  C80  1  0.42400000  0.65810000  0.65810000  1.0 -0.1003873817
C  C81  1  0.65810000  0.65810000  0.42400000  1.0 -0.1003873817
N  N1  1  0.96890000  0.43000000  0.96890000  1.0 -0.3576537814
N  N2  1  0.43000000  0.96890000  0.96890000  1.0 -0.3576537814
N  N3  1  0.96890000  0.96890000  0.43000000  1.0 -0.3576537814
O  O1  1  0.76090000  0.40844000  0.30289000  1.0 -0.5232225901
O  O2  1  0.40844000  0.30289000  0.76090000  1.0 -0.5232225901
O  O3  1  0.30289000  0.76090000  0.40844000  1.0 -0.5232225901
O  O4  1  0.40844000  0.76090000  0.30289000  1.0 -0.5232225901
O  O5  1  0.30289000  0.40844000  0.76090000  1.0 -0.5232225901
O  O6  1  0.76090000  0.30289000  0.40844000  1.0 -0.5232225901
O  O7  1  0.88394000  0.45572000  0.35223000  1.0 -0.4830758618
O  O8  1  0.45572000  0.35223000  0.88394000  1.0 -0.4830758618
O  O9  1  0.35223000  0.88394000  0.45572000  1.0 -0.4830758618
O  O10  1  0.45572000  0.88394000  0.35223000  1.0 -0.4830758618
O  O11  1  0.35223000  0.45572000  0.88394000  1.0 -0.4830758618
O  O12  1  0.88394000  0.35223000  0.45572000  1.0 -0.4830758618
O  O13  1  0.55689000  0.45287000  0.82794000  1.0 -0.557135517
O  O14  1  0.45287000  0.82794000  0.55689000  1.0 -0.557135517
O  O15  1  0.82794000  0.55689000  0.45287000  1.0 -0.557135517
O  O16  1  0.45287000  0.55689000  0.82794000  1.0 -0.557135517
O  O17  1  0.82794000  0.45287000  0.55689000  1.0 -0.557135517
O  O18  1  0.55689000  0.82794000  0.45287000  1.0 -0.557135517
O  O19  1  0.50788000  0.40560000  0.70000000  1.0 -0.5079696026
O  O20  1  0.40560000  0.70000000  0.50788000  1.0 -0.5079696026
O  O21  1  0.70000000  0.50788000  0.40560000  1.0 -0.5079696026
O  O22  1  0.40560000  0.50788000  0.70000000  1.0 -0.5079696026
O  O23  1  0.70000000  0.40560000  0.50788000  1.0 -0.5079696026
O  O24  1  0.50788000  0.70000000  0.40560000  1.0 -0.5079696026
