# DDEC6 charges by PACMAN v1.1 (https://github.com/mtap-research/PACMAN-charge/)
data_ENISOK_ASR_pacman
_symmetry_space_group_name_H-M   'P 1'
_cell_length_a   14.86230000
_cell_length_b   14.86230000
_cell_length_c   12.91610000
_cell_angle_alpha   66.47380000
_cell_angle_beta   113.52600000
_cell_angle_gamma   76.80640000
_symmetry_Int_Tables_number   1
_chemical_formula_structural   Cd2SiH16(C7O2)4
_chemical_formula_sum   'Cd4 Si2 H32 C56 O16'
_cell_volume   2128.32285827
_cell_formula_units_Z   2
loop_
 _symmetry_equiv_pos_site_id
 _symmetry_equiv_pos_as_xyz
  1  'x, y, z'
loop_
 _atom_site_type_symbol
 _atom_site_label
 _atom_site_symmetry_multiplicity
 _atom_site_fract_x
 _atom_site_fract_y
 _atom_site_fract_z
 _atom_site_occupancy
 _atom_site_charge
Cd  Cd1  1  0.31406000  0.31406000  0.75000000  1.0 0.9896488362
Cd  Cd2  1  0.68594000  0.68594000  0.25000000  1.0 0.9896488362
Cd  Cd3  1  0.50000000  0.00000000  0.00000000  1.0 1.0977714234
Cd  Cd4  1  0.00000000  0.50000000  0.50000000  1.0 1.0977714234
Si  Si1  1  0.04322000  0.04322000  0.25000000  1.0 0.6396674388
Si  Si2  1  0.95678000  0.95678000  0.75000000  1.0 0.6396674388
H  H1  1  0.05760000  0.23780000  0.09750000  1.0 0.1084852063
H  H2  1  0.23780000  0.05760000  0.40250000  1.0 0.1084852063
H  H3  1  0.94240000  0.76220000  0.90250000  1.0 0.1084852063
H  H4  1  0.76220000  0.94240000  0.59750000  1.0 0.1084852063
H  H5  1  0.14070000  0.28550000  0.98040000  1.0 0.1280518644
H  H6  1  0.28550000  0.14070000  0.51960000  1.0 0.1280518644
H  H7  1  0.85930000  0.71450000  0.01960000  1.0 0.1280518644
H  H8  1  0.71450000  0.85930000  0.48040000  1.0 0.1280518644
H  H9  1  0.24440000  0.98300000  0.04180000  1.0 0.1084852063
H  H10  1  0.98300000  0.24440000  0.45820000  1.0 0.1084852063
H  H11  1  0.75560000  0.01700000  0.95820000  1.0 0.1084852063
H  H12  1  0.01700000  0.75560000  0.54180000  1.0 0.1084852063
H  H13  1  0.16220000  0.93540000  0.16050000  1.0 0.1084852063
H  H14  1  0.93540000  0.16220000  0.33950000  1.0 0.1084852063
H  H15  1  0.83780000  0.06460000  0.83950000  1.0 0.1084852063
H  H16  1  0.06460000  0.83780000  0.66050000  1.0 0.1084852063
H  H17  1  0.87170000  0.00750000  0.28930000  1.0 0.1084852063
H  H18  1  0.00750000  0.87170000  0.21070000  1.0 0.1084852063
H  H19  1  0.12830000  0.99250000  0.71070000  1.0 0.1084852063
H  H20  1  0.99250000  0.12830000  0.78930000  1.0 0.1084852063
H  H21  1  0.68110000  0.07330000  0.15310000  1.0 0.1209760276
H  H22  1  0.07330000  0.68110000  0.34690000  1.0 0.1209760276
H  H23  1  0.31890000  0.92670000  0.84690000  1.0 0.1209760276
H  H24  1  0.92670000  0.31890000  0.65310000  1.0 0.1209760276
H  H25  1  0.67520000  0.27700000  0.82720000  1.0 0.1209760276
H  H26  1  0.27700000  0.67520000  0.67280000  1.0 0.1209760276
H  H27  1  0.32480000  0.72300000  0.17280000  1.0 0.1209760276
H  H28  1  0.72300000  0.32480000  0.32720000  1.0 0.1209760276
H  H29  1  0.86440000  0.21340000  0.96110000  1.0 0.1084852063
H  H30  1  0.21340000  0.86440000  0.53890000  1.0 0.1084852063
H  H31  1  0.13560000  0.78660000  0.03890000  1.0 0.1084852063
H  H32  1  0.78660000  0.13560000  0.46110000  1.0 0.1084852063
C  C1  1  0.10246000  0.08016000  0.14513000  1.0 -0.2139441646
C  C2  1  0.08016000  0.10246000  0.35487000  1.0 -0.2139441646
C  C3  1  0.89754000  0.91984000  0.85487000  1.0 -0.2139441646
C  C4  1  0.91984000  0.89754000  0.64513000  1.0 -0.2139441646
C  C5  1  0.09672000  0.18472000  0.08800000  1.0 -0.0890260427
C  C6  1  0.18472000  0.09672000  0.41200000  1.0 -0.0890260427
C  C7  1  0.90328000  0.81528000  0.91200000  1.0 -0.0890260427
C  C8  1  0.81528000  0.90328000  0.58800000  1.0 -0.0890260427
C  C9  1  0.14618000  0.21358000  0.01810000  1.0 -0.100217985
C  C10  1  0.21358000  0.14618000  0.48190000  1.0 -0.100217985
C  C11  1  0.85382000  0.78642000  0.98190000  1.0 -0.100217985
C  C12  1  0.78642000  0.85382000  0.51810000  1.0 -0.100217985
C  C13  1  0.20382000  0.13748000  0.00307000  1.0 -0.0129187692
C  C14  1  0.13748000  0.20382000  0.49693000  1.0 -0.0129187692
C  C15  1  0.79618000  0.86252000  0.99693000  1.0 -0.0129187692
C  C16  1  0.86252000  0.79618000  0.50307000  1.0 -0.0129187692
C  C17  1  0.20766000  0.03486000  0.05460000  1.0 -0.100217985
C  C18  1  0.03486000  0.20766000  0.44540000  1.0 -0.100217985
C  C19  1  0.79234000  0.96514000  0.94540000  1.0 -0.100217985
C  C20  1  0.96514000  0.79234000  0.55460000  1.0 -0.100217985
C  C21  1  0.15800000  0.00700000  0.12490000  1.0 -0.0849210597
C  C22  1  0.00700000  0.15800000  0.37510000  1.0 -0.0849210597
C  C23  1  0.84200000  0.99300000  0.87510000  1.0 -0.0849210597
C  C24  1  0.99300000  0.84200000  0.62490000  1.0 -0.0849210597
C  C25  1  0.26160000  0.16606000  0.93117000  1.0 0.589283722
C  C26  1  0.16606000  0.26160000  0.56883000  1.0 0.589283722
C  C27  1  0.73840000  0.83394000  0.06883000  1.0 0.589283722
C  C28  1  0.83394000  0.73840000  0.43117000  1.0 0.589283722
C  C29  1  0.88985000  0.10211000  0.13976000  1.0 -0.2039457425
C  C30  1  0.10211000  0.88985000  0.36024000  1.0 -0.2039457425
C  C31  1  0.11015000  0.89789000  0.86024000  1.0 -0.2039457425
C  C32  1  0.89789000  0.11015000  0.63976000  1.0 -0.2039457425
C  C33  1  0.83248000  0.06208000  0.19540000  1.0 -0.0849210597
C  C34  1  0.06208000  0.83248000  0.30460000  1.0 -0.0849210597
C  C35  1  0.16752000  0.93792000  0.80460000  1.0 -0.0849210597
C  C36  1  0.93792000  0.16752000  0.69540000  1.0 -0.0849210597
C  C37  1  0.71880000  0.10150000  0.11445000  1.0 -0.100217985
C  C38  1  0.10150000  0.71880000  0.38555000  1.0 -0.100217985
C  C39  1  0.28120000  0.89850000  0.88555000  1.0 -0.100217985
C  C40  1  0.89850000  0.28120000  0.61445000  1.0 -0.100217985
C  C41  1  0.66073000  0.18163000  0.97785000  1.0 -0.0129187692
C  C42  1  0.18163000  0.66073000  0.52215000  1.0 -0.0129187692
C  C43  1  0.33927000  0.81837000  0.02215000  1.0 -0.0129187692
C  C44  1  0.81837000  0.33927000  0.47785000  1.0 -0.0129187692
C  C45  1  0.71522000  0.22236000  0.92123000  1.0 -0.100217985
C  C46  1  0.22236000  0.71522000  0.57877000  1.0 -0.100217985
C  C47  1  0.28478000  0.77764000  0.07877000  1.0 -0.100217985
C  C48  1  0.77764000  0.28478000  0.42123000  1.0 -0.100217985
C  C49  1  0.82805000  0.18385000  0.00110000  1.0 -0.0890260427
C  C50  1  0.18385000  0.82805000  0.49890000  1.0 -0.0890260427
C  C51  1  0.17195000  0.81615000  0.99890000  1.0 -0.0890260427
C  C52  1  0.81615000  0.17195000  0.50110000  1.0 -0.0890260427
C  C53  1  0.53860000  0.22038000  0.89011000  1.0 0.5742181712
C  C54  1  0.22038000  0.53860000  0.60989000  1.0 0.5742181712
C  C55  1  0.46140000  0.77962000  0.10989000  1.0 0.5742181712
C  C56  1  0.77962000  0.46140000  0.39011000  1.0 0.5742181712
O  O1  1  0.24487000  0.26683000  0.87448000  1.0 -0.5564459539
O  O2  1  0.26683000  0.24487000  0.62552000  1.0 -0.5564459539
O  O3  1  0.75513000  0.73317000  0.12552000  1.0 -0.5564459539
O  O4  1  0.73317000  0.75513000  0.37448000  1.0 -0.5564459539
O  O5  1  0.32125000  0.09293000  0.93073000  1.0 -0.5807728595
O  O6  1  0.09293000  0.32125000  0.56927000  1.0 -0.5807728595
O  O7  1  0.67875000  0.90707000  0.06927000  1.0 -0.5807728595
O  O8  1  0.90707000  0.67875000  0.43073000  1.0 -0.5807728595
O  O9  1  0.49270000  0.17282000  0.94075000  1.0 -0.6010747976
O  O10  1  0.17282000  0.49270000  0.55925000  1.0 -0.6010747976
O  O11  1  0.50730000  0.82718000  0.05925000  1.0 -0.6010747976
O  O12  1  0.82718000  0.50730000  0.44075000  1.0 -0.6010747976
O  O13  1  0.48352000  0.30114000  0.77029000  1.0 -0.5086884922
O  O14  1  0.30114000  0.48352000  0.72971000  1.0 -0.5086884922
O  O15  1  0.51648000  0.69886000  0.22971000  1.0 -0.5086884922
O  O16  1  0.69886000  0.51648000  0.27029000  1.0 -0.5086884922
