# DDEC6 charges by PACMAN v1.1 (https://github.com/mtap-research/PACMAN-charge/)
data_ENISUQ_ASR_pacman
_symmetry_space_group_name_H-M   'P 1'
_cell_length_a   14.73120000
_cell_length_b   14.73120000
_cell_length_c   13.03550000
_cell_angle_alpha   65.34130000
_cell_angle_beta   114.65900000
_cell_angle_gamma   77.92900000
_symmetry_Int_Tables_number   1
_chemical_formula_structural   Mn2SiH16(C7O2)4
_chemical_formula_sum   'Mn4 Si2 H32 C56 O16'
_cell_volume   2069.73117947
_cell_formula_units_Z   2
loop_
 _symmetry_equiv_pos_site_id
 _symmetry_equiv_pos_as_xyz
  1  'x, y, z'
loop_
 _atom_site_type_symbol
 _atom_site_label
 _atom_site_symmetry_multiplicity
 _atom_site_fract_x
 _atom_site_fract_y
 _atom_site_fract_z
 _atom_site_occupancy
 _atom_site_charge
Mn  Mn1  1  0.31480000  0.31480000  0.75000000  1.0 0.9948250302
Mn  Mn2  1  0.68520000  0.68520000  0.25000000  1.0 0.9948250302
Mn  Mn3  1  0.50000000  0.00000000  0.00000000  1.0 1.0535451421
Mn  Mn4  1  0.00000000  0.50000000  0.50000000  1.0 1.0535451421
Si  Si1  1  0.04692000  0.04692000  0.25000000  1.0 0.6399320611
Si  Si2  1  0.95308000  0.95308000  0.75000000  1.0 0.6399320611
H  H1  1  0.07220000  0.24100000  0.10190000  1.0 0.1093359214
H  H2  1  0.24100000  0.07220000  0.39810000  1.0 0.1093359214
H  H3  1  0.92780000  0.75900000  0.89810000  1.0 0.1093359214
H  H4  1  0.75900000  0.92780000  0.60190000  1.0 0.1093359214
H  H5  1  0.15790000  0.28410000  0.98640000  1.0 0.1281611123
H  H6  1  0.28410000  0.15790000  0.51360000  1.0 0.1281611123
H  H7  1  0.84210000  0.71590000  0.01360000  1.0 0.1281611123
H  H8  1  0.71590000  0.84210000  0.48640000  1.0 0.1281611123
H  H9  1  0.24500000  0.97900000  0.04640000  1.0 0.1093359214
H  H10  1  0.97900000  0.24500000  0.45360000  1.0 0.1093359214
H  H11  1  0.75500000  0.02100000  0.95360000  1.0 0.1093359214
H  H12  1  0.02100000  0.75500000  0.54640000  1.0 0.1093359214
H  H13  1  0.15940000  0.93620000  0.16160000  1.0 0.1093359214
H  H14  1  0.93620000  0.15940000  0.33840000  1.0 0.1093359214
H  H15  1  0.84060000  0.06380000  0.83840000  1.0 0.1093359214
H  H16  1  0.06380000  0.84060000  0.66160000  1.0 0.1093359214
H  H17  1  0.87340000  0.00960000  0.28560000  1.0 0.1093359214
H  H18  1  0.00960000  0.87340000  0.21440000  1.0 0.1093359214
H  H19  1  0.12660000  0.99040000  0.71440000  1.0 0.1093359214
H  H20  1  0.99040000  0.12660000  0.78560000  1.0 0.1093359214
H  H21  1  0.68040000  0.07440000  0.14740000  1.0 0.1213421919
H  H22  1  0.07440000  0.68040000  0.35260000  1.0 0.1213421919
H  H23  1  0.31960000  0.92560000  0.85260000  1.0 0.1213421919
H  H24  1  0.92560000  0.31960000  0.64740000  1.0 0.1213421919
H  H25  1  0.67010000  0.28650000  0.81600000  1.0 0.1213421919
H  H26  1  0.28650000  0.67010000  0.68400000  1.0 0.1213421919
H  H27  1  0.32990000  0.71350000  0.18400000  1.0 0.1213421919
H  H28  1  0.71350000  0.32990000  0.31600000  1.0 0.1213421919
H  H29  1  0.86470000  0.21970000  0.95530000  1.0 0.1093359214
H  H30  1  0.21970000  0.86470000  0.54470000  1.0 0.1093359214
H  H31  1  0.13530000  0.78030000  0.04470000  1.0 0.1093359214
H  H32  1  0.78030000  0.13530000  0.45530000  1.0 0.1093359214
C  C1  1  0.10804000  0.08252000  0.14726000  1.0 -0.2147259987
C  C2  1  0.08252000  0.10804000  0.35274000  1.0 -0.2147259987
C  C3  1  0.89196000  0.91748000  0.85274000  1.0 -0.2147259987
C  C4  1  0.91748000  0.89196000  0.64726000  1.0 -0.2147259987
C  C5  1  0.10793000  0.18675000  0.09185000  1.0 -0.0875418759
C  C6  1  0.18675000  0.10793000  0.40815000  1.0 -0.0875418759
C  C7  1  0.89207000  0.81325000  0.90815000  1.0 -0.0875418759
C  C8  1  0.81325000  0.89207000  0.59185000  1.0 -0.0875418759
C  C9  1  0.15881000  0.21273000  0.02265000  1.0 -0.0996977501
C  C10  1  0.21273000  0.15881000  0.47735000  1.0 -0.0996977501
C  C11  1  0.84119000  0.78727000  0.97735000  1.0 -0.0996977501
C  C12  1  0.78727000  0.84119000  0.52265000  1.0 -0.0996977501
C  C13  1  0.21107000  0.13543000  0.00592000  1.0 -0.0148992646
C  C14  1  0.13543000  0.21107000  0.49408000  1.0 -0.0148992646
C  C15  1  0.78893000  0.86457000  0.99408000  1.0 -0.0148992646
C  C16  1  0.86457000  0.78893000  0.50592000  1.0 -0.0148992646
C  C17  1  0.21030000  0.03256000  0.05804000  1.0 -0.0996977501
C  C18  1  0.03256000  0.21030000  0.44196000  1.0 -0.0996977501
C  C19  1  0.78970000  0.96744000  0.94196000  1.0 -0.0996977501
C  C20  1  0.96744000  0.78970000  0.55804000  1.0 -0.0996977501
C  C21  1  0.15931000  0.00721000  0.12703000  1.0 -0.0836284808
C  C22  1  0.00721000  0.15931000  0.37297000  1.0 -0.0836284808
C  C23  1  0.84069000  0.99279000  0.87297000  1.0 -0.0836284808
C  C24  1  0.99279000  0.84069000  0.62703000  1.0 -0.0836284808
C  C25  1  0.26989000  0.16045000  0.93543000  1.0 0.5877595195
C  C26  1  0.16045000  0.26989000  0.56457000  1.0 0.5877595195
C  C27  1  0.73011000  0.83955000  0.06457000  1.0 0.5877595195
C  C28  1  0.83955000  0.73011000  0.43543000  1.0 0.5877595195
C  C29  1  0.88999000  0.10667000  0.13497000  1.0 -0.2008244595
C  C30  1  0.10667000  0.88999000  0.36503000  1.0 -0.2008244595
C  C31  1  0.11001000  0.89333000  0.86503000  1.0 -0.2008244595
C  C32  1  0.89333000  0.11001000  0.63497000  1.0 -0.2008244595
C  C33  1  0.83260000  0.06526000  0.19003000  1.0 -0.0875418759
C  C34  1  0.06526000  0.83260000  0.30997000  1.0 -0.0875418759
C  C35  1  0.16740000  0.93474000  0.80997000  1.0 -0.0875418759
C  C36  1  0.93474000  0.16740000  0.69003000  1.0 -0.0875418759
C  C37  1  0.71777000  0.10373000  0.10808000  1.0 -0.0996977501
C  C38  1  0.10373000  0.71777000  0.39192000  1.0 -0.0996977501
C  C39  1  0.28223000  0.89627000  0.89192000  1.0 -0.0996977501
C  C40  1  0.89627000  0.28223000  0.60808000  1.0 -0.0996977501
C  C41  1  0.65694000  0.18530000  0.96807000  1.0 -0.0187259021
C  C42  1  0.18530000  0.65694000  0.53193000  1.0 -0.0187259021
C  C43  1  0.34306000  0.81470000  0.03193000  1.0 -0.0187259021
C  C44  1  0.81470000  0.34306000  0.46807000  1.0 -0.0187259021
C  C45  1  0.71159000  0.22949000  0.91120000  1.0 -0.0996977501
C  C46  1  0.22949000  0.71159000  0.58880000  1.0 -0.0996977501
C  C47  1  0.28841000  0.77051000  0.08880000  1.0 -0.0996977501
C  C48  1  0.77051000  0.28841000  0.41120000  1.0 -0.0996977501
C  C49  1  0.82754000  0.18972000  0.99464000  1.0 -0.0875418759
C  C50  1  0.18972000  0.82754000  0.50536000  1.0 -0.0875418759
C  C51  1  0.17246000  0.81028000  0.00536000  1.0 -0.0875418759
C  C52  1  0.81028000  0.17246000  0.49464000  1.0 -0.0875418759
C  C53  1  0.53359000  0.22389000  0.87850000  1.0 0.5719573149
C  C54  1  0.22389000  0.53359000  0.62150000  1.0 0.5719573149
C  C55  1  0.46641000  0.77611000  0.12150000  1.0 0.5719573149
C  C56  1  0.77611000  0.46641000  0.37850000  1.0 0.5719573149
O  O1  1  0.25276000  0.26154000  0.87082000  1.0 -0.5442226729
O  O2  1  0.26154000  0.25276000  0.62918000  1.0 -0.5442226729
O  O3  1  0.74724000  0.73846000  0.12918000  1.0 -0.5442226729
O  O4  1  0.73846000  0.74724000  0.37082000  1.0 -0.5442226729
O  O5  1  0.33168000  0.08166000  0.94326000  1.0 -0.5769232265
O  O6  1  0.08166000  0.33168000  0.55674000  1.0 -0.5769232265
O  O7  1  0.66832000  0.91834000  0.05674000  1.0 -0.5769232265
O  O8  1  0.91834000  0.66832000  0.44326000  1.0 -0.5769232265
O  O9  1  0.48824000  0.17168000  0.92979000  1.0 -0.5990012041
O  O10  1  0.17168000  0.48824000  0.57021000  1.0 -0.5990012041
O  O11  1  0.51176000  0.82832000  0.07021000  1.0 -0.5990012041
O  O12  1  0.82832000  0.51176000  0.42979000  1.0 -0.5990012041
O  O13  1  0.47408000  0.30794000  0.75713000  1.0 -0.5070252172
O  O14  1  0.30794000  0.47408000  0.74287000  1.0 -0.5070252172
O  O15  1  0.52592000  0.69206000  0.24287000  1.0 -0.5070252172
O  O16  1  0.69206000  0.52592000  0.25713000  1.0 -0.5070252172
