# DDEC6 charges by PACMAN v1.1 (https://github.com/mtap-research/PACMAN-charge/)
data_ENITEB_ASR_pacman
_symmetry_space_group_name_H-M   'P 1'
_cell_length_a   15.90540000
_cell_length_b   15.90540000
_cell_length_c   22.84960000
_cell_angle_alpha   90.00000000
_cell_angle_beta   90.00000000
_cell_angle_gamma   121.18100000
_symmetry_Int_Tables_number   1
_chemical_formula_structural   Cd3Si2H48(C9O2)8
_chemical_formula_sum   'Cd6 Si4 H96 C144 O32'
_cell_volume   4945.45301808
_cell_formula_units_Z   2
loop_
 _symmetry_equiv_pos_site_id
 _symmetry_equiv_pos_as_xyz
  1  'x, y, z'
loop_
 _atom_site_type_symbol
 _atom_site_label
 _atom_site_symmetry_multiplicity
 _atom_site_fract_x
 _atom_site_fract_y
 _atom_site_fract_z
 _atom_site_occupancy
 _atom_site_charge
Cd  Cd1  1  0.85043000  0.67919000  0.62996000  1.0 0.9720810213
Cd  Cd2  1  0.14957000  0.32081000  0.12996000  1.0 0.9720810213
Cd  Cd3  1  0.32081000  0.14957000  0.87004000  1.0 0.9720810213
Cd  Cd4  1  0.67919000  0.85043000  0.37004000  1.0 0.9720810213
Cd  Cd5  1  0.76495000  0.76495000  0.50000000  1.0 1.0596111127
Cd  Cd6  1  0.23505000  0.23505000  0.00000000  1.0 1.0596111127
Si  Si1  1  0.36237000  0.16709000  0.44897000  1.0 0.4204670646
Si  Si2  1  0.63763000  0.83291000  0.94897000  1.0 0.4204670646
Si  Si3  1  0.83291000  0.63763000  0.05103000  1.0 0.4204670646
Si  Si4  1  0.16709000  0.36237000  0.55103000  1.0 0.4204670646
H  H1  1  0.16980000  0.00640000  0.41760000  1.0 0.050619533
H  H2  1  0.83020000  0.99360000  0.91760000  1.0 0.050619533
H  H3  1  0.99360000  0.83020000  0.08240000  1.0 0.050619533
H  H4  1  0.00640000  0.16980000  0.58240000  1.0 0.050619533
H  H5  1  0.03400000  0.88000000  0.46470000  1.0 0.0921273612
H  H6  1  0.96600000  0.12000000  0.96470000  1.0 0.0921273612
H  H7  1  0.12000000  0.96600000  0.03530000  1.0 0.0921273612
H  H8  1  0.88000000  0.03400000  0.53530000  1.0 0.0921273612
H  H9  1  0.15290000  0.00390000  0.62110000  1.0 0.1037530739
H  H10  1  0.84710000  0.99610000  0.12110000  1.0 0.1037530739
H  H11  1  0.99610000  0.84710000  0.87890000  1.0 0.1037530739
H  H12  1  0.00390000  0.15290000  0.37890000  1.0 0.1037530739
H  H13  1  0.28910000  0.13090000  0.57380000  1.0 0.0601621584
H  H14  1  0.71090000  0.86910000  0.07380000  1.0 0.0601621584
H  H15  1  0.86910000  0.71090000  0.92620000  1.0 0.0601621584
H  H16  1  0.13090000  0.28910000  0.42620000  1.0 0.0601621584
H  H17  1  0.51610000  0.19490000  0.36600000  1.0 0.0921273612
H  H18  1  0.48390000  0.80510000  0.86600000  1.0 0.0921273612
H  H19  1  0.80510000  0.48390000  0.13400000  1.0 0.0921273612
H  H20  1  0.19490000  0.51610000  0.63400000  1.0 0.0921273612
H  H21  1  0.60390000  0.11710000  0.34620000  1.0 0.1225824352
H  H22  1  0.39610000  0.88290000  0.84620000  1.0 0.1225824352
H  H23  1  0.88290000  0.39610000  0.15380000  1.0 0.1225824352
H  H24  1  0.11710000  0.60390000  0.65380000  1.0 0.1225824352
H  H25  1  0.45630000  0.92070000  0.47560000  1.0 0.1225824352
H  H26  1  0.54370000  0.07930000  0.97560000  1.0 0.1225824352
H  H27  1  0.07930000  0.54370000  0.02440000  1.0 0.1225824352
H  H28  1  0.92070000  0.45630000  0.52440000  1.0 0.1225824352
H  H29  1  0.36840000  0.99840000  0.49540000  1.0 0.0921273612
H  H30  1  0.63160000  0.00160000  0.99540000  1.0 0.0921273612
H  H31  1  0.00160000  0.63160000  0.00460000  1.0 0.0921273612
H  H32  1  0.99840000  0.36840000  0.50460000  1.0 0.0921273612
H  H33  1  0.31560000  0.31280000  0.41400000  1.0 0.0689778976
H  H34  1  0.68440000  0.68720000  0.91400000  1.0 0.0689778976
H  H35  1  0.68720000  0.68440000  0.08600000  1.0 0.0689778976
H  H36  1  0.31280000  0.31560000  0.58600000  1.0 0.0689778976
H  H37  1  0.24850000  0.34490000  0.33230000  1.0 0.0787215682
H  H38  1  0.75150000  0.65510000  0.83230000  1.0 0.0787215682
H  H39  1  0.65510000  0.75150000  0.16770000  1.0 0.0787215682
H  H40  1  0.34490000  0.24850000  0.66770000  1.0 0.0787215682
H  H41  1  0.27090000  0.13890000  0.24080000  1.0 0.0921273612
H  H42  1  0.72910000  0.86110000  0.74080000  1.0 0.0921273612
H  H43  1  0.86110000  0.72910000  0.25920000  1.0 0.0921273612
H  H44  1  0.13890000  0.27090000  0.75920000  1.0 0.0921273612
H  H45  1  0.32930000  0.10050000  0.32610000  1.0 0.0787215682
H  H46  1  0.67070000  0.89950000  0.82610000  1.0 0.0787215682
H  H47  1  0.89950000  0.67070000  0.17390000  1.0 0.0787215682
H  H48  1  0.10050000  0.32930000  0.67390000  1.0 0.0787215682
H  H49  1  0.48490000  0.37570000  0.41940000  1.0 0.1107044545
H  H50  1  0.51510000  0.62430000  0.91940000  1.0 0.1107044545
H  H51  1  0.62430000  0.51510000  0.08060000  1.0 0.1107044545
H  H52  1  0.37570000  0.48490000  0.58060000  1.0 0.1107044545
H  H53  1  0.60790000  0.51710000  0.46620000  1.0 0.1107044545
H  H54  1  0.39210000  0.48290000  0.96620000  1.0 0.1107044545
H  H55  1  0.48290000  0.39210000  0.03380000  1.0 0.1107044545
H  H56  1  0.51710000  0.60790000  0.53380000  1.0 0.1107044545
H  H57  1  0.56210000  0.36090000  0.61530000  1.0 0.1225824352
H  H58  1  0.43790000  0.63910000  0.11530000  1.0 0.1225824352
H  H59  1  0.63910000  0.43790000  0.88470000  1.0 0.1225824352
H  H60  1  0.36090000  0.56210000  0.38470000  1.0 0.1225824352
H  H61  1  0.43910000  0.21950000  0.56840000  1.0 0.1037530739
H  H62  1  0.56090000  0.78050000  0.06840000  1.0 0.1037530739
H  H63  1  0.78050000  0.56090000  0.93160000  1.0 0.1037530739
H  H64  1  0.21950000  0.43910000  0.43160000  1.0 0.1037530739
H  H65  1  0.15430000  0.06750000  0.42710000  1.0 0.0601621584
H  H66  1  0.84570000  0.93250000  0.92710000  1.0 0.0601621584
H  H67  1  0.93250000  0.84570000  0.07290000  1.0 0.050619533
H  H68  1  0.06750000  0.15430000  0.57290000  1.0 0.0601621584
H  H69  1  0.23090000  0.23170000  0.42070000  1.0 0.0601621584
H  H70  1  0.76910000  0.76830000  0.92070000  1.0 0.0601621584
H  H71  1  0.76830000  0.76910000  0.07930000  1.0 0.0601621584
H  H72  1  0.23170000  0.23090000  0.57930000  1.0 0.0601621584
H  H73  1  0.17570000  0.27390000  0.33800000  1.0 0.0689778976
H  H74  1  0.82430000  0.72610000  0.83800000  1.0 0.0689778976
H  H75  1  0.72610000  0.82430000  0.16200000  1.0 0.0689778976
H  H76  1  0.27390000  0.17570000  0.66200000  1.0 0.0689778976
H  H77  1  0.33930000  0.20430000  0.23630000  1.0 0.0921273612
H  H78  1  0.66070000  0.79570000  0.73630000  1.0 0.0921273612
H  H79  1  0.79570000  0.66070000  0.26370000  1.0 0.0921273612
H  H80  1  0.20430000  0.33930000  0.76370000  1.0 0.0921273612
H  H81  1  0.39640000  0.16360000  0.31970000  1.0 0.0787215682
H  H82  1  0.60360000  0.83640000  0.81970000  1.0 0.0787215682
H  H83  1  0.83640000  0.60360000  0.18030000  1.0 0.0787215682
H  H84  1  0.16360000  0.39640000  0.68030000  1.0 0.0787215682
H  H85  1  0.01220000  0.94540000  0.47390000  1.0 0.0689778976
H  H86  1  0.98780000  0.05460000  0.97390000  1.0 0.0689778976
H  H87  1  0.05460000  0.98780000  0.02610000  1.0 0.0689778976
H  H88  1  0.94540000  0.01220000  0.52610000  1.0 0.0689778976
H  H89  1  0.17170000  0.96590000  0.61640000  1.0 0.1107044545
H  H90  1  0.82830000  0.03410000  0.11640000  1.0 0.1107044545
H  H91  1  0.03410000  0.82830000  0.88360000  1.0 0.1107044545
H  H92  1  0.96590000  0.17170000  0.38360000  1.0 0.1107044545
H  H93  1  0.31470000  0.08530000  0.56780000  1.0 0.0601621584
H  H94  1  0.68530000  0.91470000  0.06780000  1.0 0.0601621584
H  H95  1  0.91470000  0.68530000  0.93220000  1.0 0.0601621584
H  H96  1  0.08530000  0.31470000  0.43220000  1.0 0.0601621584
C  C1  1  0.24899000  0.08181000  0.49093000  1.0 -0.1687002434
C  C2  1  0.75101000  0.91819000  0.99093000  1.0 -0.1687002434
C  C3  1  0.91819000  0.75101000  0.00907000  1.0 -0.1687002434
C  C4  1  0.08181000  0.24899000  0.50907000  1.0 -0.1687002434
C  C5  1  0.16710000  0.00590000  0.45920000  1.0 -0.0110784032
C  C6  1  0.83290000  0.99410000  0.95920000  1.0 -0.0110784032
C  C7  1  0.99410000  0.83290000  0.04080000  1.0 -0.0110784032
C  C8  1  0.00590000  0.16710000  0.54080000  1.0 -0.0110784032
C  C9  1  0.08480000  0.93280000  0.48640000  1.0 -0.0110784032
C  C10  1  0.91520000  0.06720000  0.98640000  1.0 -0.0110784032
C  C11  1  0.06720000  0.91520000  0.01360000  1.0 -0.0110784032
C  C12  1  0.93280000  0.08480000  0.51360000  1.0 -0.0110784032
C  C13  1  0.07811000  0.93829000  0.54744000  1.0 -0.0110784032
C  C14  1  0.92189000  0.06171000  0.04744000  1.0 -0.0110784032
C  C15  1  0.06171000  0.92189000  0.95256000  1.0 -0.0110784032
C  C16  1  0.93829000  0.07811000  0.45256000  1.0 -0.0110784032
C  C17  1  0.15550000  0.00650000  0.57960000  1.0 -0.0735962019
C  C18  1  0.84450000  0.99350000  0.07960000  1.0 -0.0735962019
C  C19  1  0.99350000  0.84450000  0.92040000  1.0 -0.0735962019
C  C20  1  0.00650000  0.15550000  0.42040000  1.0 -0.0735962019
C  C21  1  0.23810000  0.07990000  0.55120000  1.0 -0.0311020117
C  C22  1  0.76190000  0.92010000  0.05120000  1.0 -0.0311020117
C  C23  1  0.92010000  0.76190000  0.94880000  1.0 -0.0311020117
C  C24  1  0.07990000  0.23810000  0.44880000  1.0 -0.0311020117
C  C25  1  0.98899000  0.85501000  0.57680000  1.0 0.5327593097
C  C26  1  0.01101000  0.14499000  0.07680000  1.0 0.5327593097
C  C27  1  0.14499000  0.01101000  0.92320000  1.0 0.5327593097
C  C28  1  0.85501000  0.98899000  0.42320000  1.0 0.5327593097
C  C29  1  0.43400000  0.10400000  0.43255000  1.0 -0.1983125947
C  C30  1  0.56600000  0.89600000  0.93255000  1.0 -0.1983125947
C  C31  1  0.89600000  0.56600000  0.06745000  1.0 -0.1983125947
C  C32  1  0.10400000  0.43400000  0.56745000  1.0 -0.1983125947
C  C33  1  0.50396000  0.13924000  0.38823000  1.0 -0.1086088187
C  C34  1  0.49604000  0.86076000  0.88823000  1.0 -0.1086088187
C  C35  1  0.86076000  0.49604000  0.11177000  1.0 -0.1086088187
C  C36  1  0.13924000  0.50396000  0.61177000  1.0 -0.1086088187
C  C37  1  0.55615000  0.09305000  0.37647000  1.0 -0.0984790513
C  C38  1  0.44385000  0.90695000  0.87647000  1.0 -0.0984790513
C  C39  1  0.90695000  0.44385000  0.12353000  1.0 -0.0984790513
C  C40  1  0.09305000  0.55615000  0.62353000  1.0 -0.0984790513
C  C41  1  0.53837000  0.01163000  0.40904000  1.0 0.0163702414
C  C42  1  0.46163000  0.98837000  0.90904000  1.0 0.0163702414
C  C43  1  0.98837000  0.46163000  0.09096000  1.0 0.0163702414
C  C44  1  0.01163000  0.53837000  0.59096000  1.0 0.0105717744
C  C45  1  0.46841000  0.97639000  0.45336000  1.0 -0.0933220006
C  C46  1  0.53159000  0.02361000  0.95336000  1.0 -0.0933220006
C  C47  1  0.02361000  0.53159000  0.04664000  1.0 -0.0933220006
C  C48  1  0.97639000  0.46841000  0.54664000  1.0 -0.0933220006
C  C49  1  0.41622000  0.02258000  0.46511000  1.0 -0.0984790513
C  C50  1  0.58378000  0.97742000  0.96511000  1.0 -0.0984790513
C  C51  1  0.97742000  0.58378000  0.03489000  1.0 -0.0984790513
C  C52  1  0.02258000  0.41622000  0.53489000  1.0 -0.0984790513
C  C53  1  0.58863000  0.95397000  0.39600000  1.0 0.5534506449
C  C54  1  0.41137000  0.04603000  0.89600000  1.0 0.5534506449
C  C55  1  0.04603000  0.41137000  0.10400000  1.0 0.5534506449
C  C56  1  0.95397000  0.58863000  0.60400000  1.0 0.5534506449
C  C57  1  0.32216000  0.19784000  0.37930000  1.0 -0.164310447
C  C58  1  0.67784000  0.80216000  0.87930000  1.0 -0.164310447
C  C59  1  0.80216000  0.67784000  0.12070000  1.0 -0.164310447
C  C60  1  0.19784000  0.32216000  0.62070000  1.0 -0.164310447
C  C61  1  0.30292000  0.27468000  0.37950000  1.0 -0.0311020117
C  C62  1  0.69708000  0.72532000  0.87950000  1.0 -0.0311020117
C  C63  1  0.72532000  0.69708000  0.12050000  1.0 -0.0311020117
C  C64  1  0.27468000  0.30292000  0.62050000  1.0 -0.0311020117
C  C65  1  0.26571000  0.29589000  0.33050000  1.0 -0.0311020117
C  C66  1  0.73429000  0.70411000  0.83050000  1.0 -0.0311020117
C  C67  1  0.70411000  0.73429000  0.16950000  1.0 -0.0311020117
C  C68  1  0.29589000  0.26571000  0.66950000  1.0 -0.0311020117
C  C69  1  0.25389000  0.24471000  0.27835000  1.0 -0.0311020117
C  C70  1  0.74611000  0.75529000  0.77835000  1.0 -0.0311020117
C  C71  1  0.75529000  0.74611000  0.22165000  1.0 -0.0311020117
C  C72  1  0.24471000  0.25389000  0.72165000  1.0 -0.0311020117
C  C73  1  0.27769000  0.17291000  0.27630000  1.0 -0.0110784032
C  C74  1  0.72231000  0.82709000  0.77630000  1.0 -0.0110784032
C  C75  1  0.82709000  0.72231000  0.22370000  1.0 -0.0110784032
C  C76  1  0.17291000  0.27769000  0.72370000  1.0 -0.0110784032
C  C77  1  0.31256000  0.14984000  0.32760000  1.0 -0.0110784032
C  C78  1  0.68744000  0.85016000  0.82760000  1.0 -0.0110784032
C  C79  1  0.85016000  0.68744000  0.17240000  1.0 -0.0110784032
C  C80  1  0.14984000  0.31256000  0.67240000  1.0 -0.0110784032
C  C81  1  0.21553000  0.26867000  0.22455000  1.0 0.5167384752
C  C82  1  0.78447000  0.73133000  0.72455000  1.0 0.5167384752
C  C83  1  0.73133000  0.78447000  0.27545000  1.0 0.5167384752
C  C84  1  0.26867000  0.21553000  0.77545000  1.0 0.5167384752
C  C85  1  0.45045000  0.28431000  0.48949000  1.0 -0.1983125947
C  C86  1  0.54955000  0.71569000  0.98949000  1.0 -0.1983125947
C  C87  1  0.71569000  0.54955000  0.01051000  1.0 -0.1983125947
C  C88  1  0.28431000  0.45045000  0.51051000  1.0 -0.1983125947
C  C89  1  0.50055000  0.37269000  0.45914000  1.0 -0.119139301
C  C90  1  0.49945000  0.62731000  0.95914000  1.0 -0.119139301
C  C91  1  0.62731000  0.49945000  0.04086000  1.0 -0.119139301
C  C92  1  0.37269000  0.50055000  0.54086000  1.0 -0.119139301
C  C93  1  0.57358000  0.45670000  0.48697000  1.0 -0.079567032
C  C94  1  0.42642000  0.54330000  0.98697000  1.0 -0.079567032
C  C95  1  0.54330000  0.42642000  0.01303000  1.0 -0.079567032
C  C96  1  0.45670000  0.57358000  0.51303000  1.0 -0.079567032
C  C97  1  0.59653000  0.45233000  0.54516000  1.0 -0.001564417
C  C98  1  0.40347000  0.54767000  0.04516000  1.0 -0.001564417
C  C99  1  0.54767000  0.40347000  0.95484000  1.0 -0.001564417
C  C100  1  0.45233000  0.59653000  0.45484000  1.0 -0.001564417
C  C101  1  0.54643000  0.36395000  0.57552000  1.0 -0.079567032
C  C102  1  0.45357000  0.63605000  0.07552000  1.0 -0.079567032
C  C103  1  0.63605000  0.45357000  0.92448000  1.0 -0.079567032
C  C104  1  0.36395000  0.54643000  0.42448000  1.0 -0.079567032
C  C105  1  0.47339000  0.27995000  0.54768000  1.0 -0.1271351866
C  C106  1  0.52661000  0.72005000  0.04768000  1.0 -0.119139301
C  C107  1  0.72005000  0.52661000  0.95232000  1.0 -0.1271351866
C  C108  1  0.27995000  0.47339000  0.45232000  1.0 -0.1271351866
C  C109  1  0.67867000  0.54333000  0.57380000  1.0 0.5770916053
C  C110  1  0.32133000  0.45667000  0.07380000  1.0 0.5770916053
C  C111  1  0.45667000  0.32133000  0.92620000  1.0 0.5770916053
C  C112  1  0.54333000  0.67867000  0.42620000  1.0 0.5770916053
C  C113  1  0.15890000  0.04430000  0.46460000  1.0 -0.0560222483
C  C114  1  0.84110000  0.95570000  0.96460000  1.0 -0.0512509549
C  C115  1  0.95570000  0.84110000  0.03540000  1.0 -0.0512509549
C  C116  1  0.04430000  0.15890000  0.53540000  1.0 -0.0560222483
C  C117  1  0.25470000  0.22790000  0.38320000  1.0 -0.0735962019
C  C118  1  0.74530000  0.77210000  0.88320000  1.0 -0.0735962019
C  C119  1  0.77210000  0.74530000  0.11680000  1.0 -0.0735962019
C  C120  1  0.22790000  0.25470000  0.61680000  1.0 -0.0735962019
C  C121  1  0.22100000  0.25220000  0.33410000  1.0 -0.0512509549
C  C122  1  0.77900000  0.74780000  0.83410000  1.0 -0.0512509549
C  C123  1  0.74780000  0.77900000  0.16590000  1.0 -0.0512509549
C  C124  1  0.25220000  0.22100000  0.66590000  1.0 -0.0512509549
C  C125  1  0.31800000  0.21120000  0.27390000  1.0 -0.001564417
C  C126  1  0.68200000  0.78880000  0.77390000  1.0 -0.001564417
C  C127  1  0.78880000  0.68200000  0.22610000  1.0 -0.001564417
C  C128  1  0.21120000  0.31800000  0.72610000  1.0 -0.001564417
C  C129  1  0.35260000  0.18720000  0.32360000  1.0 0.0011976935
C  C130  1  0.64740000  0.81280000  0.82360000  1.0 0.0011976935
C  C131  1  0.81280000  0.64740000  0.17640000  1.0 0.0011976935
C  C132  1  0.18720000  0.35260000  0.67640000  1.0 -0.001564417
C  C133  1  0.07390000  0.97190000  0.49290000  1.0 -0.0441477868
C  C134  1  0.92610000  0.02810000  0.99290000  1.0 -0.0441477868
C  C135  1  0.02810000  0.92610000  0.00710000  1.0 -0.0441477868
C  C136  1  0.97190000  0.07390000  0.50710000  1.0 -0.0441477868
C  C137  1  0.16820000  0.98340000  0.57710000  1.0 -0.0311020117
C  C138  1  0.83180000  0.01660000  0.07710000  1.0 -0.0311020117
C  C139  1  0.01660000  0.83180000  0.92290000  1.0 -0.0311020117
C  C140  1  0.98340000  0.16820000  0.42290000  1.0 -0.0311020117
C  C141  1  0.25330000  0.05490000  0.54810000  1.0 0.0105717744
C  C142  1  0.74670000  0.94510000  0.04810000  1.0 0.0105717744
C  C143  1  0.94510000  0.74670000  0.95190000  1.0 0.0105717744
C  C144  1  0.05490000  0.25330000  0.45190000  1.0 0.0105717744
O  O1  1  0.90872000  0.81228000  0.54990000  1.0 -0.5694218567
O  O2  1  0.09128000  0.18772000  0.04990000  1.0 -0.5694218567
O  O3  1  0.18772000  0.09128000  0.95010000  1.0 -0.5694218567
O  O4  1  0.81228000  0.90872000  0.45010000  1.0 -0.5694218567
O  O5  1  0.99756000  0.82602000  0.62636000  1.0 -0.4601317412
O  O6  1  0.00244000  0.17398000  0.12636000  1.0 -0.4601317412
O  O7  1  0.17398000  0.00244000  0.87364000  1.0 -0.4601317412
O  O8  1  0.82602000  0.99756000  0.37364000  1.0 -0.4601317412
O  O9  1  0.60610000  0.91250000  0.43820000  1.0 -0.5615692577
O  O10  1  0.39390000  0.08750000  0.93820000  1.0 -0.5615692577
O  O11  1  0.08750000  0.39390000  0.06180000  1.0 -0.5615692577
O  O12  1  0.91250000  0.60610000  0.56180000  1.0 -0.5615692577
O  O13  1  0.61633000  0.95527000  0.34400000  1.0 -0.5367355189
O  O14  1  0.38367000  0.04473000  0.84400000  1.0 -0.5367355189
O  O15  1  0.04473000  0.38367000  0.15600000  1.0 -0.5367355189
O  O16  1  0.95527000  0.61633000  0.65600000  1.0 -0.5367355189
O  O17  1  0.23090000  0.24430000  0.17544000  1.0 -0.5030595652
O  O18  1  0.76910000  0.75570000  0.67544000  1.0 -0.5030595652
O  O19  1  0.75570000  0.76910000  0.32456000  1.0 -0.5030595652
O  O20  1  0.24430000  0.23090000  0.82456000  1.0 -0.5030595652
O  O21  1  0.17040000  0.31300000  0.23020000  1.0 -0.4820639781
O  O22  1  0.82960000  0.68700000  0.73020000  1.0 -0.4820639781
O  O23  1  0.68700000  0.82960000  0.26980000  1.0 -0.4820639781
O  O24  1  0.31300000  0.17040000  0.76980000  1.0 -0.4820639781
O  O25  1  0.70449000  0.53271000  0.62477000  1.0 -0.5116335593
O  O26  1  0.29551000  0.46729000  0.12477000  1.0 -0.5116335593
O  O27  1  0.46729000  0.29551000  0.87523000  1.0 -0.5116335593
O  O28  1  0.53271000  0.70449000  0.37523000  1.0 -0.5116335593
O  O29  1  0.72320000  0.62340000  0.54989000  1.0 -0.5615692577
O  O30  1  0.27680000  0.37660000  0.04989000  1.0 -0.5615692577
O  O31  1  0.37660000  0.27680000  0.95011000  1.0 -0.5615692577
O  O32  1  0.62340000  0.72320000  0.45011000  1.0 -0.5615692577
