# DDEC6 charges by PACMAN v1.1 (https://github.com/mtap-research/PACMAN-charge/)
data_EPOVAJ_ASR_pacman
_symmetry_space_group_name_H-M   'P 1'
_cell_length_a   17.65400000
_cell_length_b   17.65400000
_cell_length_c   11.87050000
_cell_angle_alpha   83.13910000
_cell_angle_beta   96.86090000
_cell_angle_gamma   43.40840000
_symmetry_Int_Tables_number   1
_chemical_formula_structural   Mn3H42C46(N8O3)2
_chemical_formula_sum   'Mn6 H84 C92 N32 O12'
_cell_volume   2406.05207078
_cell_formula_units_Z   2
loop_
 _symmetry_equiv_pos_site_id
 _symmetry_equiv_pos_as_xyz
  1  'x, y, z'
loop_
 _atom_site_type_symbol
 _atom_site_label
 _atom_site_symmetry_multiplicity
 _atom_site_fract_x
 _atom_site_fract_y
 _atom_site_fract_z
 _atom_site_occupancy
 _atom_site_charge
Mn  Mn1  1  0.06886000  0.46886000  0.12852000  1.0 0.8583141656
Mn  Mn2  1  0.46886000  0.06886000  0.87148000  1.0 0.8583141656
Mn  Mn3  1  0.93114000  0.53114000  0.87148000  1.0 0.8583141656
Mn  Mn4  1  0.53114000  0.93114000  0.12852000  1.0 0.8583141656
Mn  Mn5  1  0.73881000  0.73881000  0.00000000  1.0 0.7353640587
Mn  Mn6  1  0.26119000  0.26119000  0.00000000  1.0 0.7347264082
H  H1  1  0.89144000  0.51888000  0.07250000  1.0 0.3648347051
H  H2  1  0.00696000  0.63360000  0.14127000  1.0 0.3161619173
H  H3  1  0.99325000  0.65629000  0.02170000  1.0 0.3333331139
H  H4  1  0.10901000  0.45057000  0.31464000  1.0 0.2360791283
H  H5  1  0.05710000  0.43056000  0.30833000  1.0 0.2488935532
H  H6  1  0.87465000  0.93715000  0.89830000  1.0 0.1109039785
H  H7  1  0.72289000  0.43909000  0.18354000  1.0 0.1109039785
H  H8  1  0.74373000  0.30253000  0.28251000  1.0 0.0980577249
H  H9  1  0.74854000  0.38166000  0.58229000  1.0 0.0884525634
H  H10  1  0.71333000  0.52959000  0.48155000  1.0 0.115810165
H  H11  1  0.88154000  0.05702000  0.82664000  1.0 0.0980577249
H  H12  1  0.88343000  0.87019000  0.58550000  1.0 0.1109039785
H  H13  1  0.87252000  0.00694000  0.50989000  1.0 0.0622795737
H  H14  1  0.87302000  0.35978000  0.30130000  1.0 0.1109039785
H  H15  1  0.90021000  0.21923000  0.40334000  1.0 0.0884525634
H  H16  1  0.58957000  0.46027000  0.44671000  1.0 0.0884525634
H  H17  1  0.56984000  0.60026000  0.36206000  1.0 0.1109039785
H  H18  1  0.70458000  0.17976000  0.68693000  1.0 0.0770897956
H  H19  1  0.70659000  0.04887000  0.76217000  1.0 0.115810165
H  H20  1  0.03285000  0.78765000  0.76239000  1.0 0.0980577249
H  H21  1  0.03070000  0.91540000  0.68729000  1.0 0.0884525634
H  H22  1  0.51888000  0.89144000  0.92750000  1.0 0.3648347051
H  H23  1  0.63360000  0.00696000  0.85873000  1.0 0.3161619173
H  H24  1  0.65629000  0.99325000  0.97830000  1.0 0.3333331139
H  H25  1  0.45057000  0.10901000  0.68536000  1.0 0.2360791283
H  H26  1  0.43056000  0.05710000  0.69167000  1.0 0.2488935532
H  H27  1  0.93715000  0.87465000  0.10170000  1.0 0.1109039785
H  H28  1  0.43909000  0.72289000  0.81646000  1.0 0.1109039785
H  H29  1  0.30253000  0.74373000  0.71749000  1.0 0.0980577249
H  H30  1  0.38166000  0.74854000  0.41771000  1.0 0.0884525634
H  H31  1  0.52959000  0.71333000  0.51845000  1.0 0.115810165
H  H32  1  0.05702000  0.88154000  0.17336000  1.0 0.0980577249
H  H33  1  0.87019000  0.88343000  0.41450000  1.0 0.1109039785
H  H34  1  0.00694000  0.87252000  0.49011000  1.0 0.0622795737
H  H35  1  0.35978000  0.87302000  0.69870000  1.0 0.1109039785
H  H36  1  0.21923000  0.90021000  0.59666000  1.0 0.0884525634
H  H37  1  0.46027000  0.58957000  0.55329000  1.0 0.0884525634
H  H38  1  0.60026000  0.56984000  0.63794000  1.0 0.1109039785
H  H39  1  0.17976000  0.70458000  0.31307000  1.0 0.0770897956
H  H40  1  0.04887000  0.70659000  0.23783000  1.0 0.115810165
H  H41  1  0.78765000  0.03285000  0.23761000  1.0 0.0980577249
H  H42  1  0.91540000  0.03070000  0.31271000  1.0 0.0884525634
H  H43  1  0.10856000  0.48112000  0.92750000  1.0 0.3648347051
H  H44  1  0.99304000  0.36640000  0.85873000  1.0 0.3161619173
H  H45  1  0.00675000  0.34371000  0.97830000  1.0 0.3333331139
H  H46  1  0.89099000  0.54943000  0.68536000  1.0 0.2360791283
H  H47  1  0.94290000  0.56944000  0.69167000  1.0 0.2488935532
H  H48  1  0.12535000  0.06285000  0.10170000  1.0 0.1109039785
H  H49  1  0.27711000  0.56091000  0.81646000  1.0 0.1109039785
H  H50  1  0.25627000  0.69747000  0.71749000  1.0 0.0980577249
H  H51  1  0.25146000  0.61834000  0.41771000  1.0 0.0884525634
H  H52  1  0.28667000  0.47041000  0.51845000  1.0 0.115810165
H  H53  1  0.11846000  0.94298000  0.17336000  1.0 0.0980577249
H  H54  1  0.11657000  0.12981000  0.41450000  1.0 0.1109039785
H  H55  1  0.12748000  0.99306000  0.49011000  1.0 0.0622795737
H  H56  1  0.12698000  0.64022000  0.69870000  1.0 0.1109039785
H  H57  1  0.09979000  0.78077000  0.59666000  1.0 0.0884525634
H  H58  1  0.41043000  0.53973000  0.55329000  1.0 0.0884525634
H  H59  1  0.43016000  0.39974000  0.63794000  1.0 0.1109039785
H  H60  1  0.29542000  0.82024000  0.31307000  1.0 0.0770897956
H  H61  1  0.29341000  0.95113000  0.23783000  1.0 0.115810165
H  H62  1  0.96715000  0.21235000  0.23761000  1.0 0.0980577249
H  H63  1  0.96930000  0.08460000  0.31271000  1.0 0.0884525634
H  H64  1  0.48112000  0.10856000  0.07250000  1.0 0.3648347051
H  H65  1  0.36640000  0.99304000  0.14127000  1.0 0.3161619173
H  H66  1  0.34371000  0.00675000  0.02170000  1.0 0.3333331139
H  H67  1  0.54943000  0.89099000  0.31464000  1.0 0.2360791283
H  H68  1  0.56944000  0.94290000  0.30833000  1.0 0.2488935532
H  H69  1  0.06285000  0.12535000  0.89830000  1.0 0.1109039785
H  H70  1  0.56091000  0.27711000  0.18354000  1.0 0.1109039785
H  H71  1  0.69747000  0.25627000  0.28251000  1.0 0.0980577249
H  H72  1  0.61834000  0.25146000  0.58229000  1.0 0.0884525634
H  H73  1  0.47041000  0.28667000  0.48155000  1.0 0.115810165
H  H74  1  0.94298000  0.11846000  0.82664000  1.0 0.0980577249
H  H75  1  0.12981000  0.11657000  0.58550000  1.0 0.1109039785
H  H76  1  0.99306000  0.12748000  0.50989000  1.0 0.0622795737
H  H77  1  0.64022000  0.12698000  0.30130000  1.0 0.1109039785
H  H78  1  0.78077000  0.09979000  0.40334000  1.0 0.0884525634
H  H79  1  0.53973000  0.41043000  0.44671000  1.0 0.0884525634
H  H80  1  0.39974000  0.43016000  0.36206000  1.0 0.1109039785
H  H81  1  0.82024000  0.29542000  0.68693000  1.0 0.0770897956
H  H82  1  0.95113000  0.29341000  0.76217000  1.0 0.115810165
H  H83  1  0.21235000  0.96715000  0.76239000  1.0 0.0980577249
H  H84  1  0.08460000  0.96930000  0.68729000  1.0 0.0884525634
C  C1  1  0.69845000  0.58825000  0.25690000  1.0 0.223762566
C  C2  1  0.87190000  0.95210000  0.81920000  1.0 -0.0409472066
C  C3  1  0.71735000  0.49675000  0.32230000  1.0 0.0452794933
C  C4  1  0.72660000  0.42880000  0.26350000  1.0 -0.0510377812
C  C5  1  0.74100000  0.34560000  0.32390000  1.0 -0.0510377812
C  C6  1  0.75170000  0.32390000  0.44440000  1.0 0.0622795737
C  C7  1  0.74190000  0.39410000  0.50160000  1.0 -0.0710835208
C  C8  1  0.72260000  0.48180000  0.44230000  1.0 -0.0808859116
C  C9  1  0.86321000  0.05861000  0.65940000  1.0 0.0622795737
C  C10  1  0.87330000  0.02670000  0.77440000  1.0 -0.0303167066
C  C11  1  0.86673000  0.90173000  0.74970000  1.0 0.0377243764
C  C12  1  0.87530000  0.91390000  0.63090000  1.0 -0.1155362635
C  C13  1  0.87070000  0.99430000  0.58740000  1.0 -0.1548283755
C  C14  1  0.85912000  0.82692000  0.79480000  1.0 0.2274260164
C  C15  1  0.81720000  0.38040000  0.33450000  1.0 -0.0592578936
C  C16  1  0.83300000  0.29640000  0.39530000  1.0 -0.0710835208
C  C17  1  0.64990000  0.43890000  0.42350000  1.0 -0.0808859116
C  C18  1  0.63630000  0.52350000  0.36800000  1.0 -0.0510377812
C  C19  1  0.76710000  0.10170000  0.69380000  1.0 -0.1328436046
C  C20  1  0.76890000  0.02290000  0.73900000  1.0 -0.0925660481
C  C21  1  0.96330000  0.86650000  0.73880000  1.0 -0.0409472066
C  C22  1  0.96260000  0.94320000  0.69380000  1.0 -0.0592578936
C  C23  1  0.58825000  0.69845000  0.74310000  1.0 0.223762566
C  C24  1  0.95210000  0.87190000  0.18080000  1.0 -0.0409472066
C  C25  1  0.49675000  0.71735000  0.67770000  1.0 0.0452794933
C  C26  1  0.42880000  0.72660000  0.73650000  1.0 -0.0510377812
C  C27  1  0.34560000  0.74100000  0.67610000  1.0 -0.0510377812
C  C28  1  0.32390000  0.75170000  0.55560000  1.0 0.0622795737
C  C29  1  0.39410000  0.74190000  0.49840000  1.0 -0.0710835208
C  C30  1  0.48180000  0.72260000  0.55770000  1.0 -0.0808859116
C  C31  1  0.05861000  0.86321000  0.34060000  1.0 0.0622795737
C  C32  1  0.02670000  0.87330000  0.22560000  1.0 -0.0303167066
C  C33  1  0.90173000  0.86673000  0.25030000  1.0 0.0377243764
C  C34  1  0.91390000  0.87530000  0.36910000  1.0 -0.1155362635
C  C35  1  0.99430000  0.87070000  0.41260000  1.0 -0.1548283755
C  C36  1  0.82692000  0.85912000  0.20520000  1.0 0.2274260164
C  C37  1  0.38040000  0.81720000  0.66550000  1.0 -0.0592578936
C  C38  1  0.29640000  0.83300000  0.60470000  1.0 -0.0710835208
C  C39  1  0.43890000  0.64990000  0.57650000  1.0 -0.0808859116
C  C40  1  0.52350000  0.63630000  0.63200000  1.0 -0.0510377812
C  C41  1  0.10170000  0.76710000  0.30620000  1.0 -0.1328436046
C  C42  1  0.02290000  0.76890000  0.26100000  1.0 -0.0925660481
C  C43  1  0.86650000  0.96330000  0.26120000  1.0 -0.0409472066
C  C44  1  0.94320000  0.96260000  0.30620000  1.0 -0.0592578936
C  C45  1  0.30155000  0.41175000  0.74310000  1.0 0.223762566
C  C46  1  0.12810000  0.04790000  0.18080000  1.0 -0.0409472066
C  C47  1  0.28265000  0.50325000  0.67770000  1.0 0.0452794933
C  C48  1  0.27340000  0.57120000  0.73650000  1.0 -0.0510377812
C  C49  1  0.25900000  0.65440000  0.67610000  1.0 -0.0510377812
C  C50  1  0.24830000  0.67610000  0.55560000  1.0 0.0622795737
C  C51  1  0.25810000  0.60590000  0.49840000  1.0 -0.0710835208
C  C52  1  0.27740000  0.51820000  0.55770000  1.0 -0.0808859116
C  C53  1  0.13679000  0.94139000  0.34060000  1.0 0.0622795737
C  C54  1  0.12670000  0.97330000  0.22560000  1.0 -0.0303167066
C  C55  1  0.13327000  0.09827000  0.25030000  1.0 0.0377243764
C  C56  1  0.12470000  0.08610000  0.36910000  1.0 -0.1155362635
C  C57  1  0.12930000  0.00570000  0.41260000  1.0 -0.1548283755
C  C58  1  0.14088000  0.17308000  0.20520000  1.0 0.2274260164
C  C59  1  0.18280000  0.61960000  0.66550000  1.0 -0.0592578936
C  C60  1  0.16700000  0.70360000  0.60470000  1.0 -0.0710835208
C  C61  1  0.35010000  0.56110000  0.57650000  1.0 -0.0808859116
C  C62  1  0.36370000  0.47650000  0.63200000  1.0 -0.0510377812
C  C63  1  0.23290000  0.89830000  0.30620000  1.0 -0.1328436046
C  C64  1  0.23110000  0.97710000  0.26100000  1.0 -0.0925660481
C  C65  1  0.03670000  0.13350000  0.26120000  1.0 -0.0409472066
C  C66  1  0.03740000  0.05680000  0.30620000  1.0 -0.0592578936
C  C67  1  0.41175000  0.30155000  0.25690000  1.0 0.223762566
C  C68  1  0.04790000  0.12810000  0.81920000  1.0 -0.0409472066
C  C69  1  0.50325000  0.28265000  0.32230000  1.0 0.0452794933
C  C70  1  0.57120000  0.27340000  0.26350000  1.0 -0.0510377812
C  C71  1  0.65440000  0.25900000  0.32390000  1.0 -0.0510377812
C  C72  1  0.67610000  0.24830000  0.44440000  1.0 0.0622795737
C  C73  1  0.60590000  0.25810000  0.50160000  1.0 -0.0710835208
C  C74  1  0.51820000  0.27740000  0.44230000  1.0 -0.0808859116
C  C75  1  0.94139000  0.13679000  0.65940000  1.0 0.0622795737
C  C76  1  0.97330000  0.12670000  0.77440000  1.0 -0.0303167066
C  C77  1  0.09827000  0.13327000  0.74970000  1.0 0.0377243764
C  C78  1  0.08610000  0.12470000  0.63090000  1.0 -0.1155362635
C  C79  1  0.00570000  0.12930000  0.58740000  1.0 -0.1548283755
C  C80  1  0.17308000  0.14088000  0.79480000  1.0 0.2274260164
C  C81  1  0.61960000  0.18280000  0.33450000  1.0 -0.0592578936
C  C82  1  0.70360000  0.16700000  0.39530000  1.0 -0.0710835208
C  C83  1  0.56110000  0.35010000  0.42350000  1.0 -0.0808859116
C  C84  1  0.47650000  0.36370000  0.36800000  1.0 -0.0510377812
C  C85  1  0.89830000  0.23290000  0.69380000  1.0 -0.1328436046
C  C86  1  0.97710000  0.23110000  0.73900000  1.0 -0.0925660481
C  C87  1  0.13350000  0.03670000  0.73880000  1.0 -0.0409472066
C  C88  1  0.05680000  0.03740000  0.69380000  1.0 -0.0592578936
C  C89  1  0.76700000  0.23300000  0.50500000  1.0 -0.2099527253
C  C90  1  0.85350000  0.14650000  0.60390000  1.0 -0.202920845
C  C91  1  0.23300000  0.76700000  0.49500000  1.0 -0.2099527253
C  C92  1  0.14650000  0.85350000  0.39610000  1.0 -0.202920845
N  N1  1  0.74218000  0.57958000  0.16860000  1.0 -0.291932727
N  N2  1  0.70402000  0.68042000  0.13440000  1.0 -0.0510377812
N  N3  1  0.63968000  0.74508000  0.19820000  1.0 -0.0710835208
N  N4  1  0.63433000  0.68953000  0.27820000  1.0 -0.3023364632
N  N5  1  0.91469000  0.72729000  0.77340000  1.0 -0.3023364632
N  N6  1  0.87754000  0.69314000  0.82750000  1.0 -0.0925660481
N  N7  1  0.80393000  0.76893000  0.87970000  1.0 -0.0710835208
N  N8  1  0.79101000  0.85401000  0.86050000  1.0 -0.2600004284
N  N9  1  0.57958000  0.74218000  0.83140000  1.0 -0.291932727
N  N10  1  0.68042000  0.70402000  0.86560000  1.0 -0.0510377812
N  N11  1  0.74508000  0.63968000  0.80180000  1.0 -0.0710835208
N  N12  1  0.68953000  0.63433000  0.72180000  1.0 -0.3023364632
N  N13  1  0.72729000  0.91469000  0.22660000  1.0 -0.291932727
N  N14  1  0.69314000  0.87754000  0.17250000  1.0 -0.0925660481
N  N15  1  0.76893000  0.80393000  0.12030000  1.0 -0.0710835208
N  N16  1  0.85401000  0.79101000  0.13950000  1.0 -0.2600004284
N  N17  1  0.25782000  0.42042000  0.83140000  1.0 -0.291932727
N  N18  1  0.29598000  0.31958000  0.86560000  1.0 -0.0510377812
N  N19  1  0.36032000  0.25492000  0.80180000  1.0 -0.0710835208
N  N20  1  0.36567000  0.31047000  0.72180000  1.0 -0.3023364632
N  N21  1  0.08531000  0.27271000  0.22660000  1.0 -0.291932727
N  N22  1  0.12246000  0.30686000  0.17250000  1.0 -0.0925660481
N  N23  1  0.19607000  0.23107000  0.12030000  1.0 -0.0710835208
N  N24  1  0.20899000  0.14599000  0.13950000  1.0 -0.2600004284
N  N25  1  0.42042000  0.25782000  0.16860000  1.0 -0.291932727
N  N26  1  0.31958000  0.29598000  0.13440000  1.0 -0.0510377812
N  N27  1  0.25492000  0.36032000  0.19820000  1.0 -0.0710835208
N  N28  1  0.31047000  0.36567000  0.27820000  1.0 -0.3023364632
N  N29  1  0.27271000  0.08531000  0.77340000  1.0 -0.291932727
N  N30  1  0.30686000  0.12246000  0.82750000  1.0 -0.0925660481
N  N31  1  0.23107000  0.19607000  0.87970000  1.0 -0.0710835208
N  N32  1  0.14599000  0.20899000  0.86050000  1.0 -0.2600004284
O  O1  1  0.90112000  0.56392000  0.03860000  1.0 -0.8303241639
O  O2  1  0.04533000  0.60433000  0.09000000  1.0 -0.6777803956
O  O3  1  0.03768000  0.49208000  0.29590000  1.0 -0.6244891295
O  O4  1  0.56392000  0.90112000  0.96140000  1.0 -0.8303241639
O  O5  1  0.60433000  0.04533000  0.91000000  1.0 -0.6777803956
O  O6  1  0.49208000  0.03768000  0.70410000  1.0 -0.6244891295
O  O7  1  0.09888000  0.43608000  0.96140000  1.0 -0.8303241639
O  O8  1  0.95467000  0.39567000  0.91000000  1.0 -0.6777803956
O  O9  1  0.96232000  0.50792000  0.70410000  1.0 -0.6244891295
O  O10  1  0.43608000  0.09888000  0.03860000  1.0 -0.8303241639
O  O11  1  0.39567000  0.95467000  0.09000000  1.0 -0.6777803956
O  O12  1  0.50792000  0.96232000  0.29590000  1.0 -0.6253922789
