# DDEC6 charges by PACMAN v1.1 (https://github.com/mtap-research/PACMAN-charge/)
data_EQAHIQ_ASR_pacman
_symmetry_space_group_name_H-M   'P 1'
_cell_length_a   16.66110000
_cell_length_b   16.66110000
_cell_length_c   27.73600000
_cell_angle_alpha   90.00000000
_cell_angle_beta   90.00000000
_cell_angle_gamma   90.00000000
_symmetry_Int_Tables_number   1
_chemical_formula_structural   Zn3H40C72S8(N7O4)2
_chemical_formula_sum   'Zn6 H80 C144 S16 N28 O16'
_cell_volume   7699.29873503
_cell_formula_units_Z   2
loop_
 _symmetry_equiv_pos_site_id
 _symmetry_equiv_pos_as_xyz
  1  'x, y, z'
loop_
 _atom_site_type_symbol
 _atom_site_label
 _atom_site_symmetry_multiplicity
 _atom_site_fract_x
 _atom_site_fract_y
 _atom_site_fract_z
 _atom_site_occupancy
 _atom_site_charge
Zn  Zn1  1  0.50000000  0.00000000  0.10971000  1.0 0.9119602903
Zn  Zn2  1  0.50000000  0.00000000  0.21406000  1.0 0.7846193775
Zn  Zn3  1  0.00000000  0.50000000  0.89029000  1.0 0.9151650532
Zn  Zn4  1  0.00000000  0.50000000  0.78594000  1.0 0.7846193775
Zn  Zn5  1  0.00000000  0.50000000  0.17453000  1.0 0.5844023093
Zn  Zn6  1  0.50000000  0.00000000  0.82547000  1.0 0.5844023093
H  H1  1  0.92630000  0.20030000  0.16300000  1.0 0.1127283267
H  H2  1  0.07370000  0.79970000  0.16300000  1.0 0.1127283267
H  H3  1  0.29970000  0.42630000  0.16300000  1.0 0.1127283267
H  H4  1  0.70030000  0.57370000  0.16300000  1.0 0.1127283267
H  H5  1  0.57370000  0.70030000  0.83700000  1.0 0.1127283267
H  H6  1  0.42630000  0.29970000  0.83700000  1.0 0.1127283267
H  H7  1  0.20030000  0.92630000  0.83700000  1.0 0.1127283267
H  H8  1  0.79970000  0.07370000  0.83700000  1.0 0.1127283267
H  H9  1  0.57370000  0.29970000  0.83700000  1.0 0.1127283267
H  H10  1  0.42630000  0.70030000  0.83700000  1.0 0.1127283267
H  H11  1  0.20030000  0.07370000  0.83700000  1.0 0.1127283267
H  H12  1  0.79970000  0.92630000  0.83700000  1.0 0.1127283267
H  H13  1  0.92630000  0.79970000  0.16300000  1.0 0.1127283267
H  H14  1  0.07370000  0.20030000  0.16300000  1.0 0.1127283267
H  H15  1  0.29970000  0.57370000  0.16300000  1.0 0.1127283267
H  H16  1  0.70030000  0.42630000  0.16300000  1.0 0.1127283267
H  H17  1  0.78080000  0.28080000  0.08900000  1.0 0.1127283267
H  H18  1  0.67960000  0.17960000  0.23220000  1.0 0.1127283267
H  H19  1  0.78150000  0.28150000  0.23390000  1.0 0.1127283267
H  H20  1  0.68300000  0.18300000  0.08840000  1.0 0.1153833615
H  H21  1  0.21920000  0.71920000  0.08900000  1.0 0.1127283267
H  H22  1  0.32040000  0.82040000  0.23220000  1.0 0.1127283267
H  H23  1  0.21850000  0.71850000  0.23390000  1.0 0.1127283267
H  H24  1  0.31700000  0.81700000  0.08840000  1.0 0.1153833615
H  H25  1  0.21920000  0.28080000  0.08900000  1.0 0.1127283267
H  H26  1  0.32040000  0.17960000  0.23220000  1.0 0.1127283267
H  H27  1  0.21850000  0.28150000  0.23390000  1.0 0.1127283267
H  H28  1  0.31700000  0.18300000  0.08840000  1.0 0.1153833615
H  H29  1  0.78080000  0.71920000  0.08900000  1.0 0.1127283267
H  H30  1  0.67960000  0.82040000  0.23220000  1.0 0.1127283267
H  H31  1  0.78150000  0.71850000  0.23390000  1.0 0.1127283267
H  H32  1  0.68300000  0.81700000  0.08840000  1.0 0.1153833615
H  H33  1  0.71920000  0.78080000  0.91100000  1.0 0.1127283267
H  H34  1  0.82040000  0.67960000  0.76780000  1.0 0.1127283267
H  H35  1  0.71850000  0.78150000  0.76610000  1.0 0.1127283267
H  H36  1  0.81700000  0.68300000  0.91160000  1.0 0.1153833615
H  H37  1  0.28080000  0.21920000  0.91100000  1.0 0.1127283267
H  H38  1  0.17960000  0.32040000  0.76780000  1.0 0.1127283267
H  H39  1  0.28150000  0.21850000  0.76610000  1.0 0.1127283267
H  H40  1  0.18300000  0.31700000  0.91160000  1.0 0.1153833615
H  H41  1  0.28080000  0.78080000  0.91100000  1.0 0.1127283267
H  H42  1  0.17960000  0.67960000  0.76780000  1.0 0.1127283267
H  H43  1  0.28150000  0.78150000  0.76610000  1.0 0.1127283267
H  H44  1  0.18300000  0.68300000  0.91160000  1.0 0.1153833615
H  H45  1  0.71920000  0.21920000  0.91100000  1.0 0.1127283267
H  H46  1  0.82040000  0.32040000  0.76780000  1.0 0.1127283267
H  H47  1  0.71850000  0.21850000  0.76610000  1.0 0.1127283267
H  H48  1  0.81700000  0.31700000  0.91160000  1.0 0.1153833615
H  H49  1  0.41750000  0.08250000  0.65930000  1.0 0.0919771991
H  H50  1  0.41990000  0.08010000  0.73850000  1.0 0.0680829913
H  H51  1  0.41310000  0.08690000  0.37740000  1.0 0.0960034486
H  H52  1  0.41330000  0.08670000  0.29440000  1.0 0.0919771991
H  H53  1  0.58250000  0.91750000  0.65930000  1.0 0.0919771991
H  H54  1  0.58010000  0.91990000  0.73850000  1.0 0.0606365233
H  H55  1  0.58690000  0.91310000  0.37740000  1.0 0.0960034486
H  H56  1  0.58670000  0.91330000  0.29440000  1.0 0.0919771991
H  H57  1  0.41750000  0.91750000  0.65930000  1.0 0.0919771991
H  H58  1  0.41990000  0.91990000  0.73850000  1.0 0.0680829913
H  H59  1  0.41310000  0.91310000  0.37740000  1.0 0.0960034486
H  H60  1  0.41330000  0.91330000  0.29440000  1.0 0.0919771991
H  H61  1  0.58250000  0.08250000  0.65930000  1.0 0.0919771991
H  H62  1  0.58010000  0.08010000  0.73850000  1.0 0.0680829913
H  H63  1  0.58690000  0.08690000  0.37740000  1.0 0.0960034486
H  H64  1  0.58670000  0.08670000  0.29440000  1.0 0.0919771991
H  H65  1  0.08250000  0.58250000  0.34070000  1.0 0.0919771991
H  H66  1  0.08010000  0.58010000  0.26150000  1.0 0.0680829913
H  H67  1  0.08690000  0.58690000  0.62260000  1.0 0.0919771991
H  H68  1  0.08670000  0.58670000  0.70560000  1.0 0.0919771991
H  H69  1  0.91750000  0.41750000  0.34070000  1.0 0.0919771991
H  H70  1  0.91990000  0.41990000  0.26150000  1.0 0.0606365233
H  H71  1  0.91310000  0.41310000  0.62260000  1.0 0.0960034486
H  H72  1  0.91330000  0.41330000  0.70560000  1.0 0.0919771991
H  H73  1  0.08250000  0.41750000  0.34070000  1.0 0.0919771991
H  H74  1  0.08010000  0.41990000  0.26150000  1.0 0.0680829913
H  H75  1  0.08690000  0.41310000  0.62260000  1.0 0.0960034486
H  H76  1  0.08670000  0.41330000  0.70560000  1.0 0.0919771991
H  H77  1  0.91750000  0.58250000  0.34070000  1.0 0.0919771991
H  H78  1  0.91990000  0.58010000  0.26150000  1.0 0.0606365233
H  H79  1  0.91310000  0.58690000  0.62260000  1.0 0.0919771991
H  H80  1  0.91330000  0.58670000  0.70560000  1.0 0.0919771991
C  C1  1  0.93480000  0.32770000  0.16330000  1.0 0.1521268501
C  C2  1  0.96010000  0.24620000  0.16310000  1.0 -0.2102677836
C  C3  1  0.06520000  0.67230000  0.16330000  1.0 0.1521268501
C  C4  1  0.03990000  0.75380000  0.16310000  1.0 -0.2102677836
C  C5  1  0.17230000  0.43480000  0.16330000  1.0 0.1521268501
C  C6  1  0.25380000  0.46010000  0.16310000  1.0 -0.2102677836
C  C7  1  0.82770000  0.56520000  0.16330000  1.0 0.1521268501
C  C8  1  0.74620000  0.53990000  0.16310000  1.0 -0.2102677836
C  C9  1  0.56520000  0.82770000  0.83670000  1.0 0.1521268501
C  C10  1  0.53990000  0.74620000  0.83690000  1.0 -0.2102677836
C  C11  1  0.43480000  0.17230000  0.83670000  1.0 0.1521268501
C  C12  1  0.46010000  0.25380000  0.83690000  1.0 -0.2102677836
C  C13  1  0.32770000  0.93480000  0.83670000  1.0 0.1521268501
C  C14  1  0.24620000  0.96010000  0.83690000  1.0 -0.2102677836
C  C15  1  0.67230000  0.06520000  0.83670000  1.0 0.1521268501
C  C16  1  0.75380000  0.03990000  0.83690000  1.0 -0.2102677836
C  C17  1  0.56520000  0.17230000  0.83670000  1.0 0.1521268501
C  C18  1  0.53990000  0.25380000  0.83690000  1.0 -0.2102677836
C  C19  1  0.43480000  0.82770000  0.83670000  1.0 0.1521268501
C  C20  1  0.46010000  0.74620000  0.83690000  1.0 -0.2102677836
C  C21  1  0.32770000  0.06520000  0.83670000  1.0 0.1521268501
C  C22  1  0.24620000  0.03990000  0.83690000  1.0 -0.2102677836
C  C23  1  0.67230000  0.93480000  0.83670000  1.0 0.1521268501
C  C24  1  0.75380000  0.96010000  0.83690000  1.0 -0.2102677836
C  C25  1  0.93480000  0.67230000  0.16330000  1.0 0.1521268501
C  C26  1  0.96010000  0.75380000  0.16310000  1.0 -0.2102677836
C  C27  1  0.06520000  0.32770000  0.16330000  1.0 0.1521268501
C  C28  1  0.03990000  0.24620000  0.16310000  1.0 -0.2102677836
C  C29  1  0.17230000  0.56520000  0.16330000  1.0 0.1521268501
C  C30  1  0.25380000  0.53990000  0.16310000  1.0 -0.2102677836
C  C31  1  0.82770000  0.43480000  0.16330000  1.0 0.1521268501
C  C32  1  0.74620000  0.46010000  0.16310000  1.0 -0.2102677836
C  C33  1  0.50000000  0.00000000  0.44010000  1.0 0.0680829913
C  C34  1  0.50000000  0.00000000  0.59960000  1.0 0.1153833615
C  C35  1  0.50000000  0.00000000  0.64700000  1.0 -0.0392267152
C  C36  1  0.50000000  0.00000000  0.38480000  1.0 0.0431347839
C  C37  1  0.00000000  0.50000000  0.55990000  1.0 0.0680829913
C  C38  1  0.00000000  0.50000000  0.40040000  1.0 0.0960034486
C  C39  1  0.00000000  0.50000000  0.35300000  1.0 -0.0392267152
C  C40  1  0.00000000  0.50000000  0.61520000  1.0 0.0459611952
C  C41  1  0.79110000  0.29110000  0.16130000  1.0 0.0606365233
C  C42  1  0.85340000  0.35340000  0.16460000  1.0 -0.0522201379
C  C43  1  0.67340000  0.17340000  0.16020000  1.0 -0.0325342158
C  C44  1  0.60760000  0.10760000  0.16350000  1.0 0.5744163855
C  C45  1  0.76080000  0.26080000  0.11880000  1.0 -0.1613318459
C  C46  1  0.70060000  0.20060000  0.20290000  1.0 -0.1128477556
C  C47  1  0.76180000  0.26180000  0.20400000  1.0 -0.169575362
C  C48  1  0.70270000  0.20270000  0.11830000  1.0 -0.0985730678
C  C49  1  0.20890000  0.70890000  0.16130000  1.0 0.0606365233
C  C50  1  0.14660000  0.64660000  0.16460000  1.0 -0.0522201379
C  C51  1  0.32660000  0.82660000  0.16020000  1.0 -0.0325342158
C  C52  1  0.39240000  0.89240000  0.16350000  1.0 0.5744163855
C  C53  1  0.23920000  0.73920000  0.11880000  1.0 -0.1613318459
C  C54  1  0.29940000  0.79940000  0.20290000  1.0 -0.1128477556
C  C55  1  0.23820000  0.73820000  0.20400000  1.0 -0.169575362
C  C56  1  0.29730000  0.79730000  0.11830000  1.0 -0.0985730678
C  C57  1  0.20890000  0.29110000  0.16130000  1.0 0.0606365233
C  C58  1  0.14660000  0.35340000  0.16460000  1.0 -0.0522201379
C  C59  1  0.32660000  0.17340000  0.16020000  1.0 -0.0325342158
C  C60  1  0.39240000  0.10760000  0.16350000  1.0 0.5744163855
C  C61  1  0.23920000  0.26080000  0.11880000  1.0 -0.1613318459
C  C62  1  0.29940000  0.20060000  0.20290000  1.0 -0.1128477556
C  C63  1  0.23820000  0.26180000  0.20400000  1.0 -0.169575362
C  C64  1  0.29730000  0.20270000  0.11830000  1.0 -0.1128477556
C  C65  1  0.79110000  0.70890000  0.16130000  1.0 0.0606365233
C  C66  1  0.85340000  0.64660000  0.16460000  1.0 -0.0522201379
C  C67  1  0.67340000  0.82660000  0.16020000  1.0 -0.0325342158
C  C68  1  0.60760000  0.89240000  0.16350000  1.0 0.5744163855
C  C69  1  0.76080000  0.73920000  0.11880000  1.0 -0.1613318459
C  C70  1  0.70060000  0.79940000  0.20290000  1.0 -0.1128477556
C  C71  1  0.76180000  0.73820000  0.20400000  1.0 -0.169575362
C  C72  1  0.70270000  0.79730000  0.11830000  1.0 -0.0985730678
C  C73  1  0.70890000  0.79110000  0.83870000  1.0 0.0606365233
C  C74  1  0.64660000  0.85340000  0.83540000  1.0 -0.0522201379
C  C75  1  0.82660000  0.67340000  0.83980000  1.0 -0.0325342158
C  C76  1  0.89240000  0.60760000  0.83650000  1.0 0.5744163855
C  C77  1  0.73920000  0.76080000  0.88120000  1.0 -0.1613318459
C  C78  1  0.79940000  0.70060000  0.79710000  1.0 -0.1128477556
C  C79  1  0.73820000  0.76180000  0.79600000  1.0 -0.169575362
C  C80  1  0.79730000  0.70270000  0.88170000  1.0 -0.0985730678
C  C81  1  0.29110000  0.20890000  0.83870000  1.0 0.0606365233
C  C82  1  0.35340000  0.14660000  0.83540000  1.0 -0.0522201379
C  C83  1  0.17340000  0.32660000  0.83980000  1.0 -0.0325342158
C  C84  1  0.10760000  0.39240000  0.83650000  1.0 0.5744163855
C  C85  1  0.26080000  0.23920000  0.88120000  1.0 -0.1613318459
C  C86  1  0.20060000  0.29940000  0.79710000  1.0 -0.1128477556
C  C87  1  0.26180000  0.23820000  0.79600000  1.0 -0.169575362
C  C88  1  0.20270000  0.29730000  0.88170000  1.0 -0.0985730678
C  C89  1  0.29110000  0.79110000  0.83870000  1.0 0.0606365233
C  C90  1  0.35340000  0.85340000  0.83540000  1.0 -0.0522201379
C  C91  1  0.17340000  0.67340000  0.83980000  1.0 -0.0325342158
C  C92  1  0.10760000  0.60760000  0.83650000  1.0 0.5744163855
C  C93  1  0.26080000  0.76080000  0.88120000  1.0 -0.1613318459
C  C94  1  0.20060000  0.70060000  0.79710000  1.0 -0.1128477556
C  C95  1  0.26180000  0.76180000  0.79600000  1.0 -0.169575362
C  C96  1  0.20270000  0.70270000  0.88170000  1.0 -0.0985730678
C  C97  1  0.70890000  0.20890000  0.83870000  1.0 0.0606365233
C  C98  1  0.64660000  0.14660000  0.83540000  1.0 -0.0522201379
C  C99  1  0.82660000  0.32660000  0.83980000  1.0 -0.0325342158
C  C100  1  0.89240000  0.39240000  0.83650000  1.0 0.5744163855
C  C101  1  0.73920000  0.23920000  0.88120000  1.0 -0.1613318459
C  C102  1  0.79940000  0.29940000  0.79710000  1.0 -0.1128477556
C  C103  1  0.73820000  0.23820000  0.79600000  1.0 -0.169575362
C  C104  1  0.79730000  0.29730000  0.88170000  1.0 -0.0985730678
C  C105  1  0.45360000  0.04640000  0.67460000  1.0 -0.0985730678
C  C106  1  0.45550000  0.04450000  0.72250000  1.0 0.0010166974
C  C107  1  0.44790000  0.05210000  0.36010000  1.0 -0.0985730678
C  C108  1  0.44780000  0.05220000  0.31210000  1.0 -0.0325342158
C  C109  1  0.47110000  0.02890000  0.51870000  1.0 0.1697470225
C  C110  1  0.54640000  0.95360000  0.67460000  1.0 -0.0985730678
C  C111  1  0.54450000  0.95550000  0.72250000  1.0 0.0010166974
C  C112  1  0.55210000  0.94790000  0.36010000  1.0 -0.0985730678
C  C113  1  0.55220000  0.94780000  0.31210000  1.0 -0.0325342158
C  C114  1  0.52890000  0.97110000  0.51870000  1.0 0.1697470225
C  C115  1  0.45360000  0.95360000  0.67460000  1.0 -0.0985730678
C  C116  1  0.45550000  0.95550000  0.72250000  1.0 0.0010166974
C  C117  1  0.44790000  0.94790000  0.36010000  1.0 -0.0985730678
C  C118  1  0.44780000  0.94780000  0.31210000  1.0 -0.0325342158
C  C119  1  0.47110000  0.97110000  0.51870000  1.0 0.1697470225
C  C120  1  0.54640000  0.04640000  0.67460000  1.0 -0.0985730678
C  C121  1  0.54450000  0.04450000  0.72250000  1.0 0.0010166974
C  C122  1  0.55210000  0.05210000  0.36010000  1.0 -0.0985730678
C  C123  1  0.55220000  0.05220000  0.31210000  1.0 -0.0325342158
C  C124  1  0.52890000  0.02890000  0.51870000  1.0 0.1697470225
C  C125  1  0.04640000  0.54640000  0.32540000  1.0 -0.0985730678
C  C126  1  0.04450000  0.54450000  0.27750000  1.0 0.0010166974
C  C127  1  0.05210000  0.55210000  0.63990000  1.0 -0.0985730678
C  C128  1  0.05220000  0.55220000  0.68790000  1.0 -0.0325342158
C  C129  1  0.02890000  0.52890000  0.48130000  1.0 0.1697470225
C  C130  1  0.95360000  0.45360000  0.32540000  1.0 -0.0985730678
C  C131  1  0.95550000  0.45550000  0.27750000  1.0 0.0010166974
C  C132  1  0.94790000  0.44790000  0.63990000  1.0 -0.0985730678
C  C133  1  0.94780000  0.44780000  0.68790000  1.0 -0.0325342158
C  C134  1  0.97110000  0.47110000  0.48130000  1.0 0.1697470225
C  C135  1  0.04640000  0.45360000  0.32540000  1.0 -0.0985730678
C  C136  1  0.04450000  0.45550000  0.27750000  1.0 0.0010166974
C  C137  1  0.05210000  0.44790000  0.63990000  1.0 -0.0985730678
C  C138  1  0.05220000  0.44780000  0.68790000  1.0 -0.0325342158
C  C139  1  0.02890000  0.47110000  0.48130000  1.0 0.1697470225
C  C140  1  0.95360000  0.54640000  0.32540000  1.0 -0.0985730678
C  C141  1  0.95550000  0.54450000  0.27750000  1.0 0.0010166974
C  C142  1  0.94790000  0.55210000  0.63990000  1.0 -0.0985730678
C  C143  1  0.94780000  0.55220000  0.68790000  1.0 -0.0325342158
C  C144  1  0.97110000  0.52890000  0.48130000  1.0 0.1697470225
S  S1  1  0.43320000  0.06680000  0.46740000  1.0 0.0606365233
S  S2  1  0.43260000  0.06740000  0.56930000  1.0 0.0680829913
S  S3  1  0.56680000  0.93320000  0.46740000  1.0 0.0680829913
S  S4  1  0.56740000  0.93260000  0.56930000  1.0 0.0680829913
S  S5  1  0.43320000  0.93320000  0.46740000  1.0 0.0680829913
S  S6  1  0.43260000  0.93260000  0.56930000  1.0 0.0680829913
S  S7  1  0.56680000  0.06680000  0.46740000  1.0 0.0606365233
S  S8  1  0.56740000  0.06740000  0.56930000  1.0 0.0680829913
S  S9  1  0.06680000  0.56680000  0.53260000  1.0 0.0680829913
S  S10  1  0.06740000  0.56740000  0.43070000  1.0 0.0680829913
S  S11  1  0.93320000  0.43320000  0.53260000  1.0 0.0606365233
S  S12  1  0.93260000  0.43260000  0.43070000  1.0 0.0680829913
S  S13  1  0.06680000  0.43320000  0.53260000  1.0 0.0606365233
S  S14  1  0.06740000  0.43260000  0.43070000  1.0 0.0680829913
S  S15  1  0.93320000  0.56680000  0.53260000  1.0 0.0759879439
S  S16  1  0.93260000  0.56740000  0.43070000  1.0 0.0680829913
N  N1  1  0.50000000  0.00000000  0.28860000  1.0 -0.0809916095
N  N2  1  0.50000000  0.00000000  0.75010000  1.0 -0.136823392
N  N3  1  0.00000000  0.50000000  0.71140000  1.0 -0.0809916095
N  N4  1  0.00000000  0.50000000  0.24990000  1.0 -0.1346113891
N  N5  1  0.00000000  0.37740000  0.16400000  1.0 -0.3843963132
N  N6  1  0.00000000  0.62260000  0.16400000  1.0 -0.3843963132
N  N7  1  0.12260000  0.50000000  0.16400000  1.0 -0.3843963132
N  N8  1  0.87740000  0.50000000  0.16400000  1.0 -0.3843963132
N  N9  1  0.50000000  0.87740000  0.83600000  1.0 -0.3843963132
N  N10  1  0.50000000  0.12260000  0.83600000  1.0 -0.3843963132
N  N11  1  0.37740000  0.00000000  0.83600000  1.0 -0.3843963132
N  N12  1  0.62260000  0.00000000  0.83600000  1.0 -0.3843963132
N  N13  1  0.45770000  0.04230000  0.47140000  1.0 -0.0522201379
N  N14  1  0.45780000  0.04220000  0.56710000  1.0 -0.0392267152
N  N15  1  0.54230000  0.95770000  0.47140000  1.0 -0.0522201379
N  N16  1  0.54220000  0.95780000  0.56710000  1.0 -0.0392267152
N  N17  1  0.45770000  0.95770000  0.47140000  1.0 -0.0522201379
N  N18  1  0.45780000  0.95780000  0.56710000  1.0 -0.0392267152
N  N19  1  0.54230000  0.04230000  0.47140000  1.0 -0.0522201379
N  N20  1  0.54220000  0.04220000  0.56710000  1.0 -0.0392267152
N  N21  1  0.04230000  0.54230000  0.52860000  1.0 -0.0562796206
N  N22  1  0.04220000  0.54220000  0.43290000  1.0 -0.0325342158
N  N23  1  0.95770000  0.45770000  0.52860000  1.0 -0.0562796206
N  N24  1  0.95780000  0.45780000  0.43290000  1.0 -0.0325342158
N  N25  1  0.04230000  0.45770000  0.52860000  1.0 -0.0562796206
N  N26  1  0.04220000  0.45780000  0.43290000  1.0 -0.0325342158
N  N27  1  0.95770000  0.54230000  0.52860000  1.0 -0.0562796206
N  N28  1  0.95780000  0.54220000  0.43290000  1.0 -0.0325342158
O  O1  1  0.58480000  0.08480000  0.12240000  1.0 -0.5372010008
O  O2  1  0.58240000  0.08240000  0.20230000  1.0 -0.5372010008
O  O3  1  0.41520000  0.91520000  0.12240000  1.0 -0.5372010008
O  O4  1  0.41760000  0.91760000  0.20230000  1.0 -0.5372010008
O  O5  1  0.41520000  0.08480000  0.12240000  1.0 -0.5372010008
O  O6  1  0.41760000  0.08240000  0.20230000  1.0 -0.5372010008
O  O7  1  0.58480000  0.91520000  0.12240000  1.0 -0.5372010008
O  O8  1  0.58240000  0.91760000  0.20230000  1.0 -0.5372010008
O  O9  1  0.91520000  0.58480000  0.87760000  1.0 -0.5372010008
O  O10  1  0.91760000  0.58240000  0.79770000  1.0 -0.5372010008
O  O11  1  0.08480000  0.41520000  0.87760000  1.0 -0.5372010008
O  O12  1  0.08240000  0.41760000  0.79770000  1.0 -0.5372010008
O  O13  1  0.08480000  0.58480000  0.87760000  1.0 -0.5372010008
O  O14  1  0.08240000  0.58240000  0.79770000  1.0 -0.5372010008
O  O15  1  0.91520000  0.41520000  0.87760000  1.0 -0.5372010008
O  O16  1  0.91760000  0.41760000  0.79770000  1.0 -0.5372010008
