# DDEC6 charges by PACMAN v1.1 (https://github.com/mtap-research/PACMAN-charge/)
data_EQUCOI_ion_pacman
_symmetry_space_group_name_H-M   'P 1'
_cell_length_a   8.60300000
_cell_length_b   15.47600000
_cell_length_c   17.67460000
_cell_angle_alpha   90.00000000
_cell_angle_beta   112.02000000
_cell_angle_gamma   90.00000000
_symmetry_Int_Tables_number   1
_chemical_formula_structural   Sc3P4H18C3N3O20
_chemical_formula_sum   'Sc12 P16 H72 C12 N12 O80'
_cell_volume   2181.53818042
_cell_formula_units_Z   4
loop_
 _symmetry_equiv_pos_site_id
 _symmetry_equiv_pos_as_xyz
  1  'x, y, z'
loop_
 _atom_site_type_symbol
 _atom_site_label
 _atom_site_symmetry_multiplicity
 _atom_site_fract_x
 _atom_site_fract_y
 _atom_site_fract_z
 _atom_site_occupancy
 _atom_site_charge
Sc  Sc1  1  0.53009000  0.79805000  0.16364000  1.0 1.9764727726
Sc  Sc2  1  0.53009000  0.70195000  0.66364000  1.0 1.9764727726
Sc  Sc3  1  0.46991000  0.20195000  0.83636000  1.0 1.9764727726
Sc  Sc4  1  0.46991000  0.29805000  0.33636000  1.0 1.9764727726
Sc  Sc5  1  0.02625000  0.89323000  0.52210000  1.0 2.0282109752
Sc  Sc6  1  0.02625000  0.60677000  0.02210000  1.0 2.0282109752
Sc  Sc7  1  0.97375000  0.10677000  0.47790000  1.0 2.0282109752
Sc  Sc8  1  0.97375000  0.39323000  0.97790000  1.0 2.0282109752
Sc  Sc9  1  0.27791000  0.76914000  0.29943000  1.0 1.9615063742
Sc  Sc10  1  0.27791000  0.73086000  0.79943000  1.0 1.9615063742
Sc  Sc11  1  0.72209000  0.23086000  0.70057000  1.0 1.9615063742
Sc  Sc12  1  0.72209000  0.26914000  0.20057000  1.0 1.9615063742
P  P1  1  0.90595000  0.76200000  0.13355000  1.0 1.5926092938
P  P2  1  0.90595000  0.73800000  0.63355000  1.0 1.5926092938
P  P3  1  0.09405000  0.23800000  0.86645000  1.0 1.5926092938
P  P4  1  0.09405000  0.26200000  0.36645000  1.0 1.5926092938
P  P5  1  0.21189000  0.78366000  0.97600000  1.0 1.6045824066
P  P6  1  0.21189000  0.71634000  0.47600000  1.0 1.6045824066
P  P7  1  0.78811000  0.21634000  0.02400000  1.0 1.6045824066
P  P8  1  0.78811000  0.28366000  0.52400000  1.0 1.6045824066
P  P9  1  0.38109000  0.60698000  0.19758000  1.0 1.5926092938
P  P10  1  0.38109000  0.89302000  0.69758000  1.0 1.5926092938
P  P11  1  0.61891000  0.39302000  0.80242000  1.0 1.5926092938
P  P12  1  0.61891000  0.10698000  0.30242000  1.0 1.5926092938
P  P13  1  0.70339000  0.79002000  0.37165000  1.0 1.6079365984
P  P14  1  0.70339000  0.70998000  0.87165000  1.0 1.6079365984
P  P15  1  0.29661000  0.20998000  0.62835000  1.0 1.6079365984
P  P16  1  0.29661000  0.29002000  0.12835000  1.0 1.6079365984
H  H1  1  0.87560000  0.69870000  0.42090000  1.0 0.3787670657
H  H2  1  0.87560000  0.80130000  0.92090000  1.0 0.3787670657
H  H3  1  0.12440000  0.30130000  0.57910000  1.0 0.3787670657
H  H4  1  0.12440000  0.19870000  0.07910000  1.0 0.3787670657
H  H5  1  0.99010000  0.83750000  0.06560000  1.0 0.4112440125
H  H6  1  0.99010000  0.66250000  0.56560000  1.0 0.4112440125
H  H7  1  0.00990000  0.16250000  0.93440000  1.0 0.4112440125
H  H8  1  0.00990000  0.33750000  0.43440000  1.0 0.4112440125
H  H9  1  0.46280000  0.49560000  0.25730000  1.0 0.4001349882
H  H10  1  0.46280000  0.00440000  0.75730000  1.0 0.4001349882
H  H11  1  0.53720000  0.50440000  0.74270000  1.0 0.4001349882
H  H12  1  0.53720000  0.99560000  0.24270000  1.0 0.4001349882
H  H13  1  0.63500000  0.88380000  0.94240000  1.0 0.3165713549
H  H14  1  0.36500000  0.11620000  0.05760000  1.0 0.3165713549
H  H15  1  0.47320000  0.92150000  0.89430000  1.0 0.3119621538
H  H16  1  0.52680000  0.07850000  0.10570000  1.0 0.3119621538
H  H17  1  0.48940000  0.86480000  0.96240000  1.0 0.3165713549
H  H18  1  0.51060000  0.13520000  0.03760000  1.0 0.3165713549
H  H19  1  0.64950000  0.96230000  0.05410000  1.0 0.1286629521
H  H20  1  0.35050000  0.03770000  0.94590000  1.0 0.1286629521
H  H21  1  0.64030000  0.02300000  0.98140000  1.0 0.1286629521
H  H22  1  0.35970000  0.97700000  0.01860000  1.0 0.1286629521
H  H23  1  0.63500000  0.61620000  0.44240000  1.0 0.3165713549
H  H24  1  0.36500000  0.38380000  0.55760000  1.0 0.3165713549
H  H25  1  0.47320000  0.57850000  0.39430000  1.0 0.3119621538
H  H26  1  0.52680000  0.42150000  0.60570000  1.0 0.3119621538
H  H27  1  0.48940000  0.63520000  0.46240000  1.0 0.3165713549
H  H28  1  0.51060000  0.36480000  0.53760000  1.0 0.3165713549
H  H29  1  0.64950000  0.53770000  0.55410000  1.0 0.1286629521
H  H30  1  0.35050000  0.46230000  0.44590000  1.0 0.1286629521
H  H31  1  0.64030000  0.47700000  0.48140000  1.0 0.1286629521
H  H32  1  0.35970000  0.52300000  0.51860000  1.0 0.1286629521
H  H33  1  0.09680000  0.47350000  0.17270000  1.0 0.2967460188
H  H34  1  0.15790000  0.40530000  0.23320000  1.0 0.2967460188
H  H35  1  0.97940000  0.41310000  0.18540000  1.0 0.3597794921
H  H36  1  0.97910000  0.64920000  0.31320000  1.0 0.3119621538
H  H37  1  0.79950000  0.65400000  0.26690000  1.0 0.2967460188
H  H38  1  0.86610000  0.59100000  0.33210000  1.0 0.2967460188
H  H39  1  0.04600000  0.46640000  0.31630000  1.0 0.1286629521
H  H40  1  0.15440000  0.53680000  0.29460000  1.0 0.1286629521
H  H41  1  0.80290000  0.51840000  0.21390000  1.0 0.1478307397
H  H42  1  0.90850000  0.58540000  0.18640000  1.0 0.1286629521
H  H43  1  0.09680000  0.02650000  0.67270000  1.0 0.2967460188
H  H44  1  0.15790000  0.09470000  0.73320000  1.0 0.2967460188
H  H45  1  0.97940000  0.08690000  0.68540000  1.0 0.3597794921
H  H46  1  0.97910000  0.85080000  0.81320000  1.0 0.3119621538
H  H47  1  0.79950000  0.84600000  0.76690000  1.0 0.2967460188
H  H48  1  0.86610000  0.90900000  0.83210000  1.0 0.2967460188
H  H49  1  0.04600000  0.03360000  0.81630000  1.0 0.1286629521
H  H50  1  0.15440000  0.96320000  0.79460000  1.0 0.1286629521
H  H51  1  0.80290000  0.98160000  0.71390000  1.0 0.1478307397
H  H52  1  0.90850000  0.91460000  0.68640000  1.0 0.1286629521
H  H53  1  0.90320000  0.52650000  0.82730000  1.0 0.2967460188
H  H54  1  0.84210000  0.59470000  0.76680000  1.0 0.2967460188
H  H55  1  0.02060000  0.58690000  0.81460000  1.0 0.3597794921
H  H56  1  0.02090000  0.35080000  0.68680000  1.0 0.3119621538
H  H57  1  0.20050000  0.34600000  0.73310000  1.0 0.2967460188
H  H58  1  0.13390000  0.40900000  0.66790000  1.0 0.2941283957
H  H59  1  0.95400000  0.53360000  0.68370000  1.0 0.1286629521
H  H60  1  0.84560000  0.46320000  0.70540000  1.0 0.1286629521
H  H61  1  0.19710000  0.48160000  0.78610000  1.0 0.1478307397
H  H62  1  0.09150000  0.41460000  0.81360000  1.0 0.1286629521
H  H63  1  0.90320000  0.97350000  0.32730000  1.0 0.2967460188
H  H64  1  0.84210000  0.90530000  0.26680000  1.0 0.2967460188
H  H65  1  0.02060000  0.91310000  0.31460000  1.0 0.3597794921
H  H66  1  0.02090000  0.14920000  0.18680000  1.0 0.3119621538
H  H67  1  0.20050000  0.15400000  0.23310000  1.0 0.2967460188
H  H68  1  0.13390000  0.09100000  0.16790000  1.0 0.2941283957
H  H69  1  0.95400000  0.96640000  0.18370000  1.0 0.1286629521
H  H70  1  0.84560000  0.03680000  0.20540000  1.0 0.1286629521
H  H71  1  0.19710000  0.01840000  0.28610000  1.0 0.1478307397
H  H72  1  0.09150000  0.08540000  0.31360000  1.0 0.1286629521
C  C1  1  0.57900000  0.98030000  0.99940000  1.0 -0.0303017343
C  C2  1  0.42100000  0.01970000  0.00060000  1.0 -0.0303017343
C  C3  1  0.57900000  0.51970000  0.49940000  1.0 -0.0303017343
C  C4  1  0.42100000  0.48030000  0.50060000  1.0 -0.0303017343
C  C5  1  0.05630000  0.50020000  0.27220000  1.0 -0.0379559388
C  C6  1  0.90130000  0.55520000  0.23300000  1.0 -0.0303017343
C  C7  1  0.05630000  0.99980000  0.77220000  1.0 -0.0379559388
C  C8  1  0.90130000  0.94480000  0.73300000  1.0 -0.0303017343
C  C9  1  0.94370000  0.49980000  0.72780000  1.0 -0.0379559388
C  C10  1  0.09870000  0.44480000  0.76700000  1.0 -0.0303017343
C  C11  1  0.94370000  0.00020000  0.22780000  1.0 -0.0379559388
C  C12  1  0.09870000  0.05520000  0.26700000  1.0 -0.0303017343
N  N1  1  0.54040000  0.90520000  0.94420000  1.0 -0.3672010824
N  N2  1  0.45960000  0.09480000  0.05580000  1.0 -0.3672010824
N  N3  1  0.54040000  0.59480000  0.44420000  1.0 -0.3672010824
N  N4  1  0.45960000  0.40520000  0.55580000  1.0 -0.3672010824
N  N5  1  0.07440000  0.44230000  0.20970000  1.0 -0.3590727225
N  N6  1  0.88490000  0.61870000  0.29220000  1.0 -0.413591884
N  N7  1  0.07440000  0.05770000  0.70970000  1.0 -0.3590727225
N  N8  1  0.88490000  0.88130000  0.79220000  1.0 -0.413591884
N  N9  1  0.92560000  0.55770000  0.79030000  1.0 -0.3590727225
N  N10  1  0.11510000  0.38130000  0.70780000  1.0 -0.4153930172
N  N11  1  0.92560000  0.94230000  0.29030000  1.0 -0.3590727225
N  N12  1  0.11510000  0.11870000  0.20780000  1.0 -0.4153930172
O  O1  1  0.08746000  0.99391000  0.45826000  1.0 -0.870333977
O  O2  1  0.08746000  0.50609000  0.95826000  1.0 -0.870333977
O  O3  1  0.91254000  0.00609000  0.54174000  1.0 -0.870333977
O  O4  1  0.91254000  0.49391000  0.04174000  1.0 -0.870333977
O  O5  1  0.81751000  0.86154000  0.42101000  1.0 -0.8105673864
O  O6  1  0.81751000  0.63846000  0.92101000  1.0 -0.8105673864
O  O7  1  0.18249000  0.13846000  0.57899000  1.0 -0.8105673864
O  O8  1  0.18249000  0.36154000  0.07899000  1.0 -0.8105673864
O  O9  1  0.17490000  0.68918000  0.98960000  1.0 -0.8428868825
O  O10  1  0.17490000  0.81082000  0.48960000  1.0 -0.8428868825
O  O11  1  0.82510000  0.31082000  0.01040000  1.0 -0.8428868825
O  O12  1  0.82510000  0.18918000  0.51040000  1.0 -0.8428868825
O  O13  1  0.69626000  0.79072000  0.28426000  1.0 -0.8342292085
O  O14  1  0.69626000  0.70928000  0.78426000  1.0 -0.8342292085
O  O15  1  0.30374000  0.20928000  0.71574000  1.0 -0.8342292085
O  O16  1  0.30374000  0.29072000  0.21574000  1.0 -0.8342292085
O  O17  1  0.38051000  0.81028000  0.04101000  1.0 -0.8428868825
O  O18  1  0.38051000  0.68972000  0.54101000  1.0 -0.8428868825
O  O19  1  0.61949000  0.18972000  0.95899000  1.0 -0.8428868825
O  O20  1  0.61949000  0.31028000  0.45899000  1.0 -0.8428868825
O  O21  1  0.22295000  0.57373000  0.13045000  1.0 -0.8105673864
O  O22  1  0.22295000  0.92627000  0.63045000  1.0 -0.8105673864
O  O23  1  0.77705000  0.42627000  0.86955000  1.0 -0.8105673864
O  O24  1  0.77705000  0.07373000  0.36955000  1.0 -0.8105673864
O  O25  1  0.93098000  0.68584000  0.08558000  1.0 -0.870333977
O  O26  1  0.93098000  0.81416000  0.58558000  1.0 -0.870333977
O  O27  1  0.06902000  0.31416000  0.91442000  1.0 -0.870333977
O  O28  1  0.06902000  0.18584000  0.41442000  1.0 -0.870333977
O  O29  1  0.52922000  0.79337000  0.37542000  1.0 -0.7923167422
O  O30  1  0.52922000  0.70663000  0.87542000  1.0 -0.7923167422
O  O31  1  0.47078000  0.20663000  0.62458000  1.0 -0.7923167422
O  O32  1  0.47078000  0.29337000  0.12458000  1.0 -0.7923167422
O  O33  1  0.23461000  0.88146000  0.33821000  1.0 -0.6842020675
O  O34  1  0.23461000  0.61854000  0.83821000  1.0 -0.6855839118
O  O35  1  0.76539000  0.11854000  0.66179000  1.0 -0.6855839118
O  O36  1  0.76539000  0.38146000  0.16179000  1.0 -0.6842020675
O  O37  1  0.33763000  0.81877000  0.20413000  1.0 -0.9893059656
O  O38  1  0.33763000  0.68123000  0.70413000  1.0 -0.9893059656
O  O39  1  0.66237000  0.18123000  0.79587000  1.0 -0.9893059656
O  O40  1  0.66237000  0.31877000  0.29587000  1.0 -0.9893059656
O  O41  1  0.57748000  0.92567000  0.17168000  1.0 -0.7792280242
O  O42  1  0.57748000  0.57433000  0.67168000  1.0 -0.7792280242
O  O43  1  0.42252000  0.07433000  0.82832000  1.0 -0.7792280242
O  O44  1  0.42252000  0.42567000  0.32832000  1.0 -0.7792280242
O  O45  1  0.34285000  0.64688000  0.26745000  1.0 -0.8507493361
O  O46  1  0.34285000  0.85312000  0.76745000  1.0 -0.8507493361
O  O47  1  0.65715000  0.35312000  0.73255000  1.0 -0.8507493361
O  O48  1  0.65715000  0.14688000  0.23255000  1.0 -0.8507493361
O  O49  1  0.22337000  0.79455000  0.89177000  1.0 -0.857345663
O  O50  1  0.22337000  0.70545000  0.39177000  1.0 -0.857345663
O  O51  1  0.77663000  0.20545000  0.10823000  1.0 -0.857345663
O  O52  1  0.77663000  0.29455000  0.60823000  1.0 -0.857345663
O  O53  1  0.72711000  0.76500000  0.12961000  1.0 -0.8187965825
O  O54  1  0.72711000  0.73500000  0.62961000  1.0 -0.8187965825
O  O55  1  0.27289000  0.23500000  0.87039000  1.0 -0.8187965825
O  O56  1  0.27289000  0.26500000  0.37039000  1.0 -0.8187965825
O  O57  1  0.07253000  0.84227000  0.98163000  1.0 -0.7618237361
O  O58  1  0.07253000  0.65773000  0.48163000  1.0 -0.7618237361
O  O59  1  0.92747000  0.15773000  0.01837000  1.0 -0.7618237361
O  O60  1  0.92747000  0.34227000  0.51837000  1.0 -0.7618237361
O  O61  1  0.77394000  0.69990000  0.40934000  1.0 -0.6634131297
O  O62  1  0.77394000  0.80010000  0.90934000  1.0 -0.6634131297
O  O63  1  0.22606000  0.30010000  0.59066000  1.0 -0.6634131297
O  O64  1  0.22606000  0.19990000  0.09066000  1.0 -0.6634131297
O  O65  1  0.48171000  0.66644000  0.16491000  1.0 -0.8428868825
O  O66  1  0.48171000  0.83356000  0.66491000  1.0 -0.8428868825
O  O67  1  0.51829000  0.33356000  0.83509000  1.0 -0.8428868825
O  O68  1  0.51829000  0.16644000  0.33509000  1.0 -0.8428868825
O  O69  1  0.02881000  0.76060000  0.22181000  1.0 -0.8187965825
O  O70  1  0.02881000  0.73940000  0.72181000  1.0 -0.8187965825
O  O71  1  0.97119000  0.23940000  0.77819000  1.0 -0.8187965825
O  O72  1  0.97119000  0.26060000  0.27819000  1.0 -0.8187965825
O  O73  1  0.93250000  0.84756000  0.09250000  1.0 -0.6079633459
O  O74  1  0.93250000  0.65244000  0.59250000  1.0 -0.6079633459
O  O75  1  0.06750000  0.15244000  0.90750000  1.0 -0.6079633459
O  O76  1  0.06750000  0.34756000  0.40750000  1.0 -0.6079633459
O  O77  1  0.50296000  0.52811000  0.23276000  1.0 -0.5590907112
O  O78  1  0.50296000  0.97189000  0.73276000  1.0 -0.5590907112
O  O79  1  0.49704000  0.47189000  0.76724000  1.0 -0.5590907112
O  O80  1  0.49704000  0.02811000  0.26724000  1.0 -0.5590907112
