# DDEC6 charges by PACMAN v1.1 (https://github.com/mtap-research/PACMAN-charge/)
data_EQUNIP_ASR_pacman
_symmetry_space_group_name_H-M   'P 1'
_cell_length_a   18.96410000
_cell_length_b   18.96410000
_cell_length_c   18.96410000
_cell_angle_alpha   71.58030000
_cell_angle_beta   71.58030000
_cell_angle_gamma   71.58030000
_symmetry_Int_Tables_number   1
_chemical_formula_structural   In9H36(C54O25)2
_chemical_formula_sum   'In9 H36 C108 O50'
_cell_volume   5959.66721550
_cell_formula_units_Z   1
loop_
 _symmetry_equiv_pos_site_id
 _symmetry_equiv_pos_as_xyz
  1  'x, y, z'
loop_
 _atom_site_type_symbol
 _atom_site_label
 _atom_site_symmetry_multiplicity
 _atom_site_fract_x
 _atom_site_fract_y
 _atom_site_fract_z
 _atom_site_occupancy
 _atom_site_charge
In  In1  1  0.60482000  0.62239000  0.77163000  1.0 1.4970881391
In  In2  1  0.62239000  0.77163000  0.60482000  1.0 1.4925976841
In  In3  1  0.77163000  0.60482000  0.62239000  1.0 1.4925976841
In  In4  1  0.39518000  0.22837000  0.37761000  1.0 1.4970881391
In  In5  1  0.22837000  0.37761000  0.39518000  1.0 1.4970881391
In  In6  1  0.37761000  0.39518000  0.22837000  1.0 1.4925976841
In  In7  1  0.16516000  0.50000000  0.83484000  1.0 1.3533747046
In  In8  1  0.50000000  0.83484000  0.16516000  1.0 1.3533747046
In  In9  1  0.83484000  0.16516000  0.50000000  1.0 1.3533747046
H  H1  1  0.81550000  0.30820000  0.24740000  1.0 0.1382462338
H  H2  1  0.30820000  0.24740000  0.81550000  1.0 0.1382462338
H  H3  1  0.24740000  0.81550000  0.30820000  1.0 0.1382462338
H  H4  1  0.18450000  0.75260000  0.69180000  1.0 0.1382462338
H  H5  1  0.75260000  0.69180000  0.18450000  1.0 0.1382462338
H  H6  1  0.69180000  0.18450000  0.75260000  1.0 0.1382462338
H  H7  1  0.61890000  0.25220000  0.38810000  1.0 0.1382462338
H  H8  1  0.25220000  0.38810000  0.61890000  1.0 0.1382462338
H  H9  1  0.38810000  0.61890000  0.25220000  1.0 0.1382462338
H  H10  1  0.38110000  0.61190000  0.74780000  1.0 0.1382462338
H  H11  1  0.61190000  0.74780000  0.38110000  1.0 0.1382462338
H  H12  1  0.74780000  0.38110000  0.61190000  1.0 0.1382462338
H  H13  1  0.62220000  0.37540000  0.17130000  1.0 0.1328573759
H  H14  1  0.37540000  0.17130000  0.62220000  1.0 0.1328573759
H  H15  1  0.17130000  0.62220000  0.37540000  1.0 0.1328573759
H  H16  1  0.37780000  0.82870000  0.62460000  1.0 0.1328573759
H  H17  1  0.82870000  0.62460000  0.37780000  1.0 0.1328573759
H  H18  1  0.62460000  0.37780000  0.82870000  1.0 0.1328573759
H  H19  1  0.73560000  0.48620000  0.93870000  1.0 0.1328573759
H  H20  1  0.48620000  0.93870000  0.73560000  1.0 0.1328573759
H  H21  1  0.93870000  0.73560000  0.48620000  1.0 0.1328573759
H  H22  1  0.26440000  0.06130000  0.51380000  1.0 0.1328573759
H  H23  1  0.06130000  0.51380000  0.26440000  1.0 0.1328573759
H  H24  1  0.51380000  0.26440000  0.06130000  1.0 0.1328573759
H  H25  1  0.91990000  0.54180000  0.78280000  1.0 0.1382462338
H  H26  1  0.54180000  0.78280000  0.91990000  1.0 0.1382462338
H  H27  1  0.78280000  0.91990000  0.54180000  1.0 0.1382462338
H  H28  1  0.08010000  0.21720000  0.45820000  1.0 0.1382462338
H  H29  1  0.21720000  0.45820000  0.08010000  1.0 0.1382462338
H  H30  1  0.45820000  0.08010000  0.21720000  1.0 0.1382462338
H  H31  1  0.93860000  0.41740000  0.99590000  1.0 0.1382462338
H  H32  1  0.41740000  0.99590000  0.93860000  1.0 0.1382462338
H  H33  1  0.99590000  0.93860000  0.41740000  1.0 0.1382462338
H  H34  1  0.06140000  0.00410000  0.58260000  1.0 0.1382462338
H  H35  1  0.00410000  0.58260000  0.06140000  1.0 0.1382462338
H  H36  1  0.58260000  0.06140000  0.00410000  1.0 0.1382462338
C  C1  1  0.52547000  0.31807000  0.29137000  1.0 0.6123140453
C  C2  1  0.31807000  0.29137000  0.52547000  1.0 0.6123140453
C  C3  1  0.29137000  0.52547000  0.31807000  1.0 0.6123140453
C  C4  1  0.47453000  0.70863000  0.68193000  1.0 0.6123140453
C  C5  1  0.70863000  0.68193000  0.47453000  1.0 0.6123140453
C  C6  1  0.68193000  0.47453000  0.70863000  1.0 0.6123140453
C  C7  1  0.76454000  0.30824000  0.25554000  1.0 -0.1210827481
C  C8  1  0.30824000  0.25554000  0.76454000  1.0 -0.1210827481
C  C9  1  0.25554000  0.76454000  0.30824000  1.0 -0.1210827481
C  C10  1  0.23546000  0.74446000  0.69176000  1.0 -0.1210827481
C  C11  1  0.74446000  0.69176000  0.23546000  1.0 -0.1210827481
C  C12  1  0.69176000  0.23546000  0.74446000  1.0 -0.1210827481
C  C13  1  0.72573000  0.34373000  0.19613000  1.0 0.1181754282
C  C14  1  0.34373000  0.19613000  0.72573000  1.0 0.1181754282
C  C15  1  0.19613000  0.72573000  0.34373000  1.0 0.1181754282
C  C16  1  0.27427000  0.80387000  0.65627000  1.0 0.1181754282
C  C17  1  0.80387000  0.65627000  0.27427000  1.0 0.1181754282
C  C18  1  0.65627000  0.27427000  0.80387000  1.0 0.1181754282
C  C19  1  0.72391000  0.27281000  0.32761000  1.0 -0.0117784395
C  C20  1  0.27281000  0.32761000  0.72391000  1.0 -0.0117784395
C  C21  1  0.32761000  0.72391000  0.27281000  1.0 -0.0117784395
C  C22  1  0.27609000  0.67239000  0.72719000  1.0 -0.0117784395
C  C23  1  0.67239000  0.72719000  0.27609000  1.0 -0.0117784395
C  C24  1  0.72719000  0.27609000  0.67239000  1.0 -0.0117784395
C  C25  1  0.64538000  0.27558000  0.34058000  1.0 -0.0793573648
C  C26  1  0.27558000  0.34058000  0.64538000  1.0 -0.0793573648
C  C27  1  0.34058000  0.64538000  0.27558000  1.0 -0.0793573648
C  C28  1  0.35462000  0.65942000  0.72442000  1.0 -0.0793573648
C  C29  1  0.65942000  0.72442000  0.35462000  1.0 -0.0793573648
C  C30  1  0.72442000  0.35462000  0.65942000  1.0 -0.0793573648
C  C31  1  0.60767000  0.31407000  0.28067000  1.0 -0.0312126468
C  C32  1  0.31407000  0.28067000  0.60767000  1.0 -0.0312126468
C  C33  1  0.28067000  0.60767000  0.31407000  1.0 -0.0312126468
C  C34  1  0.39233000  0.71933000  0.68593000  1.0 -0.0312126468
C  C35  1  0.71933000  0.68593000  0.39233000  1.0 -0.0312126468
C  C36  1  0.68593000  0.39233000  0.71933000  1.0 -0.0312126468
C  C37  1  0.64769000  0.34859000  0.21009000  1.0 -0.1372230477
C  C38  1  0.34859000  0.21009000  0.64769000  1.0 -0.1372230477
C  C39  1  0.21009000  0.64769000  0.34859000  1.0 -0.1372230477
C  C40  1  0.35231000  0.78991000  0.65141000  1.0 -0.1372230477
C  C41  1  0.78991000  0.65141000  0.35231000  1.0 -0.1372230477
C  C42  1  0.65141000  0.35231000  0.78991000  1.0 -0.1372230477
C  C43  1  0.81855000  0.52465000  0.85540000  1.0 -0.0312126468
C  C44  1  0.52465000  0.85540000  0.81855000  1.0 -0.0312126468
C  C45  1  0.85540000  0.81855000  0.52465000  1.0 -0.0312126468
C  C46  1  0.18145000  0.14460000  0.47535000  1.0 -0.0312126468
C  C47  1  0.14460000  0.47535000  0.18145000  1.0 -0.0312126468
C  C48  1  0.47535000  0.18145000  0.14460000  1.0 -0.0312126468
C  C49  1  0.76998000  0.56361000  0.79874000  1.0 0.6123140453
C  C50  1  0.56361000  0.79874000  0.76998000  1.0 0.6123140453
C  C51  1  0.79874000  0.76998000  0.56361000  1.0 0.6123140453
C  C52  1  0.23002000  0.20126000  0.43639000  1.0 0.6123140453
C  C53  1  0.20126000  0.43639000  0.23002000  1.0 0.6123140453
C  C54  1  0.43639000  0.23002000  0.20126000  1.0 0.6123140453
C  C55  1  0.78689000  0.48699000  0.92679000  1.0 -0.1258291502
C  C56  1  0.48699000  0.92679000  0.78689000  1.0 -0.1258291502
C  C57  1  0.92679000  0.78689000  0.48699000  1.0 -0.1258291502
C  C58  1  0.21311000  0.07321000  0.51301000  1.0 -0.1210827481
C  C59  1  0.07321000  0.51301000  0.21311000  1.0 -0.1258291502
C  C60  1  0.51301000  0.21311000  0.07321000  1.0 -0.1258291502
C  C61  1  0.76495000  0.38285000  0.11965000  1.0 -0.0721935343
C  C62  1  0.38285000  0.11965000  0.76495000  1.0 -0.0721935343
C  C63  1  0.11965000  0.76495000  0.38285000  1.0 -0.0721935343
C  C64  1  0.23505000  0.88035000  0.61715000  1.0 -0.0721935343
C  C65  1  0.88035000  0.61715000  0.23505000  1.0 -0.0721935343
C  C66  1  0.61715000  0.23505000  0.88035000  1.0 -0.0793573648
C  C67  1  0.79585000  0.41095000  0.05885000  1.0 -0.102652327
C  C68  1  0.41095000  0.05885000  0.79585000  1.0 -0.102652327
C  C69  1  0.05885000  0.79585000  0.41095000  1.0 -0.1069321062
C  C70  1  0.20415000  0.94115000  0.58905000  1.0 -0.102652327
C  C71  1  0.94115000  0.58905000  0.20415000  1.0 -0.1069321062
C  C72  1  0.58905000  0.20415000  0.94115000  1.0 -0.102652327
C  C73  1  0.82865000  0.44915000  0.98305000  1.0 0.1181754282
C  C74  1  0.44915000  0.98305000  0.82865000  1.0 0.1181754282
C  C75  1  0.98305000  0.82865000  0.44915000  1.0 0.1181754282
C  C76  1  0.17135000  0.01695000  0.55085000  1.0 0.1181754282
C  C77  1  0.01695000  0.55085000  0.17135000  1.0 0.1181754282
C  C78  1  0.55085000  0.17135000  0.01695000  1.0 0.1181754282
C  C79  1  0.89704000  0.52084000  0.83304000  1.0 -0.0793573648
C  C80  1  0.52084000  0.83304000  0.89704000  1.0 -0.0793573648
C  C81  1  0.83304000  0.89704000  0.52084000  1.0 -0.0793573648
C  C82  1  0.10296000  0.16696000  0.47916000  1.0 -0.0793573648
C  C83  1  0.16696000  0.47916000  0.10296000  1.0 -0.0793573648
C  C84  1  0.47916000  0.10296000  0.16696000  1.0 -0.0793573648
C  C85  1  0.94092000  0.48482000  0.88812000  1.0 0.0131132167
C  C86  1  0.48482000  0.88812000  0.94092000  1.0 0.0131132167
C  C87  1  0.88812000  0.94092000  0.48482000  1.0 0.0131132167
C  C88  1  0.05908000  0.11188000  0.51518000  1.0 0.0131132167
C  C89  1  0.11188000  0.51518000  0.05908000  1.0 0.0131132167
C  C90  1  0.51518000  0.05908000  0.11188000  1.0 0.0131132167
C  C91  1  0.90823000  0.44563000  0.96153000  1.0 -0.1258291502
C  C92  1  0.44563000  0.96153000  0.90823000  1.0 -0.1210827481
C  C93  1  0.96153000  0.90823000  0.44563000  1.0 -0.1258291502
C  C94  1  0.09177000  0.03847000  0.55437000  1.0 -0.1258291502
C  C95  1  0.03847000  0.55437000  0.09177000  1.0 -0.1258291502
C  C96  1  0.55437000  0.09177000  0.03847000  1.0 -0.1258291502
C  C97  1  0.02336000  0.49134000  0.86555000  1.0 0.5465752928
C  C98  1  0.49134000  0.86555000  0.02336000  1.0 0.5444410028
C  C99  1  0.86555000  0.02336000  0.49134000  1.0 0.5444410028
C  C100  1  0.97664000  0.13445000  0.50866000  1.0 0.5465752928
C  C101  1  0.13445000  0.50866000  0.97664000  1.0 0.5444410028
C  C102  1  0.50866000  0.97664000  0.13445000  1.0 0.5444410028
C  C103  1  0.76419000  0.23639000  0.38939000  1.0 0.5465752928
C  C104  1  0.23639000  0.38939000  0.76419000  1.0 0.5444410028
C  C105  1  0.38939000  0.76419000  0.23639000  1.0 0.5444410028
C  C106  1  0.23581000  0.61061000  0.76361000  1.0 0.5444410028
C  C107  1  0.61061000  0.76361000  0.23581000  1.0 0.5444410028
C  C108  1  0.76361000  0.23581000  0.61061000  1.0 0.5444410028
O  O1  1  0.70354000  0.57700000  0.82269000  1.0 -0.5006319932
O  O2  1  0.57700000  0.82269000  0.70354000  1.0 -0.5006319932
O  O3  1  0.82269000  0.70354000  0.57700000  1.0 -0.5006319932
O  O4  1  0.29646000  0.17731000  0.42300000  1.0 -0.5006319932
O  O5  1  0.17731000  0.42300000  0.29646000  1.0 -0.5006319932
O  O6  1  0.42300000  0.29646000  0.17731000  1.0 -0.5006319932
O  O7  1  0.49244000  0.36613000  0.24580000  1.0 -0.521860694
O  O8  1  0.36613000  0.24580000  0.49244000  1.0 -0.521860694
O  O9  1  0.24580000  0.49244000  0.36613000  1.0 -0.521860694
O  O10  1  0.50756000  0.75420000  0.63387000  1.0 -0.521860694
O  O11  1  0.75420000  0.63387000  0.50756000  1.0 -0.521860694
O  O12  1  0.63387000  0.50756000  0.75420000  1.0 -0.521860694
O  O13  1  0.49848000  0.26612000  0.34853000  1.0 -0.5871142209
O  O14  1  0.26612000  0.34853000  0.49848000  1.0 -0.5871142209
O  O15  1  0.34853000  0.49848000  0.26612000  1.0 -0.5871142209
O  O16  1  0.50152000  0.65147000  0.73388000  1.0 -0.5871142209
O  O17  1  0.65147000  0.73388000  0.50152000  1.0 -0.5871142209
O  O18  1  0.73388000  0.50152000  0.65147000  1.0 -0.5871142209
O  O19  1  0.80674000  0.57351000  0.72748000  1.0 -0.5871142209
O  O20  1  0.57351000  0.72748000  0.80674000  1.0 -0.5871142209
O  O21  1  0.72748000  0.80674000  0.57351000  1.0 -0.584117825
O  O22  1  0.19326000  0.27252000  0.42649000  1.0 -0.5871142209
O  O23  1  0.27252000  0.42649000  0.19326000  1.0 -0.5871142209
O  O24  1  0.42649000  0.19326000  0.27252000  1.0 -0.5871142209
O  O25  1  0.66676000  0.66676000  0.66676000  1.0 -1.0801197838
O  O26  1  0.33324000  0.33324000  0.33324000  1.0 -1.0801197838
O  O27  1  0.05047000  0.53336000  0.80407000  1.0 -0.5146349918
O  O28  1  0.53336000  0.80407000  0.05047000  1.0 -0.5146349918
O  O29  1  0.80407000  0.05047000  0.53336000  1.0 -0.521860694
O  O30  1  0.94953000  0.19593000  0.46664000  1.0 -0.521860694
O  O31  1  0.19593000  0.46664000  0.94953000  1.0 -0.5146349918
O  O32  1  0.46664000  0.94953000  0.19593000  1.0 -0.5146349918
O  O33  1  0.06786000  0.43631000  0.90293000  1.0 -0.5438727092
O  O34  1  0.43631000  0.90293000  0.06786000  1.0 -0.5438727092
O  O35  1  0.90293000  0.06786000  0.43631000  1.0 -0.5451429438
O  O36  1  0.93214000  0.09707000  0.56369000  1.0 -0.5451429438
O  O37  1  0.09707000  0.56369000  0.93214000  1.0 -0.5438727092
O  O38  1  0.56369000  0.93214000  0.09707000  1.0 -0.5451429438
O  O39  1  0.72719000  0.20386000  0.45484000  1.0 -0.5267243098
O  O40  1  0.20386000  0.45484000  0.72719000  1.0 -0.521860694
O  O41  1  0.45484000  0.72719000  0.20386000  1.0 -0.5267243098
O  O42  1  0.27281000  0.54516000  0.79614000  1.0 -0.5267243098
O  O43  1  0.54516000  0.79614000  0.27281000  1.0 -0.5267243098
O  O44  1  0.79614000  0.27281000  0.54516000  1.0 -0.5267243098
O  O45  1  0.83147000  0.23568000  0.37943000  1.0 -0.4917776636
O  O46  1  0.23568000  0.37943000  0.83147000  1.0 -0.4917776636
O  O47  1  0.37943000  0.83147000  0.23568000  1.0 -0.4917776636
O  O48  1  0.16853000  0.62057000  0.76432000  1.0 -0.4917776636
O  O49  1  0.62057000  0.76432000  0.16853000  1.0 -0.4917776636
O  O50  1  0.76432000  0.16853000  0.62057000  1.0 -0.4917776636
