# DDEC6 charges by PACMAN v1.1 (https://github.com/mtap-research/PACMAN-charge/)
data_ERAHOV_ASR_pacman
_symmetry_space_group_name_H-M   'P 1'
_cell_length_a   11.45000000
_cell_length_b   11.46700000
_cell_length_c   20.94400000
_cell_angle_alpha   90.00000000
_cell_angle_beta   90.00000000
_cell_angle_gamma   90.00000000
_symmetry_Int_Tables_number   1
_chemical_formula_structural   CoH16AuC22(BrN3)2
_chemical_formula_sum   'Co2 H32 Au2 C44 Br4 N12'
_cell_volume   2749.88750960
_cell_formula_units_Z   2
loop_
 _symmetry_equiv_pos_site_id
 _symmetry_equiv_pos_as_xyz
  1  'x, y, z'
loop_
 _atom_site_type_symbol
 _atom_site_label
 _atom_site_symmetry_multiplicity
 _atom_site_fract_x
 _atom_site_fract_y
 _atom_site_fract_z
 _atom_site_occupancy
 _atom_site_charge
Co  Co1  1  0.00000000  0.00000000  0.75000000  1.0 0.6520533162
Co  Co2  1  0.00000000  0.00000000  0.25000000  1.0 0.6520533162
H  H1  1  0.06880000  0.78810000  0.66550000  1.0 0.1096673106
H  H2  1  0.06880000  0.21190000  0.83450000  1.0 0.1096673106
H  H3  1  0.93120000  0.78810000  0.83450000  1.0 0.1096673106
H  H4  1  0.93120000  0.21190000  0.66550000  1.0 0.1096673106
H  H5  1  0.93120000  0.21190000  0.33450000  1.0 0.1096673106
H  H6  1  0.93120000  0.78810000  0.16550000  1.0 0.1096673106
H  H7  1  0.06880000  0.21190000  0.16550000  1.0 0.1096673106
H  H8  1  0.06880000  0.78810000  0.33450000  1.0 0.1096673106
H  H9  1  0.06420000  0.58930000  0.66030000  1.0 0.1318549729
H  H10  1  0.06420000  0.41070000  0.83970000  1.0 0.1318549729
H  H11  1  0.93580000  0.58930000  0.83970000  1.0 0.1318549729
H  H12  1  0.93580000  0.41070000  0.66030000  1.0 0.1318549729
H  H13  1  0.93580000  0.41070000  0.33970000  1.0 0.1318549729
H  H14  1  0.93580000  0.58930000  0.16030000  1.0 0.1318549729
H  H15  1  0.06420000  0.41070000  0.16030000  1.0 0.1318549729
H  H16  1  0.06420000  0.58930000  0.33970000  1.0 0.1318549729
H  H17  1  0.79000000  0.91920000  0.66900000  1.0 0.1096673106
H  H18  1  0.79000000  0.08080000  0.83100000  1.0 0.1096673106
H  H19  1  0.21000000  0.91920000  0.83100000  1.0 0.1096673106
H  H20  1  0.21000000  0.08080000  0.66900000  1.0 0.1096673106
H  H21  1  0.21000000  0.08080000  0.33100000  1.0 0.1096673106
H  H22  1  0.21000000  0.91920000  0.16900000  1.0 0.1096673106
H  H23  1  0.79000000  0.08080000  0.16900000  1.0 0.1096673106
H  H24  1  0.79000000  0.91920000  0.33100000  1.0 0.1096673106
H  H25  1  0.59030000  0.92280000  0.66530000  1.0 0.1318549729
H  H26  1  0.59030000  0.07720000  0.83470000  1.0 0.1318549729
H  H27  1  0.40970000  0.92280000  0.83470000  1.0 0.1318549729
H  H28  1  0.40970000  0.07720000  0.66530000  1.0 0.1318549729
H  H29  1  0.40970000  0.07720000  0.33470000  1.0 0.1318549729
H  H30  1  0.40970000  0.92280000  0.16530000  1.0 0.1318549729
H  H31  1  0.59030000  0.07720000  0.16530000  1.0 0.1318549729
H  H32  1  0.59030000  0.92280000  0.33470000  1.0 0.1318549729
Au  Au1  1  0.00000000  0.00000000  0.50000000  1.0 0.2028826821
Au  Au2  1  0.00000000  0.00000000  0.00000000  1.0 0.2121889937
C  C1  1  0.00000000  0.00000000  0.59450000  1.0 0.0524202363
C  C2  1  0.00000000  0.00000000  0.90550000  1.0 0.0524202363
C  C3  1  0.00000000  0.00000000  0.40550000  1.0 0.0524202363
C  C4  1  0.00000000  0.00000000  0.09450000  1.0 0.0524202363
C  C5  1  0.03930000  0.74740000  0.70010000  1.0 0.0746831132
C  C6  1  0.03930000  0.25260000  0.79990000  1.0 0.0746831132
C  C7  1  0.96070000  0.74740000  0.79990000  1.0 0.0746831132
C  C8  1  0.96070000  0.25260000  0.70010000  1.0 0.0746831132
C  C9  1  0.96070000  0.25260000  0.29990000  1.0 0.0746831132
C  C10  1  0.96070000  0.74740000  0.20010000  1.0 0.0746831132
C  C11  1  0.03930000  0.25260000  0.20010000  1.0 0.0746831132
C  C12  1  0.03930000  0.74740000  0.29990000  1.0 0.0746831132
C  C13  1  0.03830000  0.62750000  0.69720000  1.0 -0.1904913717
C  C14  1  0.03830000  0.37250000  0.80280000  1.0 -0.1904913717
C  C15  1  0.96170000  0.62750000  0.80280000  1.0 -0.1904913717
C  C16  1  0.96170000  0.37250000  0.69720000  1.0 -0.1904913717
C  C17  1  0.96170000  0.37250000  0.30280000  1.0 -0.1904913717
C  C18  1  0.96170000  0.62750000  0.19720000  1.0 -0.1904913717
C  C19  1  0.03830000  0.37250000  0.19720000  1.0 -0.1904913717
C  C20  1  0.03830000  0.62750000  0.30280000  1.0 -0.1904913717
C  C21  1  0.00000000  0.56450000  0.75000000  1.0 0.1017902318
C  C22  1  0.00000000  0.43550000  0.75000000  1.0 0.1017902318
C  C23  1  0.00000000  0.43550000  0.25000000  1.0 0.1017902318
C  C24  1  0.00000000  0.56450000  0.25000000  1.0 0.1017902318
C  C25  1  0.74850000  0.95490000  0.70270000  1.0 0.0801855187
C  C26  1  0.74850000  0.04510000  0.79730000  1.0 0.0801855187
C  C27  1  0.25150000  0.95490000  0.79730000  1.0 0.0801855187
C  C28  1  0.25150000  0.04510000  0.70270000  1.0 0.0801855187
C  C29  1  0.25150000  0.04510000  0.29730000  1.0 0.0801855187
C  C30  1  0.25150000  0.95490000  0.20270000  1.0 0.0801855187
C  C31  1  0.74850000  0.04510000  0.20270000  1.0 0.0801855187
C  C32  1  0.74850000  0.95490000  0.29730000  1.0 0.0801855187
C  C33  1  0.62830000  0.95550000  0.70050000  1.0 -0.1904913717
C  C34  1  0.62830000  0.04450000  0.79950000  1.0 -0.1904913717
C  C35  1  0.37170000  0.95550000  0.79950000  1.0 -0.1904913717
C  C36  1  0.37170000  0.04450000  0.70050000  1.0 -0.1904913717
C  C37  1  0.37170000  0.04450000  0.29950000  1.0 -0.1904913717
C  C38  1  0.37170000  0.95550000  0.20050000  1.0 -0.1904913717
C  C39  1  0.62830000  0.04450000  0.20050000  1.0 -0.1904913717
C  C40  1  0.62830000  0.95550000  0.29950000  1.0 -0.1904913717
C  C41  1  0.56440000  0.00000000  0.75000000  1.0 0.0929794061
C  C42  1  0.43560000  0.00000000  0.75000000  1.0 0.0929794061
C  C43  1  0.43560000  0.00000000  0.25000000  1.0 0.0929794061
C  C44  1  0.56440000  0.00000000  0.25000000  1.0 0.0929794061
Br  Br1  1  0.06060000  0.79633000  0.50000000  1.0 -0.3210921985
Br  Br2  1  0.06060000  0.20367000  0.00000000  1.0 -0.3210921985
Br  Br3  1  0.93940000  0.79633000  0.00000000  1.0 -0.3210921985
Br  Br4  1  0.93940000  0.20367000  0.50000000  1.0 -0.3210921985
N  N1  1  0.00000000  0.00000000  0.64930000  1.0 -0.4209554669
N  N2  1  0.00000000  0.00000000  0.85070000  1.0 -0.4209554669
N  N3  1  0.00000000  0.00000000  0.35070000  1.0 -0.4209554669
N  N4  1  0.00000000  0.00000000  0.14930000  1.0 -0.4209554669
N  N5  1  0.00000000  0.81140000  0.75000000  1.0 -0.2408950654
N  N6  1  0.00000000  0.18860000  0.75000000  1.0 -0.2408950654
N  N7  1  0.00000000  0.18860000  0.25000000  1.0 -0.2408950654
N  N8  1  0.00000000  0.81140000  0.25000000  1.0 -0.2408950654
N  N9  1  0.81010000  0.00000000  0.75000000  1.0 -0.2079026316
N  N10  1  0.18990000  0.00000000  0.75000000  1.0 -0.2079026316
N  N11  1  0.18990000  0.00000000  0.25000000  1.0 -0.2079026316
N  N12  1  0.81010000  0.00000000  0.25000000  1.0 -0.2079026316
