# DDEC6 charges by PACMAN v1.1 (https://github.com/mtap-research/PACMAN-charge/)
data_ERANES_ASR_pacman
_symmetry_space_group_name_H-M   'P 1'
_cell_length_a   24.37800000
_cell_length_b   24.37800000
_cell_length_c   15.01700000
_cell_angle_alpha   90.00000000
_cell_angle_beta   90.00000000
_cell_angle_gamma   90.00000000
_symmetry_Int_Tables_number   1
_chemical_formula_structural   Zr3H34C43O16
_chemical_formula_sum   'Zr12 H136 C172 O64'
_cell_volume   8924.40613703
_cell_formula_units_Z   4
loop_
 _symmetry_equiv_pos_site_id
 _symmetry_equiv_pos_as_xyz
  1  'x, y, z'
loop_
 _atom_site_type_symbol
 _atom_site_label
 _atom_site_symmetry_multiplicity
 _atom_site_fract_x
 _atom_site_fract_y
 _atom_site_fract_z
 _atom_site_occupancy
 _atom_site_charge
Zr  Zr1  1  0.50000000  0.89903000  0.50000000  1.0 2.3868971465
Zr  Zr2  1  0.89903000  0.50000000  0.00000000  1.0 2.3868971465
Zr  Zr3  1  0.50000000  0.10097000  0.50000000  1.0 2.3868971465
Zr  Zr4  1  0.10097000  0.50000000  0.00000000  1.0 2.3868971465
Zr  Zr5  1  0.42703000  0.00000000  0.61706000  1.0 2.3579938112
Zr  Zr6  1  0.00000000  0.57297000  0.11706000  1.0 2.3579938112
Zr  Zr7  1  0.57297000  0.00000000  0.61706000  1.0 2.3579938112
Zr  Zr8  1  0.00000000  0.42703000  0.11706000  1.0 2.3579938112
Zr  Zr9  1  0.57297000  0.00000000  0.38294000  1.0 2.3579938112
Zr  Zr10  1  0.42703000  0.00000000  0.38294000  1.0 2.3579938112
Zr  Zr11  1  0.00000000  0.42703000  0.88294000  1.0 2.3579938112
Zr  Zr12  1  0.00000000  0.57297000  0.88294000  1.0 2.3579938112
H  H1  1  0.39940000  0.76440000  0.60050000  1.0 0.1309705639
H  H2  1  0.76440000  0.60060000  0.10050000  1.0 0.1309705639
H  H3  1  0.60060000  0.23560000  0.60050000  1.0 0.1309705639
H  H4  1  0.23560000  0.39940000  0.10050000  1.0 0.1309705639
H  H5  1  0.60060000  0.76440000  0.39950000  1.0 0.1309705639
H  H6  1  0.39940000  0.23560000  0.39950000  1.0 0.1309705639
H  H7  1  0.76440000  0.39940000  0.89950000  1.0 0.1309705639
H  H8  1  0.23560000  0.60060000  0.89950000  1.0 0.1309705639
H  H9  1  0.60060000  0.23560000  0.39950000  1.0 0.1309705639
H  H10  1  0.23560000  0.39940000  0.89950000  1.0 0.1309705639
H  H11  1  0.39940000  0.76440000  0.39950000  1.0 0.1309705639
H  H12  1  0.76440000  0.60060000  0.89950000  1.0 0.1309705639
H  H13  1  0.39940000  0.23560000  0.60050000  1.0 0.1309705639
H  H14  1  0.60060000  0.76440000  0.60050000  1.0 0.1309705639
H  H15  1  0.23560000  0.60060000  0.10050000  1.0 0.1309705639
H  H16  1  0.76440000  0.39940000  0.10050000  1.0 0.1309705639
H  H17  1  0.26130000  0.81220000  0.80370000  1.0 0.1196718721
H  H18  1  0.81220000  0.73870000  0.30370000  1.0 0.1196718721
H  H19  1  0.73870000  0.18780000  0.80370000  1.0 0.1196718721
H  H20  1  0.18780000  0.26130000  0.30370000  1.0 0.1196718721
H  H21  1  0.73870000  0.81220000  0.19630000  1.0 0.1196718721
H  H22  1  0.26130000  0.18780000  0.19630000  1.0 0.1196718721
H  H23  1  0.81220000  0.26130000  0.69630000  1.0 0.1196718721
H  H24  1  0.18780000  0.73870000  0.69630000  1.0 0.1196718721
H  H25  1  0.73870000  0.18780000  0.19630000  1.0 0.1196718721
H  H26  1  0.18780000  0.26130000  0.69630000  1.0 0.1196718721
H  H27  1  0.26130000  0.81220000  0.19630000  1.0 0.1196718721
H  H28  1  0.81220000  0.73870000  0.69630000  1.0 0.1196718721
H  H29  1  0.26130000  0.18780000  0.80370000  1.0 0.1196718721
H  H30  1  0.73870000  0.81220000  0.80370000  1.0 0.1196718721
H  H31  1  0.18780000  0.73870000  0.30370000  1.0 0.1196718721
H  H32  1  0.81220000  0.26130000  0.30370000  1.0 0.1196718721
H  H33  1  0.32420000  0.87730000  0.75360000  1.0 0.1375245066
H  H34  1  0.87730000  0.67580000  0.25360000  1.0 0.1375245066
H  H35  1  0.67580000  0.12270000  0.75360000  1.0 0.1375245066
H  H36  1  0.12270000  0.32420000  0.25360000  1.0 0.1375245066
H  H37  1  0.67580000  0.87730000  0.24640000  1.0 0.1375245066
H  H38  1  0.32420000  0.12270000  0.24640000  1.0 0.1375245066
H  H39  1  0.87730000  0.32420000  0.74640000  1.0 0.1375245066
H  H40  1  0.12270000  0.67580000  0.74640000  1.0 0.1375245066
H  H41  1  0.67580000  0.12270000  0.24640000  1.0 0.1375245066
H  H42  1  0.12270000  0.32420000  0.74640000  1.0 0.1375245066
H  H43  1  0.32420000  0.87730000  0.24640000  1.0 0.1375245066
H  H44  1  0.87730000  0.67580000  0.74640000  1.0 0.1375245066
H  H45  1  0.32420000  0.12270000  0.75360000  1.0 0.1375245066
H  H46  1  0.67580000  0.87730000  0.75360000  1.0 0.1375245066
H  H47  1  0.12270000  0.67580000  0.25360000  1.0 0.1375245066
H  H48  1  0.87730000  0.32420000  0.25360000  1.0 0.1375245066
H  H49  1  0.37050000  0.67490000  0.59340000  1.0 0.1309705639
H  H50  1  0.67490000  0.62950000  0.09340000  1.0 0.1309705639
H  H51  1  0.62950000  0.32510000  0.59340000  1.0 0.1309705639
H  H52  1  0.32510000  0.37050000  0.09340000  1.0 0.1309705639
H  H53  1  0.62950000  0.67490000  0.40660000  1.0 0.1309705639
H  H54  1  0.37050000  0.32510000  0.40660000  1.0 0.1309705639
H  H55  1  0.67490000  0.37050000  0.90660000  1.0 0.1309705639
H  H56  1  0.32510000  0.62950000  0.90660000  1.0 0.1309705639
H  H57  1  0.62950000  0.32510000  0.40660000  1.0 0.1309705639
H  H58  1  0.32510000  0.37050000  0.90660000  1.0 0.1309705639
H  H59  1  0.37050000  0.67490000  0.40660000  1.0 0.1309705639
H  H60  1  0.67490000  0.62950000  0.90660000  1.0 0.1309705639
H  H61  1  0.37050000  0.32510000  0.59340000  1.0 0.1309705639
H  H62  1  0.62950000  0.67490000  0.59340000  1.0 0.1309705639
H  H63  1  0.32510000  0.62950000  0.09340000  1.0 0.1309705639
H  H64  1  0.67490000  0.37050000  0.09340000  1.0 0.1309705639
H  H65  1  0.34600000  0.65000000  0.68370000  1.0 0.1196718721
H  H66  1  0.65000000  0.65400000  0.18370000  1.0 0.1196718721
H  H67  1  0.65400000  0.35000000  0.68370000  1.0 0.1196718721
H  H68  1  0.35000000  0.34600000  0.18370000  1.0 0.1196718721
H  H69  1  0.65400000  0.65000000  0.31630000  1.0 0.1196718721
H  H70  1  0.34600000  0.35000000  0.31630000  1.0 0.1196718721
H  H71  1  0.65000000  0.34600000  0.81630000  1.0 0.1196718721
H  H72  1  0.35000000  0.65400000  0.81630000  1.0 0.1196718721
H  H73  1  0.65400000  0.35000000  0.31630000  1.0 0.1196718721
H  H74  1  0.35000000  0.34600000  0.81630000  1.0 0.1196718721
H  H75  1  0.34600000  0.65000000  0.31630000  1.0 0.1196718721
H  H76  1  0.65000000  0.65400000  0.81630000  1.0 0.1196718721
H  H77  1  0.34600000  0.35000000  0.68370000  1.0 0.1196718721
H  H78  1  0.65400000  0.65000000  0.68370000  1.0 0.1196718721
H  H79  1  0.35000000  0.65400000  0.18370000  1.0 0.1196718721
H  H80  1  0.65000000  0.34600000  0.18370000  1.0 0.1196718721
H  H81  1  0.30570000  0.66580000  0.60350000  1.0 0.1309705639
H  H82  1  0.66580000  0.69430000  0.10350000  1.0 0.1309705639
H  H83  1  0.69430000  0.33420000  0.60350000  1.0 0.1309705639
H  H84  1  0.33420000  0.30570000  0.10350000  1.0 0.1309705639
H  H85  1  0.69430000  0.66580000  0.39650000  1.0 0.1309705639
H  H86  1  0.30570000  0.33420000  0.39650000  1.0 0.1309705639
H  H87  1  0.66580000  0.30570000  0.89650000  1.0 0.1309705639
H  H88  1  0.33420000  0.69430000  0.89650000  1.0 0.1309705639
H  H89  1  0.69430000  0.33420000  0.39650000  1.0 0.1309705639
H  H90  1  0.33420000  0.30570000  0.89650000  1.0 0.1309705639
H  H91  1  0.30570000  0.66580000  0.39650000  1.0 0.1309705639
H  H92  1  0.66580000  0.69430000  0.89650000  1.0 0.1309705639
H  H93  1  0.30570000  0.33420000  0.60350000  1.0 0.1309705639
H  H94  1  0.69430000  0.66580000  0.60350000  1.0 0.1309705639
H  H95  1  0.33420000  0.69430000  0.10350000  1.0 0.1309705639
H  H96  1  0.66580000  0.30570000  0.10350000  1.0 0.1309705639
H  H97  1  0.24400000  0.00000000  0.63600000  1.0 0.1375245066
H  H98  1  0.00000000  0.75600000  0.13600000  1.0 0.1375245066
H  H99  1  0.75600000  0.00000000  0.63600000  1.0 0.1375245066
H  H100  1  0.00000000  0.24400000  0.13600000  1.0 0.1375245066
H  H101  1  0.75600000  0.00000000  0.36400000  1.0 0.1375245066
H  H102  1  0.24400000  0.00000000  0.36400000  1.0 0.1375245066
H  H103  1  0.00000000  0.24400000  0.86400000  1.0 0.1375245066
H  H104  1  0.00000000  0.75600000  0.86400000  1.0 0.1375245066
H  H105  1  0.16250000  0.00000000  0.71430000  1.0 0.1135147206
H  H106  1  0.00000000  0.83750000  0.21430000  1.0 0.1135147206
H  H107  1  0.83750000  0.00000000  0.71430000  1.0 0.1135147206
H  H108  1  0.00000000  0.16250000  0.21430000  1.0 0.1135147206
H  H109  1  0.83750000  0.00000000  0.28570000  1.0 0.1135147206
H  H110  1  0.16250000  0.00000000  0.28570000  1.0 0.1135147206
H  H111  1  0.00000000  0.16250000  0.78570000  1.0 0.1135147206
H  H112  1  0.00000000  0.83750000  0.78570000  1.0 0.1135147206
H  H113  1  0.11430000  0.96790000  0.66920000  1.0 0.1309705639
H  H114  1  0.96790000  0.88570000  0.16920000  1.0 0.1375245066
H  H115  1  0.88570000  0.03210000  0.66920000  1.0 0.1375245066
H  H116  1  0.03210000  0.11430000  0.16920000  1.0 0.1309705639
H  H117  1  0.88570000  0.96790000  0.33080000  1.0 0.1375245066
H  H118  1  0.11430000  0.03210000  0.33080000  1.0 0.1309705639
H  H119  1  0.96790000  0.11430000  0.83080000  1.0 0.1309705639
H  H120  1  0.03210000  0.88570000  0.83080000  1.0 0.1375245066
H  H121  1  0.88570000  0.03210000  0.33080000  1.0 0.1375245066
H  H122  1  0.03210000  0.11430000  0.83080000  1.0 0.1309705639
H  H123  1  0.11430000  0.96790000  0.33080000  1.0 0.1309705639
H  H124  1  0.96790000  0.88570000  0.83080000  1.0 0.1375245066
H  H125  1  0.11430000  0.03210000  0.66920000  1.0 0.1309705639
H  H126  1  0.88570000  0.96790000  0.66920000  1.0 0.1375245066
H  H127  1  0.03210000  0.88570000  0.16920000  1.0 0.1309705639
H  H128  1  0.96790000  0.11430000  0.16920000  1.0 0.1309705639
H  H129  1  0.14770000  0.00000000  0.63610000  1.0 0.0388368084
H  H130  1  0.00000000  0.85230000  0.13610000  1.0 0.03121296
H  H131  1  0.85230000  0.00000000  0.63610000  1.0 0.03121296
H  H132  1  0.00000000  0.14770000  0.13610000  1.0 0.03121296
H  H133  1  0.85230000  0.00000000  0.36390000  1.0 0.03121296
H  H134  1  0.14770000  0.00000000  0.36390000  1.0 0.03121296
H  H135  1  0.00000000  0.14770000  0.86390000  1.0 0.0388368084
H  H136  1  0.00000000  0.85230000  0.86390000  1.0 0.0388368084
C  C1  1  0.40800000  0.86810000  0.64000000  1.0 0.6461154258
C  C2  1  0.86810000  0.59200000  0.14000000  1.0 0.6461154258
C  C3  1  0.59200000  0.13190000  0.64000000  1.0 0.6461154258
C  C4  1  0.13190000  0.40800000  0.14000000  1.0 0.6461154258
C  C5  1  0.59200000  0.86810000  0.36000000  1.0 0.6461154258
C  C6  1  0.40800000  0.13190000  0.36000000  1.0 0.6461154258
C  C7  1  0.86810000  0.40800000  0.86000000  1.0 0.6461154258
C  C8  1  0.13190000  0.59200000  0.86000000  1.0 0.6461154258
C  C9  1  0.59200000  0.13190000  0.36000000  1.0 0.6461154258
C  C10  1  0.13190000  0.40800000  0.86000000  1.0 0.6461154258
C  C11  1  0.40800000  0.86810000  0.36000000  1.0 0.6461154258
C  C12  1  0.86810000  0.59200000  0.86000000  1.0 0.6461154258
C  C13  1  0.40800000  0.13190000  0.64000000  1.0 0.6461154258
C  C14  1  0.59200000  0.86810000  0.64000000  1.0 0.6461154258
C  C15  1  0.13190000  0.59200000  0.14000000  1.0 0.6461154258
C  C16  1  0.86810000  0.40800000  0.14000000  1.0 0.6461154258
C  C17  1  0.36740000  0.82630000  0.67320000  1.0 -0.021934413
C  C18  1  0.82630000  0.63260000  0.17320000  1.0 -0.021934413
C  C19  1  0.63260000  0.17370000  0.67320000  1.0 -0.021934413
C  C20  1  0.17370000  0.36740000  0.17320000  1.0 -0.021934413
C  C21  1  0.63260000  0.82630000  0.32680000  1.0 -0.021934413
C  C22  1  0.36740000  0.17370000  0.32680000  1.0 -0.021934413
C  C23  1  0.82630000  0.36740000  0.82680000  1.0 -0.021934413
C  C24  1  0.17370000  0.63260000  0.82680000  1.0 -0.021934413
C  C25  1  0.63260000  0.17370000  0.32680000  1.0 -0.021934413
C  C26  1  0.17370000  0.36740000  0.82680000  1.0 -0.021934413
C  C27  1  0.36740000  0.82630000  0.32680000  1.0 -0.021934413
C  C28  1  0.82630000  0.63260000  0.82680000  1.0 -0.021934413
C  C29  1  0.36740000  0.17370000  0.67320000  1.0 -0.021934413
C  C30  1  0.63260000  0.82630000  0.67320000  1.0 -0.021934413
C  C31  1  0.17370000  0.63260000  0.17320000  1.0 -0.021934413
C  C32  1  0.82630000  0.36740000  0.17320000  1.0 -0.021934413
C  C33  1  0.37160000  0.77390000  0.64210000  1.0 -0.1557349555
C  C34  1  0.77390000  0.62840000  0.14210000  1.0 -0.1557349555
C  C35  1  0.62840000  0.22610000  0.64210000  1.0 -0.1557349555
C  C36  1  0.22610000  0.37160000  0.14210000  1.0 -0.1557349555
C  C37  1  0.62840000  0.77390000  0.35790000  1.0 -0.1557349555
C  C38  1  0.37160000  0.22610000  0.35790000  1.0 -0.1557349555
C  C39  1  0.77390000  0.37160000  0.85790000  1.0 -0.1557349555
C  C40  1  0.22610000  0.62840000  0.85790000  1.0 -0.1557349555
C  C41  1  0.62840000  0.22610000  0.35790000  1.0 -0.1557349555
C  C42  1  0.22610000  0.37160000  0.85790000  1.0 -0.1557349555
C  C43  1  0.37160000  0.77390000  0.35790000  1.0 -0.1557349555
C  C44  1  0.77390000  0.62840000  0.85790000  1.0 -0.1557349555
C  C45  1  0.37160000  0.22610000  0.64210000  1.0 -0.1557349555
C  C46  1  0.62840000  0.77390000  0.64210000  1.0 -0.1557349555
C  C47  1  0.22610000  0.62840000  0.14210000  1.0 -0.1557349555
C  C48  1  0.77390000  0.37160000  0.14210000  1.0 -0.1557349555
C  C49  1  0.33360000  0.73340000  0.67260000  1.0 0.1135147206
C  C50  1  0.73340000  0.66640000  0.17260000  1.0 0.1135147206
C  C51  1  0.66640000  0.26660000  0.67260000  1.0 0.1135147206
C  C52  1  0.26660000  0.33360000  0.17260000  1.0 0.1135147206
C  C53  1  0.66640000  0.73340000  0.32740000  1.0 0.1135147206
C  C54  1  0.33360000  0.26660000  0.32740000  1.0 0.1135147206
C  C55  1  0.73340000  0.33360000  0.82740000  1.0 0.1135147206
C  C56  1  0.26660000  0.66640000  0.82740000  1.0 0.1135147206
C  C57  1  0.66640000  0.26660000  0.32740000  1.0 0.1135147206
C  C58  1  0.26660000  0.33360000  0.82740000  1.0 0.1135147206
C  C59  1  0.33360000  0.73340000  0.32740000  1.0 0.1135147206
C  C60  1  0.73340000  0.66640000  0.82740000  1.0 0.1135147206
C  C61  1  0.33360000  0.26660000  0.67260000  1.0 0.1135147206
C  C62  1  0.66640000  0.73340000  0.67260000  1.0 0.1135147206
C  C63  1  0.26660000  0.66640000  0.17260000  1.0 0.1135147206
C  C64  1  0.73340000  0.33360000  0.17260000  1.0 0.1135147206
C  C65  1  0.29420000  0.74660000  0.73250000  1.0 0.0128512072
C  C66  1  0.74660000  0.70580000  0.23250000  1.0 0.0128512072
C  C67  1  0.70580000  0.25340000  0.73250000  1.0 0.0128512072
C  C68  1  0.25340000  0.29420000  0.23250000  1.0 0.0128512072
C  C69  1  0.70580000  0.74660000  0.26750000  1.0 0.0128512072
C  C70  1  0.29420000  0.25340000  0.26750000  1.0 0.0128512072
C  C71  1  0.74660000  0.29420000  0.76750000  1.0 0.0128512072
C  C72  1  0.25340000  0.70580000  0.76750000  1.0 0.0128512072
C  C73  1  0.70580000  0.25340000  0.26750000  1.0 0.0128512072
C  C74  1  0.25340000  0.29420000  0.76750000  1.0 0.0128512072
C  C75  1  0.29420000  0.74660000  0.26750000  1.0 0.0128512072
C  C76  1  0.74660000  0.70580000  0.76750000  1.0 0.0128512072
C  C77  1  0.29420000  0.25340000  0.73250000  1.0 0.0128512072
C  C78  1  0.70580000  0.74660000  0.73250000  1.0 0.0128512072
C  C79  1  0.25340000  0.70580000  0.23250000  1.0 0.0128512072
C  C80  1  0.74660000  0.29420000  0.23250000  1.0 0.0128512072
C  C81  1  0.28950000  0.80210000  0.76330000  1.0 -0.1509178106
C  C82  1  0.80210000  0.71050000  0.26330000  1.0 -0.1509178106
C  C83  1  0.71050000  0.19790000  0.76330000  1.0 -0.1509178106
C  C84  1  0.19790000  0.28950000  0.26330000  1.0 -0.1509178106
C  C85  1  0.71050000  0.80210000  0.23670000  1.0 -0.1509178106
C  C86  1  0.28950000  0.19790000  0.23670000  1.0 -0.1509178106
C  C87  1  0.80210000  0.28950000  0.73670000  1.0 -0.1509178106
C  C88  1  0.19790000  0.71050000  0.73670000  1.0 -0.1509178106
C  C89  1  0.71050000  0.19790000  0.23670000  1.0 -0.1509178106
C  C90  1  0.19790000  0.28950000  0.73670000  1.0 -0.1509178106
C  C91  1  0.28950000  0.80210000  0.23670000  1.0 -0.1509178106
C  C92  1  0.80210000  0.71050000  0.73670000  1.0 -0.1509178106
C  C93  1  0.28950000  0.19790000  0.76330000  1.0 -0.1509178106
C  C94  1  0.71050000  0.80210000  0.76330000  1.0 -0.1509178106
C  C95  1  0.19790000  0.71050000  0.26330000  1.0 -0.1509178106
C  C96  1  0.80210000  0.28950000  0.26330000  1.0 -0.1509178106
C  C97  1  0.32670000  0.84050000  0.73300000  1.0 -0.0979957931
C  C98  1  0.84050000  0.67330000  0.23300000  1.0 -0.0979957931
C  C99  1  0.67330000  0.15950000  0.73300000  1.0 -0.0979957931
C  C100  1  0.15950000  0.32670000  0.23300000  1.0 -0.0979957931
C  C101  1  0.67330000  0.84050000  0.26700000  1.0 -0.0979957931
C  C102  1  0.32670000  0.15950000  0.26700000  1.0 -0.0979957931
C  C103  1  0.84050000  0.32670000  0.76700000  1.0 -0.0979957931
C  C104  1  0.15950000  0.67330000  0.76700000  1.0 -0.0979957931
C  C105  1  0.67330000  0.15950000  0.26700000  1.0 -0.0979957931
C  C106  1  0.15950000  0.32670000  0.76700000  1.0 -0.0979957931
C  C107  1  0.32670000  0.84050000  0.26700000  1.0 -0.0979957931
C  C108  1  0.84050000  0.67330000  0.76700000  1.0 -0.0979957931
C  C109  1  0.32670000  0.15950000  0.73300000  1.0 -0.0979957931
C  C110  1  0.67330000  0.84050000  0.73300000  1.0 -0.0979957931
C  C111  1  0.15950000  0.67330000  0.23300000  1.0 -0.0979957931
C  C112  1  0.84050000  0.32670000  0.23300000  1.0 -0.0979957931
C  C113  1  0.33950000  0.67600000  0.63500000  1.0 -0.4437481167
C  C114  1  0.67600000  0.66050000  0.13500000  1.0 -0.4437481167
C  C115  1  0.66050000  0.32400000  0.63500000  1.0 -0.4437481167
C  C116  1  0.32400000  0.33950000  0.13500000  1.0 -0.4437481167
C  C117  1  0.66050000  0.67600000  0.36500000  1.0 -0.4437481167
C  C118  1  0.33950000  0.32400000  0.36500000  1.0 -0.4437481167
C  C119  1  0.67600000  0.33950000  0.86500000  1.0 -0.4437481167
C  C120  1  0.32400000  0.66050000  0.86500000  1.0 -0.4437481167
C  C121  1  0.66050000  0.32400000  0.36500000  1.0 -0.4437481167
C  C122  1  0.32400000  0.33950000  0.86500000  1.0 -0.4437481167
C  C123  1  0.33950000  0.67600000  0.36500000  1.0 -0.4437481167
C  C124  1  0.67600000  0.66050000  0.86500000  1.0 -0.4437481167
C  C125  1  0.33950000  0.32400000  0.63500000  1.0 -0.4437481167
C  C126  1  0.66050000  0.67600000  0.63500000  1.0 -0.4437481167
C  C127  1  0.32400000  0.66050000  0.13500000  1.0 -0.4437481167
C  C128  1  0.67600000  0.33950000  0.13500000  1.0 -0.4437481167
C  C129  1  0.31450000  0.00000000  0.50000000  1.0 0.5070342718
C  C130  1  0.00000000  0.68550000  0.00000000  1.0 0.5070342718
C  C131  1  0.68550000  0.00000000  0.50000000  1.0 0.5070342718
C  C132  1  0.00000000  0.31450000  0.00000000  1.0 0.5070342718
C  C133  1  0.25340000  0.00000000  0.50000000  1.0 0.0561076978
C  C134  1  0.00000000  0.74660000  0.00000000  1.0 0.0561076978
C  C135  1  0.74660000  0.00000000  0.50000000  1.0 0.0561076978
C  C136  1  0.00000000  0.25340000  0.00000000  1.0 0.0561076978
C  C137  1  0.22450000  0.00000000  0.58120000  1.0 -0.1120443234
C  C138  1  0.00000000  0.77550000  0.08120000  1.0 -0.1120443234
C  C139  1  0.77550000  0.00000000  0.58120000  1.0 -0.1120443234
C  C140  1  0.00000000  0.22450000  0.08120000  1.0 -0.1120443234
C  C141  1  0.77550000  0.00000000  0.41880000  1.0 -0.1120443234
C  C142  1  0.22450000  0.00000000  0.41880000  1.0 -0.1120443234
C  C143  1  0.00000000  0.22450000  0.91880000  1.0 -0.1120443234
C  C144  1  0.00000000  0.77550000  0.91880000  1.0 -0.1120443234
C  C145  1  0.16760000  0.00000000  0.57910000  1.0 0.0508418426
C  C146  1  0.00000000  0.83240000  0.07910000  1.0 0.0508418426
C  C147  1  0.83240000  0.00000000  0.57910000  1.0 0.0508418426
C  C148  1  0.00000000  0.16760000  0.07910000  1.0 0.0508418426
C  C149  1  0.83240000  0.00000000  0.42090000  1.0 0.0508418426
C  C150  1  0.16760000  0.00000000  0.42090000  1.0 0.0508418426
C  C151  1  0.00000000  0.16760000  0.92090000  1.0 0.0508418426
C  C152  1  0.00000000  0.83240000  0.92090000  1.0 0.0508418426
C  C153  1  0.13850000  0.00000000  0.50000000  1.0 0.0388368084
C  C154  1  0.00000000  0.86150000  0.00000000  1.0 0.0388368084
C  C155  1  0.86150000  0.00000000  0.50000000  1.0 0.0388368084
C  C156  1  0.00000000  0.13850000  0.00000000  1.0 0.0388368084
C  C157  1  0.13690000  0.00000000  0.66580000  1.0 -0.2533548987
C  C158  1  0.00000000  0.86310000  0.16580000  1.0 -0.2533548987
C  C159  1  0.86310000  0.00000000  0.66580000  1.0 -0.2533548987
C  C160  1  0.00000000  0.13690000  0.16580000  1.0 -0.2533548987
C  C161  1  0.86310000  0.00000000  0.33420000  1.0 -0.2533548987
C  C162  1  0.13690000  0.00000000  0.33420000  1.0 -0.2533548987
C  C163  1  0.00000000  0.13690000  0.83420000  1.0 -0.2533548987
C  C164  1  0.00000000  0.86310000  0.83420000  1.0 -0.258204818
C  C165  1  0.07760000  0.00000000  0.50000000  1.0 -0.0880093744
C  C166  1  0.00000000  0.92240000  0.00000000  1.0 -0.0880093744
C  C167  1  0.92240000  0.00000000  0.50000000  1.0 -0.0880093744
C  C168  1  0.00000000  0.07760000  0.00000000  1.0 -0.0880093744
C  C169  1  0.02870000  0.00000000  0.50000000  1.0 -0.2054761799
C  C170  1  0.00000000  0.97130000  0.00000000  1.0 -0.2039770187
C  C171  1  0.97130000  0.00000000  0.50000000  1.0 -0.2039770187
C  C172  1  0.00000000  0.02870000  0.00000000  1.0 -0.2039770187
O  O1  1  0.50000000  0.04950000  0.61970000  1.0 -1.1206180694
O  O2  1  0.04950000  0.50000000  0.11970000  1.0 -1.1206180694
O  O3  1  0.50000000  0.95050000  0.61970000  1.0 -1.1206180694
O  O4  1  0.95050000  0.50000000  0.11970000  1.0 -1.1206180694
O  O5  1  0.50000000  0.04950000  0.38030000  1.0 -1.1206180694
O  O6  1  0.50000000  0.95050000  0.38030000  1.0 -1.1206180694
O  O7  1  0.04950000  0.50000000  0.88030000  1.0 -1.1206180694
O  O8  1  0.95050000  0.50000000  0.88030000  1.0 -1.1206180694
O  O9  1  0.42810000  0.94990000  0.50000000  1.0 -1.1113686961
O  O10  1  0.94990000  0.57190000  0.00000000  1.0 -1.1113686961
O  O11  1  0.57190000  0.05010000  0.50000000  1.0 -1.1113686961
O  O12  1  0.05010000  0.42810000  0.00000000  1.0 -1.1206180694
O  O13  1  0.57190000  0.94990000  0.50000000  1.0 -1.1113686961
O  O14  1  0.42810000  0.05010000  0.50000000  1.0 -1.1206180694
O  O15  1  0.94990000  0.42810000  0.00000000  1.0 -1.1113686961
O  O16  1  0.05010000  0.57190000  0.00000000  1.0 -1.1113686961
O  O17  1  0.44550000  0.85281000  0.58890000  1.0 -0.5640655348
O  O18  1  0.85281000  0.55450000  0.08890000  1.0 -0.5640655348
O  O19  1  0.55450000  0.14719000  0.58890000  1.0 -0.5640655348
O  O20  1  0.14719000  0.44550000  0.08890000  1.0 -0.5640655348
O  O21  1  0.55450000  0.85281000  0.41110000  1.0 -0.5640655348
O  O22  1  0.44550000  0.14719000  0.41110000  1.0 -0.5640655348
O  O23  1  0.85281000  0.44550000  0.91110000  1.0 -0.5640655348
O  O24  1  0.14719000  0.55450000  0.91110000  1.0 -0.5640655348
O  O25  1  0.55450000  0.14719000  0.41110000  1.0 -0.5640655348
O  O26  1  0.14719000  0.44550000  0.91110000  1.0 -0.5640655348
O  O27  1  0.44550000  0.85281000  0.41110000  1.0 -0.5640655348
O  O28  1  0.85281000  0.55450000  0.91110000  1.0 -0.5640655348
O  O29  1  0.44550000  0.14719000  0.58890000  1.0 -0.5640655348
O  O30  1  0.55450000  0.85281000  0.58890000  1.0 -0.5640655348
O  O31  1  0.14719000  0.55450000  0.08890000  1.0 -0.5640655348
O  O32  1  0.85281000  0.44550000  0.08890000  1.0 -0.5640655348
O  O33  1  0.39620000  0.91800000  0.66290000  1.0 -0.6012408363
O  O34  1  0.91800000  0.60380000  0.16290000  1.0 -0.6012408363
O  O35  1  0.60380000  0.08200000  0.66290000  1.0 -0.6012408363
O  O36  1  0.08200000  0.39620000  0.16290000  1.0 -0.6012408363
O  O37  1  0.60380000  0.91800000  0.33710000  1.0 -0.6012408363
O  O38  1  0.39620000  0.08200000  0.33710000  1.0 -0.6012408363
O  O39  1  0.91800000  0.39620000  0.83710000  1.0 -0.6012408363
O  O40  1  0.08200000  0.60380000  0.83710000  1.0 -0.6012408363
O  O41  1  0.60380000  0.08200000  0.33710000  1.0 -0.6012408363
O  O42  1  0.08200000  0.39620000  0.83710000  1.0 -0.6012408363
O  O43  1  0.39620000  0.91800000  0.33710000  1.0 -0.6012408363
O  O44  1  0.91800000  0.60380000  0.83710000  1.0 -0.6012408363
O  O45  1  0.39620000  0.08200000  0.66290000  1.0 -0.6012408363
O  O46  1  0.60380000  0.91800000  0.66290000  1.0 -0.6012408363
O  O47  1  0.08200000  0.60380000  0.16290000  1.0 -0.6012408363
O  O48  1  0.91800000  0.39620000  0.16290000  1.0 -0.6012408363
O  O49  1  0.33520000  0.00000000  0.57760000  1.0 -0.3403345534
O  O50  1  0.00000000  0.66480000  0.07760000  1.0 -0.3403345534
O  O51  1  0.66480000  0.00000000  0.57760000  1.0 -0.3403345534
O  O52  1  0.00000000  0.33520000  0.07760000  1.0 -0.3403345534
O  O53  1  0.66480000  0.00000000  0.42240000  1.0 -0.3403345534
O  O54  1  0.33520000  0.00000000  0.42240000  1.0 -0.3403345534
O  O55  1  0.00000000  0.33520000  0.92240000  1.0 -0.3403345534
O  O56  1  0.00000000  0.66480000  0.92240000  1.0 -0.3403345534
O  O57  1  0.33890000  0.00000000  0.60270000  1.0 -0.3819865033
O  O58  1  0.00000000  0.66110000  0.10270000  1.0 -0.3860027196
O  O59  1  0.66110000  0.00000000  0.60270000  1.0 -0.3819865033
O  O60  1  0.00000000  0.33890000  0.10270000  1.0 -0.3819865033
O  O61  1  0.66110000  0.00000000  0.39730000  1.0 -0.3819865033
O  O62  1  0.33890000  0.00000000  0.39730000  1.0 -0.3819865033
O  O63  1  0.00000000  0.33890000  0.89730000  1.0 -0.3819865033
O  O64  1  0.00000000  0.66110000  0.89730000  1.0 -0.3819865033
