# DDEC6 charges by PACMAN v1.1 (https://github.com/mtap-research/PACMAN-charge/)
data_ERAQAR_ASR_pacman
_symmetry_space_group_name_H-M   'P 1'
_cell_length_a   12.55920000
_cell_length_b   12.55920000
_cell_length_c   12.55920000
_cell_angle_alpha   103.89200000
_cell_angle_beta   103.89200000
_cell_angle_gamma   121.31900000
_symmetry_Int_Tables_number   1
_chemical_formula_structural   InH5(C4O3)2
_chemical_formula_sum   'In4 H20 C32 O24'
_cell_volume   1475.27041901
_cell_formula_units_Z   4
loop_
 _symmetry_equiv_pos_site_id
 _symmetry_equiv_pos_as_xyz
  1  'x, y, z'
loop_
 _atom_site_type_symbol
 _atom_site_label
 _atom_site_symmetry_multiplicity
 _atom_site_fract_x
 _atom_site_fract_y
 _atom_site_fract_z
 _atom_site_occupancy
 _atom_site_charge
In  In1  1  0.81142000  0.18858000  0.00000000  1.0 1.1318096289
In  In2  1  0.18858000  0.81142000  0.00000000  1.0 1.1318096289
In  In3  1  0.06142000  0.56142000  0.12284000  1.0 1.1318096289
In  In4  1  0.43858000  0.93858000  0.87716000  1.0 1.1318096289
H  H1  1  0.61880000  0.20360000  0.02900000  1.0 0.2508166799
H  H2  1  0.17460000  0.58980000  0.97100000  1.0 0.2508166799
H  H3  1  0.83980000  0.36880000  0.91520000  1.0 0.2508166799
H  H4  1  0.45360000  0.92460000  0.08480000  1.0 0.2508166799
H  H5  1  0.63120000  0.16020000  0.08480000  1.0 0.2508166799
H  H6  1  0.07540000  0.54640000  0.91520000  1.0 0.2508166799
H  H7  1  0.41020000  0.82540000  0.02900000  1.0 0.2508166799
H  H8  1  0.79640000  0.38120000  0.97100000  1.0 0.2508166799
H  H9  1  0.46490000  0.64190000  0.94580000  1.0 0.0990855912
H  H10  1  0.69610000  0.51910000  0.05420000  1.0 0.0990855912
H  H11  1  0.76910000  0.21490000  0.32300000  1.0 0.0990855912
H  H12  1  0.89190000  0.44610000  0.67700000  1.0 0.0990855912
H  H13  1  0.78510000  0.23090000  0.67700000  1.0 0.0990855912
H  H14  1  0.55390000  0.10810000  0.32300000  1.0 0.0990855912
H  H15  1  0.48090000  0.30390000  0.94580000  1.0 0.0990855912
H  H16  1  0.35810000  0.53510000  0.05420000  1.0 0.0990855912
H  H17  1  0.86580000  0.86580000  0.00000000  1.0 0.1342275063
H  H18  1  0.11580000  0.61580000  0.50000000  1.0 0.1342275063
H  H19  1  0.38420000  0.88420000  0.50000000  1.0 0.1342275063
H  H20  1  0.13420000  0.13420000  0.00000000  1.0 0.1342275063
C  C1  1  0.56020000  0.56020000  0.00000000  1.0 0.0766280884
C  C2  1  0.81020000  0.31020000  0.50000000  1.0 0.0766280884
C  C3  1  0.68980000  0.18980000  0.50000000  1.0 0.0766280884
C  C4  1  0.43980000  0.43980000  0.00000000  1.0 0.0766280884
C  C5  1  0.55070000  0.65600000  0.96910000  1.0 -0.1781206304
C  C6  1  0.68690000  0.58160000  0.03090000  1.0 -0.1781206304
C  C7  1  0.83160000  0.30070000  0.39470000  1.0 -0.1781206304
C  C8  1  0.90600000  0.43690000  0.60530000  1.0 -0.1781206304
C  C9  1  0.69930000  0.16840000  0.60530000  1.0 -0.1781206304
C  C10  1  0.56310000  0.09400000  0.39470000  1.0 -0.1781206304
C  C11  1  0.41840000  0.31310000  0.96910000  1.0 -0.1781206304
C  C12  1  0.34400000  0.44930000  0.03090000  1.0 -0.1781206304
C  C13  1  0.66510000  0.77240000  0.97190000  1.0 -0.032461208
C  C14  1  0.80050000  0.69320000  0.02810000  1.0 -0.032461208
C  C15  1  0.94320000  0.41510000  0.39270000  1.0 -0.032461208
C  C16  1  0.02240000  0.55050000  0.60730000  1.0 -0.032461208
C  C17  1  0.58490000  0.05680000  0.60730000  1.0 -0.032461208
C  C18  1  0.44950000  0.97760000  0.39270000  1.0 -0.032461208
C  C19  1  0.30680000  0.19950000  0.97190000  1.0 -0.032461208
C  C20  1  0.22760000  0.33490000  0.02810000  1.0 -0.032461208
C  C21  1  0.78860000  0.78860000  0.00000000  1.0 -0.1160099437
C  C22  1  0.03860000  0.53860000  0.50000000  1.0 -0.1160099437
C  C23  1  0.46140000  0.96140000  0.50000000  1.0 -0.1160099437
C  C24  1  0.21140000  0.21140000  0.00000000  1.0 -0.1160099437
C  C25  1  0.65430000  0.87670000  0.94740000  1.0 0.59738253
C  C26  1  0.92930000  0.70690000  0.05260000  1.0 0.59738253
C  C27  1  0.95690000  0.40430000  0.27760000  1.0 0.59738253
C  C28  1  0.12670000  0.67930000  0.72240000  1.0 0.59738253
C  C29  1  0.59570000  0.04310000  0.72240000  1.0 0.59738253
C  C30  1  0.32070000  0.87330000  0.27760000  1.0 0.59738253
C  C31  1  0.29310000  0.07070000  0.94740000  1.0 0.59738253
C  C32  1  0.12330000  0.34570000  0.05260000  1.0 0.59738253
O  O1  1  0.76800000  0.99880000  0.99660000  1.0 -0.549421229
O  O2  1  0.00220000  0.77140000  0.00340000  1.0 -0.549421229
O  O3  1  0.02140000  0.51800000  0.26920000  1.0 -0.549421229
O  O4  1  0.24880000  0.75220000  0.73080000  1.0 -0.549421229
O  O5  1  0.48200000  0.97860000  0.73080000  1.0 -0.549421229
O  O6  1  0.24780000  0.75120000  0.26920000  1.0 -0.549421229
O  O7  1  0.22860000  0.99780000  0.99660000  1.0 -0.549421229
O  O8  1  0.00120000  0.23200000  0.00340000  1.0 -0.549421229
O  O9  1  0.53652000  0.83831000  0.88323000  1.0 -0.5883457368
O  O10  1  0.95508000  0.65329000  0.11677000  1.0 -0.5883457368
O  O11  1  0.90329000  0.28652000  0.19821000  1.0 -0.5883457368
O  O12  1  0.08831000  0.70508000  0.80179000  1.0 -0.5883457368
O  O13  1  0.71348000  0.09671000  0.80179000  1.0 -0.5883457368
O  O14  1  0.29492000  0.91169000  0.19821000  1.0 -0.5883457368
O  O15  1  0.34671000  0.04492000  0.88323000  1.0 -0.5883457368
O  O16  1  0.16169000  0.46348000  0.11677000  1.0 -0.5883457368
O  O17  1  0.62170000  0.14210000  0.98920000  1.0 -0.2122636369
O  O18  1  0.15290000  0.63250000  0.01080000  1.0 -0.2122636369
O  O19  1  0.88250000  0.37170000  0.97960000  1.0 -0.2122636369
O  O20  1  0.39210000  0.90290000  0.02040000  1.0 -0.2122636369
O  O21  1  0.62830000  0.11750000  0.02040000  1.0 -0.2122636369
O  O22  1  0.09710000  0.60790000  0.97960000  1.0 -0.2122636369
O  O23  1  0.36750000  0.84710000  0.98920000  1.0 -0.2122636369
O  O24  1  0.85790000  0.37830000  0.01080000  1.0 -0.2122636369
