# DDEC6 charges by PACMAN v1.1 (https://github.com/mtap-research/PACMAN-charge/)
data_ERELIX_FSR_pacman
_symmetry_space_group_name_H-M   'P 1'
_cell_length_a   11.45070000
_cell_length_b   11.46350000
_cell_length_c   21.12100000
_cell_angle_alpha   90.00000000
_cell_angle_beta   90.00000000
_cell_angle_gamma   90.00000000
_symmetry_Int_Tables_number   1
_chemical_formula_structural   ZnH16Au3C26(Br3N5)2
_chemical_formula_sum   'Zn2 H32 Au6 C52 Br12 N20'
_cell_volume   2772.45016548
_cell_formula_units_Z   2
loop_
 _symmetry_equiv_pos_site_id
 _symmetry_equiv_pos_as_xyz
  1  'x, y, z'
loop_
 _atom_site_type_symbol
 _atom_site_label
 _atom_site_symmetry_multiplicity
 _atom_site_fract_x
 _atom_site_fract_y
 _atom_site_fract_z
 _atom_site_occupancy
 _atom_site_charge
Zn  Zn1  1  0.00000000  0.00000000  0.75000000  1.0 0.663061176
Zn  Zn2  1  0.00000000  0.00000000  0.25000000  1.0 0.663061176
H  H1  1  0.08320000  0.78840000  0.66980000  1.0 0.1255420489
H  H2  1  0.08320000  0.21160000  0.83020000  1.0 0.1255420489
H  H3  1  0.91680000  0.78840000  0.83020000  1.0 0.1255420489
H  H4  1  0.91680000  0.21160000  0.66980000  1.0 0.1255420489
H  H5  1  0.91680000  0.21160000  0.33020000  1.0 0.1255420489
H  H6  1  0.91680000  0.78840000  0.16980000  1.0 0.1255420489
H  H7  1  0.08320000  0.21160000  0.16980000  1.0 0.1255420489
H  H8  1  0.08320000  0.78840000  0.33020000  1.0 0.1255420489
H  H9  1  0.07850000  0.59000000  0.66600000  1.0 0.1518490208
H  H10  1  0.07850000  0.41000000  0.83400000  1.0 0.1518490208
H  H11  1  0.92150000  0.59000000  0.83400000  1.0 0.1518490208
H  H12  1  0.92150000  0.41000000  0.66600000  1.0 0.1518490208
H  H13  1  0.92150000  0.41000000  0.33400000  1.0 0.1518490208
H  H14  1  0.92150000  0.59000000  0.16600000  1.0 0.1518490208
H  H15  1  0.07850000  0.41000000  0.16600000  1.0 0.1518490208
H  H16  1  0.07850000  0.59000000  0.33400000  1.0 0.1518490208
H  H17  1  0.78890000  0.93670000  0.66520000  1.0 0.1244687481
H  H18  1  0.78890000  0.06330000  0.83480000  1.0 0.1244687481
H  H19  1  0.21110000  0.93670000  0.83480000  1.0 0.1244687481
H  H20  1  0.21110000  0.06330000  0.66520000  1.0 0.1244687481
H  H21  1  0.21110000  0.06330000  0.33480000  1.0 0.1244687481
H  H22  1  0.21110000  0.93670000  0.16520000  1.0 0.1244687481
H  H23  1  0.78890000  0.06330000  0.16520000  1.0 0.1244687481
H  H24  1  0.78890000  0.93670000  0.33480000  1.0 0.1244687481
H  H25  1  0.58850000  0.93490000  0.66220000  1.0 0.1518490208
H  H26  1  0.58850000  0.06510000  0.83780000  1.0 0.1518490208
H  H27  1  0.41150000  0.93490000  0.83780000  1.0 0.1518490208
H  H28  1  0.41150000  0.06510000  0.66220000  1.0 0.1518490208
H  H29  1  0.41150000  0.06510000  0.33780000  1.0 0.1518490208
H  H30  1  0.41150000  0.93490000  0.16220000  1.0 0.1518490208
H  H31  1  0.58850000  0.06510000  0.16220000  1.0 0.1518490208
H  H32  1  0.58850000  0.93490000  0.33780000  1.0 0.1518490208
Au  Au1  1  0.00000000  0.00000000  0.50000000  1.0 0.2388292444
Au  Au2  1  0.00000000  0.00000000  0.00000000  1.0 0.2388292444
Au  Au3  1  0.31063000  0.76274000  0.50000000  1.0 0.3340889556
Au  Au4  1  0.31063000  0.23726000  0.00000000  1.0 0.3377739233
Au  Au5  1  0.68937000  0.76274000  0.00000000  1.0 0.3377739233
Au  Au6  1  0.68937000  0.23726000  0.50000000  1.0 0.3340889556
C  C1  1  0.00000000  0.00000000  0.59430000  1.0 0.0928954295
C  C2  1  0.00000000  0.00000000  0.90570000  1.0 0.0928954295
C  C3  1  0.00000000  0.00000000  0.40570000  1.0 0.0928954295
C  C4  1  0.00000000  0.00000000  0.09430000  1.0 0.0928954295
C  C5  1  0.04690000  0.74750000  0.70310000  1.0 0.0928954295
C  C6  1  0.04690000  0.25250000  0.79690000  1.0 0.0928954295
C  C7  1  0.95310000  0.74750000  0.79690000  1.0 0.0928954295
C  C8  1  0.95310000  0.25250000  0.70310000  1.0 0.0928954295
C  C9  1  0.95310000  0.25250000  0.29690000  1.0 0.0928954295
C  C10  1  0.95310000  0.74750000  0.20310000  1.0 0.0928954295
C  C11  1  0.04690000  0.25250000  0.20310000  1.0 0.0928954295
C  C12  1  0.04690000  0.74750000  0.29690000  1.0 0.0928954295
C  C13  1  0.04520000  0.62840000  0.70080000  1.0 -0.1622873651
C  C14  1  0.04520000  0.37160000  0.79920000  1.0 -0.1622873651
C  C15  1  0.95480000  0.62840000  0.79920000  1.0 -0.1622873651
C  C16  1  0.95480000  0.37160000  0.70080000  1.0 -0.1622873651
C  C17  1  0.95480000  0.37160000  0.29920000  1.0 -0.1622873651
C  C18  1  0.95480000  0.62840000  0.20080000  1.0 -0.1622873651
C  C19  1  0.04520000  0.37160000  0.20080000  1.0 -0.1622873651
C  C20  1  0.04520000  0.62840000  0.29920000  1.0 -0.1622873651
C  C21  1  0.00000000  0.56450000  0.75000000  1.0 0.1125527402
C  C22  1  0.00000000  0.43550000  0.75000000  1.0 0.1125527402
C  C23  1  0.00000000  0.43550000  0.25000000  1.0 0.1125527402
C  C24  1  0.00000000  0.56450000  0.25000000  1.0 0.1125527402
C  C25  1  0.74700000  0.96280000  0.70020000  1.0 0.0968359081
C  C26  1  0.74700000  0.03720000  0.79980000  1.0 0.0968359081
C  C27  1  0.25300000  0.96280000  0.79980000  1.0 0.0968359081
C  C28  1  0.25300000  0.03720000  0.70020000  1.0 0.0968359081
C  C29  1  0.25300000  0.03720000  0.29980000  1.0 0.0968359081
C  C30  1  0.25300000  0.96280000  0.20020000  1.0 0.0968359081
C  C31  1  0.74700000  0.03720000  0.20020000  1.0 0.0968359081
C  C32  1  0.74700000  0.96280000  0.29980000  1.0 0.0968359081
C  C33  1  0.62750000  0.96150000  0.69840000  1.0 -0.1476359884
C  C34  1  0.62750000  0.03850000  0.80160000  1.0 -0.1476359884
C  C35  1  0.37250000  0.96150000  0.80160000  1.0 -0.1476359884
C  C36  1  0.37250000  0.03850000  0.69840000  1.0 -0.1476359884
C  C37  1  0.37250000  0.03850000  0.30160000  1.0 -0.1476359884
C  C38  1  0.37250000  0.96150000  0.19840000  1.0 -0.1476359884
C  C39  1  0.62750000  0.03850000  0.19840000  1.0 -0.1476359884
C  C40  1  0.62750000  0.96150000  0.30160000  1.0 -0.1476359884
C  C41  1  0.56430000  0.00000000  0.75000000  1.0 0.1125527402
C  C42  1  0.43570000  0.00000000  0.75000000  1.0 0.1125527402
C  C43  1  0.43570000  0.00000000  0.25000000  1.0 0.1125527402
C  C44  1  0.56430000  0.00000000  0.25000000  1.0 0.1125527402
C  C45  1  0.31400000  0.75970000  0.59440000  1.0 0.07694047
C  C46  1  0.31400000  0.24030000  0.90560000  1.0 0.07694047
C  C47  1  0.68600000  0.75970000  0.90560000  1.0 0.07694047
C  C48  1  0.68600000  0.24030000  0.59440000  1.0 0.07694047
C  C49  1  0.68600000  0.24030000  0.40560000  1.0 0.07694047
C  C50  1  0.68600000  0.75970000  0.09440000  1.0 0.07694047
C  C51  1  0.31400000  0.24030000  0.09440000  1.0 0.07694047
C  C52  1  0.31400000  0.75970000  0.40560000  1.0 0.07694047
Br  Br1  1  0.79699000  0.93891000  0.50000000  1.0 -0.2260771947
Br  Br2  1  0.79699000  0.06109000  0.00000000  1.0 -0.2260771947
Br  Br3  1  0.20301000  0.93891000  0.00000000  1.0 -0.2260771947
Br  Br4  1  0.20301000  0.06109000  0.50000000  1.0 -0.2260771947
Br  Br5  1  0.10622000  0.70567000  0.50000000  1.0 -0.3089925529
Br  Br6  1  0.10622000  0.29433000  0.00000000  1.0 -0.3089925529
Br  Br7  1  0.89378000  0.70567000  0.00000000  1.0 -0.3089925529
Br  Br8  1  0.89378000  0.29433000  0.50000000  1.0 -0.3089925529
Br  Br9  1  0.51380000  0.81850000  0.50000000  1.0 -0.1857966776
Br  Br10  1  0.51380000  0.18150000  0.00000000  1.0 -0.1857966776
Br  Br11  1  0.48620000  0.81850000  0.00000000  1.0 -0.1857966776
Br  Br12  1  0.48620000  0.18150000  0.50000000  1.0 -0.1857966776
N  N1  1  0.00000000  0.00000000  0.64790000  1.0 -0.3758349152
N  N2  1  0.00000000  0.00000000  0.85210000  1.0 -0.3758349152
N  N3  1  0.00000000  0.00000000  0.35210000  1.0 -0.3758349152
N  N4  1  0.00000000  0.00000000  0.14790000  1.0 -0.3758349152
N  N5  1  0.00000000  0.81000000  0.75000000  1.0 -0.2055528493
N  N6  1  0.00000000  0.19000000  0.75000000  1.0 -0.2055528493
N  N7  1  0.00000000  0.19000000  0.25000000  1.0 -0.2055528493
N  N8  1  0.00000000  0.81000000  0.25000000  1.0 -0.2055528493
N  N9  1  0.80910000  0.00000000  0.75000000  1.0 -0.2055528493
N  N10  1  0.19090000  0.00000000  0.75000000  1.0 -0.2055528493
N  N11  1  0.19090000  0.00000000  0.25000000  1.0 -0.2055528493
N  N12  1  0.80910000  0.00000000  0.25000000  1.0 -0.2055528493
N  N13  1  0.31650000  0.75630000  0.64580000  1.0 -0.3089925529
N  N14  1  0.31650000  0.24370000  0.85420000  1.0 -0.3089925529
N  N15  1  0.68350000  0.75630000  0.85420000  1.0 -0.3089925529
N  N16  1  0.68350000  0.24370000  0.64580000  1.0 -0.3089925529
N  N17  1  0.68350000  0.24370000  0.35420000  1.0 -0.3089925529
N  N18  1  0.68350000  0.75630000  0.14580000  1.0 -0.3089925529
N  N19  1  0.31650000  0.24370000  0.14580000  1.0 -0.3089925529
N  N20  1  0.31650000  0.75630000  0.35420000  1.0 -0.3089925529
