# DDEC6 charges by PACMAN v1.1 (https://github.com/mtap-research/PACMAN-charge/)
data_ERUFOM_FSR_pacman
_symmetry_space_group_name_H-M   'P 1'
_cell_length_a   5.50900000
_cell_length_b   10.54500000
_cell_length_c   29.39900000
_cell_angle_alpha   90.00000000
_cell_angle_beta   90.00000000
_cell_angle_gamma   90.00000000
_symmetry_Int_Tables_number   1
_chemical_formula_structural   CuH8C12S2N4O5
_chemical_formula_sum   'Cu4 H32 C48 S8 N16 O20'
_cell_volume   1707.85861460
_cell_formula_units_Z   4
loop_
 _symmetry_equiv_pos_site_id
 _symmetry_equiv_pos_as_xyz
  1  'x, y, z'
loop_
 _atom_site_type_symbol
 _atom_site_label
 _atom_site_symmetry_multiplicity
 _atom_site_fract_x
 _atom_site_fract_y
 _atom_site_fract_z
 _atom_site_occupancy
 _atom_site_charge
Cu  Cu1  1  0.76830000  0.01373000  0.23763000  1.0 0.8803979565
Cu  Cu2  1  0.73170000  0.98627000  0.73763000  1.0 0.8803979565
Cu  Cu3  1  0.23170000  0.51373000  0.26237000  1.0 0.8803979565
Cu  Cu4  1  0.26830000  0.48627000  0.76237000  1.0 0.8803979565
H  H1  1  0.42560000  0.14530000  0.17490000  1.0 0.1323499259
H  H2  1  0.07440000  0.85470000  0.67490000  1.0 0.1323499259
H  H3  1  0.57440000  0.64530000  0.32510000  1.0 0.1323499259
H  H4  1  0.92560000  0.35470000  0.82510000  1.0 0.1323499259
H  H5  1  0.36060000  0.17250000  0.09800000  1.0 0.1323499259
H  H6  1  0.13940000  0.82750000  0.59800000  1.0 0.1323499259
H  H7  1  0.63940000  0.67250000  0.40200000  1.0 0.1323499259
H  H8  1  0.86060000  0.32750000  0.90200000  1.0 0.1323499259
H  H9  1  0.99520000  0.99690000  0.07450000  1.0 0.1382257153
H  H10  1  0.50480000  0.00310000  0.57450000  1.0 0.1382257153
H  H11  1  0.00480000  0.49690000  0.42550000  1.0 0.1382257153
H  H12  1  0.49520000  0.50310000  0.92550000  1.0 0.1382257153
H  H13  1  0.04560000  0.97710000  0.15170000  1.0 0.1239194252
H  H14  1  0.45440000  0.02290000  0.65170000  1.0 0.1239194252
H  H15  1  0.95440000  0.47710000  0.34830000  1.0 0.1239194252
H  H16  1  0.54560000  0.52290000  0.84830000  1.0 0.1239194252
H  H17  1  0.34840000  0.16400000  0.87840000  1.0 0.1323499259
H  H18  1  0.15160000  0.83600000  0.37840000  1.0 0.1323499259
H  H19  1  0.65160000  0.66400000  0.62160000  1.0 0.1323499259
H  H20  1  0.84840000  0.33600000  0.12160000  1.0 0.1323499259
H  H21  1  0.38890000  0.12470000  0.80230000  1.0 0.1239194252
H  H22  1  0.11110000  0.87530000  0.30230000  1.0 0.1239194252
H  H23  1  0.61110000  0.62470000  0.69770000  1.0 0.1239194252
H  H24  1  0.88890000  0.37530000  0.19770000  1.0 0.1239194252
H  H25  1  0.01050000  0.95350000  0.82190000  1.0 0.1323499259
H  H26  1  0.48950000  0.04650000  0.32190000  1.0 0.1323499259
H  H27  1  0.98950000  0.45350000  0.67810000  1.0 0.1323499259
H  H28  1  0.51050000  0.54650000  0.17810000  1.0 0.1323499259
H  H29  1  0.97910000  0.98520000  0.89950000  1.0 0.1382257153
H  H30  1  0.52090000  0.01480000  0.39950000  1.0 0.1382257153
H  H31  1  0.02090000  0.48520000  0.60050000  1.0 0.1382257153
H  H32  1  0.47910000  0.51480000  0.10050000  1.0 0.1382257153
C  C1  1  0.53960000  0.11410000  0.15442000  1.0 0.0905726965
C  C2  1  0.96040000  0.88590000  0.65442000  1.0 0.0905726965
C  C3  1  0.46040000  0.61410000  0.34558000  1.0 0.0905726965
C  C4  1  0.03960000  0.38590000  0.84558000  1.0 0.0905726965
C  C5  1  0.49890000  0.13060000  0.10813000  1.0 -0.1742775778
C  C6  1  0.00110000  0.86940000  0.60813000  1.0 -0.1742775778
C  C7  1  0.50110000  0.63060000  0.39187000  1.0 -0.1742775778
C  C8  1  0.99890000  0.36940000  0.89187000  1.0 -0.1742775778
C  C9  1  0.66710000  0.08360000  0.07711000  1.0 0.1008534938
C  C10  1  0.83290000  0.91640000  0.57711000  1.0 0.1008534938
C  C11  1  0.33290000  0.58360000  0.42289000  1.0 0.1008534938
C  C12  1  0.16710000  0.41640000  0.92289000  1.0 0.1008534938
C  C13  1  0.87590000  0.02660000  0.09423000  1.0 -0.1894281907
C  C14  1  0.62410000  0.97340000  0.59423000  1.0 -0.1894281907
C  C15  1  0.12410000  0.52660000  0.40577000  1.0 -0.1894281907
C  C16  1  0.37590000  0.47340000  0.90577000  1.0 -0.1894281907
C  C17  1  0.90450000  0.01460000  0.14075000  1.0 0.1097570487
C  C18  1  0.59550000  0.98540000  0.64075000  1.0 0.1097570487
C  C19  1  0.09550000  0.51460000  0.35925000  1.0 0.1097570487
C  C20  1  0.40450000  0.48540000  0.85925000  1.0 0.1097570487
C  C21  1  0.62260000  0.09270000  0.02764000  1.0 0.1008534938
C  C22  1  0.87740000  0.90730000  0.52764000  1.0 0.1008534938
C  C23  1  0.37740000  0.59270000  0.47236000  1.0 0.1008534938
C  C24  1  0.12260000  0.40730000  0.97236000  1.0 0.1008534938
C  C25  1  0.61710000  0.08820000  0.94740000  1.0 0.0905726965
C  C26  1  0.88290000  0.91180000  0.44740000  1.0 0.0905726965
C  C27  1  0.38290000  0.58820000  0.55260000  1.0 0.0905726965
C  C28  1  0.11710000  0.41180000  0.05260000  1.0 0.0905726965
C  C29  1  0.65290000  0.07280000  0.89783000  1.0 0.0905726965
C  C30  1  0.84710000  0.92720000  0.39783000  1.0 0.0905726965
C  C31  1  0.34710000  0.57280000  0.60217000  1.0 0.0905726965
C  C32  1  0.15290000  0.42720000  0.10217000  1.0 0.0905726965
C  C33  1  0.48140000  0.11850000  0.86781000  1.0 -0.1811729299
C  C34  1  0.01860000  0.88150000  0.36781000  1.0 -0.1811729299
C  C35  1  0.51860000  0.61850000  0.63219000  1.0 -0.1811729299
C  C36  1  0.98140000  0.38150000  0.13219000  1.0 -0.1811729299
C  C37  1  0.50910000  0.09610000  0.82204000  1.0 0.1008534938
C  C38  1  0.99090000  0.90390000  0.32204000  1.0 0.1008534938
C  C39  1  0.49090000  0.59610000  0.67796000  1.0 0.1008534938
C  C40  1  0.00910000  0.40390000  0.17796000  1.0 0.1008534938
C  C41  1  0.87470000  0.99470000  0.83350000  1.0 0.1097570487
C  C42  1  0.62530000  0.00530000  0.33350000  1.0 0.1097570487
C  C43  1  0.12530000  0.49470000  0.66650000  1.0 0.1097570487
C  C44  1  0.37470000  0.50530000  0.16650000  1.0 0.1097570487
C  C45  1  0.85620000  0.01290000  0.88022000  1.0 -0.1894281907
C  C46  1  0.64380000  0.98710000  0.38022000  1.0 -0.1894281907
C  C47  1  0.14380000  0.51290000  0.61978000  1.0 -0.1894281907
C  C48  1  0.35620000  0.48710000  0.11978000  1.0 -0.1894281907
S  S1  1  0.82560000  0.04178000  0.98751000  1.0 0.1323499259
S  S2  1  0.67440000  0.95822000  0.48751000  1.0 0.1323499259
S  S3  1  0.17440000  0.54178000  0.51249000  1.0 0.1323499259
S  S4  1  0.32560000  0.45822000  0.01249000  1.0 0.1323499259
S  S5  1  0.34050000  0.81890000  0.21621000  1.0 1.4027907659
S  S6  1  0.15950000  0.18110000  0.71621000  1.0 1.4027907659
S  S7  1  0.65950000  0.31890000  0.28379000  1.0 1.4027907659
S  S8  1  0.84050000  0.68110000  0.78379000  1.0 1.4027907659
N  N1  1  0.73800000  0.05460000  0.17073000  1.0 -0.2074720341
N  N2  1  0.76200000  0.94540000  0.67073000  1.0 -0.2074720341
N  N3  1  0.26200000  0.55460000  0.32927000  1.0 -0.2074720341
N  N4  1  0.23800000  0.44540000  0.82927000  1.0 -0.2074720341
N  N5  1  0.42150000  0.13700000  0.01103000  1.0 -0.1966296624
N  N6  1  0.07850000  0.86300000  0.51103000  1.0 -0.1966296624
N  N7  1  0.57850000  0.63700000  0.48897000  1.0 -0.1966296624
N  N8  1  0.92150000  0.36300000  0.98897000  1.0 -0.1966296624
N  N9  1  0.41810000  0.13590000  0.96446000  1.0 -0.1894281907
N  N10  1  0.08190000  0.86410000  0.46446000  1.0 -0.1894281907
N  N11  1  0.58190000  0.63590000  0.53554000  1.0 -0.1894281907
N  N12  1  0.91810000  0.36410000  0.03554000  1.0 -0.1894281907
N  N13  1  0.70080000  0.03510000  0.80445000  1.0 -0.2074720341
N  N14  1  0.79920000  0.96490000  0.30445000  1.0 -0.2074720341
N  N15  1  0.29920000  0.53510000  0.69555000  1.0 -0.2074720341
N  N16  1  0.20080000  0.46490000  0.19555000  1.0 -0.2074720341
O  O1  1  0.43930000  0.93870000  0.23745000  1.0 -0.625786526
O  O2  1  0.06070000  0.06130000  0.73745000  1.0 -0.625786526
O  O3  1  0.56070000  0.43870000  0.26255000  1.0 -0.625786526
O  O4  1  0.93930000  0.56130000  0.76255000  1.0 -0.625786526
O  O5  1  0.41540000  0.81280000  0.16861000  1.0 -0.625786526
O  O6  1  0.08460000  0.18720000  0.66861000  1.0 -0.620846299
O  O7  1  0.58460000  0.31280000  0.33139000  1.0 -0.620846299
O  O8  1  0.91540000  0.68720000  0.83139000  1.0 -0.620846299
O  O9  1  0.07370000  0.82920000  0.21975000  1.0 -0.620846299
O  O10  1  0.42630000  0.17080000  0.71975000  1.0 -0.620846299
O  O11  1  0.92630000  0.32920000  0.28025000  1.0 -0.620846299
O  O12  1  0.57370000  0.67080000  0.78025000  1.0 -0.620846299
O  O13  1  0.42760000  0.70940000  0.24318000  1.0 -0.6399357508
O  O14  1  0.07240000  0.29060000  0.74318000  1.0 -0.6399357508
O  O15  1  0.57240000  0.20940000  0.25682000  1.0 -0.6399357508
O  O16  1  0.92760000  0.79060000  0.75682000  1.0 -0.6399357508
O  O17  1  0.07450000  0.11240000  0.23860000  1.0 -0.2190625596
O  O18  1  0.42550000  0.88760000  0.73860000  1.0 -0.2190625596
O  O19  1  0.92550000  0.61240000  0.26140000  1.0 -0.2190625596
O  O20  1  0.57450000  0.38760000  0.76140000  1.0 -0.2190625596
