# DDEC6 charges by PACMAN v1.1 (https://github.com/mtap-research/PACMAN-charge/)
data_ESASEY_FSR_pacman
_symmetry_space_group_name_H-M   'P 1'
_cell_length_a   14.71340000
_cell_length_b   14.71340000
_cell_length_c   14.86560000
_cell_angle_alpha   64.38020000
_cell_angle_beta   115.62000000
_cell_angle_gamma   138.50400000
_symmetry_Int_Tables_number   1
_chemical_formula_structural   ZnH14C15N3O4
_chemical_formula_sum   'Zn4 H56 C60 N12 O16'
_cell_volume   1890.62403920
_cell_formula_units_Z   4
loop_
 _symmetry_equiv_pos_site_id
 _symmetry_equiv_pos_as_xyz
  1  'x, y, z'
loop_
 _atom_site_type_symbol
 _atom_site_label
 _atom_site_symmetry_multiplicity
 _atom_site_fract_x
 _atom_site_fract_y
 _atom_site_fract_z
 _atom_site_occupancy
 _atom_site_charge
Zn  Zn1  1  0.34846000  0.93106000  0.96623000  1.0 0.8726606168
Zn  Zn2  1  0.93106000  0.34846000  0.53377000  1.0 0.8726606168
Zn  Zn3  1  0.65154000  0.06894000  0.03377000  1.0 0.8726606168
Zn  Zn4  1  0.06894000  0.65154000  0.46623000  1.0 0.8726606168
H  H1  1  0.78440000  0.52800000  0.79220000  1.0 0.1099134482
H  H2  1  0.52800000  0.78440000  0.70780000  1.0 0.1099134482
H  H3  1  0.21560000  0.47200000  0.20780000  1.0 0.1099134482
H  H4  1  0.47200000  0.21560000  0.29220000  1.0 0.1099134482
H  H5  1  0.72140000  0.43400000  0.89140000  1.0 0.120029516
H  H6  1  0.43400000  0.72140000  0.60860000  1.0 0.120029516
H  H7  1  0.27860000  0.56600000  0.10860000  1.0 0.120029516
H  H8  1  0.56600000  0.27860000  0.39140000  1.0 0.120029516
H  H9  1  0.53730000  0.69690000  0.00230000  1.0 0.1315383859
H  H10  1  0.69690000  0.53730000  0.49770000  1.0 0.1315383859
H  H11  1  0.46270000  0.30310000  0.99770000  1.0 0.1315383859
H  H12  1  0.30310000  0.46270000  0.50230000  1.0 0.1315383859
H  H13  1  0.12830000  0.76550000  0.09940000  1.0 0.1361332074
H  H14  1  0.76550000  0.12830000  0.40060000  1.0 0.1361332074
H  H15  1  0.87170000  0.23450000  0.90060000  1.0 0.1361332074
H  H16  1  0.23450000  0.87170000  0.59940000  1.0 0.1361332074
H  H17  1  0.87360000  0.58600000  0.04360000  1.0 0.120029516
H  H18  1  0.58600000  0.87360000  0.45640000  1.0 0.120029516
H  H19  1  0.12640000  0.41400000  0.95640000  1.0 0.120029516
H  H20  1  0.41400000  0.12640000  0.54360000  1.0 0.120029516
H  H21  1  0.11670000  0.71290000  0.80000000  1.0 0.1633337982
H  H22  1  0.71290000  0.11670000  0.70000000  1.0 0.1633337982
H  H23  1  0.88330000  0.28710000  0.20000000  1.0 0.1633337982
H  H24  1  0.28710000  0.88330000  0.30000000  1.0 0.1633337982
H  H25  1  0.97210000  0.66666667  0.74620000  1.0 0.1488174409
H  H26  1  0.66666667  0.97210000  0.75380000  1.0 0.1488174409
H  H27  1  0.02790000  0.33333333  0.25380000  1.0 0.1488174409
H  H28  1  0.33333333  0.02790000  0.24620000  1.0 0.1488174409
H  H29  1  0.10770000  0.82470000  0.75020000  1.0 0.1701054521
H  H30  1  0.82470000  0.10770000  0.74980000  1.0 0.1701054521
H  H31  1  0.89230000  0.17530000  0.24980000  1.0 0.1701054521
H  H32  1  0.17530000  0.89230000  0.25020000  1.0 0.1701054521
H  H33  1  0.60040000  0.49180000  0.78530000  1.0 0.1027904175
H  H34  1  0.49180000  0.60040000  0.71470000  1.0 0.1027904175
H  H35  1  0.39960000  0.50820000  0.21470000  1.0 0.1027904175
H  H36  1  0.50820000  0.39960000  0.28530000  1.0 0.1027904175
H  H37  1  0.68080000  0.56260000  0.88010000  1.0 0.1027904175
H  H38  1  0.56260000  0.68080000  0.61990000  1.0 0.1027904175
H  H39  1  0.31920000  0.43740000  0.11990000  1.0 0.1027904175
H  H40  1  0.43740000  0.31920000  0.38010000  1.0 0.1027904175
H  H41  1  0.27430000  0.71870000  0.77410000  1.0 0.1315383859
H  H42  1  0.71870000  0.27430000  0.72590000  1.0 0.1315383859
H  H43  1  0.72570000  0.28130000  0.22590000  1.0 0.1315383859
H  H44  1  0.28130000  0.72570000  0.27410000  1.0 0.1315383859
H  H45  1  0.26500000  0.42560000  0.80880000  1.0 0.1361332074
H  H46  1  0.42560000  0.26500000  0.69120000  1.0 0.1361332074
H  H47  1  0.73500000  0.57440000  0.19120000  1.0 0.1361332074
H  H48  1  0.57440000  0.73500000  0.30880000  1.0 0.1361332074
H  H49  1  0.73830000  0.69950000  0.68020000  1.0 0.1027904175
H  H50  1  0.69950000  0.73830000  0.81980000  1.0 0.1027904175
H  H51  1  0.26170000  0.30050000  0.31980000  1.0 0.1027904175
H  H52  1  0.30050000  0.26170000  0.18020000  1.0 0.1027904175
H  H53  1  0.85980000  0.77440000  0.77040000  1.0 0.1027904175
H  H54  1  0.77440000  0.85980000  0.72960000  1.0 0.1027904175
H  H55  1  0.14020000  0.22560000  0.22960000  1.0 0.1027904175
H  H56  1  0.22560000  0.14020000  0.27040000  1.0 0.1027904175
C  C1  1  0.41005000  0.72175000  0.89520000  1.0 -0.0095174085
C  C2  1  0.72175000  0.41005000  0.60480000  1.0 -0.0095174085
C  C3  1  0.58995000  0.27825000  0.10480000  1.0 -0.0095174085
C  C4  1  0.27825000  0.58995000  0.39520000  1.0 -0.0095174085
C  C5  1  0.77460000  0.52820000  0.85250000  1.0 -0.1289734346
C  C6  1  0.52820000  0.77460000  0.64750000  1.0 -0.1289734346
C  C7  1  0.22540000  0.47180000  0.14750000  1.0 -0.1289734346
C  C8  1  0.47180000  0.22540000  0.35250000  1.0 -0.1289734346
C  C9  1  0.46477000  0.66223000  0.94690000  1.0 -0.1824334688
C  C10  1  0.66223000  0.46477000  0.55310000  1.0 -0.1824334688
C  C11  1  0.53523000  0.33777000  0.05310000  1.0 -0.1824334688
C  C12  1  0.33777000  0.53523000  0.44690000  1.0 -0.1824334688
C  C13  1  0.40941000  0.54999000  0.91470000  1.0 0.1488174409
C  C14  1  0.54999000  0.40941000  0.58530000  1.0 0.1488174409
C  C15  1  0.59059000  0.45001000  0.08530000  1.0 0.1488174409
C  C16  1  0.45001000  0.59059000  0.41470000  1.0 0.1488174409
C  C17  1  0.45896000  0.83504000  0.93490000  1.0 0.5724703171
C  C18  1  0.83504000  0.45896000  0.56510000  1.0 0.5724703171
C  C19  1  0.54104000  0.16496000  0.06510000  1.0 0.5724703171
C  C20  1  0.16496000  0.54104000  0.43490000  1.0 0.5724703171
C  C21  1  0.08180000  0.73620000  0.03720000  1.0 -0.0572200907
C  C22  1  0.73620000  0.08180000  0.46280000  1.0 -0.0572200907
C  C23  1  0.91820000  0.26380000  0.96280000  1.0 -0.0572200907
C  C24  1  0.26380000  0.91820000  0.53720000  1.0 -0.0572200907
C  C25  1  0.94090000  0.63570000  0.00610000  1.0 -0.0825014688
C  C26  1  0.63570000  0.94090000  0.49390000  1.0 -0.0825014688
C  C27  1  0.05910000  0.36430000  0.99390000  1.0 -0.0825014688
C  C28  1  0.36430000  0.05910000  0.50610000  1.0 -0.0825014688
C  C29  1  0.06100000  0.73100000  0.78650000  1.0 -0.5287952624
C  C30  1  0.73100000  0.06100000  0.71350000  1.0 -0.5287952624
C  C31  1  0.93900000  0.26900000  0.21350000  1.0 -0.5287952624
C  C32  1  0.26900000  0.93900000  0.28650000  1.0 -0.5287952624
C  C33  1  0.03920000  0.71320000  0.88610000  1.0 0.3506911941
C  C34  1  0.71320000  0.03920000  0.61390000  1.0 0.3506911941
C  C35  1  0.96080000  0.28680000  0.11390000  1.0 0.3506911941
C  C36  1  0.28680000  0.96080000  0.38610000  1.0 0.3506911941
C  C37  1  0.69250000  0.56350000  0.82020000  1.0 -0.1868735306
C  C38  1  0.56350000  0.69250000  0.67980000  1.0 -0.1868735306
C  C39  1  0.30750000  0.43650000  0.17980000  1.0 -0.1868735306
C  C40  1  0.43650000  0.30750000  0.32020000  1.0 -0.1868735306
C  C41  1  0.30764000  0.67596000  0.80940000  1.0 -0.1387754333
C  C42  1  0.67596000  0.30764000  0.69060000  1.0 -0.1387754333
C  C43  1  0.69236000  0.32404000  0.19060000  1.0 -0.1387754333
C  C44  1  0.32404000  0.69236000  0.30940000  1.0 -0.1387754333
C  C45  1  0.25392000  0.56588000  0.77550000  1.0 -0.0152621172
C  C46  1  0.56588000  0.25392000  0.72450000  1.0 -0.0152621172
C  C47  1  0.74608000  0.43412000  0.22450000  1.0 -0.0095174085
C  C48  1  0.43412000  0.74608000  0.27550000  1.0 -0.0095174085
C  C49  1  0.30303000  0.50137000  0.82950000  1.0 -0.1824334688
C  C50  1  0.50137000  0.30303000  0.67050000  1.0 -0.1824334688
C  C51  1  0.69697000  0.49863000  0.17050000  1.0 -0.1824334688
C  C52  1  0.49863000  0.69697000  0.32950000  1.0 -0.1824334688
C  C53  1  0.14822000  0.52258000  0.67850000  1.0 0.5724703171
C  C54  1  0.52258000  0.14822000  0.82150000  1.0 0.5724703171
C  C55  1  0.85178000  0.47742000  0.32150000  1.0 0.5724703171
C  C56  1  0.47742000  0.85178000  0.17850000  1.0 0.5724703171
C  C57  1  0.75920000  0.70820000  0.74900000  1.0 -0.1574890218
C  C58  1  0.70820000  0.75920000  0.75100000  1.0 -0.1574890218
C  C59  1  0.24080000  0.29180000  0.25100000  1.0 -0.1574890218
C  C60  1  0.29180000  0.24080000  0.24900000  1.0 -0.1574890218
N  N1  1  0.91490000  0.62010000  0.91360000  1.0 -0.0095174085
N  N2  1  0.62010000  0.91490000  0.58640000  1.0 -0.0095174085
N  N3  1  0.08510000  0.37990000  0.08640000  1.0 -0.0095174085
N  N4  1  0.37990000  0.08510000  0.41360000  1.0 -0.0095174085
N  N5  1  0.45242000  0.47758000  0.96250000  1.0 -0.1289734346
N  N6  1  0.47758000  0.45242000  0.53750000  1.0 -0.1289734346
N  N7  1  0.54758000  0.52242000  0.03750000  1.0 -0.1387754333
N  N8  1  0.52242000  0.54758000  0.46250000  1.0 -0.1387754333
N  N9  1  0.14190000  0.78630000  0.95580000  1.0 -0.3433447383
N  N10  1  0.78630000  0.14190000  0.54420000  1.0 -0.3433447383
N  N11  1  0.85810000  0.21370000  0.04420000  1.0 -0.3433447383
N  N12  1  0.21370000  0.85810000  0.45580000  1.0 -0.3433447383
O  O1  1  0.58243000  0.91717000  0.97870000  1.0 -0.5159067638
O  O2  1  0.91717000  0.58243000  0.52130000  1.0 -0.5159067638
O  O3  1  0.41757000  0.08283000  0.02130000  1.0 -0.5159067638
O  O4  1  0.08283000  0.41757000  0.47870000  1.0 -0.5159067638
O  O5  1  0.36719000  0.83301000  0.92060000  1.0 -0.5526943259
O  O6  1  0.83301000  0.36719000  0.57940000  1.0 -0.5526943259
O  O7  1  0.63281000  0.16699000  0.07940000  1.0 -0.5526943259
O  O8  1  0.16699000  0.63281000  0.42060000  1.0 -0.5526943259
O  O9  1  0.06881000  0.40059000  0.66810000  1.0 -0.5159067638
O  O10  1  0.40059000  0.06881000  0.83190000  1.0 -0.5159067638
O  O11  1  0.93119000  0.59941000  0.33190000  1.0 -0.5159067638
O  O12  1  0.59941000  0.93119000  0.16810000  1.0 -0.5159067638
O  O13  1  0.15237000  0.61543000  0.61550000  1.0 -0.557197129
O  O14  1  0.61543000  0.15237000  0.88450000  1.0 -0.557197129
O  O15  1  0.84763000  0.38457000  0.38450000  1.0 -0.557197129
O  O16  1  0.38457000  0.84763000  0.11550000  1.0 -0.557197129
