# DDEC6 charges by PACMAN v1.1 (https://github.com/mtap-research/PACMAN-charge/)
data_ESIGES_FSR_pacman
_symmetry_space_group_name_H-M   'P 1'
_cell_length_a   9.97910000
_cell_length_b   9.11140000
_cell_length_c   27.58100000
_cell_angle_alpha   90.00000000
_cell_angle_beta   92.21300000
_cell_angle_gamma   90.00000000
_symmetry_Int_Tables_number   1
_chemical_formula_structural   ZnPH3(C2O3)2
_chemical_formula_sum   'Zn8 P8 H24 C32 O48'
_cell_volume   2505.89269427
_cell_formula_units_Z   8
loop_
 _symmetry_equiv_pos_site_id
 _symmetry_equiv_pos_as_xyz
  1  'x, y, z'
loop_
 _atom_site_type_symbol
 _atom_site_label
 _atom_site_symmetry_multiplicity
 _atom_site_fract_x
 _atom_site_fract_y
 _atom_site_fract_z
 _atom_site_occupancy
 _atom_site_charge
Zn  Zn1  1  0.59622000  0.82219000  0.04948000  1.0 1.0887840222
Zn  Zn2  1  0.09622000  0.67781000  0.04948000  1.0 1.0887840222
Zn  Zn3  1  0.40378000  0.17781000  0.95052000  1.0 1.0887840222
Zn  Zn4  1  0.90378000  0.32219000  0.95052000  1.0 1.0887840222
Zn  Zn5  1  0.58807000  0.82185000  0.45160000  1.0 1.0820022057
Zn  Zn6  1  0.08807000  0.67815000  0.45160000  1.0 1.0820022057
Zn  Zn7  1  0.41193000  0.17815000  0.54840000  1.0 1.0820022057
Zn  Zn8  1  0.91193000  0.32185000  0.54840000  1.0 1.0820022057
P  P1  1  0.30462000  0.91967000  0.02656000  1.0 1.5300051913
P  P2  1  0.80462000  0.58033000  0.02656000  1.0 1.5224883984
P  P3  1  0.69538000  0.08033000  0.97344000  1.0 1.5300051913
P  P4  1  0.19538000  0.41967000  0.97344000  1.0 1.5300051913
P  P5  1  0.30108000  0.92254000  0.47661000  1.0 1.5300051913
P  P6  1  0.80108000  0.57746000  0.47661000  1.0 1.5300051913
P  P7  1  0.69892000  0.07746000  0.52339000  1.0 1.5300051913
P  P8  1  0.19892000  0.42254000  0.52339000  1.0 1.5300051913
H  H1  1  0.81540000  0.68960000  0.23380000  1.0 0.1023447867
H  H2  1  0.31540000  0.81040000  0.23380000  1.0 0.1023447867
H  H3  1  0.18460000  0.31040000  0.76620000  1.0 0.1023447867
H  H4  1  0.68460000  0.18960000  0.76620000  1.0 0.1023447867
H  H5  1  0.72000000  0.74240000  0.32890000  1.0 0.1275364197
H  H6  1  0.22000000  0.75760000  0.32890000  1.0 0.1275364197
H  H7  1  0.28000000  0.25760000  0.67110000  1.0 0.1275364197
H  H8  1  0.78000000  0.24240000  0.67110000  1.0 0.1275364197
H  H9  1  0.29880000  0.96510000  0.09870000  1.0 0.4066278816
H  H10  1  0.79880000  0.53490000  0.09870000  1.0 0.4066278816
H  H11  1  0.70120000  0.03490000  0.90130000  1.0 0.4066278816
H  H12  1  0.20120000  0.46510000  0.90130000  1.0 0.4066278816
H  H13  1  0.43760000  0.01640000  0.26970000  1.0 0.1385987605
H  H14  1  0.93760000  0.48360000  0.26970000  1.0 0.1385987605
H  H15  1  0.56240000  0.98360000  0.73030000  1.0 0.1385987605
H  H16  1  0.06240000  0.51640000  0.73030000  1.0 0.1385987605
H  H17  1  0.48260000  0.97600000  0.17940000  1.0 0.1122261061
H  H18  1  0.98260000  0.52400000  0.17940000  1.0 0.1122261061
H  H19  1  0.51740000  0.02400000  0.82060000  1.0 0.1122261061
H  H20  1  0.01740000  0.47600000  0.82060000  1.0 0.1122261061
H  H21  1  0.35280000  0.00240000  0.41130000  1.0 0.4048603605
H  H22  1  0.85280000  0.49760000  0.41130000  1.0 0.4048603605
H  H23  1  0.64720000  0.99760000  0.58870000  1.0 0.4066278816
H  H24  1  0.14720000  0.50240000  0.58870000  1.0 0.4066278816
C  C1  1  0.68420000  0.79560000  0.15033000  1.0 0.5878478269
C  C2  1  0.18420000  0.70440000  0.15033000  1.0 0.5953478645
C  C3  1  0.31580000  0.20440000  0.84967000  1.0 0.5953478645
C  C4  1  0.81580000  0.29560000  0.84967000  1.0 0.5953478645
C  C5  1  0.65340000  0.83550000  0.20194000  1.0 -0.0153064598
C  C6  1  0.15340000  0.66450000  0.20194000  1.0 -0.0143571859
C  C7  1  0.34660000  0.16450000  0.79806000  1.0 -0.0153064598
C  C8  1  0.84660000  0.33550000  0.79806000  1.0 -0.0143571859
C  C9  1  0.72790000  0.76800000  0.23998000  1.0 -0.0704955999
C  C10  1  0.22790000  0.73200000  0.23998000  1.0 -0.0704955999
C  C11  1  0.27210000  0.23200000  0.76002000  1.0 -0.0704955999
C  C12  1  0.77210000  0.26800000  0.76002000  1.0 -0.0704955999
C  C13  1  0.69470000  0.79120000  0.28757000  1.0 -0.0704955999
C  C14  1  0.19470000  0.70880000  0.28757000  1.0 -0.0704955999
C  C15  1  0.30530000  0.20880000  0.71243000  1.0 -0.0704955999
C  C16  1  0.80530000  0.29120000  0.71243000  1.0 -0.0704955999
C  C17  1  0.58590000  0.88090000  0.29798000  1.0 0.0179532212
C  C18  1  0.08590000  0.61910000  0.29798000  1.0 0.0179532212
C  C19  1  0.41410000  0.11910000  0.70202000  1.0 0.0179532212
C  C20  1  0.91410000  0.38090000  0.70202000  1.0 0.0179532212
C  C21  1  0.51780000  0.95440000  0.26042000  1.0 -0.1074308996
C  C22  1  0.01780000  0.54560000  0.26042000  1.0 -0.1074308996
C  C23  1  0.48220000  0.04560000  0.73958000  1.0 -0.1074308996
C  C24  1  0.98220000  0.45440000  0.73958000  1.0 -0.1074308996
C  C25  1  0.55020000  0.93000000  0.21258000  1.0 -0.0439291404
C  C26  1  0.05020000  0.57000000  0.21258000  1.0 -0.0451987964
C  C27  1  0.44980000  0.07000000  0.78742000  1.0 -0.0439291404
C  C28  1  0.94980000  0.43000000  0.78742000  1.0 -0.0439291404
C  C29  1  0.54020000  0.89440000  0.34958000  1.0 0.5878478269
C  C30  1  0.04020000  0.60560000  0.34958000  1.0 0.5878478269
C  C31  1  0.45980000  0.10560000  0.65042000  1.0 0.5878478269
C  C32  1  0.95980000  0.39440000  0.65042000  1.0 0.584564967
O  O1  1  0.40620000  0.79690000  0.03257000  1.0 -0.74833362
O  O2  1  0.90620000  0.70310000  0.03257000  1.0 -0.74833362
O  O3  1  0.59380000  0.20310000  0.96743000  1.0 -0.74833362
O  O4  1  0.09380000  0.29690000  0.96743000  1.0 -0.74833362
O  O5  1  0.16130000  0.85690000  0.02173000  1.0 -0.7091269304
O  O6  1  0.66130000  0.64310000  0.02173000  1.0 -0.7156057526
O  O7  1  0.83870000  0.14310000  0.97827000  1.0 -0.7156057526
O  O8  1  0.33870000  0.35690000  0.97827000  1.0 -0.7091269304
O  O9  1  0.32850000  0.01520000  0.98371000  1.0 -0.7342374096
O  O10  1  0.82850000  0.48480000  0.98371000  1.0 -0.7365892698
O  O11  1  0.67150000  0.98480000  0.01629000  1.0 -0.7342374096
O  O12  1  0.17150000  0.51520000  0.01629000  1.0 -0.7342374096
O  O13  1  0.31260000  0.01910000  0.07366000  1.0 -0.5603235135
O  O14  1  0.81260000  0.48090000  0.07366000  1.0 -0.5603235135
O  O15  1  0.68740000  0.98090000  0.92634000  1.0 -0.5603235135
O  O16  1  0.18740000  0.51910000  0.92634000  1.0 -0.5603235135
O  O17  1  0.40240000  0.80260000  0.46721000  1.0 -0.7659048606
O  O18  1  0.90240000  0.69740000  0.46721000  1.0 -0.7659048606
O  O19  1  0.59760000  0.19740000  0.53279000  1.0 -0.7649190594
O  O20  1  0.09760000  0.30260000  0.53279000  1.0 -0.7659048606
O  O21  1  0.32660000  0.00190000  0.52421000  1.0 -0.74833362
O  O22  1  0.82660000  0.49810000  0.52421000  1.0 -0.74833362
O  O23  1  0.67340000  0.99810000  0.47579000  1.0 -0.74833362
O  O24  1  0.17340000  0.50190000  0.47579000  1.0 -0.74833362
O  O25  1  0.15910000  0.86210000  0.47678000  1.0 -0.7091269304
O  O26  1  0.65910000  0.63790000  0.47678000  1.0 -0.7091269304
O  O27  1  0.84090000  0.13790000  0.52322000  1.0 -0.7037539054
O  O28  1  0.34090000  0.36210000  0.52322000  1.0 -0.7091269304
O  O29  1  0.31110000  0.04040000  0.43518000  1.0 -0.5659600962
O  O30  1  0.81110000  0.45960000  0.43518000  1.0 -0.5603235135
O  O31  1  0.68890000  0.95960000  0.56482000  1.0 -0.5603235135
O  O32  1  0.18890000  0.54040000  0.56482000  1.0 -0.5659600962
O  O33  1  0.61960000  0.86750000  0.11830000  1.0 -0.4904856962
O  O34  1  0.11960000  0.63250000  0.11830000  1.0 -0.4904856962
O  O35  1  0.38040000  0.13250000  0.88170000  1.0 -0.4904856962
O  O36  1  0.88040000  0.36750000  0.88170000  1.0 -0.4904856962
O  O37  1  0.61600000  0.83430000  0.38192000  1.0 -0.4904856962
O  O38  1  0.11600000  0.66570000  0.38192000  1.0 -0.4904856962
O  O39  1  0.38400000  0.16570000  0.61808000  1.0 -0.4904856962
O  O40  1  0.88400000  0.33430000  0.61808000  1.0 -0.4904856962
O  O41  1  0.76390000  0.69460000  0.14311000  1.0 -0.459299909
O  O42  1  0.26390000  0.80540000  0.14311000  1.0 -0.459299909
O  O43  1  0.23610000  0.30540000  0.85689000  1.0 -0.459299909
O  O44  1  0.73610000  0.19460000  0.85689000  1.0 -0.459299909
O  O45  1  0.43410000  0.95920000  0.35651000  1.0 -0.4319105391
O  O46  1  0.93410000  0.54080000  0.35651000  1.0 -0.4319105391
O  O47  1  0.56590000  0.04080000  0.64349000  1.0 -0.4319105391
O  O48  1  0.06590000  0.45920000  0.64349000  1.0 -0.4319105391
