# DDEC6 charges by PACMAN v1.1 (https://github.com/mtap-research/PACMAN-charge/)
data_ETAFIR_ASR_pacman
_chemical_formula_sum              "C26 Fe4 N4 O54 W16 P1"
_cell_length_a       12.8533
_cell_length_b       13.1878
_cell_length_c       13.3075
_cell_angle_alpha    115.361
_cell_angle_beta     108.846
_cell_angle_gamma    98.97

_symmetry_space_group_name_H-M    "P 1"
_symmetry_Int_Tables_number       1

loop_
  _symmetry_equiv_pos_as_xyz
  'x, y, z'

loop_
  _atom_site_type_symbol
  _atom_site_label
  _atom_site_symmetry_multiplicity
  _atom_site_fract_x
  _atom_site_fract_y
  _atom_site_fract_z
  _atom_site_occupancy
 _atom_site_charge
C   C1        1.0  0.97720  0.53680  0.29800  1.0000 0.61950983
C   C2        1.0  0.99050  0.51800  0.40530  1.0000 -0.140634765
C   C3        1.0  0.02570  0.82030  0.06210  1.0000 0.61950983
C   C4        1.0  0.01040  0.91450  0.03100  1.0000 -0.1606698941
C   C5        1.0  0.97050  0.40640  0.38870  1.0000 0.2186329801
C   C6        1.0  0.05400  0.01810  0.93500  1.0000 -0.0606312316
C   C7        1.0  0.74400  0.49000  0.03000  1.0000 0.4962130923
C   C8        1.0  0.61500  0.45600  0.00400  1.0000 -0.0903362829
C   C9        1.0  0.56490  0.52900  0.02200  1.0000 -0.0184498868
C   C10       1.0  0.61500  0.64300  0.07500  1.0000 -0.0334428415
C   C11       1.0  0.74300  0.71300  0.13300  1.0000 0.5217328508
C   C12       1.0  0.56900  0.34000  0.95100  1.0000 0.1542856235
Fe  Fe1       1.0  0.96171  0.42310  0.04120  1.0000 1.2820631702
Fe  Fe2       1.0  0.98070  0.71100  0.20900  1.0000 1.1459112604
N   N1        1.0  0.06520  0.93120  0.96430  1.0000 0.051639187
N   N2        1.0  0.54600  0.71400  0.08900  1.0000 -0.0737291436
O   O1        1.0  0.13140  0.43500  0.13060  1.0000 -0.7297050814
O   O2        1.0  0.00850  0.59120  0.09690  1.0000 -0.879950599
O   O3        1.0  0.25140  0.58000  0.38700  1.0000 -0.8571718853
O   O4        1.0  0.30500  0.33700  0.17100  1.0000 -0.8540087502
O   O5        1.0  0.18600  0.35800  0.30000  1.0000 -0.7666822533
O   O6        1.0  0.10150  0.16840  0.32910  1.0000 -0.588427798
O   O7        1.0  0.54800  0.25400  0.52600  1.0000 -0.7902274093
O   O8        1.0  0.33860  0.23710  0.48610  1.0000 -0.7902274093
O   O9        1.0  0.62970  0.43600  0.74200  1.0000 -0.8571718853
O   O10       1.0  0.28230  0.19730  0.26830  1.0000 -0.6092134278
O   O11       1.0  0.70200  0.37700  0.38700  1.0000 -0.6962217252
O   O12       1.0  0.51860  0.34420  0.20810  1.0000 -0.6725952487
O   O13       1.0  0.73360  0.45300  0.23760  1.0000 -0.5715111654
O   O14       1.0  0.76480  0.60500  0.47910  1.0000 -0.6608826976
O   O15       1.0  0.58490  0.56700  0.29040  1.0000 -0.7297050814
O   O16       1.0  0.50530  0.20490  0.30360  1.0000 -0.9458274703
O   O17       1.0  0.38700  0.39400  0.37900  1.0000 -0.4753705423
O   O18       1.0  0.56400  0.42500  0.55400  1.0000 -0.4564664524
O   O19       1.0  0.53900  0.43000  0.41600  1.0000 -0.3090706032
O   O20       1.0  0.57700  0.55600  0.46400  1.0000 -0.2897717218
O   O21       1.0  0.95080  0.44490  0.19660  1.0000 -0.5715111654
O   O22       1.0  0.99040  0.63970  0.31870  1.0000 -0.578509466
O   O23       1.0  0.07720  0.75390  0.01890  1.0000 -0.5353989761
O   O24       1.0  0.98090  0.81560  0.13290  1.0000 -0.6092134278
O   O25       1.0  0.78640  0.38980  0.96500  1.0000 -0.6092134278
O   O26       1.0  0.80490  0.62910  0.11470  1.0000 -0.4386547069
O   O27       1.0  0.76000  0.81100  0.16200  1.0000 -0.2667038303
W   W1        1.0  0.25107  0.45516  0.25093  1.0000 2.2332993586
N   N3        1.0  0.01960  0.61160  0.51740  1.0000 0.0398996163
W   W2        1.0  0.22934  0.28370  0.38997  1.0000 0.9962186653
W   W3        1.0  0.48364  0.31674  0.63036  1.0000 2.1307126124
W   W4        1.0  0.64562  0.28977  0.45292  1.0000 2.1837864954
W   W5        1.0  0.39006  0.23982  0.20232  1.0000 1.8500945408
W   W6        1.0  0.66323  0.48890  0.32829  1.0000 1.0303109724
C   C13       1.0  0.98040  0.38840  0.48260  1.0000 -0.1214826341
C   C14       1.0  0.93480  0.06880  0.03570  1.0000 -0.140634765
W   W7        1.0  0.24230  0.24230  0.35090  1.0000 0.871783479
W   W8        1.0  0.64890  0.43470  0.30850  1.0000 0.8918417532
C   C15       1.0  0.02280  0.46320  0.70200  1.0000 0.5798522074
C   C16       1.0  0.00950  0.48200  0.59470  1.0000 0.051639187
C   C17       1.0  0.97430  0.17970  0.93790  1.0000 0.5798522074
C   C18       1.0  0.98960  0.08550  0.96900  1.0000 0.0321571593
C   C19       1.0  0.02950  0.59360  0.61130  1.0000 -0.0411140222
C   C20       1.0  0.94600  0.98190  0.06500  1.0000 0.1993380625
C   C21       1.0  0.25600  0.51000  0.97000  1.0000 0.4962130923
C   C22       1.0  0.38500  0.54400  0.99600  1.0000 -0.0903362829
C   C23       1.0  0.43510  0.47100  0.97800  1.0000 -0.0184498868
C   C24       1.0  0.38500  0.35700  0.92500  1.0000 -0.0334428415
C   C25       1.0  0.25700  0.28700  0.86700  1.0000 0.5217328508
C   C26       1.0  0.43100  0.66000  0.04900  1.0000 0.1542856235
Fe  Fe3       1.0  0.03829  0.57690  0.95880  1.0000 1.2820631702
Fe  Fe4       1.0  0.01930  0.28900  0.79100  1.0000 1.1459112604
N   N4        1.0  0.45400  0.28600  0.91100  1.0000 -0.0763501946
O   O28       1.0  0.86860  0.56500  0.86940  1.0000 -0.7235823434
O   O29       1.0  0.99150  0.40880  0.90310  1.0000 -0.879950599
O   O30       1.0  0.74860  0.42000  0.61300  1.0000 -0.8571718853
O   O31       1.0  0.69500  0.66300  0.82900  1.0000 -0.8571718853
O   O32       1.0  0.81400  0.64200  0.70000  1.0000 -0.7666822533
O   O33       1.0  0.89850  0.83160  0.67090  1.0000 -0.588427798
O   O34       1.0  0.45200  0.74600  0.47400  1.0000 -0.7902274093
O   O35       1.0  0.66140  0.76290  0.51390  1.0000 -0.7847651403
O   O36       1.0  0.37030  0.56400  0.25800  1.0000 -0.8571718853
O   O37       1.0  0.71770  0.80270  0.73170  1.0000 -0.6092134278
O   O38       1.0  0.29800  0.62300  0.61300  1.0000 -0.6928312342
O   O39       1.0  0.48140  0.65580  0.79190  1.0000 -0.6725952487
O   O40       1.0  0.26640  0.54700  0.76240  1.0000 -0.5715111654
O   O41       1.0  0.23520  0.39500  0.52090  1.0000 -0.6608826976
O   O42       1.0  0.41510  0.43300  0.70960  1.0000 -0.7355318229
O   O43       1.0  0.49470  0.79510  0.69640  1.0000 -0.9458274703
O   O44       1.0  0.61300  0.60600  0.62100  1.0000 -0.4753705423
O   O45       1.0  0.43600  0.57500  0.44600  1.0000 -0.4564664524
O   O46       1.0  0.46100  0.57000  0.58400  1.0000 -0.3090706032
O   O47       1.0  0.42300  0.44400  0.53600  1.0000 -0.2897717218
O   O48       1.0  0.04920  0.55510  0.80340  1.0000 -0.5527937572
O   O49       1.0  0.00960  0.36030  0.68130  1.0000 -0.5715111654
O   O50       1.0  0.92280  0.24610  0.98110  1.0000 -0.5201136928
O   O51       1.0  0.01910  0.18440  0.86710  1.0000 -0.597702102
O   O52       1.0  0.21360  0.61020  0.03500  1.0000 -0.6092134278
O   O53       1.0  0.19510  0.37090  0.88530  1.0000 -0.4386547069
O   O54       1.0  0.24000  0.18900  0.83800  1.0000 -0.2667038303
W   W9        1.0  0.74893  0.54484  0.74907  1.0000 2.2332993586
W   W10       1.0  0.77066  0.71630  0.61003  1.0000 0.9946995814
W   W11       1.0  0.51636  0.68326  0.36964  1.0000 2.1361840803
W   W12       1.0  0.35438  0.71023  0.54708  1.0000 2.1837864954
W   W13       1.0  0.60994  0.76018  0.79768  1.0000 1.8406376679
W   W14       1.0  0.33677  0.51110  0.67171  1.0000 1.0303109724
W   W15       1.0  0.75770  0.75770  0.64910  1.0000 0.871783479
W   W16       1.0  0.35110  0.56530  0.69150  1.0000 0.9020151932
P   P1        1.0  0.50000  0.50000  0.50000  1.0000 0.7468281824
  C   C27       1.0  0.06520  0.93120  0.96430  1.0000
  C   C28       1.0  0.01960  0.61160  0.51740  1.0000
  N   N5        1.0  0.98040  0.38840  0.48260  1.0000
  N   N6        1.0  0.93480  0.06880  0.03570  1.0000
