# DDEC6 charges by PACMAN v1.1 (https://github.com/mtap-research/PACMAN-charge/)
data_ETAXIJ_ASR_pacman
_symmetry_space_group_name_H-M   'P 1'
_cell_length_a   11.72570000
_cell_length_b   16.48000000
_cell_length_c   18.26380000
_cell_angle_alpha   90.00000000
_cell_angle_beta   90.00000000
_cell_angle_gamma   90.00000000
_symmetry_Int_Tables_number   1
_chemical_formula_structural   Cd3Fe2H24(C7N3)6
_chemical_formula_sum   'Cd6 Fe4 H48 C84 N36'
_cell_volume   3529.28823760
_cell_formula_units_Z   2
loop_
 _symmetry_equiv_pos_site_id
 _symmetry_equiv_pos_as_xyz
  1  'x, y, z'
loop_
 _atom_site_type_symbol
 _atom_site_label
 _atom_site_symmetry_multiplicity
 _atom_site_fract_x
 _atom_site_fract_y
 _atom_site_fract_z
 _atom_site_occupancy
 _atom_site_charge
Cd  Cd1  1  0.50000000  0.11177000  0.32187000  1.0 0.8225304597
Cd  Cd2  1  0.50000000  0.88823000  0.67813000  1.0 0.8225304597
Cd  Cd3  1  0.50000000  0.38823000  0.82187000  1.0 0.826832395
Cd  Cd4  1  0.50000000  0.61177000  0.17813000  1.0 0.826832395
Cd  Cd5  1  0.50000000  0.50000000  0.50000000  1.0 0.7975441628
Cd  Cd6  1  0.50000000  0.00000000  0.00000000  1.0 0.7975441628
Fe  Fe1  1  0.50000000  0.19931000  0.60143000  1.0 0.1037371718
Fe  Fe2  1  0.50000000  0.80069000  0.39857000  1.0 0.1037371718
Fe  Fe3  1  0.50000000  0.30069000  0.10143000  1.0 0.107069692
Fe  Fe4  1  0.50000000  0.69931000  0.89857000  1.0 0.1037371718
H  H1  1  0.28280000  0.17470000  0.22700000  1.0 0.1191249917
H  H2  1  0.08680000  0.17020000  0.21980000  1.0 0.1428240476
H  H3  1  0.28320000  0.03350000  0.39790000  1.0 0.128617762
H  H4  1  0.08640000  0.57890000  0.41750000  1.0 0.1428240476
H  H5  1  0.28210000  0.57430000  0.41840000  1.0 0.1191249917
H  H6  1  0.08550000  0.02450000  0.39390000  1.0 0.1428240476
H  H7  1  0.28280000  0.82530000  0.77300000  1.0 0.1191249917
H  H8  1  0.08680000  0.82980000  0.78020000  1.0 0.1428240476
H  H9  1  0.28320000  0.96650000  0.60210000  1.0 0.128617762
H  H10  1  0.08640000  0.42110000  0.58250000  1.0 0.1428240476
H  H11  1  0.28210000  0.42570000  0.58160000  1.0 0.1191249917
H  H12  1  0.08550000  0.97550000  0.60610000  1.0 0.1428240476
H  H13  1  0.71720000  0.32530000  0.72700000  1.0 0.1191249917
H  H14  1  0.91320000  0.32980000  0.71980000  1.0 0.1428240476
H  H15  1  0.71680000  0.46650000  0.89790000  1.0 0.128617762
H  H16  1  0.91360000  0.92110000  0.91750000  1.0 0.1428240476
H  H17  1  0.71790000  0.92570000  0.91840000  1.0 0.1191249917
H  H18  1  0.91450000  0.47550000  0.89390000  1.0 0.1428240476
H  H19  1  0.71720000  0.67470000  0.27300000  1.0 0.1191249917
H  H20  1  0.91320000  0.67020000  0.28020000  1.0 0.1428240476
H  H21  1  0.71680000  0.53350000  0.10210000  1.0 0.128617762
H  H22  1  0.91360000  0.07890000  0.08250000  1.0 0.1428240476
H  H23  1  0.71790000  0.07430000  0.08160000  1.0 0.1191249917
H  H24  1  0.91450000  0.52450000  0.10610000  1.0 0.1428240476
H  H25  1  0.71720000  0.82530000  0.77300000  1.0 0.1191249917
H  H26  1  0.91320000  0.82980000  0.78020000  1.0 0.1428240476
H  H27  1  0.71680000  0.96650000  0.60210000  1.0 0.128617762
H  H28  1  0.91360000  0.42110000  0.58250000  1.0 0.1428240476
H  H29  1  0.71790000  0.42570000  0.58160000  1.0 0.1191249917
H  H30  1  0.91450000  0.97550000  0.60610000  1.0 0.1428240476
H  H31  1  0.71720000  0.17470000  0.22700000  1.0 0.1191249917
H  H32  1  0.91320000  0.17020000  0.21980000  1.0 0.1428240476
H  H33  1  0.71680000  0.03350000  0.39790000  1.0 0.128617762
H  H34  1  0.91360000  0.57890000  0.41750000  1.0 0.1428240476
H  H35  1  0.71790000  0.57430000  0.41840000  1.0 0.1191249917
H  H36  1  0.91450000  0.02450000  0.39390000  1.0 0.1428240476
H  H37  1  0.28280000  0.67470000  0.27300000  1.0 0.1191249917
H  H38  1  0.08680000  0.67020000  0.28020000  1.0 0.1428240476
H  H39  1  0.28320000  0.53350000  0.10210000  1.0 0.128617762
H  H40  1  0.08640000  0.07890000  0.08250000  1.0 0.1428240476
H  H41  1  0.28210000  0.07430000  0.08160000  1.0 0.1191249917
H  H42  1  0.08550000  0.52450000  0.10610000  1.0 0.1428240476
H  H43  1  0.28280000  0.32530000  0.72700000  1.0 0.1191249917
H  H44  1  0.08680000  0.32980000  0.71980000  1.0 0.1428240476
H  H45  1  0.28320000  0.46650000  0.89790000  1.0 0.128617762
H  H46  1  0.08640000  0.92110000  0.91750000  1.0 0.1428240476
H  H47  1  0.28210000  0.92570000  0.91840000  1.0 0.1191249917
H  H48  1  0.08550000  0.47550000  0.89390000  1.0 0.1428240476
C  C1  1  0.33350000  0.20040000  0.60140000  1.0 -0.0625488758
C  C2  1  0.06280000  0.09810000  0.30820000  1.0 0.1191249917
C  C3  1  0.24220000  0.14390000  0.26240000  1.0 0.0923041673
C  C4  1  0.12480000  0.14170000  0.25780000  1.0 -0.1788601102
C  C5  1  0.24290000  0.06220000  0.36100000  1.0 0.107069692
C  C6  1  0.12460000  0.54540000  0.45200000  1.0 -0.1906039156
C  C7  1  0.24170000  0.54280000  0.45350000  1.0 0.0804059059
C  C8  1  0.12400000  0.05730000  0.35900000  1.0 -0.1788601102
C  C9  1  0.33350000  0.79960000  0.39860000  1.0 -0.0625488758
C  C10  1  0.06280000  0.90190000  0.69180000  1.0 0.1191249917
C  C11  1  0.24220000  0.85610000  0.73760000  1.0 0.0923041673
C  C12  1  0.12480000  0.85830000  0.74220000  1.0 -0.1788601102
C  C13  1  0.24290000  0.93780000  0.63900000  1.0 0.107069692
C  C14  1  0.12460000  0.45460000  0.54800000  1.0 -0.1906039156
C  C15  1  0.24170000  0.45720000  0.54650000  1.0 0.0804059059
C  C16  1  0.12400000  0.94270000  0.64100000  1.0 -0.1788601102
C  C17  1  0.66650000  0.29960000  0.10140000  1.0 -0.0625488758
C  C18  1  0.93720000  0.40190000  0.80820000  1.0 0.1191249917
C  C19  1  0.75780000  0.35610000  0.76240000  1.0 0.0923041673
C  C20  1  0.87520000  0.35830000  0.75780000  1.0 -0.1788601102
C  C21  1  0.75710000  0.43780000  0.86100000  1.0 0.107069692
C  C22  1  0.87540000  0.95460000  0.95200000  1.0 -0.1906039156
C  C23  1  0.75830000  0.95720000  0.95350000  1.0 0.0804059059
C  C24  1  0.87600000  0.44270000  0.85900000  1.0 -0.1788601102
C  C25  1  0.66650000  0.70040000  0.89860000  1.0 -0.0625488758
C  C26  1  0.93720000  0.59810000  0.19180000  1.0 0.1191249917
C  C27  1  0.75780000  0.64390000  0.23760000  1.0 0.0923041673
C  C28  1  0.87520000  0.64170000  0.24220000  1.0 -0.1788601102
C  C29  1  0.75710000  0.56220000  0.13900000  1.0 0.107069692
C  C30  1  0.87540000  0.04540000  0.04800000  1.0 -0.1906039156
C  C31  1  0.75830000  0.04280000  0.04650000  1.0 0.0804059059
C  C32  1  0.87600000  0.55730000  0.14100000  1.0 -0.1788601102
C  C33  1  0.66650000  0.79960000  0.39860000  1.0 -0.0625488758
C  C34  1  0.93720000  0.90190000  0.69180000  1.0 0.1191249917
C  C35  1  0.75780000  0.85610000  0.73760000  1.0 0.0923041673
C  C36  1  0.87520000  0.85830000  0.74220000  1.0 -0.1788601102
C  C37  1  0.75710000  0.93780000  0.63900000  1.0 0.107069692
C  C38  1  0.87540000  0.45460000  0.54800000  1.0 -0.1906039156
C  C39  1  0.75830000  0.45720000  0.54650000  1.0 0.0804059059
C  C40  1  0.87600000  0.94270000  0.64100000  1.0 -0.1788601102
C  C41  1  0.66650000  0.20040000  0.60140000  1.0 -0.0625488758
C  C42  1  0.93720000  0.09810000  0.30820000  1.0 0.1191249917
C  C43  1  0.75780000  0.14390000  0.26240000  1.0 0.0923041673
C  C44  1  0.87520000  0.14170000  0.25780000  1.0 -0.1788601102
C  C45  1  0.75710000  0.06220000  0.36100000  1.0 0.107069692
C  C46  1  0.87540000  0.54540000  0.45200000  1.0 -0.1906039156
C  C47  1  0.75830000  0.54280000  0.45350000  1.0 0.0804059059
C  C48  1  0.87600000  0.05730000  0.35900000  1.0 -0.1788601102
C  C49  1  0.33350000  0.70040000  0.89860000  1.0 -0.0625488758
C  C50  1  0.06280000  0.59810000  0.19180000  1.0 0.1191249917
C  C51  1  0.24220000  0.64390000  0.23760000  1.0 0.0923041673
C  C52  1  0.12480000  0.64170000  0.24220000  1.0 -0.1788601102
C  C53  1  0.24290000  0.56220000  0.13900000  1.0 0.107069692
C  C54  1  0.12460000  0.04540000  0.04800000  1.0 -0.1906039156
C  C55  1  0.24170000  0.04280000  0.04650000  1.0 0.0804059059
C  C56  1  0.12400000  0.55730000  0.14100000  1.0 -0.1788601102
C  C57  1  0.33350000  0.29960000  0.10140000  1.0 -0.0625488758
C  C58  1  0.06280000  0.40190000  0.80820000  1.0 0.1191249917
C  C59  1  0.24220000  0.35610000  0.76240000  1.0 0.0923041673
C  C60  1  0.12480000  0.35830000  0.75780000  1.0 -0.1788601102
C  C61  1  0.24290000  0.43780000  0.86100000  1.0 0.107069692
C  C62  1  0.12460000  0.95460000  0.95200000  1.0 -0.1906039156
C  C63  1  0.24170000  0.95720000  0.95350000  1.0 0.0804059059
C  C64  1  0.12400000  0.44270000  0.85900000  1.0 -0.1788601102
C  C65  1  0.50000000  0.23960000  0.70070000  1.0 0.107069692
C  C66  1  0.50000000  0.08810000  0.63260000  1.0 0.128617762
C  C67  1  0.50000000  0.16520000  0.49940000  1.0 0.128617762
C  C68  1  0.50000000  0.30960000  0.56930000  1.0 0.1191249917
C  C69  1  0.50000000  0.76040000  0.29930000  1.0 0.1191249917
C  C70  1  0.50000000  0.91190000  0.36740000  1.0 0.128617762
C  C71  1  0.50000000  0.83480000  0.50060000  1.0 0.128617762
C  C72  1  0.50000000  0.69040000  0.43070000  1.0 0.128617762
C  C73  1  0.50000000  0.26040000  0.20070000  1.0 0.1191249917
C  C74  1  0.50000000  0.41190000  0.13260000  1.0 0.1191249917
C  C75  1  0.50000000  0.33480000  0.99940000  1.0 0.128617762
C  C76  1  0.50000000  0.19040000  0.06930000  1.0 0.1191249917
C  C77  1  0.50000000  0.73960000  0.79930000  1.0 0.1191249917
C  C78  1  0.50000000  0.58810000  0.86740000  1.0 0.1191249917
C  C79  1  0.50000000  0.66520000  0.00060000  1.0 0.128617762
C  C80  1  0.50000000  0.80960000  0.93070000  1.0 0.1191249917
C  C81  1  0.06360000  0.50000000  0.50000000  1.0 0.1191249917
C  C82  1  0.93640000  0.00000000  0.00000000  1.0 0.128617762
C  C83  1  0.93640000  0.50000000  0.50000000  1.0 0.128617762
C  C84  1  0.06360000  0.00000000  0.00000000  1.0 0.1191249917
N  N1  1  0.30090000  0.10590000  0.31300000  1.0 -0.2194062757
N  N2  1  0.23650000  0.20220000  0.60170000  1.0 -0.3875014447
N  N3  1  0.30090000  0.89410000  0.68700000  1.0 -0.2194062757
N  N4  1  0.23650000  0.79780000  0.39830000  1.0 -0.3875014447
N  N5  1  0.69910000  0.39410000  0.81300000  1.0 -0.2194062757
N  N6  1  0.76350000  0.29780000  0.10170000  1.0 -0.3875014447
N  N7  1  0.69910000  0.60590000  0.18700000  1.0 -0.2194062757
N  N8  1  0.76350000  0.70220000  0.89830000  1.0 -0.3875014447
N  N9  1  0.69910000  0.89410000  0.68700000  1.0 -0.2194062757
N  N10  1  0.76350000  0.79780000  0.39830000  1.0 -0.3875014447
N  N11  1  0.69910000  0.10590000  0.31300000  1.0 -0.2194062757
N  N12  1  0.76350000  0.20220000  0.60170000  1.0 -0.3875014447
N  N13  1  0.30090000  0.60590000  0.18700000  1.0 -0.2194062757
N  N14  1  0.23650000  0.70220000  0.89830000  1.0 -0.3875014447
N  N15  1  0.30090000  0.39410000  0.81300000  1.0 -0.2194062757
N  N16  1  0.23650000  0.29780000  0.10170000  1.0 -0.3875014447
N  N17  1  0.50000000  0.26970000  0.75740000  1.0 -0.4226151965
N  N18  1  0.50000000  0.15050000  0.43910000  1.0 -0.4039077945
N  N19  1  0.50000000  0.37650000  0.55430000  1.0 -0.4345857191
N  N20  1  0.50000000  0.02180000  0.64980000  1.0 -0.4105954903
N  N21  1  0.50000000  0.73030000  0.24260000  1.0 -0.4226151965
N  N22  1  0.50000000  0.84950000  0.56090000  1.0 -0.4039077945
N  N23  1  0.50000000  0.62350000  0.44570000  1.0 -0.4345857191
N  N24  1  0.50000000  0.97820000  0.35020000  1.0 -0.4105954903
N  N25  1  0.50000000  0.23030000  0.25740000  1.0 -0.4226151965
N  N26  1  0.50000000  0.34950000  0.93910000  1.0 -0.4105954903
N  N27  1  0.50000000  0.12350000  0.05430000  1.0 -0.4345857191
N  N28  1  0.50000000  0.47820000  0.14980000  1.0 -0.4105954903
N  N29  1  0.50000000  0.76970000  0.74260000  1.0 -0.4226151965
N  N30  1  0.50000000  0.65050000  0.06090000  1.0 -0.4105954903
N  N31  1  0.50000000  0.87650000  0.94570000  1.0 -0.4364544339
N  N32  1  0.50000000  0.52180000  0.85020000  1.0 -0.4105954903
N  N33  1  0.30090000  0.50000000  0.50000000  1.0 -0.2194062757
N  N34  1  0.69910000  0.00000000  0.00000000  1.0 -0.2194062757
N  N35  1  0.69910000  0.50000000  0.50000000  1.0 -0.2194062757
N  N36  1  0.30090000  0.00000000  0.00000000  1.0 -0.2194062757
