# DDEC6 charges by PACMAN v1.1 (https://github.com/mtap-research/PACMAN-charge/)
data_ETAYIK_ASR_pacman
_symmetry_space_group_name_H-M   'P 1'
_cell_length_a   8.66800000
_cell_length_b   14.85800000
_cell_length_c   39.43900000
_cell_angle_alpha   90.00000000
_cell_angle_beta   94.76000000
_cell_angle_gamma   90.00000000
_symmetry_Int_Tables_number   1
_chemical_formula_structural   CoCuH26C46(NO)4
_chemical_formula_sum   'Co4 Cu4 H104 C184 N16 O16'
_cell_volume   5061.79666815
_cell_formula_units_Z   4
loop_
 _symmetry_equiv_pos_site_id
 _symmetry_equiv_pos_as_xyz
  1  'x, y, z'
loop_
 _atom_site_type_symbol
 _atom_site_label
 _atom_site_symmetry_multiplicity
 _atom_site_fract_x
 _atom_site_fract_y
 _atom_site_fract_z
 _atom_site_occupancy
 _atom_site_charge
Co  Co1  1  0.50000000  0.21963000  0.25000000  1.0 1.0288030596
Co  Co2  1  0.50000000  0.78037000  0.75000000  1.0 1.0288030596
Co  Co3  1  0.00000000  0.69844000  0.75000000  1.0 0.9897273273
Co  Co4  1  0.00000000  0.30156000  0.25000000  1.0 0.9897273273
Cu  Cu1  1  0.73167000  0.60180000  0.48659000  1.0 0.622392276
Cu  Cu2  1  0.26833000  0.60180000  0.01341000  1.0 0.622392276
Cu  Cu3  1  0.26833000  0.39820000  0.51341000  1.0 0.622392276
Cu  Cu4  1  0.73167000  0.39820000  0.98659000  1.0 0.622392276
H  H1  1  0.44814000  0.35098000  0.41996000  1.0 0.1208860634
H  H2  1  0.55763000  0.27636000  0.47215000  1.0 0.1208860634
H  H3  1  0.99231000  0.37704000  0.56943000  1.0 0.1277328142
H  H4  1  0.06101000  0.52424000  0.59531000  1.0 0.1277328142
H  H5  1  0.88438000  0.86121000  0.56639000  1.0 0.1208860634
H  H6  1  0.78642000  0.93549000  0.51345000  1.0 0.1208860634
H  H7  1  0.60886000  0.81991000  0.38847000  1.0 0.1208860634
H  H8  1  0.52752000  0.67324000  0.36492000  1.0 0.1277328142
H  H9  1  0.66561000  0.44919000  0.36157000  1.0 0.1208860634
H  H10  1  0.55454000  0.38522000  0.31230000  1.0 0.1277328142
H  H11  1  0.13877000  0.47076000  0.33548000  1.0 0.1208860634
H  H12  1  0.25320000  0.53510000  0.38462000  1.0 0.1208860634
H  H13  1  0.86425000  0.23526000  0.48376000  1.0 0.1113311455
H  H14  1  0.88249000  0.08755000  0.50325000  1.0 0.1113311455
H  H15  1  0.82072000  0.05248000  0.55702000  1.0 0.1113311455
H  H16  1  0.72515000  0.16260000  0.59193000  1.0 0.1113311455
H  H17  1  0.70230000  0.31030000  0.57250000  1.0 0.1113311455
H  H18  1  0.77969000  0.73216000  0.61701000  1.0 0.1208860634
H  H19  1  0.88762000  0.77005000  0.67039000  1.0 0.1277328142
H  H20  1  0.31127000  0.73299000  0.64001000  1.0 0.1208860634
H  H21  1  0.20326000  0.69181000  0.58660000  1.0 0.1208860634
H  H22  1  0.50696000  0.94749000  0.47156000  1.0 0.1208860634
H  H23  1  0.48472000  0.09635000  0.45452000  1.0 0.1208860634
H  H24  1  0.65973000  0.15475000  0.41904000  1.0 0.1208860634
H  H25  1  0.85563000  0.06481000  0.40106000  1.0 0.1208860634
H  H26  1  0.87374000  0.91523000  0.41797000  1.0 0.1208860634
H  H27  1  0.55186000  0.35098000  0.08004000  1.0 0.1208860634
H  H28  1  0.44237000  0.27636000  0.02785000  1.0 0.1208860634
H  H29  1  0.00769000  0.37704000  0.93057000  1.0 0.1277328142
H  H30  1  0.93899000  0.52424000  0.90469000  1.0 0.1277328142
H  H31  1  0.11562000  0.86121000  0.93361000  1.0 0.1208860634
H  H32  1  0.21358000  0.93549000  0.98655000  1.0 0.1208860634
H  H33  1  0.39114000  0.81991000  0.11153000  1.0 0.1208860634
H  H34  1  0.47248000  0.67324000  0.13508000  1.0 0.1277328142
H  H35  1  0.33439000  0.44919000  0.13843000  1.0 0.1208860634
H  H36  1  0.44546000  0.38522000  0.18770000  1.0 0.1277328142
H  H37  1  0.86123000  0.47076000  0.16452000  1.0 0.1208860634
H  H38  1  0.74680000  0.53510000  0.11538000  1.0 0.1208860634
H  H39  1  0.13575000  0.23526000  0.01624000  1.0 0.1113311455
H  H40  1  0.11751000  0.08755000  0.99675000  1.0 0.1113311455
H  H41  1  0.17928000  0.05248000  0.94298000  1.0 0.1113311455
H  H42  1  0.27485000  0.16260000  0.90807000  1.0 0.1113311455
H  H43  1  0.29770000  0.31030000  0.92750000  1.0 0.1113311455
H  H44  1  0.22031000  0.73216000  0.88299000  1.0 0.1208860634
H  H45  1  0.11238000  0.77005000  0.82961000  1.0 0.1277328142
H  H46  1  0.68873000  0.73299000  0.85999000  1.0 0.1208860634
H  H47  1  0.79674000  0.69181000  0.91340000  1.0 0.1208860634
H  H48  1  0.49304000  0.94749000  0.02844000  1.0 0.1208860634
H  H49  1  0.51528000  0.09635000  0.04548000  1.0 0.1208860634
H  H50  1  0.34027000  0.15475000  0.08096000  1.0 0.1208860634
H  H51  1  0.14437000  0.06481000  0.09894000  1.0 0.1208860634
H  H52  1  0.12626000  0.91523000  0.08203000  1.0 0.1208860634
H  H53  1  0.55186000  0.64902000  0.58004000  1.0 0.1208860634
H  H54  1  0.44237000  0.72364000  0.52785000  1.0 0.1208860634
H  H55  1  0.00769000  0.62296000  0.43057000  1.0 0.1277328142
H  H56  1  0.93899000  0.47576000  0.40469000  1.0 0.1277328142
H  H57  1  0.11562000  0.13879000  0.43361000  1.0 0.1208860634
H  H58  1  0.21358000  0.06451000  0.48655000  1.0 0.1208860634
H  H59  1  0.39114000  0.18009000  0.61153000  1.0 0.1208860634
H  H60  1  0.47248000  0.32676000  0.63508000  1.0 0.1277328142
H  H61  1  0.33439000  0.55081000  0.63843000  1.0 0.1208860634
H  H62  1  0.44546000  0.61478000  0.68770000  1.0 0.1277328142
H  H63  1  0.86123000  0.52924000  0.66452000  1.0 0.1208860634
H  H64  1  0.74680000  0.46490000  0.61538000  1.0 0.1208860634
H  H65  1  0.13575000  0.76474000  0.51624000  1.0 0.1113311455
H  H66  1  0.11751000  0.91245000  0.49675000  1.0 0.1113311455
H  H67  1  0.17928000  0.94752000  0.44298000  1.0 0.1113311455
H  H68  1  0.27485000  0.83740000  0.40807000  1.0 0.1113311455
H  H69  1  0.29770000  0.68970000  0.42750000  1.0 0.1113311455
H  H70  1  0.22031000  0.26784000  0.38299000  1.0 0.1208860634
H  H71  1  0.11238000  0.22995000  0.32961000  1.0 0.1277328142
H  H72  1  0.68873000  0.26701000  0.35999000  1.0 0.1208860634
H  H73  1  0.79674000  0.30819000  0.41340000  1.0 0.1208860634
H  H74  1  0.49304000  0.05251000  0.52844000  1.0 0.1208860634
H  H75  1  0.51528000  0.90365000  0.54548000  1.0 0.1208860634
H  H76  1  0.34027000  0.84525000  0.58096000  1.0 0.1208860634
H  H77  1  0.14437000  0.93519000  0.59894000  1.0 0.1208860634
H  H78  1  0.12626000  0.08477000  0.58203000  1.0 0.1208860634
H  H79  1  0.44814000  0.64902000  0.91996000  1.0 0.1208860634
H  H80  1  0.55763000  0.72364000  0.97215000  1.0 0.1208860634
H  H81  1  0.99231000  0.62296000  0.06943000  1.0 0.1277328142
H  H82  1  0.06101000  0.47576000  0.09531000  1.0 0.1277328142
H  H83  1  0.88438000  0.13879000  0.06639000  1.0 0.1208860634
H  H84  1  0.78642000  0.06451000  0.01345000  1.0 0.1208860634
H  H85  1  0.60886000  0.18009000  0.88847000  1.0 0.1208860634
H  H86  1  0.52752000  0.32676000  0.86492000  1.0 0.1277328142
H  H87  1  0.66561000  0.55081000  0.86157000  1.0 0.1208860634
H  H88  1  0.55454000  0.61478000  0.81230000  1.0 0.1277328142
H  H89  1  0.13877000  0.52924000  0.83548000  1.0 0.1208860634
H  H90  1  0.25320000  0.46490000  0.88462000  1.0 0.1208860634
H  H91  1  0.86425000  0.76474000  0.98376000  1.0 0.1113311455
H  H92  1  0.88249000  0.91245000  0.00325000  1.0 0.1113311455
H  H93  1  0.82072000  0.94752000  0.05702000  1.0 0.1113311455
H  H94  1  0.72515000  0.83740000  0.09193000  1.0 0.1113311455
H  H95  1  0.70230000  0.68970000  0.07250000  1.0 0.1113311455
H  H96  1  0.77969000  0.26784000  0.11701000  1.0 0.1208860634
H  H97  1  0.88762000  0.22995000  0.17039000  1.0 0.1277328142
H  H98  1  0.31127000  0.26701000  0.14001000  1.0 0.1208860634
H  H99  1  0.20326000  0.30819000  0.08660000  1.0 0.1208860634
H  H100  1  0.50696000  0.05251000  0.97156000  1.0 0.1208860634
H  H101  1  0.48472000  0.90365000  0.95452000  1.0 0.1208860634
H  H102  1  0.65973000  0.84525000  0.91904000  1.0 0.1208860634
H  H103  1  0.85563000  0.93519000  0.90106000  1.0 0.1208860634
H  H104  1  0.87374000  0.08477000  0.91797000  1.0 0.1208860634
C  C1  1  0.54620000  0.53050000  0.41170000  1.0 -0.0686581895
C  C2  1  0.57080000  0.46860000  0.43832000  1.0 0.1861289457
C  C3  1  0.51440000  0.37710000  0.43732000  1.0 -0.1803846567
C  C4  1  0.57420000  0.33630000  0.46574000  1.0 -0.2014131704
C  C5  1  0.66880000  0.40210000  0.48462000  1.0 0.1774335091
C  C6  1  0.76640000  0.38350000  0.51391000  1.0 -0.0686581895
C  C7  1  0.84980000  0.44990000  0.53264000  1.0 0.1774335091
C  C8  1  0.95600000  0.43360000  0.56159000  1.0 -0.2014131704
C  C9  1  0.99460000  0.51390000  0.57562000  1.0 -0.1803846567
C  C10  1  0.91460000  0.58070000  0.55463000  1.0 0.1861289457
C  C11  1  0.91080000  0.67320000  0.56223000  1.0 -0.0768093172
C  C12  1  0.84450000  0.73740000  0.53975000  1.0 0.1774335091
C  C13  1  0.84970000  0.83260000  0.54589000  1.0 -0.1935374795
C  C14  1  0.79600000  0.87310000  0.51699000  1.0 -0.2014131704
C  C15  1  0.75590000  0.80450000  0.49248000  1.0 0.1774335091
C  C16  1  0.70470000  0.81980000  0.45852000  1.0 -0.0686581895
C  C17  1  0.66280000  0.75180000  0.43550000  1.0 0.1715980114
C  C18  1  0.61120000  0.76490000  0.40031000  1.0 -0.1803846567
C  C19  1  0.56710000  0.68500000  0.38740000  1.0 -0.1803846567
C  C20  1  0.59140000  0.62070000  0.41433000  1.0 0.1715980114
C  C21  1  0.46980000  0.49660000  0.37870000  1.0 0.0871849722
C  C22  1  0.55790000  0.45310000  0.35652000  1.0 -0.1514522306
C  C23  1  0.49180000  0.41520000  0.32700000  1.0 -0.0903806127
C  C24  1  0.33600000  0.42080000  0.31884000  1.0 -0.0177103922
C  C25  1  0.24630000  0.46580000  0.34066000  1.0 -0.0994215681
C  C26  1  0.31500000  0.50360000  0.37011000  1.0 -0.1514522306
C  C27  1  0.26290000  0.37390000  0.28761000  1.0 0.5822401137
C  C28  1  0.78020000  0.28930000  0.52611000  1.0 0.0871849722
C  C29  1  0.83540000  0.22120000  0.50559000  1.0 -0.1291122271
C  C30  1  0.84760000  0.13290000  0.51736000  1.0 -0.0903806127
C  C31  1  0.80930000  0.11200000  0.54912000  1.0 -0.1198098793
C  C32  1  0.75330000  0.17760000  0.57013000  1.0 -0.0994215681
C  C33  1  0.73970000  0.26570000  0.55838000  1.0 -0.1291122271
C  C34  1  0.97950000  0.70370000  0.59654000  1.0 0.0871849722
C  C35  1  0.88780000  0.73020000  0.62167000  1.0 -0.1514522306
C  C36  1  0.95230000  0.75380000  0.65341000  1.0 -0.0903806127
C  C37  1  0.10940000  0.75380000  0.66063000  1.0 -0.0177103922
C  C38  1  0.20310000  0.73150000  0.63554000  1.0 -0.0994215681
C  C39  1  0.13830000  0.70680000  0.60369000  1.0 -0.1616106986
C  C40  1  0.17980000  0.77350000  0.69672000  1.0 0.5919370145
C  C41  1  0.69150000  0.91570000  0.44661000  1.0 0.0839499549
C  C42  1  0.57780000  0.97100000  0.45708000  1.0 -0.1514522306
C  C43  1  0.56400000  0.06000000  0.44707000  1.0 -0.0903806127
C  C44  1  0.66780000  0.09440000  0.42609000  1.0 -0.0994215681
C  C45  1  0.78410000  0.04090000  0.41529000  1.0 -0.0903806127
C  C46  1  0.79490000  0.95170000  0.42551000  1.0 -0.1514522306
C  C47  1  0.45380000  0.53050000  0.08830000  1.0 -0.0686581895
C  C48  1  0.42920000  0.46860000  0.06168000  1.0 0.1861289457
C  C49  1  0.48560000  0.37710000  0.06268000  1.0 -0.1803846567
C  C50  1  0.42580000  0.33630000  0.03426000  1.0 -0.2014131704
C  C51  1  0.33120000  0.40210000  0.01538000  1.0 0.1774335091
C  C52  1  0.23360000  0.38350000  0.98609000  1.0 -0.0686581895
C  C53  1  0.15020000  0.44990000  0.96736000  1.0 0.1774335091
C  C54  1  0.04400000  0.43360000  0.93841000  1.0 -0.2014131704
C  C55  1  0.00540000  0.51390000  0.92438000  1.0 -0.1803846567
C  C56  1  0.08540000  0.58070000  0.94537000  1.0 0.1861289457
C  C57  1  0.08920000  0.67320000  0.93777000  1.0 -0.0768093172
C  C58  1  0.15550000  0.73740000  0.96025000  1.0 0.1774335091
C  C59  1  0.15030000  0.83260000  0.95411000  1.0 -0.1935374795
C  C60  1  0.20400000  0.87310000  0.98301000  1.0 -0.2014131704
C  C61  1  0.24410000  0.80450000  0.00752000  1.0 0.1774335091
C  C62  1  0.29530000  0.81980000  0.04148000  1.0 -0.0686581895
C  C63  1  0.33720000  0.75180000  0.06450000  1.0 0.1715980114
C  C64  1  0.38880000  0.76490000  0.09969000  1.0 -0.1803846567
C  C65  1  0.43290000  0.68500000  0.11260000  1.0 -0.1803846567
C  C66  1  0.40860000  0.62070000  0.08567000  1.0 0.1715980114
C  C67  1  0.53020000  0.49660000  0.12130000  1.0 0.0871849722
C  C68  1  0.44210000  0.45310000  0.14348000  1.0 -0.1514522306
C  C69  1  0.50820000  0.41520000  0.17300000  1.0 -0.0903806127
C  C70  1  0.66400000  0.42080000  0.18116000  1.0 -0.0177103922
C  C71  1  0.75370000  0.46580000  0.15934000  1.0 -0.0994215681
C  C72  1  0.68500000  0.50360000  0.12989000  1.0 -0.1514522306
C  C73  1  0.73710000  0.37390000  0.21239000  1.0 0.5822401137
C  C74  1  0.21980000  0.28930000  0.97389000  1.0 0.0871849722
C  C75  1  0.16460000  0.22120000  0.99441000  1.0 -0.1291122271
C  C76  1  0.15240000  0.13290000  0.98264000  1.0 -0.0903806127
C  C77  1  0.19070000  0.11200000  0.95088000  1.0 -0.1198098793
C  C78  1  0.24670000  0.17760000  0.92987000  1.0 -0.0994215681
C  C79  1  0.26030000  0.26570000  0.94162000  1.0 -0.1291122271
C  C80  1  0.02050000  0.70370000  0.90346000  1.0 0.0871849722
C  C81  1  0.11220000  0.73020000  0.87833000  1.0 -0.1514522306
C  C82  1  0.04770000  0.75380000  0.84659000  1.0 -0.0903806127
C  C83  1  0.89060000  0.75380000  0.83937000  1.0 -0.0177103922
C  C84  1  0.79690000  0.73150000  0.86446000  1.0 -0.0994215681
C  C85  1  0.86170000  0.70680000  0.89631000  1.0 -0.1616106986
C  C86  1  0.82020000  0.77350000  0.80328000  1.0 0.5919370145
C  C87  1  0.30850000  0.91570000  0.05339000  1.0 0.0839499549
C  C88  1  0.42220000  0.97100000  0.04292000  1.0 -0.1514522306
C  C89  1  0.43600000  0.06000000  0.05293000  1.0 -0.0903806127
C  C90  1  0.33220000  0.09440000  0.07391000  1.0 -0.0994215681
C  C91  1  0.21590000  0.04090000  0.08471000  1.0 -0.0903806127
C  C92  1  0.20510000  0.95170000  0.07449000  1.0 -0.1514522306
C  C93  1  0.45380000  0.46950000  0.58830000  1.0 -0.0686581895
C  C94  1  0.42920000  0.53140000  0.56168000  1.0 0.1861289457
C  C95  1  0.48560000  0.62290000  0.56268000  1.0 -0.1803846567
C  C96  1  0.42580000  0.66370000  0.53426000  1.0 -0.2014131704
C  C97  1  0.33120000  0.59790000  0.51538000  1.0 0.1774335091
C  C98  1  0.23360000  0.61650000  0.48609000  1.0 -0.0686581895
C  C99  1  0.15020000  0.55010000  0.46736000  1.0 0.1774335091
C  C100  1  0.04400000  0.56640000  0.43841000  1.0 -0.2014131704
C  C101  1  0.00540000  0.48610000  0.42438000  1.0 -0.1803846567
C  C102  1  0.08540000  0.41930000  0.44537000  1.0 0.1861289457
C  C103  1  0.08920000  0.32680000  0.43777000  1.0 -0.0768093172
C  C104  1  0.15550000  0.26260000  0.46025000  1.0 0.1774335091
C  C105  1  0.15030000  0.16740000  0.45411000  1.0 -0.1935374795
C  C106  1  0.20400000  0.12690000  0.48301000  1.0 -0.2014131704
C  C107  1  0.24410000  0.19550000  0.50752000  1.0 0.1774335091
C  C108  1  0.29530000  0.18020000  0.54148000  1.0 -0.0686581895
C  C109  1  0.33720000  0.24820000  0.56450000  1.0 0.1715980114
C  C110  1  0.38880000  0.23510000  0.59969000  1.0 -0.1803846567
C  C111  1  0.43290000  0.31500000  0.61260000  1.0 -0.1803846567
C  C112  1  0.40860000  0.37930000  0.58567000  1.0 0.1715980114
C  C113  1  0.53020000  0.50340000  0.62130000  1.0 0.0871849722
C  C114  1  0.44210000  0.54690000  0.64348000  1.0 -0.1514522306
C  C115  1  0.50820000  0.58480000  0.67300000  1.0 -0.0903806127
C  C116  1  0.66400000  0.57920000  0.68116000  1.0 -0.0177103922
C  C117  1  0.75370000  0.53420000  0.65934000  1.0 -0.0994215681
C  C118  1  0.68500000  0.49640000  0.62989000  1.0 -0.1514522306
C  C119  1  0.73710000  0.62610000  0.71239000  1.0 0.5822401137
C  C120  1  0.21980000  0.71070000  0.47389000  1.0 0.0871849722
C  C121  1  0.16460000  0.77880000  0.49441000  1.0 -0.1291122271
C  C122  1  0.15240000  0.86710000  0.48264000  1.0 -0.0903806127
C  C123  1  0.19070000  0.88800000  0.45088000  1.0 -0.1198098793
C  C124  1  0.24670000  0.82240000  0.42987000  1.0 -0.0994215681
C  C125  1  0.26030000  0.73430000  0.44162000  1.0 -0.1291122271
C  C126  1  0.02050000  0.29630000  0.40346000  1.0 0.0871849722
C  C127  1  0.11220000  0.26980000  0.37833000  1.0 -0.1514522306
C  C128  1  0.04770000  0.24620000  0.34659000  1.0 -0.0903806127
C  C129  1  0.89060000  0.24620000  0.33937000  1.0 -0.0177103922
C  C130  1  0.79690000  0.26850000  0.36446000  1.0 -0.0994215681
C  C131  1  0.86170000  0.29320000  0.39631000  1.0 -0.1616106986
C  C132  1  0.82020000  0.22650000  0.30328000  1.0 0.5919370145
C  C133  1  0.30850000  0.08430000  0.55339000  1.0 0.0839499549
C  C134  1  0.42220000  0.02900000  0.54292000  1.0 -0.1514522306
C  C135  1  0.43600000  0.94000000  0.55293000  1.0 -0.0903806127
C  C136  1  0.33220000  0.90560000  0.57391000  1.0 -0.0994215681
C  C137  1  0.21590000  0.95910000  0.58471000  1.0 -0.0903806127
C  C138  1  0.20510000  0.04830000  0.57449000  1.0 -0.1514522306
C  C139  1  0.54620000  0.46950000  0.91170000  1.0 -0.0686581895
C  C140  1  0.57080000  0.53140000  0.93832000  1.0 0.1861289457
C  C141  1  0.51440000  0.62290000  0.93732000  1.0 -0.1803846567
C  C142  1  0.57420000  0.66370000  0.96574000  1.0 -0.2014131704
C  C143  1  0.66880000  0.59790000  0.98462000  1.0 0.1774335091
C  C144  1  0.76640000  0.61650000  0.01391000  1.0 -0.0686581895
C  C145  1  0.84980000  0.55010000  0.03264000  1.0 0.1774335091
C  C146  1  0.95600000  0.56640000  0.06159000  1.0 -0.2014131704
C  C147  1  0.99460000  0.48610000  0.07562000  1.0 -0.1803846567
C  C148  1  0.91460000  0.41930000  0.05463000  1.0 0.1861289457
C  C149  1  0.91080000  0.32680000  0.06223000  1.0 -0.0768093172
C  C150  1  0.84450000  0.26260000  0.03975000  1.0 0.1774335091
C  C151  1  0.84970000  0.16740000  0.04589000  1.0 -0.1935374795
C  C152  1  0.79600000  0.12690000  0.01699000  1.0 -0.2014131704
C  C153  1  0.75590000  0.19550000  0.99248000  1.0 0.1774335091
C  C154  1  0.70470000  0.18020000  0.95852000  1.0 -0.0686581895
C  C155  1  0.66280000  0.24820000  0.93550000  1.0 0.1715980114
C  C156  1  0.61120000  0.23510000  0.90031000  1.0 -0.1803846567
C  C157  1  0.56710000  0.31500000  0.88740000  1.0 -0.1803846567
C  C158  1  0.59140000  0.37930000  0.91433000  1.0 0.1715980114
C  C159  1  0.46980000  0.50340000  0.87870000  1.0 0.0871849722
C  C160  1  0.55790000  0.54690000  0.85652000  1.0 -0.1514522306
C  C161  1  0.49180000  0.58480000  0.82700000  1.0 -0.0903806127
C  C162  1  0.33600000  0.57920000  0.81884000  1.0 -0.0177103922
C  C163  1  0.24630000  0.53420000  0.84066000  1.0 -0.0994215681
C  C164  1  0.31500000  0.49640000  0.87011000  1.0 -0.1514522306
C  C165  1  0.26290000  0.62610000  0.78761000  1.0 0.5822401137
C  C166  1  0.78020000  0.71070000  0.02611000  1.0 0.0871849722
C  C167  1  0.83540000  0.77880000  0.00559000  1.0 -0.1291122271
C  C168  1  0.84760000  0.86710000  0.01736000  1.0 -0.0903806127
C  C169  1  0.80930000  0.88800000  0.04912000  1.0 -0.1198098793
C  C170  1  0.75330000  0.82240000  0.07013000  1.0 -0.0994215681
C  C171  1  0.73970000  0.73430000  0.05838000  1.0 -0.1291122271
C  C172  1  0.97950000  0.29630000  0.09654000  1.0 0.0871849722
C  C173  1  0.88780000  0.26980000  0.12167000  1.0 -0.1514522306
C  C174  1  0.95230000  0.24620000  0.15341000  1.0 -0.0903806127
C  C175  1  0.10940000  0.24620000  0.16063000  1.0 -0.0177103922
C  C176  1  0.20310000  0.26850000  0.13554000  1.0 -0.0994215681
C  C177  1  0.13830000  0.29320000  0.10369000  1.0 -0.1616106986
C  C178  1  0.17980000  0.22650000  0.19672000  1.0 0.5919370145
C  C179  1  0.69150000  0.08430000  0.94661000  1.0 0.0839499549
C  C180  1  0.57780000  0.02900000  0.95708000  1.0 -0.1514522306
C  C181  1  0.56400000  0.94000000  0.94707000  1.0 -0.0903806127
C  C182  1  0.66780000  0.90560000  0.92609000  1.0 -0.0994215681
C  C183  1  0.78410000  0.95910000  0.91529000  1.0 -0.0903806127
C  C184  1  0.79490000  0.04830000  0.92551000  1.0 -0.1514522306
N  N1  1  0.65500000  0.66120000  0.44355000  1.0 -0.3858754545
N  N2  1  0.65810000  0.48400000  0.46818000  1.0 -0.369307509
N  N3  1  0.83210000  0.54120000  0.52747000  1.0 -0.369307509
N  N4  1  0.78290000  0.72100000  0.50720000  1.0 -0.3819165438
N  N5  1  0.34500000  0.66120000  0.05645000  1.0 -0.3858754545
N  N6  1  0.34190000  0.48400000  0.03182000  1.0 -0.369307509
N  N7  1  0.16790000  0.54120000  0.97253000  1.0 -0.369307509
N  N8  1  0.21710000  0.72100000  0.99280000  1.0 -0.3819165438
N  N9  1  0.34500000  0.33880000  0.55645000  1.0 -0.3858754545
N  N10  1  0.34190000  0.51600000  0.53182000  1.0 -0.369307509
N  N11  1  0.16790000  0.45880000  0.47253000  1.0 -0.369307509
N  N12  1  0.21710000  0.27900000  0.49280000  1.0 -0.3819165438
N  N13  1  0.65500000  0.33880000  0.94355000  1.0 -0.3858754545
N  N14  1  0.65810000  0.51600000  0.96818000  1.0 -0.369307509
N  N15  1  0.83210000  0.45880000  0.02747000  1.0 -0.369307509
N  N16  1  0.78290000  0.27900000  0.00720000  1.0 -0.3819165438
O  O1  1  0.34570000  0.32720000  0.27077000  1.0 -0.5508361766
O  O2  1  0.12040000  0.38340000  0.28081000  1.0 -0.5508361766
O  O3  1  0.08960000  0.78380000  0.71967000  1.0 -0.5630928784
O  O4  1  0.32280000  0.77700000  0.70085000  1.0 -0.5508361766
O  O5  1  0.65430000  0.32720000  0.22923000  1.0 -0.5508361766
O  O6  1  0.87960000  0.38340000  0.21919000  1.0 -0.5508361766
O  O7  1  0.91040000  0.78380000  0.78033000  1.0 -0.5630928784
O  O8  1  0.67720000  0.77700000  0.79915000  1.0 -0.5508361766
O  O9  1  0.65430000  0.67280000  0.72923000  1.0 -0.5508361766
O  O10  1  0.87960000  0.61660000  0.71919000  1.0 -0.5508361766
O  O11  1  0.91040000  0.21620000  0.28033000  1.0 -0.5630928784
O  O12  1  0.67720000  0.22300000  0.29915000  1.0 -0.5508361766
O  O13  1  0.34570000  0.67280000  0.77077000  1.0 -0.5508361766
O  O14  1  0.12040000  0.61660000  0.78081000  1.0 -0.5508361766
O  O15  1  0.08960000  0.21620000  0.21967000  1.0 -0.5630928784
O  O16  1  0.32280000  0.22300000  0.20085000  1.0 -0.5508361766
