# DDEC6 charges by PACMAN v1.1 (https://github.com/mtap-research/PACMAN-charge/)
data_ETEMEX_ASR_pacman
_symmetry_space_group_name_H-M   'P 1'
_cell_length_a   10.79980000
_cell_length_b   14.57310000
_cell_length_c   17.05900000
_cell_angle_alpha   101.59900000
_cell_angle_beta   89.43800000
_cell_angle_gamma   96.96100000
_symmetry_Int_Tables_number   1
_chemical_formula_structural   Co4H23C36N9O25
_chemical_formula_sum   'Co8 H46 C72 N18 O50'
_cell_volume   2610.35038377
_cell_formula_units_Z   2
loop_
 _symmetry_equiv_pos_site_id
 _symmetry_equiv_pos_as_xyz
  1  'x, y, z'
loop_
 _atom_site_type_symbol
 _atom_site_label
 _atom_site_symmetry_multiplicity
 _atom_site_fract_x
 _atom_site_fract_y
 _atom_site_fract_z
 _atom_site_occupancy
 _atom_site_charge
Co  Co1  1  0.73240000  0.88879000  0.49165000  1.0 0.9201995645
Co  Co2  1  0.26760000  0.11121000  0.50835000  1.0 0.9201995645
Co  Co3  1  0.50722000  0.01918000  0.59397000  1.0 0.9374506586
Co  Co4  1  0.49278000  0.98082000  0.40603000  1.0 0.9374506586
Co  Co5  1  0.26338000  0.58668000  0.02526000  1.0 0.9346240673
Co  Co6  1  0.73662000  0.41332000  0.97474000  1.0 0.9374506586
Co  Co7  1  0.49938000  0.46401000  0.08195000  1.0 0.9542597149
Co  Co8  1  0.50062000  0.53599000  0.91805000  1.0 0.9542597149
H  H1  1  0.95740000  0.05220000  0.45210000  1.0 0.1307996888
H  H2  1  0.04260000  0.94780000  0.54790000  1.0 0.1307996888
H  H3  1  0.69040000  0.16650000  0.36640000  1.0 0.1179547714
H  H4  1  0.30960000  0.83350000  0.63360000  1.0 0.1179547714
H  H5  1  0.02740000  0.21600000  0.42210000  1.0 0.1401381761
H  H6  1  0.97260000  0.78400000  0.57790000  1.0 0.1401381761
H  H7  1  0.91740000  0.27870000  0.42170000  1.0 0.1179547714
H  H8  1  0.08260000  0.72130000  0.57830000  1.0 0.1179547714
H  H9  1  0.83070000  0.29580000  0.29290000  1.0 0.1179547714
H  H10  1  0.16930000  0.70420000  0.70710000  1.0 0.1179547714
H  H11  1  0.86500000  0.29740000  0.15890000  1.0 0.1307996888
H  H12  1  0.13500000  0.70260000  0.84110000  1.0 0.1307996888
H  H13  1  0.15400000  0.14890000  0.16250000  1.0 0.1082767262
H  H14  1  0.84600000  0.85110000  0.83750000  1.0 0.1082767262
H  H15  1  0.12100000  0.14800000  0.29610000  1.0 0.1307996888
H  H16  1  0.87900000  0.85200000  0.70390000  1.0 0.1307996888
H  H17  1  0.06720000  0.16830000  0.03250000  1.0 0.092618767
H  H18  1  0.93280000  0.83170000  0.96750000  1.0 0.092618767
H  H19  1  0.96060000  0.23450000  0.03370000  1.0 0.1401381761
H  H20  1  0.03940000  0.76550000  0.96630000  1.0 0.1401381761
H  H21  1  0.03410000  0.41450000  0.04220000  1.0 0.1401381761
H  H22  1  0.96590000  0.58550000  0.95780000  1.0 0.1401381761
H  H23  1  0.29990000  0.26020000  0.06830000  1.0 0.1082767262
H  H24  1  0.70010000  0.73980000  0.93170000  1.0 0.1082767262
H  H25  1  0.24780000  0.79230000  0.27300000  1.0 0.1179547714
H  H26  1  0.75220000  0.20770000  0.72700000  1.0 0.1179547714
H  H27  1  0.95730000  0.77020000  0.12090000  1.0 0.1179547714
H  H28  1  0.04270000  0.22980000  0.87910000  1.0 0.1179547714
H  H29  1  0.00490000  0.98550000  0.31240000  1.0 0.1179547714
H  H30  1  0.99510000  0.01450000  0.68760000  1.0 0.1179547714
H  H31  1  0.73460000  0.66870000  0.25120000  1.0 0.1401381761
H  H32  1  0.26540000  0.33130000  0.74880000  1.0 0.1401381761
H  H33  1  0.04310000  0.68810000  0.38910000  1.0 0.092618767
H  H34  1  0.95690000  0.31190000  0.61090000  1.0 0.092618767
H  H35  1  0.98850000  0.48690000  0.18700000  1.0 0.1082767262
H  H36  1  0.01150000  0.51310000  0.81300000  1.0 0.1082767262
H  H37  1  0.32130000  0.89370000  0.99530000  1.0 0.1179547714
H  H38  1  0.67870000  0.10630000  0.00470000  1.0 0.1179547714
H  H39  1  0.46020000  0.03640000  0.82730000  1.0 0.1307996888
H  H40  1  0.53980000  0.96360000  0.17270000  1.0 0.1307996888
H  H41  1  0.48170000  0.75720000  0.79920000  1.0 0.1307996888
H  H42  1  0.51830000  0.24280000  0.20080000  1.0 0.1307996888
H  H43  1  0.49320000  0.86690000  0.49250000  1.0 0.3943951044
H  H44  1  0.50680000  0.13310000  0.50750000  1.0 0.3943951044
H  H45  1  0.49500000  0.62660000  0.05900000  1.0 0.3984085832
H  H46  1  0.50500000  0.37340000  0.94100000  1.0 0.3984085832
C  C1  1  0.87910000  0.06250000  0.43433000  1.0 0.0997676875
C  C2  1  0.12090000  0.93750000  0.56567000  1.0 0.0997676875
C  C3  1  0.73350000  0.12470000  0.38790000  1.0 0.092618767
C  C4  1  0.26650000  0.87530000  0.61210000  1.0 0.092618767
C  C5  1  0.94850000  0.21990000  0.39571000  1.0 -0.1783453883
C  C6  1  0.05150000  0.78010000  0.60429000  1.0 -0.1783453883
C  C7  1  0.97160000  0.22150000  0.30849000  1.0 0.092618767
C  C8  1  0.02840000  0.77850000  0.69151000  1.0 0.092618767
C  C9  1  0.89640000  0.26590000  0.26664000  1.0 -0.166578674
C  C10  1  0.10360000  0.73410000  0.73336000  1.0 -0.166578674
C  C11  1  0.91670000  0.26670000  0.18651000  1.0 -0.1619808064
C  C12  1  0.08330000  0.73330000  0.81349000  1.0 -0.1619808064
C  C13  1  0.01250000  0.22257000  0.14681000  1.0 0.0810447529
C  C14  1  0.98750000  0.77743000  0.85319000  1.0 0.0810447529
C  C15  1  0.08820000  0.17870000  0.18880000  1.0 -0.1783453883
C  C16  1  0.91180000  0.82130000  0.81120000  1.0 -0.1783453883
C  C17  1  0.06860000  0.17800000  0.26850000  1.0 -0.1473100942
C  C18  1  0.93140000  0.82200000  0.73150000  1.0 -0.1473100942
C  C19  1  0.03800000  0.22730000  0.06008000  1.0 -0.1783453883
C  C20  1  0.96200000  0.77270000  0.93992000  1.0 -0.1783453883
C  C21  1  0.11290000  0.39533000  0.04787000  1.0 0.0997676875
C  C22  1  0.88710000  0.60467000  0.95213000  1.0 0.0997676875
C  C23  1  0.25790000  0.31121000  0.06198000  1.0 0.0810447529
C  C24  1  0.74210000  0.68879000  0.93802000  1.0 0.0810447529
C  C25  1  0.21410000  0.94954000  0.37658000  1.0 0.5856744561
C  C26  1  0.78590000  0.05046000  0.62342000  1.0 0.5856744561
C  C27  1  0.13770000  0.89660000  0.30488000  1.0 0.008760542
C  C28  1  0.86230000  0.10340000  0.69512000  1.0 0.008760542
C  C29  1  0.17600000  0.81557000  0.25808000  1.0 -0.1278814368
C  C30  1  0.82400000  0.18443000  0.74192000  1.0 -0.1278814368
C  C31  1  0.10890000  0.76849000  0.18929000  1.0 0.008760542
C  C32  1  0.89110000  0.23151000  0.81071000  1.0 0.008760542
C  C33  1  0.00320000  0.80130000  0.16719000  1.0 -0.1854390141
C  C34  1  0.99680000  0.19870000  0.83281000  1.0 -0.1854390141
C  C35  1  0.96620000  0.88160000  0.21502000  1.0 0.008760542
C  C36  1  0.03380000  0.11840000  0.78498000  1.0 0.008760542
C  C37  1  0.03160000  0.93020000  0.28220000  1.0 -0.1473100942
C  C38  1  0.96840000  0.06980000  0.71780000  1.0 -0.1473100942
C  C39  1  0.15680000  0.68574000  0.13598000  1.0 0.5341134582
C  C40  1  0.84320000  0.31426000  0.86402000  1.0 0.5341134582
C  C41  1  0.77330000  0.52368000  0.13380000  1.0 0.5743901644
C  C42  1  0.22670000  0.47632000  0.86620000  1.0 0.5743901644
C  C43  1  0.85020000  0.57093000  0.20681000  1.0 -0.0048154636
C  C44  1  0.14980000  0.42907000  0.79319000  1.0 -0.0048154636
C  C45  1  0.81050000  0.64703000  0.26080000  1.0 -0.1278814368
C  C46  1  0.18950000  0.35297000  0.73920000  1.0 -0.1278814368
C  C47  1  0.88200000  0.69121000  0.32876000  1.0 0.008760542
C  C48  1  0.11800000  0.30879000  0.67124000  1.0 0.008760542
C  C49  1  0.99370000  0.65908000  0.34371000  1.0 -0.2036628213
C  C50  1  0.00630000  0.34092000  0.65629000  1.0 -0.2036628213
C  C51  1  0.03010000  0.58290000  0.28961000  1.0 -0.1213493545
C  C52  1  0.96990000  0.41710000  0.71039000  1.0 -0.1213493545
C  C53  1  0.96080000  0.53850000  0.22215000  1.0 -0.1619808064
C  C54  1  0.03920000  0.46150000  0.77785000  1.0 -0.1619808064
C  C55  1  0.83560000  0.77052000  0.38784000  1.0 0.5405978475
C  C56  1  0.16440000  0.22948000  0.61216000  1.0 0.5405978475
C  C57  1  0.38510000  0.72155000  0.93310000  1.0 0.5826281819
C  C58  1  0.61490000  0.27845000  0.06690000  1.0 0.5826281819
C  C59  1  0.40080000  0.81178000  0.90215000  1.0 -0.0115475298
C  C60  1  0.59920000  0.18822000  0.09785000  1.0 -0.0115475298
C  C61  1  0.36340000  0.89410000  0.94686000  1.0 -0.2077930059
C  C62  1  0.63660000  0.10590000  0.05314000  1.0 -0.2077930059
C  C63  1  0.38950000  0.97652000  0.91848000  1.0 -0.0198052029
C  C64  1  0.61050000  0.02348000  0.08152000  1.0 -0.0198052029
C  C65  1  0.44500000  0.97936000  0.84550000  1.0 -0.1619808064
C  C66  1  0.55500000  0.02064000  0.15450000  1.0 -0.1619808064
C  C67  1  0.47810000  0.89583000  0.79952000  1.0 -0.0115475298
C  C68  1  0.52190000  0.10417000  0.20048000  1.0 -0.0115475298
C  C69  1  0.45700000  0.81325000  0.82931000  1.0 -0.1389354925
C  C70  1  0.54300000  0.18675000  0.17069000  1.0 -0.1389354925
C  C71  1  0.53300000  0.89330000  0.71747000  1.0 0.5552487884
C  C72  1  0.46700000  0.10670000  0.28253000  1.0 0.5552487884
N  N1  1  0.77570000  0.00475000  0.43389000  1.0 -0.2077930059
N  N2  1  0.22430000  0.99525000  0.56611000  1.0 -0.2077930059
N  N3  1  0.68245000  0.04502000  0.40488000  1.0 -0.222807704
N  N4  1  0.31755000  0.95498000  0.59512000  1.0 -0.222807704
N  N5  1  0.85650000  0.13843000  0.40565000  1.0 0.0233377403
N  N6  1  0.14350000  0.86157000  0.59435000  1.0 0.0233377403
N  N7  1  0.13330000  0.30750000  0.05414000  1.0 0.0014386711
N  N8  1  0.86670000  0.69250000  0.94586000  1.0 0.0014386711
N  N9  1  0.21853000  0.44966000  0.05089000  1.0 -0.222807704
N  N10  1  0.78147000  0.55034000  0.94911000  1.0 -0.2251875635
N  N11  1  0.31203000  0.39557000  0.05956000  1.0 -0.236700752
N  N12  1  0.68797000  0.60443000  0.94044000  1.0 -0.236700752
N  N13  1  0.35810000  0.06441000  0.96933000  1.0 0.4280720863
N  N14  1  0.64190000  0.93559000  0.03067000  1.0 0.4280720863
N  N15  1  0.85600000  0.91900000  0.19080000  1.0 0.4655436192
N  N16  1  0.14400000  0.08100000  0.80920000  1.0 0.4655436192
N  N17  1  0.14800000  0.54790000  0.30380000  1.0 0.3743314359
N  N18  1  0.85200000  0.45210000  0.69620000  1.0 0.3743314359
O  O1  1  0.18167000  0.02926000  0.40875000  1.0 -0.5584407435
O  O2  1  0.81833000  0.97074000  0.59125000  1.0 -0.5584407435
O  O3  1  0.30311000  0.91278000  0.39864000  1.0 -0.5787796911
O  O4  1  0.69689000  0.08722000  0.60136000  1.0 -0.5787796911
O  O5  1  0.25862000  0.66037000  0.15371000  1.0 -0.5584407435
O  O6  1  0.74138000  0.33963000  0.84629000  1.0 -0.5584407435
O  O7  1  0.09747000  0.64625000  0.07296000  1.0 -0.5421896067
O  O8  1  0.90253000  0.35375000  0.92704000  1.0 -0.5421896067
O  O9  1  0.72195000  0.78332000  0.38203000  1.0 -0.5584407435
O  O10  1  0.27805000  0.21668000  0.61797000  1.0 -0.5584407435
O  O11  1  0.90466000  0.82027000  0.44184000  1.0 -0.5700637784
O  O12  1  0.09534000  0.17973000  0.55816000  1.0 -0.5700637784
O  O13  1  0.55295000  0.91660000  0.49779000  1.0 -0.8798686649
O  O14  1  0.44705000  0.08340000  0.50221000  1.0 -0.8798686649
O  O15  1  0.82119000  0.46035000  0.08472000  1.0 -0.5487915065
O  O16  1  0.17881000  0.53965000  0.91528000  1.0 -0.5487915065
O  O17  1  0.66790000  0.54811000  0.12653000  1.0 -0.5700637784
O  O18  1  0.33210000  0.45189000  0.87347000  1.0 -0.5700637784
O  O19  1  0.44473000  0.57346000  0.03844000  1.0 -0.8680980887
O  O20  1  0.55527000  0.42654000  0.96156000  1.0 -0.8680980887
O  O21  1  0.55147000  0.96934000  0.69329000  1.0 -0.5787796911
O  O22  1  0.44853000  0.03066000  0.30671000  1.0 -0.5787796911
O  O23  1  0.55150000  0.81433000  0.67837000  1.0 -0.5487915065
O  O24  1  0.44850000  0.18567000  0.32163000  1.0 -0.5487915065
O  O25  1  0.31790000  0.71824000  0.99348000  1.0 -0.5317490783
O  O26  1  0.68210000  0.28176000  0.00652000  1.0 -0.5317490783
O  O27  1  0.44292000  0.65648000  0.89517000  1.0 -0.5897653785
O  O28  1  0.55708000  0.34352000  0.10483000  1.0 -0.5897653785
O  O29  1  0.40890000  0.13931000  0.95653000  1.0 -0.3404152479
O  O30  1  0.59110000  0.86069000  0.04347000  1.0 -0.3404152479
O  O31  1  0.29460000  0.06330000  0.02760000  1.0 0.179933979
O  O32  1  0.70540000  0.93670000  0.97240000  1.0 0.179933979
O  O33  1  0.18020000  0.48280000  0.25260000  1.0 -0.0326768749
O  O34  1  0.81980000  0.51720000  0.74740000  1.0 -0.0326768749
O  O35  1  0.21110000  0.58680000  0.36280000  1.0 0.2414481704
O  O36  1  0.78890000  0.41320000  0.63720000  1.0 0.2414481704
O  O37  1  0.81710000  0.98500000  0.23391000  1.0 -0.306563982
O  O38  1  0.18290000  0.01500000  0.76609000  1.0 -0.306563982
O  O39  1  0.83810000  0.90660000  0.11400000  1.0 -0.0697873134
O  O40  1  0.16190000  0.09340000  0.88600000  1.0 -0.0697873134
O  O41  1  0.25300000  0.04800000  0.00810000  1.0 -0.0198052029
O  O42  1  0.74700000  0.95200000  0.99190000  1.0 -0.0198052029
O  O43  1  0.15900000  0.46320000  0.27650000  1.0 -0.0467145957
O  O44  1  0.84100000  0.53680000  0.72350000  1.0 -0.0467145957
O  O45  1  0.78110000  0.85950000  0.14280000  1.0 0.0233377403
O  O46  1  0.21890000  0.14050000  0.85720000  1.0 0.0233377403
O  O47  1  0.18100000  0.56300000  0.38470000  1.0 0.0451957907
O  O48  1  0.81900000  0.43700000  0.61530000  1.0 0.0432187494
O  O49  1  0.23430000  0.61350000  0.33750000  1.0 0.0014386711
O  O50  1  0.76570000  0.38650000  0.66250000  1.0 0.008760542
