# DDEC6 charges by PACMAN v1.1 (https://github.com/mtap-research/PACMAN-charge/)
data_ETIPII_ASR_pacman
_symmetry_space_group_name_H-M   'P 1'
_cell_length_a   14.09900000
_cell_length_b   10.99700000
_cell_length_c   21.86500000
_cell_angle_alpha   90.00000000
_cell_angle_beta   93.97100000
_cell_angle_gamma   90.00000000
_symmetry_Int_Tables_number   1
_chemical_formula_structural   Zn2H21C31(NO4)2
_chemical_formula_sum   'Zn8 H84 C124 N8 O32'
_cell_volume   3381.95731791
_cell_formula_units_Z   4
loop_
 _symmetry_equiv_pos_site_id
 _symmetry_equiv_pos_as_xyz
  1  'x, y, z'
loop_
 _atom_site_type_symbol
 _atom_site_label
 _atom_site_symmetry_multiplicity
 _atom_site_fract_x
 _atom_site_fract_y
 _atom_site_fract_z
 _atom_site_occupancy
 _atom_site_charge
Zn  Zn1  1  0.82008000  0.20247000  0.58706000  1.0 0.8560373887
Zn  Zn2  1  0.82008000  0.29753000  0.08706000  1.0 0.8560373887
Zn  Zn3  1  0.61069000  0.20291000  0.57720000  1.0 0.8220158025
Zn  Zn4  1  0.61069000  0.29709000  0.07720000  1.0 0.8220158025
Zn  Zn5  1  0.17992000  0.70247000  0.91294000  1.0 0.8560373887
Zn  Zn6  1  0.17992000  0.79753000  0.41294000  1.0 0.8560373887
Zn  Zn7  1  0.38931000  0.70291000  0.92280000  1.0 0.8220158025
Zn  Zn8  1  0.38931000  0.79709000  0.42280000  1.0 0.8220158025
H  H1  1  0.85250000  0.80380000  0.59340000  1.0 0.1126985518
H  H2  1  0.85250000  0.69620000  0.09340000  1.0 0.1126985518
H  H3  1  0.57020000  0.80790000  0.56800000  1.0 0.118992895
H  H4  1  0.57020000  0.69210000  0.06800000  1.0 0.118992895
H  H5  1  0.56860000  0.59980000  0.57010000  1.0 0.1126985518
H  H6  1  0.56860000  0.90020000  0.07010000  1.0 0.1126985518
H  H7  1  0.85320000  0.59710000  0.59300000  1.0 0.118992895
H  H8  1  0.85320000  0.90290000  0.09300000  1.0 0.118992895
H  H9  1  0.86230000  0.27600000  0.78530000  1.0 0.118992895
H  H10  1  0.86230000  0.22400000  0.28530000  1.0 0.118992895
H  H11  1  0.85810000  0.30120000  0.88810000  1.0 0.1126985518
H  H12  1  0.85810000  0.19880000  0.38810000  1.0 0.1126985518
H  H13  1  0.57970000  0.22630000  0.87630000  1.0 0.118992895
H  H14  1  0.57970000  0.27370000  0.37630000  1.0 0.118992895
H  H15  1  0.58210000  0.20430000  0.77250000  1.0 0.118992895
H  H16  1  0.58210000  0.29570000  0.27250000  1.0 0.118992895
H  H17  1  0.44570000  0.02800000  0.57350000  1.0 0.118992895
H  H18  1  0.44570000  0.47200000  0.07350000  1.0 0.118992895
H  H19  1  0.27930000  0.03440000  0.55340000  1.0 0.1013714575
H  H20  1  0.27930000  0.46560000  0.05340000  1.0 0.1013714575
H  H21  1  0.30040000  0.36870000  0.62630000  1.0 0.1013714575
H  H22  1  0.30040000  0.13130000  0.12630000  1.0 0.1013714575
H  H23  1  0.45630000  0.37290000  0.60800000  1.0 0.1013714575
H  H24  1  0.45630000  0.12710000  0.10800000  1.0 0.1013714575
H  H25  1  0.97310000  0.06450000  0.53800000  1.0 0.0912716126
H  H26  1  0.97310000  0.43550000  0.03800000  1.0 0.0912716126
H  H27  1  0.13670000  0.09560000  0.51400000  1.0 0.0912716126
H  H28  1  0.13670000  0.40440000  0.01400000  1.0 0.0912716126
H  H29  1  0.15150000  0.30880000  0.66740000  1.0 0.1013714575
H  H30  1  0.15150000  0.19120000  0.16740000  1.0 0.1013714575
H  H31  1  0.98850000  0.34010000  0.64200000  1.0 0.125052984
H  H32  1  0.98850000  0.15990000  0.14200000  1.0 0.125052984
H  H33  1  0.29430000  0.02080000  0.60220000  1.0 0.1013714575
H  H34  1  0.29430000  0.47920000  0.10220000  1.0 0.1013714575
H  H35  1  0.28760000  0.38770000  0.58950000  1.0 0.1013714575
H  H36  1  0.28760000  0.11230000  0.08950000  1.0 0.1013714575
H  H37  1  0.44900000  0.37770000  0.57460000  1.0 0.1013714575
H  H38  1  0.44900000  0.12230000  0.07460000  1.0 0.1013714575
H  H39  1  0.13520000  0.02670000  0.55550000  1.0 0.0808116534
H  H40  1  0.13520000  0.47330000  0.05550000  1.0 0.0808116534
H  H41  1  0.14250000  0.36510000  0.62940000  1.0 0.1126985518
H  H42  1  0.14250000  0.13490000  0.12940000  1.0 0.1126985518
H  H43  1  0.14750000  0.30380000  0.90660000  1.0 0.1126985518
H  H44  1  0.14750000  0.19620000  0.40660000  1.0 0.1126985518
H  H45  1  0.42980000  0.30790000  0.93200000  1.0 0.118992895
H  H46  1  0.42980000  0.19210000  0.43200000  1.0 0.118992895
H  H47  1  0.43140000  0.09980000  0.92990000  1.0 0.1126985518
H  H48  1  0.43140000  0.40020000  0.42990000  1.0 0.1126985518
H  H49  1  0.14680000  0.09710000  0.90700000  1.0 0.118992895
H  H50  1  0.14680000  0.40290000  0.40700000  1.0 0.118992895
H  H51  1  0.13770000  0.77600000  0.71470000  1.0 0.118992895
H  H52  1  0.13770000  0.72400000  0.21470000  1.0 0.118992895
H  H53  1  0.14190000  0.80120000  0.61190000  1.0 0.1126985518
H  H54  1  0.14190000  0.69880000  0.11190000  1.0 0.1126985518
H  H55  1  0.42030000  0.72630000  0.62370000  1.0 0.118992895
H  H56  1  0.42030000  0.77370000  0.12370000  1.0 0.118992895
H  H57  1  0.41790000  0.70430000  0.72750000  1.0 0.118992895
H  H58  1  0.41790000  0.79570000  0.22750000  1.0 0.118992895
H  H59  1  0.55430000  0.52800000  0.92650000  1.0 0.118992895
H  H60  1  0.55430000  0.97200000  0.42650000  1.0 0.118992895
H  H61  1  0.72070000  0.53440000  0.94660000  1.0 0.1013714575
H  H62  1  0.72070000  0.96560000  0.44660000  1.0 0.1013714575
H  H63  1  0.69960000  0.86870000  0.87370000  1.0 0.1013714575
H  H64  1  0.69960000  0.63130000  0.37370000  1.0 0.1013714575
H  H65  1  0.54370000  0.87290000  0.89200000  1.0 0.1013714575
H  H66  1  0.54370000  0.62710000  0.39200000  1.0 0.1013714575
H  H67  1  0.02690000  0.56450000  0.96200000  1.0 0.0912716126
H  H68  1  0.02690000  0.93550000  0.46200000  1.0 0.0912716126
H  H69  1  0.86330000  0.59560000  0.98600000  1.0 0.0912716126
H  H70  1  0.86330000  0.90440000  0.48600000  1.0 0.0912716126
H  H71  1  0.84850000  0.80880000  0.83260000  1.0 0.1013714575
H  H72  1  0.84850000  0.69120000  0.33260000  1.0 0.1013714575
H  H73  1  0.01150000  0.84010000  0.85800000  1.0 0.125052984
H  H74  1  0.01150000  0.65990000  0.35800000  1.0 0.125052984
H  H75  1  0.70570000  0.52080000  0.89780000  1.0 0.1013714575
H  H76  1  0.70570000  0.97920000  0.39780000  1.0 0.1013714575
H  H77  1  0.71240000  0.88770000  0.91050000  1.0 0.1013714575
H  H78  1  0.71240000  0.61230000  0.41050000  1.0 0.1013714575
H  H79  1  0.55100000  0.87770000  0.92540000  1.0 0.1013714575
H  H80  1  0.55100000  0.62230000  0.42540000  1.0 0.1013714575
H  H81  1  0.86480000  0.52670000  0.94450000  1.0 0.0808116534
H  H82  1  0.86480000  0.97330000  0.44450000  1.0 0.0808116534
H  H83  1  0.85750000  0.86510000  0.87060000  1.0 0.1126985518
H  H84  1  0.85750000  0.63490000  0.37060000  1.0 0.1126985518
C  C1  1  0.71430000  0.96710000  0.57990000  1.0 0.5724003791
C  C2  1  0.71430000  0.53290000  0.07990000  1.0 0.5724003791
C  C3  1  0.71170000  0.83030000  0.58020000  1.0 -0.0222874548
C  C4  1  0.71170000  0.66970000  0.08020000  1.0 -0.0222874548
C  C5  1  0.79490000  0.76270000  0.58790000  1.0 -0.1391275166
C  C6  1  0.79490000  0.73730000  0.08790000  1.0 -0.1391275166
C  C7  1  0.62740000  0.76580000  0.57320000  1.0 -0.1185342727
C  C8  1  0.62740000  0.73420000  0.07320000  1.0 -0.1185342727
C  C9  1  0.71200000  0.57390000  0.57930000  1.0 -0.0222874548
C  C10  1  0.71200000  0.92610000  0.07930000  1.0 -0.0222874548
C  C11  1  0.62640000  0.64080000  0.57360000  1.0 -0.1391275166
C  C12  1  0.62640000  0.85920000  0.07360000  1.0 -0.1514537943
C  C13  1  0.79570000  0.63840000  0.58760000  1.0 -0.1080867156
C  C14  1  0.79570000  0.86160000  0.08760000  1.0 -0.1080867156
C  C15  1  0.71160000  0.43780000  0.57930000  1.0 0.5724003791
C  C16  1  0.71160000  0.06220000  0.07930000  1.0 0.5724003791
C  C17  1  0.72490000  0.21340000  0.70180000  1.0 0.5840411439
C  C18  1  0.72490000  0.28660000  0.20180000  1.0 0.5840411439
C  C19  1  0.72470000  0.23240000  0.76730000  1.0 -0.052233708
C  C20  1  0.72470000  0.26760000  0.26730000  1.0 -0.052233708
C  C21  1  0.80520000  0.26490000  0.80340000  1.0 -0.0973018453
C  C22  1  0.80520000  0.23510000  0.30340000  1.0 -0.0973018453
C  C23  1  0.80240000  0.28120000  0.86510000  1.0 -0.1514537943
C  C24  1  0.80240000  0.21880000  0.36510000  1.0 -0.1514537943
C  C25  1  0.71690000  0.26840000  0.89530000  1.0 -0.0261991051
C  C26  1  0.71690000  0.23160000  0.39530000  1.0 -0.0261991051
C  C27  1  0.63680000  0.23720000  0.85820000  1.0 -0.128257946
C  C28  1  0.63680000  0.26280000  0.35820000  1.0 -0.128257946
C  C29  1  0.63810000  0.22170000  0.79590000  1.0 -0.1080867156
C  C30  1  0.63810000  0.27830000  0.29590000  1.0 -0.1080867156
C  C31  1  0.71560000  0.28860000  0.96250000  1.0 0.559996809
C  C32  1  0.71560000  0.21140000  0.46250000  1.0 0.559996809
C  C33  1  0.41420000  0.10210000  0.57460000  1.0 0.0220391212
C  C34  1  0.41420000  0.39790000  0.07460000  1.0 0.0220391212
C  C35  1  0.31330000  0.10130000  0.56900000  1.0 -0.0866346255
C  C36  1  0.31330000  0.39870000  0.06900000  1.0 -0.0866346255
C  C37  1  0.26900000  0.20280000  0.58750000  1.0 0.0396046277
C  C38  1  0.26900000  0.29720000  0.08750000  1.0 0.0396046277
C  C39  1  0.32740000  0.30250000  0.60760000  1.0 -0.0713328615
C  C40  1  0.32740000  0.19750000  0.10760000  1.0 -0.0713328615
C  C41  1  0.42160000  0.30200000  0.60000000  1.0 -0.0090600813
C  C42  1  0.42160000  0.19800000  0.10000000  1.0 -0.0090600813
C  C43  1  0.00850000  0.12750000  0.55660000  1.0 0.0912716126
C  C44  1  0.00850000  0.37250000  0.05660000  1.0 0.0912716126
C  C45  1  0.11090000  0.13440000  0.54680000  1.0 -0.0713328615
C  C46  1  0.11090000  0.36560000  0.04680000  1.0 -0.0713328615
C  C47  1  0.16590000  0.20110000  0.58860000  1.0 0.0715474087
C  C48  1  0.16590000  0.29890000  0.08860000  1.0 0.0715474087
C  C49  1  0.11890000  0.27130000  0.63410000  1.0 -0.1080867156
C  C50  1  0.11890000  0.22870000  0.13410000  1.0 -0.1080867156
C  C51  1  0.01930000  0.27710000  0.62310000  1.0 0.0808116534
C  C52  1  0.01930000  0.22290000  0.12310000  1.0 0.0808116534
C  C53  1  0.32080000  0.09400000  0.59040000  1.0 -0.0866346255
C  C54  1  0.32080000  0.40600000  0.09040000  1.0 -0.0866346255
C  C55  1  0.31820000  0.31330000  0.58630000  1.0 -0.0615923254
C  C56  1  0.31820000  0.18670000  0.08630000  1.0 -0.0615923254
C  C57  1  0.41650000  0.30550000  0.58010000  1.0 0.0130683704
C  C58  1  0.41650000  0.19450000  0.08010000  1.0 0.0130683704
C  C59  1  0.10940000  0.10200000  0.56490000  1.0 -0.0615923254
C  C60  1  0.10940000  0.39800000  0.06490000  1.0 -0.0615923254
C  C61  1  0.11280000  0.29300000  0.61610000  1.0 -0.1185342727
C  C62  1  0.11280000  0.20700000  0.11610000  1.0 -0.1080867156
C  C63  1  0.28570000  0.46710000  0.92010000  1.0 0.5724003791
C  C64  1  0.28570000  0.03290000  0.42010000  1.0 0.5724003791
C  C65  1  0.28830000  0.33030000  0.91980000  1.0 -0.0222874548
C  C66  1  0.28830000  0.16970000  0.41980000  1.0 -0.0222874548
C  C67  1  0.20510000  0.26270000  0.91210000  1.0 -0.1391275166
C  C68  1  0.20510000  0.23730000  0.41210000  1.0 -0.1391275166
C  C69  1  0.37260000  0.26580000  0.92680000  1.0 -0.1185342727
C  C70  1  0.37260000  0.23420000  0.42680000  1.0 -0.1185342727
C  C71  1  0.28800000  0.07390000  0.92070000  1.0 -0.0222874548
C  C72  1  0.28800000  0.42610000  0.42070000  1.0 -0.0222874548
C  C73  1  0.37360000  0.14080000  0.92640000  1.0 -0.1391275166
C  C74  1  0.37360000  0.35920000  0.42640000  1.0 -0.1391275166
C  C75  1  0.20430000  0.13840000  0.91240000  1.0 -0.1080867156
C  C76  1  0.20430000  0.36160000  0.41240000  1.0 -0.1080867156
C  C77  1  0.28840000  0.93780000  0.92070000  1.0 0.5724003791
C  C78  1  0.28840000  0.56220000  0.42070000  1.0 0.5724003791
C  C79  1  0.27510000  0.71340000  0.79820000  1.0 0.5840411439
C  C80  1  0.27510000  0.78660000  0.29820000  1.0 0.5840411439
C  C81  1  0.27530000  0.73240000  0.73270000  1.0 -0.052233708
C  C82  1  0.27530000  0.76760000  0.23270000  1.0 -0.052233708
C  C83  1  0.19480000  0.76490000  0.69660000  1.0 -0.0973018453
C  C84  1  0.19480000  0.73510000  0.19660000  1.0 -0.0973018453
C  C85  1  0.19760000  0.78120000  0.63490000  1.0 -0.1514537943
C  C86  1  0.19760000  0.71880000  0.13490000  1.0 -0.1514537943
C  C87  1  0.28310000  0.76840000  0.60470000  1.0 -0.0261991051
C  C88  1  0.28310000  0.73160000  0.10470000  1.0 -0.0261991051
C  C89  1  0.36320000  0.73720000  0.64180000  1.0 -0.128257946
C  C90  1  0.36320000  0.76280000  0.14180000  1.0 -0.128257946
C  C91  1  0.36190000  0.72170000  0.70410000  1.0 -0.1080867156
C  C92  1  0.36190000  0.77830000  0.20410000  1.0 -0.1080867156
C  C93  1  0.28440000  0.78860000  0.53750000  1.0 0.559996809
C  C94  1  0.28440000  0.71140000  0.03750000  1.0 0.559996809
C  C95  1  0.58580000  0.60210000  0.92540000  1.0 0.0220391212
C  C96  1  0.58580000  0.89790000  0.42540000  1.0 0.0220391212
C  C97  1  0.68670000  0.60130000  0.93100000  1.0 -0.0866346255
C  C98  1  0.68670000  0.89870000  0.43100000  1.0 -0.0866346255
C  C99  1  0.73100000  0.70280000  0.91250000  1.0 0.0396046277
C  C100  1  0.73100000  0.79720000  0.41250000  1.0 0.0396046277
C  C101  1  0.67260000  0.80250000  0.89240000  1.0 -0.0713328615
C  C102  1  0.67260000  0.69750000  0.39240000  1.0 -0.0713328615
C  C103  1  0.57840000  0.80200000  0.90000000  1.0 -0.0090600813
C  C104  1  0.57840000  0.69800000  0.40000000  1.0 -0.0090600813
C  C105  1  0.99150000  0.62750000  0.94340000  1.0 0.0912716126
C  C106  1  0.99150000  0.87250000  0.44340000  1.0 0.0912716126
C  C107  1  0.88910000  0.63440000  0.95320000  1.0 -0.0713328615
C  C108  1  0.88910000  0.86560000  0.45320000  1.0 -0.0713328615
C  C109  1  0.83410000  0.70110000  0.91140000  1.0 0.0715474087
C  C110  1  0.83410000  0.79890000  0.41140000  1.0 0.0715474087
C  C111  1  0.88110000  0.77130000  0.86590000  1.0 -0.1080867156
C  C112  1  0.88110000  0.72870000  0.36590000  1.0 -0.1080867156
C  C113  1  0.98070000  0.77710000  0.87690000  1.0 0.0808116534
C  C114  1  0.98070000  0.72290000  0.37690000  1.0 0.0808116534
C  C115  1  0.67920000  0.59400000  0.90960000  1.0 -0.0866346255
C  C116  1  0.67920000  0.90600000  0.40960000  1.0 -0.0866346255
C  C117  1  0.68180000  0.81330000  0.91370000  1.0 -0.0615923254
C  C118  1  0.68180000  0.68670000  0.41370000  1.0 -0.0615923254
C  C119  1  0.58350000  0.80550000  0.91990000  1.0 0.0130683704
C  C120  1  0.58350000  0.69450000  0.41990000  1.0 0.0130683704
C  C121  1  0.89060000  0.60200000  0.93510000  1.0 -0.0615923254
C  C122  1  0.89060000  0.89800000  0.43510000  1.0 -0.0615923254
C  C123  1  0.88720000  0.79300000  0.88390000  1.0 -0.1080867156
C  C124  1  0.88720000  0.70700000  0.38390000  1.0 -0.1185342727
N  N1  1  0.96620000  0.20340000  0.58920000  1.0 -0.2290598796
N  N2  1  0.96620000  0.29660000  0.08920000  1.0 -0.2290598796
N  N3  1  0.46650000  0.20330000  0.58140000  1.0 -0.1514537943
N  N4  1  0.46650000  0.29670000  0.08140000  1.0 -0.1514537943
N  N5  1  0.03380000  0.70340000  0.91080000  1.0 -0.2290598796
N  N6  1  0.03380000  0.79660000  0.41080000  1.0 -0.2290598796
N  N7  1  0.53350000  0.70330000  0.91860000  1.0 -0.1514537943
N  N8  1  0.53350000  0.79670000  0.41860000  1.0 -0.1514537943
O  O1  1  0.63450000  0.02110000  0.57440000  1.0 -0.5388847486
O  O2  1  0.63450000  0.47890000  0.07440000  1.0 -0.5388847486
O  O3  1  0.79170000  0.01920000  0.58730000  1.0 -0.5388847486
O  O4  1  0.79170000  0.48080000  0.08730000  1.0 -0.5388847486
O  O5  1  0.63250000  0.38620000  0.57780000  1.0 -0.5504053181
O  O6  1  0.63250000  0.11380000  0.07780000  1.0 -0.5504053181
O  O7  1  0.78980000  0.38530000  0.58370000  1.0 -0.5339018897
O  O8  1  0.78980000  0.11470000  0.08370000  1.0 -0.5339018897
O  O9  1  0.64810000  0.20100000  0.66940000  1.0 -0.5504053181
O  O10  1  0.64810000  0.29900000  0.16940000  1.0 -0.5504053181
O  O11  1  0.80800000  0.21120000  0.67890000  1.0 -0.5594753966
O  O12  1  0.80800000  0.28880000  0.17890000  1.0 -0.5594753966
O  O13  1  0.63300000  0.28940000  0.98450000  1.0 -0.5594753966
O  O14  1  0.63300000  0.21060000  0.48450000  1.0 -0.5594753966
O  O15  1  0.79420000  0.30310000  0.99230000  1.0 -0.5504053181
O  O16  1  0.79420000  0.19690000  0.49230000  1.0 -0.5504053181
O  O17  1  0.36550000  0.52110000  0.92560000  1.0 -0.5388847486
O  O18  1  0.36550000  0.97890000  0.42560000  1.0 -0.5388847486
O  O19  1  0.20830000  0.51920000  0.91270000  1.0 -0.5388847486
O  O20  1  0.20830000  0.98080000  0.41270000  1.0 -0.5388847486
O  O21  1  0.36750000  0.88620000  0.92220000  1.0 -0.5504053181
O  O22  1  0.36750000  0.61380000  0.42220000  1.0 -0.5504053181
O  O23  1  0.21020000  0.88530000  0.91630000  1.0 -0.5339018897
O  O24  1  0.21020000  0.61470000  0.41630000  1.0 -0.5339018897
O  O25  1  0.35190000  0.70100000  0.83060000  1.0 -0.5504053181
O  O26  1  0.35190000  0.79900000  0.33060000  1.0 -0.5504053181
O  O27  1  0.19200000  0.71120000  0.82110000  1.0 -0.5594753966
O  O28  1  0.19200000  0.78880000  0.32110000  1.0 -0.5594753966
O  O29  1  0.36700000  0.78940000  0.51550000  1.0 -0.5594753966
O  O30  1  0.36700000  0.71060000  0.01550000  1.0 -0.5594753966
O  O31  1  0.20580000  0.80310000  0.50770000  1.0 -0.5504053181
O  O32  1  0.20580000  0.69690000  0.00770000  1.0 -0.5504053181
