# DDEC6 charges by PACMAN v1.1 (https://github.com/mtap-research/PACMAN-charge/)
data_ETIXOW_FSR_pacman
_symmetry_space_group_name_H-M   'P 1'
_cell_length_a   12.33410000
_cell_length_b   10.82630000
_cell_length_c   21.35840000
_cell_angle_alpha   90.00000000
_cell_angle_beta   121.71100000
_cell_angle_gamma   90.00000000
_symmetry_Int_Tables_number   1
_chemical_formula_structural   Zn2H25C28NO9
_chemical_formula_sum   'Zn8 H100 C112 N4 O36'
_cell_volume   2426.26304601
_cell_formula_units_Z   4
loop_
 _symmetry_equiv_pos_site_id
 _symmetry_equiv_pos_as_xyz
  1  'x, y, z'
loop_
 _atom_site_type_symbol
 _atom_site_label
 _atom_site_symmetry_multiplicity
 _atom_site_fract_x
 _atom_site_fract_y
 _atom_site_fract_z
 _atom_site_occupancy
 _atom_site_charge
Zn  Zn1  1  0.51907000  0.22506000  0.71793000  1.0 0.8578504153
Zn  Zn2  1  0.48093000  0.72506000  0.78207000  1.0 0.8578504153
Zn  Zn3  1  0.48093000  0.77494000  0.28207000  1.0 0.8578504153
Zn  Zn4  1  0.51907000  0.27494000  0.21793000  1.0 0.8578504153
Zn  Zn5  1  0.39516000  0.09754000  0.28235000  1.0 0.8578504153
Zn  Zn6  1  0.60484000  0.59754000  0.21765000  1.0 0.8578504153
Zn  Zn7  1  0.60484000  0.90246000  0.71765000  1.0 0.8578504153
Zn  Zn8  1  0.39516000  0.40246000  0.78235000  1.0 0.8578504153
H  H1  1  0.68210000  0.95880000  0.55090000  1.0 0.0992157108
H  H2  1  0.31790000  0.45880000  0.94910000  1.0 0.0992157108
H  H3  1  0.31790000  0.04120000  0.44910000  1.0 0.0992157108
H  H4  1  0.68210000  0.54120000  0.05090000  1.0 0.0992157108
H  H5  1  0.78770000  0.33240000  0.30720000  1.0 0.3196172319
H  H6  1  0.21230000  0.83240000  0.19280000  1.0 0.3196172319
H  H7  1  0.21230000  0.66760000  0.69280000  1.0 0.3196172319
H  H8  1  0.78770000  0.16760000  0.80720000  1.0 0.3196172319
H  H9  1  0.70520000  0.00710000  0.45200000  1.0 0.1081103504
H  H10  1  0.29480000  0.50710000  0.04800000  1.0 0.1081103504
H  H11  1  0.29480000  0.99290000  0.54800000  1.0 0.1081103504
H  H12  1  0.70520000  0.49290000  0.95200000  1.0 0.1081103504
H  H13  1  0.57020000  0.34560000  0.44270000  1.0 0.1081103504
H  H14  1  0.42980000  0.84560000  0.05730000  1.0 0.1081103504
H  H15  1  0.42980000  0.65440000  0.55730000  1.0 0.1081103504
H  H16  1  0.57020000  0.15440000  0.94270000  1.0 0.1081103504
H  H17  1  0.55680000  0.30360000  0.54580000  1.0 0.1081103504
H  H18  1  0.44320000  0.80360000  0.95420000  1.0 0.1081103504
H  H19  1  0.44320000  0.69640000  0.45420000  1.0 0.1081103504
H  H20  1  0.55680000  0.19640000  0.04580000  1.0 0.1081103504
H  H21  1  0.69200000  0.38260000  0.37440000  1.0 0.0733991553
H  H22  1  0.30800000  0.88260000  0.12560000  1.0 0.0733991553
H  H23  1  0.30800000  0.61740000  0.62560000  1.0 0.0733991553
H  H24  1  0.69200000  0.11740000  0.87440000  1.0 0.0733991553
H  H25  1  0.68070000  0.11650000  0.36080000  1.0 0.0624858882
H  H26  1  0.31930000  0.61650000  0.13920000  1.0 0.0624858882
H  H27  1  0.31930000  0.88350000  0.63920000  1.0 0.0624858882
H  H28  1  0.68070000  0.38350000  0.86080000  1.0 0.0624858882
H  H29  1  0.83130000  0.43210000  0.49650000  1.0 0.0776511539
H  H30  1  0.16870000  0.93210000  0.00350000  1.0 0.0776511539
H  H31  1  0.16870000  0.56790000  0.50350000  1.0 0.0776511539
H  H32  1  0.83130000  0.06790000  0.99650000  1.0 0.0776511539
H  H33  1  0.03120000  0.43070000  0.60310000  1.0 0.0992157108
H  H34  1  0.96880000  0.93070000  0.89690000  1.0 0.0992157108
H  H35  1  0.96880000  0.56930000  0.39690000  1.0 0.0992157108
H  H36  1  0.03120000  0.06930000  0.10310000  1.0 0.0992157108
H  H37  1  0.14420000  0.16330000  0.51900000  1.0 0.0992157108
H  H38  1  0.85580000  0.66330000  0.98100000  1.0 0.0992157108
H  H39  1  0.85580000  0.83670000  0.48100000  1.0 0.0992157108
H  H40  1  0.14420000  0.33670000  0.01900000  1.0 0.0992157108
H  H41  1  0.94130000  0.16370000  0.41080000  1.0 0.0776511539
H  H42  1  0.05870000  0.66370000  0.08920000  1.0 0.0776511539
H  H43  1  0.05870000  0.83630000  0.58920000  1.0 0.0776511539
H  H44  1  0.94130000  0.33630000  0.91080000  1.0 0.0776511539
H  H45  1  0.59510000  0.57560000  0.71940000  1.0 0.1242144234
H  H46  1  0.40490000  0.07560000  0.78060000  1.0 0.1242144234
H  H47  1  0.40490000  0.42440000  0.28060000  1.0 0.1242144234
H  H48  1  0.59510000  0.92440000  0.21940000  1.0 0.1242144234
H  H49  1  0.28590000  0.17800000  0.38160000  1.0 0.0888185839
H  H50  1  0.71410000  0.67800000  0.11840000  1.0 0.0888185839
H  H51  1  0.71410000  0.82200000  0.61840000  1.0 0.0888185839
H  H52  1  0.28590000  0.32200000  0.88160000  1.0 0.0888185839
H  H53  1  0.25110000  0.52590000  0.40570000  1.0 0.1242144234
H  H54  1  0.74890000  0.02590000  0.09430000  1.0 0.1242144234
H  H55  1  0.74890000  0.47410000  0.59430000  1.0 0.1242144234
H  H56  1  0.25110000  0.97410000  0.90570000  1.0 0.1242144234
H  H57  1  0.34250000  0.49030000  0.37620000  1.0 0.1328329079
H  H58  1  0.65750000  0.99030000  0.12380000  1.0 0.1328329079
H  H59  1  0.65750000  0.50970000  0.62380000  1.0 0.1328329079
H  H60  1  0.34250000  0.00970000  0.87620000  1.0 0.1328329079
H  H61  1  0.19120000  0.47970000  0.32270000  1.0 0.1352133058
H  H62  1  0.80880000  0.97970000  0.17730000  1.0 0.1352133058
H  H63  1  0.80880000  0.52030000  0.67730000  1.0 0.1352133058
H  H64  1  0.19120000  0.02030000  0.82270000  1.0 0.1352133058
H  H65  1  0.24350000  0.41680000  0.47470000  1.0 0.1081103504
H  H66  1  0.75650000  0.91680000  0.02530000  1.0 0.1081103504
H  H67  1  0.75650000  0.58320000  0.52530000  1.0 0.1081103504
H  H68  1  0.24350000  0.08320000  0.97470000  1.0 0.1081103504
H  H69  1  0.17800000  0.28490000  0.44460000  1.0 0.1081103504
H  H70  1  0.82200000  0.78490000  0.05540000  1.0 0.1081103504
H  H71  1  0.82200000  0.71510000  0.55540000  1.0 0.1081103504
H  H72  1  0.17800000  0.21510000  0.94460000  1.0 0.1081103504
H  H73  1  0.32920000  0.29460000  0.49860000  1.0 0.1352133058
H  H74  1  0.67080000  0.79460000  0.00140000  1.0 0.1352133058
H  H75  1  0.67080000  0.70540000  0.50140000  1.0 0.1352133058
H  H76  1  0.32920000  0.20540000  0.99860000  1.0 0.1328329079
H  H77  1  0.73910000  0.12250000  0.35350000  1.0 0.0733991553
H  H78  1  0.26090000  0.62250000  0.14650000  1.0 0.0733991553
H  H79  1  0.26090000  0.87750000  0.64650000  1.0 0.0733991553
H  H80  1  0.73910000  0.37750000  0.85350000  1.0 0.0733991553
H  H81  1  0.63930000  0.34710000  0.38170000  1.0 0.0624858882
H  H82  1  0.36070000  0.84710000  0.11830000  1.0 0.0624858882
H  H83  1  0.36070000  0.65290000  0.61830000  1.0 0.0624858882
H  H84  1  0.63930000  0.15290000  0.88170000  1.0 0.0624858882
H  H85  1  0.84770000  0.41910000  0.44930000  1.0 0.0776511539
H  H86  1  0.15230000  0.91910000  0.05070000  1.0 0.0776511539
H  H87  1  0.15230000  0.58090000  0.55070000  1.0 0.0776511539
H  H88  1  0.84770000  0.08090000  0.94930000  1.0 0.0776511539
H  H89  1  0.04260000  0.44970000  0.55940000  1.0 0.0888185839
H  H90  1  0.95740000  0.94970000  0.94060000  1.0 0.0888185839
H  H91  1  0.95740000  0.55030000  0.44060000  1.0 0.0888185839
H  H92  1  0.04260000  0.05030000  0.05940000  1.0 0.0888185839
H  H93  1  0.13830000  0.09300000  0.55520000  1.0 0.0888185839
H  H94  1  0.86170000  0.59300000  0.94480000  1.0 0.0888185839
H  H95  1  0.86170000  0.90700000  0.44480000  1.0 0.0888185839
H  H96  1  0.13830000  0.40700000  0.05520000  1.0 0.0888185839
H  H97  1  0.94340000  0.06240000  0.44510000  1.0 0.0733991553
H  H98  1  0.05660000  0.56240000  0.05490000  1.0 0.0733991553
H  H99  1  0.05660000  0.93760000  0.55490000  1.0 0.0733991553
H  H100  1  0.94340000  0.43760000  0.94510000  1.0 0.0733991553
C  C1  1  0.66280000  0.03970000  0.53080000  1.0 -0.1103793321
C  C2  1  0.33720000  0.53970000  0.96920000  1.0 -0.1103793321
C  C3  1  0.33720000  0.96030000  0.46920000  1.0 -0.1103793321
C  C4  1  0.66280000  0.46030000  0.03080000  1.0 -0.1103793321
C  C5  1  0.62311000  0.12840000  0.56081000  1.0 -0.0294179164
C  C6  1  0.37689000  0.62840000  0.93919000  1.0 -0.0294179164
C  C7  1  0.37689000  0.87160000  0.43919000  1.0 -0.0294179164
C  C8  1  0.62311000  0.37160000  0.06081000  1.0 -0.0294179164
C  C9  1  0.64377000  0.18170000  0.43947000  1.0 0.0624858882
C  C10  1  0.35623000  0.68170000  0.06053000  1.0 0.0624858882
C  C11  1  0.35623000  0.81830000  0.56053000  1.0 0.0624858882
C  C12  1  0.64377000  0.31830000  0.93947000  1.0 0.0624858882
C  C13  1  0.67480000  0.06830000  0.47100000  1.0 -0.2534008421
C  C14  1  0.32520000  0.56830000  0.02900000  1.0 -0.2534008421
C  C15  1  0.32520000  0.93170000  0.52900000  1.0 -0.2534008421
C  C16  1  0.67480000  0.43170000  0.97100000  1.0 -0.2534008421
C  C17  1  0.59700000  0.26740000  0.46620000  1.0 -0.2328957863
C  C18  1  0.40300000  0.76740000  0.03380000  1.0 -0.2328957863
C  C19  1  0.40300000  0.73260000  0.53380000  1.0 -0.2328957863
C  C20  1  0.59700000  0.23260000  0.96620000  1.0 -0.2328957863
C  C21  1  0.58770000  0.24210000  0.52730000  1.0 -0.0918549526
C  C22  1  0.41230000  0.74210000  0.97270000  1.0 -0.0918549526
C  C23  1  0.41230000  0.75790000  0.47270000  1.0 -0.0918549526
C  C24  1  0.58770000  0.25790000  0.02730000  1.0 -0.0918549526
C  C25  1  0.73370000  0.30310000  0.37490000  1.0 0.0201566914
C  C26  1  0.26630000  0.80310000  0.12510000  1.0 0.0201566914
C  C27  1  0.26630000  0.69690000  0.62510000  1.0 0.0201566914
C  C28  1  0.73370000  0.19690000  0.87490000  1.0 0.0201566914
C  C29  1  0.64900000  0.19510000  0.37030000  1.0 0.0486529466
C  C30  1  0.35100000  0.69510000  0.12970000  1.0 0.0486529466
C  C31  1  0.35100000  0.80490000  0.62970000  1.0 0.0486529466
C  C32  1  0.64900000  0.30490000  0.87030000  1.0 0.0486529466
C  C33  1  0.86590000  0.29900000  0.44240000  1.0 0.0105191563
C  C34  1  0.13410000  0.79900000  0.05760000  1.0 0.0105191563
C  C35  1  0.13410000  0.70100000  0.55760000  1.0 0.0105191563
C  C36  1  0.86590000  0.20100000  0.94240000  1.0 0.0105191563
C  C37  1  0.89470000  0.37710000  0.50050000  1.0 -0.1103793321
C  C38  1  0.10530000  0.87710000  0.99950000  1.0 -0.1103793321
C  C39  1  0.10530000  0.62290000  0.49950000  1.0 -0.1103793321
C  C40  1  0.89470000  0.12290000  0.00050000  1.0 -0.1103793321
C  C41  1  0.01350000  0.37640000  0.56390000  1.0 -0.03671709
C  C42  1  0.98650000  0.87640000  0.93610000  1.0 -0.0294179164
C  C43  1  0.98650000  0.62360000  0.43610000  1.0 -0.0294179164
C  C44  1  0.01350000  0.12360000  0.06390000  1.0 -0.03671709
C  C45  1  0.10670000  0.29740000  0.57080000  1.0 -0.0491944457
C  C46  1  0.89330000  0.79740000  0.92920000  1.0 -0.0491944457
C  C47  1  0.89330000  0.70260000  0.42920000  1.0 -0.0491944457
C  C48  1  0.10670000  0.20260000  0.07080000  1.0 -0.0491944457
C  C49  1  0.08040000  0.21840000  0.51440000  1.0 -0.0116683863
C  C50  1  0.91960000  0.71840000  0.98560000  1.0 -0.0116683863
C  C51  1  0.91960000  0.78160000  0.48560000  1.0 -0.0116683863
C  C52  1  0.08040000  0.28160000  0.01440000  1.0 -0.0116683863
C  C53  1  0.95920000  0.21880000  0.44970000  1.0 -0.03671709
C  C54  1  0.04080000  0.71880000  0.05030000  1.0 -0.03671709
C  C55  1  0.04080000  0.78120000  0.55030000  1.0 -0.03671709
C  C56  1  0.95920000  0.28120000  0.94970000  1.0 -0.03671709
C  C57  1  0.54977000  0.50990000  0.72497000  1.0 0.258091142
C  C58  1  0.45023000  0.00990000  0.77503000  1.0 0.258091142
C  C59  1  0.45023000  0.49010000  0.27503000  1.0 0.258091142
C  C60  1  0.54977000  0.99010000  0.22497000  1.0 0.258091142
C  C61  1  0.23691000  0.30060000  0.63921000  1.0 0.4590923242
C  C62  1  0.76309000  0.80060000  0.86079000  1.0 0.4590923242
C  C63  1  0.76309000  0.69940000  0.36079000  1.0 0.4590923242
C  C64  1  0.23691000  0.19940000  0.13921000  1.0 0.4590923242
C  C65  1  0.60407000  0.09920000  0.62277000  1.0 0.5961490922
C  C66  1  0.39593000  0.59920000  0.87723000  1.0 0.5961490922
C  C67  1  0.39593000  0.90080000  0.37723000  1.0 0.5961490922
C  C68  1  0.60407000  0.40080000  0.12277000  1.0 0.5961490922
C  C69  1  0.28220000  0.25760000  0.36190000  1.0 0.2798625954
C  C70  1  0.71780000  0.75760000  0.13810000  1.0 0.2798625954
C  C71  1  0.71780000  0.74240000  0.63810000  1.0 0.2798625954
C  C72  1  0.28220000  0.24240000  0.86190000  1.0 0.2798625954
C  C73  1  0.26270000  0.47010000  0.37350000  1.0 -0.2989875548
C  C74  1  0.73730000  0.97010000  0.12650000  1.0 -0.2989875548
C  C75  1  0.73730000  0.52990000  0.62650000  1.0 -0.2989875548
C  C76  1  0.26270000  0.02990000  0.87350000  1.0 -0.2989875548
C  C77  1  0.25340000  0.33520000  0.45850000  1.0 -0.4271745034
C  C78  1  0.74660000  0.83520000  0.04150000  1.0 -0.4271745034
C  C79  1  0.74660000  0.66480000  0.54150000  1.0 -0.4271745034
C  C80  1  0.25340000  0.16480000  0.95850000  1.0 -0.4271745034
C  C81  1  0.74810000  0.21190000  0.36700000  1.0 0.0021394064
C  C82  1  0.25190000  0.71190000  0.13300000  1.0 0.0021394064
C  C83  1  0.25190000  0.78810000  0.63300000  1.0 0.0021394064
C  C84  1  0.74810000  0.28810000  0.86700000  1.0 0.0021394064
C  C85  1  0.63600000  0.25590000  0.37350000  1.0 0.0624858882
C  C86  1  0.36400000  0.75590000  0.12650000  1.0 0.0624858882
C  C87  1  0.36400000  0.74410000  0.62650000  1.0 0.0624858882
C  C88  1  0.63600000  0.24410000  0.87350000  1.0 0.0624858882
C  C89  1  0.87720000  0.23780000  0.43690000  1.0 0.0201566914
C  C90  1  0.12280000  0.73780000  0.06310000  1.0 0.0201566914
C  C91  1  0.12280000  0.76220000  0.56310000  1.0 0.0201566914
C  C92  1  0.87720000  0.26220000  0.93690000  1.0 0.0201566914
C  C93  1  0.90670000  0.35290000  0.47080000  1.0 -0.03671709
C  C94  1  0.09330000  0.85290000  0.02920000  1.0 -0.03671709
C  C95  1  0.09330000  0.64710000  0.52920000  1.0 -0.03671709
C  C96  1  0.90670000  0.14710000  0.97080000  1.0 -0.03671709
C  C97  1  0.02240000  0.37110000  0.53620000  1.0 -0.0294179164
C  C98  1  0.97760000  0.87110000  0.96380000  1.0 -0.0294179164
C  C99  1  0.97760000  0.62890000  0.46380000  1.0 -0.0294179164
C  C100  1  0.02240000  0.12890000  0.03620000  1.0 -0.0294179164
C  C101  1  0.10870000  0.27420000  0.56760000  1.0 -0.0201346934
C  C102  1  0.89130000  0.77420000  0.93240000  1.0 -0.0201346934
C  C103  1  0.89130000  0.72580000  0.43240000  1.0 -0.0201346934
C  C104  1  0.10870000  0.22580000  0.06760000  1.0 -0.0201346934
C  C105  1  0.07930000  0.15920000  0.53370000  1.0 -0.0491944457
C  C106  1  0.92070000  0.65920000  0.96630000  1.0 -0.0491944457
C  C107  1  0.92070000  0.84080000  0.46630000  1.0 -0.0491944457
C  C108  1  0.07930000  0.34080000  0.03370000  1.0 -0.0491944457
C  C109  1  0.96350000  0.14100000  0.46830000  1.0 -0.1047100522
C  C110  1  0.03650000  0.64100000  0.03170000  1.0 -0.1047100522
C  C111  1  0.03650000  0.85900000  0.53170000  1.0 -0.1047100522
C  C112  1  0.96350000  0.35900000  0.96830000  1.0 -0.1047100522
N  N1  1  0.26740000  0.34890000  0.39610000  1.0 0.0355303638
N  N2  1  0.73260000  0.84890000  0.10390000  1.0 0.0355303638
N  N3  1  0.73260000  0.65110000  0.60390000  1.0 0.0355303638
N  N4  1  0.26740000  0.15110000  0.89610000  1.0 0.0355303638
O  O1  1  0.24900000  0.38390000  0.68370000  1.0 -0.5107863791
O  O2  1  0.75100000  0.88390000  0.81630000  1.0 -0.5107863791
O  O3  1  0.75100000  0.61610000  0.31630000  1.0 -0.5107863791
O  O4  1  0.24900000  0.11610000  0.18370000  1.0 -0.5107863791
O  O5  1  0.32194000  0.22860000  0.64704000  1.0 -0.4846284039
O  O6  1  0.67806000  0.72860000  0.85296000  1.0 -0.4846284039
O  O7  1  0.67806000  0.77140000  0.35296000  1.0 -0.4846284039
O  O8  1  0.32194000  0.27140000  0.14704000  1.0 -0.4846284039
O  O9  1  0.72909000  0.29020000  0.30555000  1.0 -0.3745210268
O  O10  1  0.27091000  0.79020000  0.19445000  1.0 -0.3745210268
O  O11  1  0.27091000  0.70980000  0.69445000  1.0 -0.3745210268
O  O12  1  0.72909000  0.20980000  0.80555000  1.0 -0.3745210268
O  O13  1  0.52446000  0.22137000  0.30960000  1.0 -0.4454362837
O  O14  1  0.47554000  0.72137000  0.19040000  1.0 -0.4411664983
O  O15  1  0.47554000  0.77863000  0.69040000  1.0 -0.4454362837
O  O16  1  0.52446000  0.27863000  0.80960000  1.0 -0.4454362837
O  O17  1  0.64308000  0.99470000  0.65354000  1.0 -0.5620399065
O  O18  1  0.35692000  0.49470000  0.84646000  1.0 -0.5620399065
O  O19  1  0.35692000  0.00530000  0.34646000  1.0 -0.5620399065
O  O20  1  0.64308000  0.50530000  0.15354000  1.0 -0.5620399065
O  O21  1  0.54924000  0.17940000  0.63804000  1.0 -0.5297350831
O  O22  1  0.45076000  0.67940000  0.86196000  1.0 -0.5297350831
O  O23  1  0.45076000  0.82060000  0.36196000  1.0 -0.5297350831
O  O24  1  0.54924000  0.32060000  0.13804000  1.0 -0.5297350831
O  O25  1  0.55152000  0.40970000  0.69812000  1.0 -0.4411664983
O  O26  1  0.44848000  0.90970000  0.80188000  1.0 -0.4411664983
O  O27  1  0.44848000  0.59030000  0.30188000  1.0 -0.4411664983
O  O28  1  0.55152000  0.09030000  0.19812000  1.0 -0.4411664983
O  O29  1  0.49375000  0.53522000  0.75942000  1.0 -0.5107863791
O  O30  1  0.50625000  0.03522000  0.74058000  1.0 -0.5107863791
O  O31  1  0.50625000  0.46478000  0.24058000  1.0 -0.5107863791
O  O32  1  0.49375000  0.96478000  0.25942000  1.0 -0.5107863791
O  O33  1  0.29210000  0.25950000  0.30800000  1.0 -0.4411664983
O  O34  1  0.70790000  0.75950000  0.19200000  1.0 -0.4411664983
O  O35  1  0.70790000  0.74050000  0.69200000  1.0 -0.4411664983
O  O36  1  0.29210000  0.24050000  0.80800000  1.0 -0.4411664983
