# DDEC6 charges by PACMAN v1.1 (https://github.com/mtap-research/PACMAN-charge/)
data_ETIXAI_ASR_pacman
_symmetry_space_group_name_H-M   'P 1'
_cell_length_a   13.79800000
_cell_length_b   16.60500000
_cell_length_c   24.13300000
_cell_angle_alpha   106.90600000
_cell_angle_beta   99.46900000
_cell_angle_gamma   90.18400000
_symmetry_Int_Tables_number   1
_chemical_formula_structural   Zn2H31C53(NO4)2
_chemical_formula_sum   'Zn8 H124 C212 N8 O32'
_cell_volume   5210.57222698
_cell_formula_units_Z   4
loop_
 _symmetry_equiv_pos_site_id
 _symmetry_equiv_pos_as_xyz
  1  'x, y, z'
loop_
 _atom_site_type_symbol
 _atom_site_label
 _atom_site_symmetry_multiplicity
 _atom_site_fract_x
 _atom_site_fract_y
 _atom_site_fract_z
 _atom_site_occupancy
 _atom_site_charge
Zn  Zn1  1  0.33700000  0.55461000  0.56565000  1.0 0.8383540063
Zn  Zn2  1  0.36429000  0.59722000  0.69444000  1.0 0.8383540063
Zn  Zn3  1  0.83475000  0.04491000  0.56869000  1.0 0.8383540063
Zn  Zn4  1  0.86768000  0.11023000  0.69871000  1.0 0.8213435659
Zn  Zn5  1  0.66300000  0.44539000  0.43435000  1.0 0.8383540063
Zn  Zn6  1  0.63571000  0.40278000  0.30556000  1.0 0.8383540063
Zn  Zn7  1  0.16525000  0.95509000  0.43131000  1.0 0.8383540063
Zn  Zn8  1  0.13232000  0.88977000  0.30129000  1.0 0.8213435659
H  H1  1  0.16580000  0.76290000  0.55320000  1.0 0.1202475924
H  H2  1  0.06780000  0.87710000  0.55310000  1.0 0.1202475924
H  H3  1  0.08200000  0.92960000  0.72920000  1.0 0.1092902728
H  H4  1  0.18060000  0.81550000  0.72930000  1.0 0.1202475924
H  H5  1  0.58660000  0.79380000  0.73150000  1.0 0.1202475924
H  H6  1  0.69060000  0.91000000  0.74170000  1.0 0.1202475924
H  H7  1  0.68630000  0.83510000  0.56590000  1.0 0.1202475924
H  H8  1  0.58080000  0.72050000  0.55600000  1.0 0.1202475924
H  H9  1  0.53940000  0.34340000  0.53620000  1.0 0.1202475924
H  H10  1  0.64170000  0.23340000  0.54070000  1.0 0.1202475924
H  H11  1  0.60990000  0.26650000  0.70980000  1.0 0.1202475924
H  H12  1  0.50800000  0.37690000  0.70540000  1.0 0.1202475924
H  H13  1  0.12920000  0.43110000  0.70780000  1.0 0.1092902728
H  H14  1  0.02500000  0.31580000  0.69940000  1.0 0.1202475924
H  H15  1  0.02370000  0.23540000  0.52470000  1.0 0.1202475924
H  H16  1  0.12700000  0.35140000  0.53310000  1.0 0.1273204857
H  H17  1  0.83120000  0.27520000  0.78640000  1.0 0.1202475924
H  H18  1  0.89900000  0.36070000  0.87810000  1.0 0.1410540108
H  H19  1  0.13410000  0.22500000  0.87220000  1.0 0.1092902728
H  H20  1  0.05650000  0.13950000  0.78090000  1.0 0.1092902728
H  H21  1  0.25940000  0.31780000  0.22040000  1.0 0.1273204857
H  H22  1  0.28720000  0.18150000  0.16540000  1.0 0.1092902728
H  H23  1  0.24560000  0.13900000  0.06330000  1.0 0.1092902728
H  H24  1  0.16760000  0.23070000  0.01470000  1.0 0.1202475924
H  H25  1  0.32260000  0.57980000  0.21470000  1.0 0.1202475924
H  H26  1  0.39660000  0.64300000  0.15630000  1.0 0.1092902728
H  H27  1  0.35280000  0.59660000  0.05460000  1.0 0.1004494438
H  H28  1  0.23040000  0.48860000  0.00920000  1.0 0.1202475924
H  H29  1  0.36370000  0.42990000  0.35470000  1.0 0.1410540108
H  H30  1  0.40230000  0.45410000  0.45570000  1.0 0.1202475924
H  H31  1  0.18670000  0.60910000  0.48110000  1.0 0.1202475924
H  H32  1  0.14290000  0.58960000  0.38080000  1.0 0.1410540108
H  H33  1  0.65370000  0.94040000  0.49960000  1.0 0.1202475924
H  H34  1  0.59290000  0.85790000  0.40420000  1.0 0.1410540108
H  H35  1  0.85970000  0.89140000  0.36180000  1.0 0.1410540108
H  H36  1  0.91380000  0.96890000  0.45900000  1.0 0.1202475924
H  H37  1  0.46400000  0.85070000  0.25780000  1.0 0.1273204857
H  H38  1  0.30190000  0.87120000  0.21970000  1.0 0.1202475924
H  H39  1  0.24770000  0.83240000  0.11810000  1.0 0.1092902728
H  H40  1  0.35640000  0.77500000  0.05370000  1.0 0.1202475924
H  H41  1  0.76390000  0.91600000  0.23240000  1.0 0.1202475924
H  H42  1  0.82820000  0.98740000  0.17520000  1.0 0.1092902728
H  H43  1  0.77580000  0.94900000  0.07380000  1.0 0.1202475924
H  H44  1  0.65570000  0.83930000  0.02850000  1.0 0.1202475924
H  H45  1  0.67490000  0.64560000  0.23220000  1.0 0.1273204857
H  H46  1  0.67240000  0.50470000  0.17450000  1.0 0.1004494438
H  H47  1  0.62250000  0.46880000  0.07270000  1.0 0.1004494438
H  H48  1  0.57190000  0.57210000  0.02760000  1.0 0.1202475924
H  H49  1  0.33160000  0.72380000  0.90380000  1.0 0.1410540108
H  H50  1  0.28450000  0.68200000  0.80240000  1.0 0.1202475924
H  H51  1  0.53740000  0.57890000  0.78070000  1.0 0.1202475924
H  H52  1  0.59210000  0.61830000  0.88140000  1.0 0.1410540108
H  H53  1  0.93370000  0.44120000  0.02990000  1.0 0.0893767202
H  H54  1  0.82030000  0.50370000  0.09000000  1.0 0.081258496
H  H55  1  0.86680000  0.54510000  0.19250000  1.0 0.081258496
H  H56  1  0.02500000  0.52300000  0.24000000  1.0 0.081258496
H  H57  1  0.06480000  0.17070000  0.89680000  1.0 0.1202475924
H  H58  1  0.98240000  0.09010000  0.80410000  1.0 0.1092902728
H  H59  1  0.91760000  0.37890000  0.03150000  1.0 0.0893767202
H  H60  1  0.80070000  0.42750000  0.09190000  1.0 0.081258496
H  H61  1  0.84690000  0.46890000  0.19280000  1.0 0.081258496
H  H62  1  0.01450000  0.47540000  0.23510000  1.0 0.0893767202
H  H63  1  0.83420000  0.23710000  0.44680000  1.0 0.1202475924
H  H64  1  0.93220000  0.12290000  0.44690000  1.0 0.1202475924
H  H65  1  0.91800000  0.07040000  0.27080000  1.0 0.1092902728
H  H66  1  0.81940000  0.18450000  0.27070000  1.0 0.1202475924
H  H67  1  0.41340000  0.20620000  0.26850000  1.0 0.1202475924
H  H68  1  0.30940000  0.09000000  0.25830000  1.0 0.1202475924
H  H69  1  0.31370000  0.16490000  0.43410000  1.0 0.1202475924
H  H70  1  0.41920000  0.27950000  0.44400000  1.0 0.1202475924
H  H71  1  0.46060000  0.65660000  0.46380000  1.0 0.1202475924
H  H72  1  0.35830000  0.76660000  0.45930000  1.0 0.1202475924
H  H73  1  0.39010000  0.73350000  0.29020000  1.0 0.1202475924
H  H74  1  0.49200000  0.62310000  0.29460000  1.0 0.1202475924
H  H75  1  0.87080000  0.56890000  0.29220000  1.0 0.1092902728
H  H76  1  0.97500000  0.68420000  0.30060000  1.0 0.1202475924
H  H77  1  0.97630000  0.76460000  0.47530000  1.0 0.1202475924
H  H78  1  0.87300000  0.64860000  0.46690000  1.0 0.1273204857
H  H79  1  0.16880000  0.72480000  0.21360000  1.0 0.1202475924
H  H80  1  0.10100000  0.63930000  0.12190000  1.0 0.1410540108
H  H81  1  0.86590000  0.77500000  0.12780000  1.0 0.1092902728
H  H82  1  0.94350000  0.86050000  0.21910000  1.0 0.1092902728
H  H83  1  0.74060000  0.68220000  0.77960000  1.0 0.1273204857
H  H84  1  0.71280000  0.81850000  0.83460000  1.0 0.1092902728
H  H85  1  0.75440000  0.86100000  0.93670000  1.0 0.1092902728
H  H86  1  0.83240000  0.76930000  0.98530000  1.0 0.1202475924
H  H87  1  0.67740000  0.42020000  0.78530000  1.0 0.1202475924
H  H88  1  0.60340000  0.35700000  0.84370000  1.0 0.1092902728
H  H89  1  0.64720000  0.40340000  0.94540000  1.0 0.1004494438
H  H90  1  0.76960000  0.51140000  0.99080000  1.0 0.1202475924
H  H91  1  0.63630000  0.57010000  0.64530000  1.0 0.1410540108
H  H92  1  0.59770000  0.54590000  0.54430000  1.0 0.1202475924
H  H93  1  0.81330000  0.39090000  0.51890000  1.0 0.1202475924
H  H94  1  0.85710000  0.41040000  0.61920000  1.0 0.1410540108
H  H95  1  0.34630000  0.05960000  0.50040000  1.0 0.1202475924
H  H96  1  0.40710000  0.14210000  0.59580000  1.0 0.1410540108
H  H97  1  0.14030000  0.10860000  0.63820000  1.0 0.1410540108
H  H98  1  0.08620000  0.03110000  0.54100000  1.0 0.1202475924
H  H99  1  0.53600000  0.14930000  0.74220000  1.0 0.1273204857
H  H100  1  0.69810000  0.12880000  0.78030000  1.0 0.1202475924
H  H101  1  0.75230000  0.16760000  0.88190000  1.0 0.1092902728
H  H102  1  0.64360000  0.22500000  0.94630000  1.0 0.1202475924
H  H103  1  0.23610000  0.08400000  0.76760000  1.0 0.1202475924
H  H104  1  0.17180000  0.01260000  0.82480000  1.0 0.1092902728
H  H105  1  0.22420000  0.05100000  0.92620000  1.0 0.1202475924
H  H106  1  0.34430000  0.16070000  0.97150000  1.0 0.1202475924
H  H107  1  0.32510000  0.35440000  0.76780000  1.0 0.1273204857
H  H108  1  0.32760000  0.49530000  0.82550000  1.0 0.1004494438
H  H109  1  0.37750000  0.53120000  0.92730000  1.0 0.1004494438
H  H110  1  0.42810000  0.42790000  0.97240000  1.0 0.1202475924
H  H111  1  0.66840000  0.27620000  0.09620000  1.0 0.1410540108
H  H112  1  0.71550000  0.31800000  0.19760000  1.0 0.1202475924
H  H113  1  0.46260000  0.42110000  0.21930000  1.0 0.1202475924
H  H114  1  0.40790000  0.38170000  0.11860000  1.0 0.1454128423
H  H115  1  0.06630000  0.55880000  0.97010000  1.0 0.0893767202
H  H116  1  0.17970000  0.49630000  0.91000000  1.0 0.081258496
H  H117  1  0.13320000  0.45490000  0.80750000  1.0 0.081258496
H  H118  1  0.97500000  0.47700000  0.76000000  1.0 0.081258496
H  H119  1  0.93520000  0.82930000  0.10320000  1.0 0.1202475924
H  H120  1  0.01760000  0.90990000  0.19590000  1.0 0.1092902728
H  H121  1  0.08240000  0.62110000  0.96850000  1.0 0.0893767202
H  H122  1  0.19930000  0.57250000  0.90810000  1.0 0.081258496
H  H123  1  0.15310000  0.53110000  0.80720000  1.0 0.081258496
H  H124  1  0.98550000  0.52460000  0.76490000  1.0 0.0893767202
C  C1  1  0.24320000  0.70307000  0.64022000  1.0 0.5881501485
C  C2  1  0.18140000  0.77745000  0.64086000  1.0 -0.0123235081
C  C3  1  0.14830000  0.79658000  0.58893000  1.0 -0.1081744441
C  C4  1  0.09010000  0.86432000  0.58876000  1.0 -0.1081744441
C  C5  1  0.06450000  0.91362000  0.64116000  1.0 -0.0212288245
C  C6  1  0.09870000  0.89550000  0.69341000  1.0 -0.1081744441
C  C7  1  0.15720000  0.82770000  0.69351000  1.0 -0.1081744441
C  C8  1  0.99640000  0.98339000  0.64004000  1.0 0.578282232
C  C9  1  0.49570000  0.67753000  0.63560000  1.0 0.5722958097
C  C10  1  0.57040000  0.74744000  0.64239000  1.0 -0.0212288245
C  C11  1  0.60540000  0.80320000  0.69760000  1.0 -0.1081744441
C  C12  1  0.66740000  0.87210000  0.70378000  1.0 -0.1081744441
C  C13  1  0.69550000  0.88561000  0.65448000  1.0 -0.0123235081
C  C14  1  0.66440000  0.82760000  0.59957000  1.0 -0.1081744441
C  C15  1  0.60210000  0.75950000  0.59369000  1.0 -0.1081744441
C  C16  1  0.75580000  0.96326000  0.65900000  1.0 0.578282232
C  C17  1  0.45560000  0.44711000  0.61985000  1.0 0.578282232
C  C18  1  0.51560000  0.37200000  0.62075000  1.0 -0.0212288245
C  C19  1  0.55440000  0.32825000  0.57160000  1.0 -0.1081744441
C  C20  1  0.61480000  0.26285000  0.57421000  1.0 -0.1081744441
C  C21  1  0.63660000  0.23971000  0.62593000  1.0 -0.0212288245
C  C22  1  0.59610000  0.28239000  0.67469000  1.0 -0.1204883352
C  C23  1  0.53580000  0.34804000  0.67206000  1.0 -0.1204883352
C  C24  1  0.20910000  0.47410000  0.62727000  1.0 0.5881501485
C  C25  1  0.13890000  0.40179000  0.62147000  1.0 -0.0123235081
C  C26  1  0.10810000  0.39120000  0.67044000  1.0 -0.1391658586
C  C27  1  0.04630000  0.32250000  0.66545000  1.0 -0.1391658586
C  C28  1  0.01550000  0.26358000  0.61129000  1.0 -0.0212288245
C  C29  1  0.04530000  0.27490000  0.56212000  1.0 -0.098163513
C  C30  1  0.10680000  0.34390000  0.56717000  1.0 -0.1081744441
C  C31  1  0.95150000  0.18805000  0.60703000  1.0 0.578282232
C  C32  1  0.70770000  0.17226000  0.62918000  1.0 0.5881501485
C  C33  1  0.88920000  0.25840000  0.80632000  1.0 -0.0502055686
C  C34  1  0.92980000  0.31060000  0.86104000  1.0 -0.2360607735
C  C35  1  0.01380000  0.29010000  0.89039000  1.0 0.1202475924
C  C36  1  0.06710000  0.23140000  0.85800000  1.0 -0.0631214158
C  C37  1  0.01990000  0.18120000  0.80340000  1.0 0.0491758385
C  C38  1  0.05730000  0.33680000  0.94955000  1.0 -0.2671147188
C  C39  1  0.09180000  0.36820000  0.99996000  1.0 -0.2671147188
C  C40  1  0.12480000  0.39800000  0.06371000  1.0 0.0709261409
C  C41  1  0.04080000  0.43130000  0.09669000  1.0 -0.0315783678
C  C42  1  0.06880000  0.45720000  0.15768000  1.0 -0.0212288245
C  C43  1  0.17780000  0.44790000  0.17816000  1.0 0.0709261409
C  C44  1  0.19760000  0.35550000  0.14988000  1.0 0.0190073812
C  C45  1  0.24120000  0.30050000  0.17880000  1.0 -0.1326004951
C  C46  1  0.25780000  0.21980000  0.14598000  1.0 -0.098163513
C  C47  1  0.23210000  0.19410000  0.08518000  1.0 -0.1081744441
C  C48  1  0.18680000  0.24860000  0.05627000  1.0 -0.1204883352
C  C49  1  0.17010000  0.32900000  0.08866000  1.0 0.0299992697
C  C50  1  0.20420000  0.47020000  0.08532000  1.0 0.0190073812
C  C51  1  0.23210000  0.49710000  0.14656000  1.0 0.0119148712
C  C52  1  0.30380000  0.56140000  0.17309000  1.0 -0.1391658586
C  C53  1  0.34780000  0.59840000  0.13840000  1.0 -0.0896746543
C  C54  1  0.32130000  0.57120000  0.07792000  1.0 -0.1204883352
C  C55  1  0.24880000  0.50690000  0.05080000  1.0 -0.1588705531
C  C56  1  0.20640000  0.47450000  0.24214000  1.0 -0.1785628735
C  C57  1  0.22540000  0.49220000  0.29416000  1.0 -0.1391658586
C  C58  1  0.24930000  0.50720000  0.35669000  1.0 0.194505083
C  C59  1  0.32650000  0.46710000  0.37993000  1.0 -0.1703055589
C  C60  1  0.34900000  0.48170000  0.44020000  1.0 0.1004494438
C  C61  1  0.22290000  0.57240000  0.45491000  1.0 0.0893767202
C  C62  1  0.19640000  0.56110000  0.39526000  1.0 -0.1785628735
C  C63  1  0.69530000  0.93080000  0.47087000  1.0 0.0893767202
C  C64  1  0.65820000  0.88240000  0.41407000  1.0 -0.1862406781
C  C65  1  0.71860000  0.87010000  0.37161000  1.0 0.194505083
C  C66  1  0.81560000  0.90160000  0.38918000  1.0 -0.1862406781
C  C67  1  0.84710000  0.94813000  0.44712000  1.0 0.1004494438
C  C68  1  0.68050000  0.83130000  0.31027000  1.0 -0.1204883352
C  C69  1  0.64990000  0.80910000  0.25889000  1.0 -0.0671533248
C  C70  1  0.61520000  0.78530000  0.19520000  1.0 0.081258496
C  C71  1  0.50710000  0.80190000  0.17860000  1.0 0.0190073812
C  C72  1  0.44250000  0.83570000  0.21646000  1.0 -0.1391658586
C  C73  1  0.34600000  0.84740000  0.19375000  1.0 -0.0896746543
C  C74  1  0.31380000  0.82470000  0.13332000  1.0 -0.098163513
C  C75  1  0.37840000  0.79060000  0.09503000  1.0 -0.1391658586
C  C76  1  0.47430000  0.77940000  0.11729000  1.0 0.0190073812
C  C77  1  0.55500000  0.74380000  0.08177000  1.0 0.0709261409
C  C78  1  0.63850000  0.81280000  0.10362000  1.0 0.0190073812
C  C79  1  0.67060000  0.83540000  0.16448000  1.0 0.0190073812
C  C80  1  0.74160000  0.90040000  0.19113000  1.0 -0.1512153907
C  C81  1  0.77990000  0.94250000  0.15698000  1.0 -0.1204883352
C  C82  1  0.74860000  0.92000000  0.09673000  1.0 -0.1081744441
C  C83  1  0.67750000  0.85490000  0.06980000  1.0 -0.1391658586
C  C84  1  0.59180000  0.66960000  0.10341000  1.0 0.0190073812
C  C85  1  0.62340000  0.69130000  0.16415000  1.0 0.0190073812
C  C86  1  0.65360000  0.63060000  0.19089000  1.0 -0.1588705531
C  C87  1  0.65250000  0.54720000  0.15652000  1.0 -0.1391658586
C  C88  1  0.62230000  0.52580000  0.09589000  1.0 -0.1391658586
C  C89  1  0.59210000  0.58680000  0.06905000  1.0 -0.1512153907
C  C90  1  0.52300000  0.72030000  0.01811000  1.0 -0.0631214158
C  C91  1  0.49820000  0.70020000  0.96624000  1.0 -0.1326004951
C  C92  1  0.46760000  0.67530000  0.90343000  1.0 0.1784484783
C  C93  1  0.37510000  0.69410000  0.87926000  1.0 -0.2017421438
C  C94  1  0.34760000  0.66900000  0.81888000  1.0 0.081258496
C  C95  1  0.49540000  0.60880000  0.80618000  1.0 0.0893767202
C  C96  1  0.52850000  0.63190000  0.86605000  1.0 -0.1703055589
C  C97  1  0.95030000  0.45340000  0.07130000  1.0 -0.0315783678
C  C98  1  0.88430000  0.49350000  0.10720000  1.0 -0.0388889466
C  C99  1  0.91230000  0.51850000  0.16820000  1.0 -0.0388889466
C  C100  1  0.00630000  0.50490000  0.19370000  1.0 -0.0315783678
C  C101  1  0.02550000  0.19690000  0.87150000  1.0 0.0039434073
C  C102  1  0.97780000  0.14950000  0.81630000  1.0 0.0190073812
C  C103  1  0.93730000  0.40840000  0.07200000  1.0 -0.0315783678
C  C104  1  0.86840000  0.43050000  0.10860000  1.0 -0.0502055686
C  C105  1  0.89570000  0.45650000  0.16840000  1.0 -0.0502055686
C  C106  1  0.99570000  0.46480000  0.19390000  1.0 -0.0123235081
C  C107  1  0.75680000  0.29693000  0.35978000  1.0 0.5881501485
C  C108  1  0.81860000  0.22255000  0.35914000  1.0 -0.0123235081
C  C109  1  0.85170000  0.20342000  0.41107000  1.0 -0.1081744441
C  C110  1  0.90990000  0.13568000  0.41124000  1.0 -0.1081744441
C  C111  1  0.93550000  0.08638000  0.35884000  1.0 -0.0212288245
C  C112  1  0.90130000  0.10450000  0.30659000  1.0 -0.1081744441
C  C113  1  0.84280000  0.17230000  0.30649000  1.0 -0.1081744441
C  C114  1  0.00360000  0.01661000  0.35996000  1.0 0.578282232
C  C115  1  0.50430000  0.32247000  0.36440000  1.0 0.5722958097
C  C116  1  0.42960000  0.25256000  0.35761000  1.0 -0.0212288245
C  C117  1  0.39460000  0.19680000  0.30240000  1.0 -0.1081744441
C  C118  1  0.33260000  0.12790000  0.29622000  1.0 -0.1081744441
C  C119  1  0.30450000  0.11439000  0.34552000  1.0 -0.0123235081
C  C120  1  0.33560000  0.17240000  0.40043000  1.0 -0.1081744441
C  C121  1  0.39790000  0.24050000  0.40631000  1.0 -0.1081744441
C  C122  1  0.24420000  0.03674000  0.34100000  1.0 0.578282232
C  C123  1  0.54440000  0.55289000  0.38015000  1.0 0.578282232
C  C124  1  0.48440000  0.62800000  0.37925000  1.0 -0.0212288245
C  C125  1  0.44560000  0.67175000  0.42840000  1.0 -0.1081744441
C  C126  1  0.38520000  0.73715000  0.42579000  1.0 -0.1081744441
C  C127  1  0.36340000  0.76029000  0.37407000  1.0 -0.0212288245
C  C128  1  0.40390000  0.71761000  0.32531000  1.0 -0.1204883352
C  C129  1  0.46420000  0.65196000  0.32794000  1.0 -0.1204883352
C  C130  1  0.79090000  0.52590000  0.37273000  1.0 0.5881501485
C  C131  1  0.86110000  0.59821000  0.37853000  1.0 -0.0123235081
C  C132  1  0.89190000  0.60880000  0.32956000  1.0 -0.1391658586
C  C133  1  0.95370000  0.67750000  0.33455000  1.0 -0.1391658586
C  C134  1  0.98450000  0.73642000  0.38871000  1.0 -0.0212288245
C  C135  1  0.95470000  0.72510000  0.43788000  1.0 -0.098163513
C  C136  1  0.89320000  0.65610000  0.43283000  1.0 -0.1081744441
C  C137  1  0.04850000  0.81195000  0.39297000  1.0 0.578282232
C  C138  1  0.29230000  0.82774000  0.37082000  1.0 0.5881501485
C  C139  1  0.11080000  0.74160000  0.19368000  1.0 -0.0502055686
C  C140  1  0.07020000  0.68940000  0.13896000  1.0 -0.2360607735
C  C141  1  0.98620000  0.70990000  0.10961000  1.0 0.1202475924
C  C142  1  0.93290000  0.76860000  0.14200000  1.0 -0.0671533248
C  C143  1  0.98010000  0.81880000  0.19660000  1.0 0.0491758385
C  C144  1  0.94270000  0.66320000  0.05045000  1.0 -0.2671147188
C  C145  1  0.90820000  0.63180000  0.00004000  1.0 -0.2671147188
C  C146  1  0.87520000  0.60200000  0.93629000  1.0 0.0709261409
C  C147  1  0.95920000  0.56870000  0.90331000  1.0 -0.0315783678
C  C148  1  0.93120000  0.54280000  0.84232000  1.0 -0.0212288245
C  C149  1  0.82220000  0.55210000  0.82184000  1.0 0.0709261409
C  C150  1  0.80240000  0.64450000  0.85012000  1.0 0.0190073812
C  C151  1  0.75880000  0.69950000  0.82120000  1.0 -0.1326004951
C  C152  1  0.74220000  0.78020000  0.85402000  1.0 -0.098163513
C  C153  1  0.76790000  0.80590000  0.91482000  1.0 -0.1081744441
C  C154  1  0.81320000  0.75140000  0.94373000  1.0 -0.1204883352
C  C155  1  0.82990000  0.67100000  0.91134000  1.0 0.0299992697
C  C156  1  0.79580000  0.52980000  0.91468000  1.0 0.0190073812
C  C157  1  0.76790000  0.50290000  0.85344000  1.0 0.0119148712
C  C158  1  0.69620000  0.43860000  0.82691000  1.0 -0.1391658586
C  C159  1  0.65220000  0.40160000  0.86160000  1.0 -0.0896746543
C  C160  1  0.67870000  0.42880000  0.92208000  1.0 -0.1204883352
C  C161  1  0.75120000  0.49310000  0.94920000  1.0 -0.1588705531
C  C162  1  0.79360000  0.52550000  0.75786000  1.0 -0.1785628735
C  C163  1  0.77460000  0.50780000  0.70584000  1.0 -0.1391658586
C  C164  1  0.75070000  0.49280000  0.64331000  1.0 0.194505083
C  C165  1  0.67350000  0.53290000  0.62007000  1.0 -0.1703055589
C  C166  1  0.65100000  0.51830000  0.55980000  1.0 0.1004494438
C  C167  1  0.77710000  0.42760000  0.54509000  1.0 0.0893767202
C  C168  1  0.80360000  0.43890000  0.60474000  1.0 -0.1785628735
C  C169  1  0.30470000  0.06920000  0.52913000  1.0 0.081258496
C  C170  1  0.34180000  0.11760000  0.58593000  1.0 -0.1862406781
C  C171  1  0.28140000  0.12990000  0.62839000  1.0 0.194505083
C  C172  1  0.18440000  0.09840000  0.61082000  1.0 -0.1862406781
C  C173  1  0.15290000  0.05187000  0.55288000  1.0 0.1004494438
C  C174  1  0.31950000  0.16870000  0.68973000  1.0 -0.1204883352
C  C175  1  0.35010000  0.19090000  0.74111000  1.0 -0.0671533248
C  C176  1  0.38480000  0.21470000  0.80480000  1.0 0.081258496
C  C177  1  0.49290000  0.19810000  0.82140000  1.0 0.0190073812
C  C178  1  0.55750000  0.16430000  0.78354000  1.0 -0.1391658586
C  C179  1  0.65400000  0.15260000  0.80625000  1.0 -0.0845660916
C  C180  1  0.68620000  0.17530000  0.86668000  1.0 -0.098163513
C  C181  1  0.62160000  0.20940000  0.90497000  1.0 -0.1391658586
C  C182  1  0.52570000  0.22060000  0.88271000  1.0 0.0190073812
C  C183  1  0.44500000  0.25620000  0.91823000  1.0 0.0709261409
C  C184  1  0.36150000  0.18720000  0.89638000  1.0 0.0190073812
C  C185  1  0.32940000  0.16460000  0.83552000  1.0 0.0190073812
C  C186  1  0.25840000  0.09960000  0.80887000  1.0 -0.1512153907
C  C187  1  0.22010000  0.05750000  0.84302000  1.0 -0.1204883352
C  C188  1  0.25140000  0.08000000  0.90327000  1.0 -0.1081744441
C  C189  1  0.32250000  0.14510000  0.93020000  1.0 -0.1391658586
C  C190  1  0.40820000  0.33040000  0.89659000  1.0 0.0190073812
C  C191  1  0.37660000  0.30870000  0.83585000  1.0 0.0190073812
C  C192  1  0.34640000  0.36940000  0.80911000  1.0 -0.1588705531
C  C193  1  0.34750000  0.45280000  0.84348000  1.0 -0.1391658586
C  C194  1  0.37770000  0.47420000  0.90411000  1.0 -0.1391658586
C  C195  1  0.40790000  0.41320000  0.93095000  1.0 -0.1512153907
C  C196  1  0.47700000  0.27970000  0.98189000  1.0 -0.0631214158
C  C197  1  0.50180000  0.29980000  0.03376000  1.0 -0.1326004951
C  C198  1  0.53240000  0.32470000  0.09657000  1.0 0.1784484783
C  C199  1  0.62490000  0.30590000  0.12074000  1.0 -0.2017421438
C  C200  1  0.65240000  0.33100000  0.18112000  1.0 0.081258496
C  C201  1  0.50460000  0.39120000  0.19382000  1.0 0.0893767202
C  C202  1  0.47150000  0.36810000  0.13395000  1.0 -0.1703055589
C  C203  1  0.04970000  0.54660000  0.92870000  1.0 -0.0315783678
C  C204  1  0.11570000  0.50650000  0.89280000  1.0 -0.0388889466
C  C205  1  0.08770000  0.48150000  0.83180000  1.0 -0.0388889466
C  C206  1  0.99370000  0.49510000  0.80630000  1.0 -0.0315783678
C  C207  1  0.97450000  0.80310000  0.12850000  1.0 0.0039434073
C  C208  1  0.02220000  0.85050000  0.18370000  1.0 0.0190073812
C  C209  1  0.06270000  0.59160000  0.92800000  1.0 -0.0315783678
C  C210  1  0.13160000  0.56950000  0.89140000  1.0 -0.0502055686
C  C211  1  0.10430000  0.54350000  0.83160000  1.0 -0.0502055686
C  C212  1  0.00430000  0.53520000  0.80610000  1.0 -0.0212288245
N  N1  1  0.78812000  0.96509000  0.48715000  1.0 -0.2134631737
N  N2  1  0.40652000  0.62692000  0.78261000  1.0 -0.2017421438
N  N3  1  0.92470000  0.18792000  0.78004000  1.0 -0.1588705531
N  N4  1  0.29813000  0.53332000  0.47731000  1.0 -0.2134631737
N  N5  1  0.21188000  0.03491000  0.51285000  1.0 -0.2134631737
N  N6  1  0.59348000  0.37308000  0.21739000  1.0 -0.2017421438
N  N7  1  0.07530000  0.81208000  0.21996000  1.0 -0.1588705531
N  N8  1  0.70187000  0.46668000  0.52269000  1.0 -0.2134631737
O  O1  1  0.25713000  0.65789000  0.59107000  1.0 -0.549724882
O  O2  1  0.27701000  0.69244000  0.68908000  1.0 -0.531795046
O  O3  1  0.45732000  0.63615000  0.58416000  1.0 -0.531795046
O  O4  1  0.47682000  0.66617000  0.68169000  1.0 -0.5365966576
O  O5  1  0.43933000  0.49231000  0.66854000  1.0 -0.549724882
O  O6  1  0.42770000  0.46005000  0.57102000  1.0 -0.531795046
O  O7  1  0.22969000  0.48315000  0.58056000  1.0 -0.531795046
O  O8  1  0.24306000  0.51975000  0.67839000  1.0 -0.5365966576
O  O9  1  0.72692000  0.12613000  0.58141000  1.0 -0.5365966576
O  O10  1  0.74433000  0.16902000  0.67994000  1.0 -0.531795046
O  O11  1  0.96051000  0.98972000  0.59014000  1.0 -0.5365966576
O  O12  1  0.97930000  0.02963000  0.68880000  1.0 -0.5617040546
O  O13  1  0.77114000  0.97319000  0.61157000  1.0 -0.5617040546
O  O14  1  0.78685000  0.01372000  0.70945000  1.0 -0.531795046
O  O15  1  0.91964000  0.13804000  0.55640000  1.0 -0.531795046
O  O16  1  0.93462000  0.17908000  0.65438000  1.0 -0.5617040546
O  O17  1  0.74287000  0.34211000  0.40893000  1.0 -0.549724882
O  O18  1  0.72299000  0.30756000  0.31092000  1.0 -0.531795046
O  O19  1  0.54268000  0.36385000  0.41584000  1.0 -0.5365966576
O  O20  1  0.52318000  0.33383000  0.31831000  1.0 -0.5365966576
O  O21  1  0.56067000  0.50769000  0.33146000  1.0 -0.549724882
O  O22  1  0.57230000  0.53995000  0.42898000  1.0 -0.531795046
O  O23  1  0.77031000  0.51685000  0.41944000  1.0 -0.531795046
O  O24  1  0.75694000  0.48025000  0.32161000  1.0 -0.5365966576
O  O25  1  0.27308000  0.87387000  0.41859000  1.0 -0.5365966576
O  O26  1  0.25567000  0.83098000  0.32006000  1.0 -0.531795046
O  O27  1  0.03949000  0.01028000  0.40986000  1.0 -0.5365966576
O  O28  1  0.02070000  0.97037000  0.31120000  1.0 -0.5617040546
O  O29  1  0.22886000  0.02681000  0.38843000  1.0 -0.5617040546
O  O30  1  0.21315000  0.98628000  0.29055000  1.0 -0.531795046
O  O31  1  0.08036000  0.86196000  0.44360000  1.0 -0.531795046
O  O32  1  0.06538000  0.82092000  0.34562000  1.0 -0.5617040546
