# DDEC6 charges by PACMAN v1.1 (https://github.com/mtap-research/PACMAN-charge/)
data_ETIYEN_ASR_pacman
_symmetry_space_group_name_H-M   'P 1'
_cell_length_a   12.11170000
_cell_length_b   11.14190000
_cell_length_c   21.69010000
_cell_angle_alpha   90.00000000
_cell_angle_beta   120.40200000
_cell_angle_gamma   90.00000000
_symmetry_Int_Tables_number   1
_chemical_formula_structural   Mn2H18C25O8
_chemical_formula_sum   'Mn8 H72 C100 O32'
_cell_volume   2524.54436793
_cell_formula_units_Z   4
loop_
 _symmetry_equiv_pos_site_id
 _symmetry_equiv_pos_as_xyz
  1  'x, y, z'
loop_
 _atom_site_type_symbol
 _atom_site_label
 _atom_site_symmetry_multiplicity
 _atom_site_fract_x
 _atom_site_fract_y
 _atom_site_fract_z
 _atom_site_occupancy
 _atom_site_charge
Mn  Mn1  1  0.38298000  0.11129000  0.28469000  1.0 0.9460306511
Mn  Mn2  1  0.61702000  0.61129000  0.21531000  1.0 0.9460306511
Mn  Mn3  1  0.61702000  0.88871000  0.71531000  1.0 0.9460306511
Mn  Mn4  1  0.38298000  0.38871000  0.78469000  1.0 0.9460306511
Mn  Mn5  1  0.52850000  0.22075000  0.71707000  1.0 0.9352149412
Mn  Mn6  1  0.47150000  0.72075000  0.78293000  1.0 0.9352149412
Mn  Mn7  1  0.47150000  0.77925000  0.28293000  1.0 0.9352149412
Mn  Mn8  1  0.52850000  0.27925000  0.21707000  1.0 0.9352149412
H  H1  1  0.78920000  0.34230000  0.30380000  1.0 0.3259130165
H  H2  1  0.21080000  0.84230000  0.19620000  1.0 0.3259130165
H  H3  1  0.21080000  0.65770000  0.69620000  1.0 0.3259130165
H  H4  1  0.78920000  0.15770000  0.80380000  1.0 0.3259130165
H  H5  1  0.69340000  0.00710000  0.43870000  1.0 0.1062872492
H  H6  1  0.30660000  0.50710000  0.06130000  1.0 0.1062872492
H  H7  1  0.30660000  0.99290000  0.56130000  1.0 0.1062872492
H  H8  1  0.69340000  0.49290000  0.93870000  1.0 0.1062872492
H  H9  1  0.67550000  0.95570000  0.53740000  1.0 0.1199002069
H  H10  1  0.32450000  0.45570000  0.96260000  1.0 0.1199002069
H  H11  1  0.32450000  0.04430000  0.46260000  1.0 0.1199002069
H  H12  1  0.67550000  0.54430000  0.03740000  1.0 0.1199002069
H  H13  1  0.58250000  0.29740000  0.55020000  1.0 0.1199002069
H  H14  1  0.41750000  0.79740000  0.94980000  1.0 0.1199002069
H  H15  1  0.41750000  0.70260000  0.44980000  1.0 0.1199002069
H  H16  1  0.58250000  0.20260000  0.05020000  1.0 0.1199002069
H  H17  1  0.59080000  0.34260000  0.44790000  1.0 0.1062872492
H  H18  1  0.40920000  0.84260000  0.05210000  1.0 0.1062872492
H  H19  1  0.40920000  0.65740000  0.55210000  1.0 0.1062872492
H  H20  1  0.59080000  0.15740000  0.94790000  1.0 0.1062872492
H  H21  1  0.58290000  0.57240000  0.71710000  1.0 0.1062872492
H  H22  1  0.41710000  0.07240000  0.78290000  1.0 0.1062872492
H  H23  1  0.41710000  0.42760000  0.28290000  1.0 0.1062872492
H  H24  1  0.58290000  0.92760000  0.21710000  1.0 0.1062872492
H  H25  1  0.68820000  0.12100000  0.35740000  1.0 0.0596595569
H  H26  1  0.31180000  0.62100000  0.14260000  1.0 0.0596595569
H  H27  1  0.31180000  0.87900000  0.64260000  1.0 0.0596595569
H  H28  1  0.68820000  0.37900000  0.85740000  1.0 0.0596595569
H  H29  1  0.70400000  0.37900000  0.37400000  1.0 0.0695594119
H  H30  1  0.29600000  0.87900000  0.12600000  1.0 0.0596595569
H  H31  1  0.29600000  0.62100000  0.62600000  1.0 0.0596595569
H  H32  1  0.70400000  0.12100000  0.87400000  1.0 0.0695594119
H  H33  1  0.84140000  0.42370000  0.49300000  1.0 0.0695594119
H  H34  1  0.15860000  0.92370000  0.00700000  1.0 0.0695594119
H  H35  1  0.15860000  0.57630000  0.50700000  1.0 0.0695594119
H  H36  1  0.84140000  0.07630000  0.99300000  1.0 0.0695594119
H  H37  1  0.03880000  0.41430000  0.59800000  1.0 0.0867710485
H  H38  1  0.96120000  0.91430000  0.90200000  1.0 0.0867710485
H  H39  1  0.96120000  0.58570000  0.40200000  1.0 0.0867710485
H  H40  1  0.03880000  0.08570000  0.09800000  1.0 0.0867710485
H  H41  1  0.15190000  0.15480000  0.51300000  1.0 0.0789250088
H  H42  1  0.84810000  0.65480000  0.98700000  1.0 0.0789250088
H  H43  1  0.84810000  0.84520000  0.48700000  1.0 0.0789250088
H  H44  1  0.15190000  0.34520000  0.01300000  1.0 0.0789250088
H  H45  1  0.95190000  0.16190000  0.40720000  1.0 0.0695594119
H  H46  1  0.04810000  0.66190000  0.09280000  1.0 0.0695594119
H  H47  1  0.04810000  0.83810000  0.59280000  1.0 0.0695594119
H  H48  1  0.95190000  0.33810000  0.90720000  1.0 0.0695594119
H  H49  1  0.64940000  0.34080000  0.38230000  1.0 0.0596595569
H  H50  1  0.35060000  0.84080000  0.11770000  1.0 0.0596595569
H  H51  1  0.35060000  0.65920000  0.61770000  1.0 0.0596595569
H  H52  1  0.64940000  0.15920000  0.88230000  1.0 0.0596595569
H  H53  1  0.85630000  0.40960000  0.44280000  1.0 0.0695594119
H  H54  1  0.14370000  0.90960000  0.05720000  1.0 0.0695594119
H  H55  1  0.14370000  0.59040000  0.55720000  1.0 0.0695594119
H  H56  1  0.85630000  0.09040000  0.94280000  1.0 0.0695594119
H  H57  1  0.04410000  0.43960000  0.55260000  1.0 0.0867710485
H  H58  1  0.95590000  0.93960000  0.94740000  1.0 0.0867710485
H  H59  1  0.95590000  0.56040000  0.44740000  1.0 0.0867710485
H  H60  1  0.04410000  0.06040000  0.05260000  1.0 0.0867710485
H  H61  1  0.13730000  0.08920000  0.55630000  1.0 0.0789250088
H  H62  1  0.86270000  0.58920000  0.94370000  1.0 0.0789250088
H  H63  1  0.86270000  0.91080000  0.44370000  1.0 0.0789250088
H  H64  1  0.13730000  0.41080000  0.05630000  1.0 0.0789250088
H  H65  1  0.94950000  0.05920000  0.44650000  1.0 0.0789250088
H  H66  1  0.05050000  0.55920000  0.05350000  1.0 0.0789250088
H  H67  1  0.05050000  0.94080000  0.55350000  1.0 0.0789250088
H  H68  1  0.94950000  0.44080000  0.94650000  1.0 0.0789250088
H  H69  1  0.74710000  0.12180000  0.35250000  1.0 0.0695594119
H  H70  1  0.25290000  0.62180000  0.14750000  1.0 0.0695594119
H  H71  1  0.25290000  0.87820000  0.64750000  1.0 0.0695594119
H  H72  1  0.74710000  0.37820000  0.85250000  1.0 0.0695594119
C  C1  1  0.65141000  0.18090000  0.43641000  1.0 0.0487891723
C  C2  1  0.34859000  0.68090000  0.06359000  1.0 0.0487891723
C  C3  1  0.34859000  0.81910000  0.56359000  1.0 0.0487891723
C  C4  1  0.65141000  0.31910000  0.93641000  1.0 0.0487891723
C  C5  1  0.67190000  0.06730000  0.46180000  1.0 -0.2587204307
C  C6  1  0.32810000  0.56730000  0.03820000  1.0 -0.2587204307
C  C7  1  0.32810000  0.93270000  0.53820000  1.0 -0.2587204307
C  C8  1  0.67190000  0.43270000  0.96180000  1.0 -0.2587204307
C  C9  1  0.66220000  0.03650000  0.52120000  1.0 -0.101833311
C  C10  1  0.33780000  0.53650000  0.97880000  1.0 -0.101833311
C  C11  1  0.33780000  0.96350000  0.47880000  1.0 -0.101833311
C  C12  1  0.66220000  0.46350000  0.02120000  1.0 -0.101833311
C  C13  1  0.63342000  0.12290000  0.55652000  1.0 -0.0225819867
C  C14  1  0.36658000  0.62290000  0.94348000  1.0 -0.0225819867
C  C15  1  0.36658000  0.87710000  0.44348000  1.0 -0.0225819867
C  C16  1  0.63342000  0.37710000  0.05652000  1.0 -0.0225819867
C  C17  1  0.60620000  0.23690000  0.52820000  1.0 -0.0829899042
C  C18  1  0.39380000  0.73690000  0.97180000  1.0 -0.0829899042
C  C19  1  0.39380000  0.76310000  0.47180000  1.0 -0.0829899042
C  C20  1  0.60620000  0.26310000  0.02820000  1.0 -0.0829899042
C  C21  1  0.61320000  0.26430000  0.46780000  1.0 -0.2095830544
C  C22  1  0.38680000  0.76430000  0.03220000  1.0 -0.2095830544
C  C23  1  0.38680000  0.73570000  0.53220000  1.0 -0.2095830544
C  C24  1  0.61320000  0.23570000  0.96780000  1.0 -0.2095830544
C  C25  1  0.61930000  0.09290000  0.61970000  1.0 0.5903104589
C  C26  1  0.38070000  0.59290000  0.88030000  1.0 0.5903104589
C  C27  1  0.38070000  0.90710000  0.38030000  1.0 0.5903104589
C  C28  1  0.61930000  0.40710000  0.11970000  1.0 0.5903104589
C  C29  1  0.23920000  0.28340000  0.63460000  1.0 0.4487795279
C  C30  1  0.76080000  0.78340000  0.86540000  1.0 0.4487795279
C  C31  1  0.76080000  0.71660000  0.36540000  1.0 0.4487795279
C  C32  1  0.23920000  0.21660000  0.13460000  1.0 0.4487795279
C  C33  1  0.53854000  0.50670000  0.72254000  1.0 0.3681831852
C  C34  1  0.46146000  0.00670000  0.77746000  1.0 0.3681831852
C  C35  1  0.46146000  0.49330000  0.27746000  1.0 0.3681831852
C  C36  1  0.53854000  0.99330000  0.22254000  1.0 0.3681831852
C  C37  1  0.65718000  0.19690000  0.36818000  1.0 0.0487891723
C  C38  1  0.34282000  0.69690000  0.13182000  1.0 0.0487891723
C  C39  1  0.34282000  0.80310000  0.63182000  1.0 0.0487891723
C  C40  1  0.65718000  0.30310000  0.86818000  1.0 0.0487891723
C  C41  1  0.74503000  0.30110000  0.37413000  1.0 0.0067619704
C  C42  1  0.25497000  0.80110000  0.12587000  1.0 0.0067619704
C  C43  1  0.25497000  0.69890000  0.62587000  1.0 0.0067619704
C  C44  1  0.74503000  0.19890000  0.87413000  1.0 0.0067619704
C  C45  1  0.87714000  0.29470000  0.43954000  1.0 0.0002928533
C  C46  1  0.12286000  0.79470000  0.06046000  1.0 0.0002928533
C  C47  1  0.12286000  0.70530000  0.56046000  1.0 0.0002928533
C  C48  1  0.87714000  0.20530000  0.93954000  1.0 0.0002928533
C  C49  1  0.90430000  0.36850000  0.49670000  1.0 -0.1076133765
C  C50  1  0.09570000  0.86850000  0.00330000  1.0 -0.1076133765
C  C51  1  0.09570000  0.63150000  0.50330000  1.0 -0.1076133765
C  C52  1  0.90430000  0.13150000  0.99670000  1.0 -0.1076133765
C  C53  1  0.02210000  0.36310000  0.55920000  1.0 -0.0298832862
C  C54  1  0.97790000  0.86310000  0.94080000  1.0 -0.0298832862
C  C55  1  0.97790000  0.63690000  0.44080000  1.0 -0.0298832862
C  C56  1  0.02210000  0.13690000  0.05920000  1.0 -0.0298832862
C  C57  1  0.11560000  0.28420000  0.56600000  1.0 -0.0597346715
C  C58  1  0.88440000  0.78420000  0.93400000  1.0 -0.0597346715
C  C59  1  0.88440000  0.71580000  0.43400000  1.0 -0.0597346715
C  C60  1  0.11560000  0.21580000  0.06600000  1.0 -0.0597346715
C  C61  1  0.08870000  0.20970000  0.50910000  1.0 -0.0298832862
C  C62  1  0.91130000  0.70970000  0.99090000  1.0 -0.0298832862
C  C63  1  0.91130000  0.79030000  0.49090000  1.0 -0.0298832862
C  C64  1  0.08870000  0.29030000  0.00910000  1.0 -0.0298832862
C  C65  1  0.96940000  0.21410000  0.44580000  1.0 -0.0298832862
C  C66  1  0.03060000  0.71410000  0.05420000  1.0 -0.0298832862
C  C67  1  0.03060000  0.78590000  0.55420000  1.0 -0.0298832862
C  C68  1  0.96940000  0.28590000  0.94580000  1.0 -0.0298832862
C  C69  1  0.64350000  0.25250000  0.37290000  1.0 0.0596595569
C  C70  1  0.35650000  0.75250000  0.12710000  1.0 0.0596595569
C  C71  1  0.35650000  0.74750000  0.62710000  1.0 0.0596595569
C  C72  1  0.64350000  0.24750000  0.87290000  1.0 0.0596595569
C  C73  1  0.88520000  0.23160000  0.43430000  1.0 0.0222058984
C  C74  1  0.11480000  0.73160000  0.06570000  1.0 0.0222058984
C  C75  1  0.11480000  0.76840000  0.56570000  1.0 0.0222058984
C  C76  1  0.88520000  0.26840000  0.93430000  1.0 0.0222058984
C  C77  1  0.91330000  0.34450000  0.46580000  1.0 -0.0298832862
C  C78  1  0.08670000  0.84450000  0.03420000  1.0 -0.0298832862
C  C79  1  0.08670000  0.65550000  0.53420000  1.0 -0.0298832862
C  C80  1  0.91330000  0.15550000  0.96580000  1.0 -0.0298832862
C  C81  1  0.02500000  0.36240000  0.53110000  1.0 -0.0225819867
C  C82  1  0.97500000  0.86240000  0.96890000  1.0 -0.0225819867
C  C83  1  0.97500000  0.63760000  0.46890000  1.0 -0.0225819867
C  C84  1  0.02500000  0.13760000  0.03110000  1.0 -0.0225819867
C  C85  1  0.10840000  0.26720000  0.56480000  1.0 -0.0508659698
C  C86  1  0.89160000  0.76720000  0.93520000  1.0 -0.0508659698
C  C87  1  0.89160000  0.73280000  0.43520000  1.0 -0.0508659698
C  C88  1  0.10840000  0.23280000  0.06480000  1.0 -0.0508659698
C  C89  1  0.08020000  0.15420000  0.53320000  1.0 -0.0404978424
C  C90  1  0.91980000  0.65420000  0.96680000  1.0 -0.0404978424
C  C91  1  0.91980000  0.84580000  0.46680000  1.0 -0.0404978424
C  C92  1  0.08020000  0.34580000  0.03320000  1.0 -0.0404978424
C  C93  1  0.96870000  0.13640000  0.46800000  1.0 -0.1076133765
C  C94  1  0.03130000  0.63640000  0.03200000  1.0 -0.1076133765
C  C95  1  0.03130000  0.86360000  0.53200000  1.0 -0.1076133765
C  C96  1  0.96870000  0.36360000  0.96800000  1.0 -0.1076133765
C  C97  1  0.75700000  0.20840000  0.36650000  1.0 -0.0116428185
C  C98  1  0.24300000  0.70840000  0.13350000  1.0 -0.0116428185
C  C99  1  0.24300000  0.79160000  0.63350000  1.0 -0.0116428185
C  C100  1  0.75700000  0.29160000  0.86650000  1.0 -0.0116428185
O  O1  1  0.53246000  0.22422000  0.31076000  1.0 -0.4431424195
O  O2  1  0.46754000  0.72422000  0.18924000  1.0 -0.4431424195
O  O3  1  0.46754000  0.77578000  0.68924000  1.0 -0.4431424195
O  O4  1  0.53246000  0.27578000  0.81076000  1.0 -0.4459117308
O  O5  1  0.74440000  0.28780000  0.30706000  1.0 -0.3634153932
O  O6  1  0.25560000  0.78780000  0.19294000  1.0 -0.3634153932
O  O7  1  0.25560000  0.71220000  0.69294000  1.0 -0.3634153932
O  O8  1  0.74440000  0.21220000  0.80706000  1.0 -0.3634153932
O  O9  1  0.58219000  0.17540000  0.64329000  1.0 -0.5524052932
O  O10  1  0.41781000  0.67540000  0.85671000  1.0 -0.5524052932
O  O11  1  0.41781000  0.82460000  0.35671000  1.0 -0.5524052932
O  O12  1  0.58219000  0.32460000  0.14329000  1.0 -0.5524052932
O  O13  1  0.64551000  0.98810000  0.64395000  1.0 -0.5820125892
O  O14  1  0.35449000  0.48810000  0.85605000  1.0 -0.5820125892
O  O15  1  0.35449000  0.01190000  0.35605000  1.0 -0.5820125892
O  O16  1  0.64551000  0.51190000  0.14395000  1.0 -0.5820125892
O  O17  1  0.24824000  0.36000000  0.67874000  1.0 -0.5360611632
O  O18  1  0.75176000  0.86000000  0.82126000  1.0 -0.5360611632
O  O19  1  0.75176000  0.64000000  0.32126000  1.0 -0.5360611632
O  O20  1  0.24824000  0.14000000  0.17874000  1.0 -0.5360611632
O  O21  1  0.32576000  0.21190000  0.64266000  1.0 -0.5297458425
O  O22  1  0.67424000  0.71190000  0.85734000  1.0 -0.5297458425
O  O23  1  0.67424000  0.78810000  0.35734000  1.0 -0.5297458425
O  O24  1  0.32576000  0.28810000  0.14266000  1.0 -0.5297458425
O  O25  1  0.48042000  0.52766000  0.75677000  1.0 -0.5524052932
O  O26  1  0.51958000  0.02766000  0.74323000  1.0 -0.5524052932
O  O27  1  0.51958000  0.47234000  0.24323000  1.0 -0.5524052932
O  O28  1  0.48042000  0.97234000  0.25677000  1.0 -0.5524052932
O  O29  1  0.54343000  0.41019000  0.69568000  1.0 -0.4764037385
O  O30  1  0.45657000  0.91019000  0.80432000  1.0 -0.4764037385
O  O31  1  0.45657000  0.58981000  0.30432000  1.0 -0.4764037385
O  O32  1  0.54343000  0.08981000  0.19568000  1.0 -0.4764037385
