# DDEC6 charges by PACMAN v1.1 (https://github.com/mtap-research/PACMAN-charge/)
data_EVAKOB_ion_pacman
_symmetry_space_group_name_H-M   'P 1'
_cell_length_a   20.40560000
_cell_length_b   20.40560000
_cell_length_c   20.40560000
_cell_angle_alpha   109.47100000
_cell_angle_beta   109.47100000
_cell_angle_gamma   109.47100000
_symmetry_Int_Tables_number   1
_chemical_formula_structural   Cu3H72C72(N13O3)2
_chemical_formula_sum   'Cu6 H144 C144 N52 O12'
_cell_volume   6540.78335106
_cell_formula_units_Z   2
loop_
 _symmetry_equiv_pos_site_id
 _symmetry_equiv_pos_as_xyz
  1  'x, y, z'
loop_
 _atom_site_type_symbol
 _atom_site_label
 _atom_site_symmetry_multiplicity
 _atom_site_fract_x
 _atom_site_fract_y
 _atom_site_fract_z
 _atom_site_occupancy
 _atom_site_charge
Cu  Cu1  1  0.50000000  0.25000000  0.75000000  1.0 0.4010617649
Cu  Cu2  1  0.50000000  0.75000000  0.25000000  1.0 0.4078805214
Cu  Cu3  1  0.75000000  0.50000000  0.25000000  1.0 0.4010617649
Cu  Cu4  1  0.25000000  0.50000000  0.75000000  1.0 0.4010617649
Cu  Cu5  1  0.25000000  0.75000000  0.50000000  1.0 0.4010617649
Cu  Cu6  1  0.75000000  0.25000000  0.50000000  1.0 0.4078805214
H  H1  1  0.40240000  0.07590000  0.56910000  1.0 0.1284685772
H  H2  1  0.50680000  0.83330000  0.43090000  1.0 0.1284685772
H  H3  1  0.49320000  0.92410000  0.32650000  1.0 0.1284685772
H  H4  1  0.59760000  0.16670000  0.67350000  1.0 0.1284685772
H  H5  1  0.56910000  0.40240000  0.07590000  1.0 0.1284685772
H  H6  1  0.43090000  0.50680000  0.83330000  1.0 0.1284685772
H  H7  1  0.32650000  0.49320000  0.92410000  1.0 0.1284685772
H  H8  1  0.67350000  0.59760000  0.16670000  1.0 0.1284685772
H  H9  1  0.07590000  0.56910000  0.40240000  1.0 0.1284685772
H  H10  1  0.83330000  0.43090000  0.50680000  1.0 0.1284685772
H  H11  1  0.92410000  0.32650000  0.49320000  1.0 0.1284685772
H  H12  1  0.16670000  0.67350000  0.59760000  1.0 0.1284685772
H  H13  1  0.07590000  0.40240000  0.56910000  1.0 0.1284685772
H  H14  1  0.83330000  0.50680000  0.43090000  1.0 0.1284685772
H  H15  1  0.92410000  0.49320000  0.32650000  1.0 0.1284685772
H  H16  1  0.16670000  0.59760000  0.67350000  1.0 0.1284685772
H  H17  1  0.40240000  0.56910000  0.07590000  1.0 0.1284685772
H  H18  1  0.50680000  0.43090000  0.83330000  1.0 0.1284685772
H  H19  1  0.49320000  0.32650000  0.92410000  1.0 0.1284685772
H  H20  1  0.59760000  0.67350000  0.16670000  1.0 0.1284685772
H  H21  1  0.56910000  0.07590000  0.40240000  1.0 0.1284685772
H  H22  1  0.43090000  0.83330000  0.50680000  1.0 0.1284685772
H  H23  1  0.32650000  0.92410000  0.49320000  1.0 0.1284685772
H  H24  1  0.67350000  0.16670000  0.59760000  1.0 0.1284685772
H  H25  1  0.37070000  0.12180000  0.61570000  1.0 0.1284685772
H  H26  1  0.50610000  0.75500000  0.38430000  1.0 0.1284685772
H  H27  1  0.49390000  0.87820000  0.24890000  1.0 0.1284685772
H  H28  1  0.62930000  0.24500000  0.75110000  1.0 0.1284685772
H  H29  1  0.61570000  0.37070000  0.12180000  1.0 0.1284685772
H  H30  1  0.38430000  0.50610000  0.75500000  1.0 0.1284685772
H  H31  1  0.24890000  0.49390000  0.87820000  1.0 0.1284685772
H  H32  1  0.75110000  0.62930000  0.24500000  1.0 0.1284685772
H  H33  1  0.12180000  0.61570000  0.37070000  1.0 0.1284685772
H  H34  1  0.75500000  0.38430000  0.50610000  1.0 0.1284685772
H  H35  1  0.87820000  0.24890000  0.49390000  1.0 0.1284685772
H  H36  1  0.24500000  0.75110000  0.62930000  1.0 0.1284685772
H  H37  1  0.12180000  0.37070000  0.61570000  1.0 0.1284685772
H  H38  1  0.75500000  0.50610000  0.38430000  1.0 0.1284685772
H  H39  1  0.87820000  0.49390000  0.24890000  1.0 0.1284685772
H  H40  1  0.24500000  0.62930000  0.75110000  1.0 0.1284685772
H  H41  1  0.37070000  0.61570000  0.12180000  1.0 0.1284685772
H  H42  1  0.50610000  0.38430000  0.75500000  1.0 0.1284685772
H  H43  1  0.49390000  0.24890000  0.87820000  1.0 0.1284685772
H  H44  1  0.62930000  0.75110000  0.24500000  1.0 0.1284685772
H  H45  1  0.61570000  0.12180000  0.37070000  1.0 0.1284685772
H  H46  1  0.38430000  0.75500000  0.50610000  1.0 0.1284685772
H  H47  1  0.24890000  0.87820000  0.49390000  1.0 0.1284685772
H  H48  1  0.75110000  0.24500000  0.62930000  1.0 0.1284685772
H  H49  1  0.26240000  0.00000000  0.50120000  1.0 0.111284989
H  H50  1  0.49880000  0.76120000  0.49880000  1.0 0.111284989
H  H51  1  0.50120000  0.00000000  0.26240000  1.0 0.111284989
H  H52  1  0.73760000  0.23880000  0.73760000  1.0 0.111284989
H  H53  1  0.50120000  0.26240000  0.00000000  1.0 0.111284989
H  H54  1  0.49880000  0.49880000  0.76120000  1.0 0.111284989
H  H55  1  0.26240000  0.50120000  0.00000000  1.0 0.111284989
H  H56  1  0.73760000  0.73760000  0.23880000  1.0 0.111284989
H  H57  1  0.00000000  0.50120000  0.26240000  1.0 0.111284989
H  H58  1  0.76120000  0.49880000  0.49880000  1.0 0.111284989
H  H59  1  0.00000000  0.26240000  0.50120000  1.0 0.111284989
H  H60  1  0.23880000  0.73760000  0.73760000  1.0 0.111284989
H  H61  1  0.26480000  0.00000000  0.57820000  1.0 0.111284989
H  H62  1  0.42180000  0.68660000  0.42180000  1.0 0.111284989
H  H63  1  0.57820000  0.00000000  0.26480000  1.0 0.111284989
H  H64  1  0.73520000  0.31340000  0.73520000  1.0 0.111284989
H  H65  1  0.57820000  0.26480000  0.00000000  1.0 0.111284989
H  H66  1  0.42180000  0.42180000  0.68660000  1.0 0.111284989
H  H67  1  0.26480000  0.57820000  0.00000000  1.0 0.111284989
H  H68  1  0.73520000  0.73520000  0.31340000  1.0 0.111284989
H  H69  1  0.00000000  0.57820000  0.26480000  1.0 0.111284989
H  H70  1  0.68660000  0.42180000  0.42180000  1.0 0.111284989
H  H71  1  0.00000000  0.26480000  0.57820000  1.0 0.111284989
H  H72  1  0.31340000  0.73520000  0.73520000  1.0 0.111284989
H  H73  1  0.54320000  0.08200000  0.91240000  1.0 0.1284685772
H  H74  1  0.16960000  0.63080000  0.08760000  1.0 0.1284685772
H  H75  1  0.83040000  0.91800000  0.46120000  1.0 0.1284685772
H  H76  1  0.45680000  0.36920000  0.53880000  1.0 0.1284685772
H  H77  1  0.91240000  0.54320000  0.08200000  1.0 0.1284685772
H  H78  1  0.08760000  0.16960000  0.63080000  1.0 0.1284685772
H  H79  1  0.46120000  0.83040000  0.91800000  1.0 0.1284685772
H  H80  1  0.53880000  0.45680000  0.36920000  1.0 0.1284685772
H  H81  1  0.08200000  0.91240000  0.54320000  1.0 0.1284685772
H  H82  1  0.63080000  0.08760000  0.16960000  1.0 0.1284685772
H  H83  1  0.91800000  0.46120000  0.83040000  1.0 0.1284685772
H  H84  1  0.36920000  0.53880000  0.45680000  1.0 0.1284685772
H  H85  1  0.08200000  0.54320000  0.91240000  1.0 0.1284685772
H  H86  1  0.63080000  0.16960000  0.08760000  1.0 0.1284685772
H  H87  1  0.91800000  0.83040000  0.46120000  1.0 0.1284685772
H  H88  1  0.36920000  0.45680000  0.53880000  1.0 0.1284685772
H  H89  1  0.54320000  0.91240000  0.08200000  1.0 0.1284685772
H  H90  1  0.16960000  0.08760000  0.63080000  1.0 0.1284685772
H  H91  1  0.83040000  0.46120000  0.91800000  1.0 0.1284685772
H  H92  1  0.45680000  0.53880000  0.36920000  1.0 0.1284685772
H  H93  1  0.91240000  0.08200000  0.54320000  1.0 0.1284685772
H  H94  1  0.08760000  0.63080000  0.16960000  1.0 0.1284685772
H  H95  1  0.46120000  0.91800000  0.83040000  1.0 0.1284685772
H  H96  1  0.53880000  0.36920000  0.45680000  1.0 0.1284685772
H  H97  1  0.61940000  0.11940000  0.90680000  1.0 0.1284685772
H  H98  1  0.21260000  0.71260000  0.09320000  1.0 0.1284685772
H  H99  1  0.78740000  0.88060000  0.50000000  1.0 0.1284685772
H  H100  1  0.38060000  0.28740000  0.50000000  1.0 0.1284685772
H  H101  1  0.90680000  0.61940000  0.11940000  1.0 0.1284685772
H  H102  1  0.09320000  0.21260000  0.71260000  1.0 0.1284685772
H  H103  1  0.50000000  0.78740000  0.88060000  1.0 0.1284685772
H  H104  1  0.50000000  0.38060000  0.28740000  1.0 0.1284685772
H  H105  1  0.11940000  0.90680000  0.61940000  1.0 0.1284685772
H  H106  1  0.71260000  0.09320000  0.21260000  1.0 0.1284685772
H  H107  1  0.88060000  0.50000000  0.78740000  1.0 0.1284685772
H  H108  1  0.28740000  0.50000000  0.38060000  1.0 0.1284685772
H  H109  1  0.11940000  0.61940000  0.90680000  1.0 0.1284685772
H  H110  1  0.71260000  0.21260000  0.09320000  1.0 0.1284685772
H  H111  1  0.88060000  0.78740000  0.50000000  1.0 0.1284685772
H  H112  1  0.28740000  0.38060000  0.50000000  1.0 0.1284685772
H  H113  1  0.61940000  0.90680000  0.11940000  1.0 0.1284685772
H  H114  1  0.21260000  0.09320000  0.71260000  1.0 0.1284685772
H  H115  1  0.78740000  0.50000000  0.88060000  1.0 0.1284685772
H  H116  1  0.38060000  0.50000000  0.28740000  1.0 0.1284685772
H  H117  1  0.90680000  0.11940000  0.61940000  1.0 0.1284685772
H  H118  1  0.09320000  0.71260000  0.21260000  1.0 0.1284685772
H  H119  1  0.50000000  0.88060000  0.78740000  1.0 0.1284685772
H  H120  1  0.50000000  0.28740000  0.38060000  1.0 0.1284685772
H  H121  1  0.59210000  0.00000000  0.91090000  1.0 0.0869843302
H  H122  1  0.08910000  0.68120000  0.08910000  1.0 0.0869843302
H  H123  1  0.91090000  0.00000000  0.59210000  1.0 0.0869843302
H  H124  1  0.40790000  0.31880000  0.40790000  1.0 0.0869843302
H  H125  1  0.91090000  0.59210000  0.00000000  1.0 0.0869843302
H  H126  1  0.08910000  0.08910000  0.68120000  1.0 0.0869843302
H  H127  1  0.59210000  0.91090000  0.00000000  1.0 0.0869843302
H  H128  1  0.40790000  0.40790000  0.31880000  1.0 0.0869843302
H  H129  1  0.00000000  0.91090000  0.59210000  1.0 0.0869843302
H  H130  1  0.68120000  0.08910000  0.08910000  1.0 0.0869843302
H  H131  1  0.00000000  0.59210000  0.91090000  1.0 0.0869843302
H  H132  1  0.31880000  0.40790000  0.40790000  1.0 0.0869843302
H  H133  1  0.60380000  0.00000000  0.83960000  1.0 0.0869843302
H  H134  1  0.16040000  0.76420000  0.16040000  1.0 0.0869843302
H  H135  1  0.83960000  0.00000000  0.60380000  1.0 0.0869843302
H  H136  1  0.39620000  0.23580000  0.39620000  1.0 0.0869843302
H  H137  1  0.83960000  0.60380000  0.00000000  1.0 0.0869843302
H  H138  1  0.16040000  0.16040000  0.76420000  1.0 0.0869843302
H  H139  1  0.60380000  0.83960000  0.00000000  1.0 0.0869843302
H  H140  1  0.39620000  0.39620000  0.23580000  1.0 0.0869843302
H  H141  1  0.00000000  0.83960000  0.60380000  1.0 0.0869843302
H  H142  1  0.76420000  0.16040000  0.16040000  1.0 0.0869843302
H  H143  1  0.00000000  0.60380000  0.83960000  1.0 0.0869843302
H  H144  1  0.23580000  0.39620000  0.39620000  1.0 0.0869843302
C  C1  1  0.51600000  0.07720000  0.80600000  1.0 0.2223103987
C  C2  1  0.27120000  0.71000000  0.19400000  1.0 0.2223103987
C  C3  1  0.72880000  0.92280000  0.43880000  1.0 0.2223103987
C  C4  1  0.48400000  0.29000000  0.56120000  1.0 0.2223103987
C  C5  1  0.80600000  0.51600000  0.07720000  1.0 0.2223103987
C  C6  1  0.19400000  0.27120000  0.71000000  1.0 0.2223103987
C  C7  1  0.43880000  0.72880000  0.92280000  1.0 0.2223103987
C  C8  1  0.56120000  0.48400000  0.29000000  1.0 0.2223103987
C  C9  1  0.07720000  0.80600000  0.51600000  1.0 0.2223103987
C  C10  1  0.71000000  0.19400000  0.27120000  1.0 0.2223103987
C  C11  1  0.92280000  0.43880000  0.72880000  1.0 0.2223103987
C  C12  1  0.29000000  0.56120000  0.48400000  1.0 0.2223103987
C  C13  1  0.07720000  0.51600000  0.80600000  1.0 0.2223103987
C  C14  1  0.71000000  0.27120000  0.19400000  1.0 0.2223103987
C  C15  1  0.92280000  0.72880000  0.43880000  1.0 0.2223103987
C  C16  1  0.29000000  0.48400000  0.56120000  1.0 0.2223103987
C  C17  1  0.51600000  0.80600000  0.07720000  1.0 0.2223103987
C  C18  1  0.27120000  0.19400000  0.71000000  1.0 0.2223103987
C  C19  1  0.72880000  0.43880000  0.92280000  1.0 0.2223103987
C  C20  1  0.48400000  0.56120000  0.29000000  1.0 0.2223103987
C  C21  1  0.80600000  0.07720000  0.51600000  1.0 0.2223103987
C  C22  1  0.19400000  0.71000000  0.27120000  1.0 0.2223103987
C  C23  1  0.43880000  0.92280000  0.72880000  1.0 0.2223103987
C  C24  1  0.56120000  0.29000000  0.48400000  1.0 0.2223103987
C  C25  1  0.45650000  0.00000000  0.73410000  1.0 -0.0584284616
C  C26  1  0.26590000  0.72240000  0.26590000  1.0 -0.0584284616
C  C27  1  0.73410000  0.00000000  0.45650000  1.0 -0.0584284616
C  C28  1  0.54350000  0.27760000  0.54350000  1.0 -0.0584284616
C  C29  1  0.73410000  0.45650000  0.00000000  1.0 -0.0584284616
C  C30  1  0.26590000  0.26590000  0.72240000  1.0 -0.0584284616
C  C31  1  0.45650000  0.73410000  0.00000000  1.0 -0.0584284616
C  C32  1  0.54350000  0.54350000  0.27760000  1.0 -0.0584284616
C  C33  1  0.00000000  0.73410000  0.45650000  1.0 -0.0584284616
C  C34  1  0.72240000  0.26590000  0.26590000  1.0 -0.0584284616
C  C35  1  0.00000000  0.45650000  0.73410000  1.0 -0.0584284616
C  C36  1  0.27760000  0.54350000  0.54350000  1.0 -0.0584284616
C  C37  1  0.41190000  0.00000000  0.66770000  1.0 -0.0518396962
C  C38  1  0.33230000  0.74420000  0.33230000  1.0 -0.0518396962
C  C39  1  0.66770000  0.00000000  0.41190000  1.0 -0.0518396962
C  C40  1  0.58810000  0.25580000  0.58810000  1.0 -0.0518396962
C  C41  1  0.66770000  0.41190000  0.00000000  1.0 -0.0518396962
C  C42  1  0.33230000  0.33230000  0.74420000  1.0 -0.0518396962
C  C43  1  0.41190000  0.66770000  0.00000000  1.0 -0.0518396962
C  C44  1  0.58810000  0.58810000  0.25580000  1.0 -0.0518396962
C  C45  1  0.00000000  0.66770000  0.41190000  1.0 -0.0518396962
C  C46  1  0.74420000  0.33230000  0.33230000  1.0 -0.0518396962
C  C47  1  0.00000000  0.41190000  0.66770000  1.0 -0.0518396962
C  C48  1  0.25580000  0.58810000  0.58810000  1.0 -0.0518396962
C  C49  1  0.42440000  0.07500000  0.67200000  1.0 0.2099424368
C  C50  1  0.40300000  0.75240000  0.32800000  1.0 0.2099424368
C  C51  1  0.59700000  0.92500000  0.34940000  1.0 0.2099424368
C  C52  1  0.57560000  0.24760000  0.65060000  1.0 0.2099424368
C  C53  1  0.67200000  0.42440000  0.07500000  1.0 0.2099424368
C  C54  1  0.32800000  0.40300000  0.75240000  1.0 0.2099424368
C  C55  1  0.34940000  0.59700000  0.92500000  1.0 0.2099424368
C  C56  1  0.65060000  0.57560000  0.24760000  1.0 0.2099424368
C  C57  1  0.07500000  0.67200000  0.42440000  1.0 0.2099424368
C  C58  1  0.75240000  0.32800000  0.40300000  1.0 0.2099424368
C  C59  1  0.92500000  0.34940000  0.59700000  1.0 0.2099424368
C  C60  1  0.24760000  0.65060000  0.57560000  1.0 0.2099424368
C  C61  1  0.07500000  0.42440000  0.67200000  1.0 0.2099424368
C  C62  1  0.75240000  0.40300000  0.32800000  1.0 0.2099424368
C  C63  1  0.92500000  0.59700000  0.34940000  1.0 0.2099424368
C  C64  1  0.24760000  0.57560000  0.65060000  1.0 0.2099424368
C  C65  1  0.42440000  0.67200000  0.07500000  1.0 0.2099424368
C  C66  1  0.40300000  0.32800000  0.75240000  1.0 0.2099424368
C  C67  1  0.59700000  0.34940000  0.92500000  1.0 0.2099424368
C  C68  1  0.57560000  0.65060000  0.24760000  1.0 0.2099424368
C  C69  1  0.67200000  0.07500000  0.42440000  1.0 0.2099424368
C  C70  1  0.32800000  0.75240000  0.40300000  1.0 0.2099424368
C  C71  1  0.34940000  0.92500000  0.59700000  1.0 0.2099424368
C  C72  1  0.65060000  0.24760000  0.57560000  1.0 0.2099424368
C  C73  1  0.37570000  0.07460000  0.59990000  1.0 -0.2831683093
C  C74  1  0.47470000  0.77580000  0.40010000  1.0 -0.2831683093
C  C75  1  0.52530000  0.92540000  0.30110000  1.0 -0.2831683093
C  C76  1  0.62430000  0.22420000  0.69890000  1.0 -0.2831683093
C  C77  1  0.59990000  0.37570000  0.07460000  1.0 -0.2831683093
C  C78  1  0.40010000  0.47470000  0.77580000  1.0 -0.2831683093
C  C79  1  0.30110000  0.52530000  0.92540000  1.0 -0.2831683093
C  C80  1  0.69890000  0.62430000  0.22420000  1.0 -0.2831683093
C  C81  1  0.07460000  0.59990000  0.37570000  1.0 -0.2831683093
C  C82  1  0.77580000  0.40010000  0.47470000  1.0 -0.2831683093
C  C83  1  0.92540000  0.30110000  0.52530000  1.0 -0.2831683093
C  C84  1  0.22420000  0.69890000  0.62430000  1.0 -0.2831683093
C  C85  1  0.07460000  0.37570000  0.59990000  1.0 -0.2831683093
C  C86  1  0.77580000  0.47470000  0.40010000  1.0 -0.2831683093
C  C87  1  0.92540000  0.52530000  0.30110000  1.0 -0.2831683093
C  C88  1  0.22420000  0.62430000  0.69890000  1.0 -0.2831683093
C  C89  1  0.37570000  0.59990000  0.07460000  1.0 -0.2831683093
C  C90  1  0.47470000  0.40010000  0.77580000  1.0 -0.2831683093
C  C91  1  0.52530000  0.30110000  0.92540000  1.0 -0.2831683093
C  C92  1  0.62430000  0.69890000  0.22420000  1.0 -0.2831683093
C  C93  1  0.59990000  0.07460000  0.37570000  1.0 -0.2831683093
C  C94  1  0.40010000  0.77580000  0.47470000  1.0 -0.2831683093
C  C95  1  0.30110000  0.92540000  0.52530000  1.0 -0.2831683093
C  C96  1  0.69890000  0.22420000  0.62430000  1.0 -0.2831683093
C  C97  1  0.29280000  0.00000000  0.54860000  1.0 -0.1003968725
C  C98  1  0.45140000  0.74420000  0.45140000  1.0 -0.1003968725
C  C99  1  0.54860000  0.00000000  0.29280000  1.0 -0.1003968725
C  C100  1  0.70720000  0.25580000  0.70720000  1.0 -0.1003968725
C  C101  1  0.54860000  0.29280000  0.00000000  1.0 -0.1003968725
C  C102  1  0.45140000  0.45140000  0.74420000  1.0 -0.1003968725
C  C103  1  0.29280000  0.54860000  0.00000000  1.0 -0.1003968725
C  C104  1  0.70720000  0.70720000  0.25580000  1.0 -0.1003968725
C  C105  1  0.00000000  0.54860000  0.29280000  1.0 -0.1003968725
C  C106  1  0.74420000  0.45140000  0.45140000  1.0 -0.1003968725
C  C107  1  0.00000000  0.29280000  0.54860000  1.0 -0.1003968725
C  C108  1  0.25580000  0.70720000  0.70720000  1.0 -0.1003968725
C  C109  1  0.56570000  0.07480000  0.87790000  1.0 -0.2628142371
C  C110  1  0.19690000  0.68780000  0.12210000  1.0 -0.2628142371
C  C111  1  0.80310000  0.92520000  0.49090000  1.0 -0.2628142371
C  C112  1  0.43430000  0.31220000  0.50910000  1.0 -0.2628142371
C  C113  1  0.87790000  0.56570000  0.07480000  1.0 -0.2628142371
C  C114  1  0.12210000  0.19690000  0.68780000  1.0 -0.2628142371
C  C115  1  0.49090000  0.80310000  0.92520000  1.0 -0.2628142371
C  C116  1  0.50910000  0.43430000  0.31220000  1.0 -0.2628142371
C  C117  1  0.07480000  0.87790000  0.56570000  1.0 -0.2628142371
C  C118  1  0.68780000  0.12210000  0.19690000  1.0 -0.2628142371
C  C119  1  0.92520000  0.49090000  0.80310000  1.0 -0.2628142371
C  C120  1  0.31220000  0.50910000  0.43430000  1.0 -0.2628142371
C  C121  1  0.07480000  0.56570000  0.87790000  1.0 -0.2628142371
C  C122  1  0.68780000  0.19690000  0.12210000  1.0 -0.2628142371
C  C123  1  0.92520000  0.80310000  0.49090000  1.0 -0.2628142371
C  C124  1  0.31220000  0.43430000  0.50910000  1.0 -0.2628142371
C  C125  1  0.56570000  0.87790000  0.07480000  1.0 -0.2628142371
C  C126  1  0.19690000  0.12210000  0.68780000  1.0 -0.2628142371
C  C127  1  0.80310000  0.49090000  0.92520000  1.0 -0.2628142371
C  C128  1  0.43430000  0.50910000  0.31220000  1.0 -0.2628142371
C  C129  1  0.87790000  0.07480000  0.56570000  1.0 -0.2628142371
C  C130  1  0.12210000  0.68780000  0.19690000  1.0 -0.2628142371
C  C131  1  0.49090000  0.92520000  0.80310000  1.0 -0.2628142371
C  C132  1  0.50910000  0.31220000  0.43430000  1.0 -0.2628142371
C  C133  1  0.56870000  0.00000000  0.86150000  1.0 -0.1218213113
C  C134  1  0.13850000  0.70720000  0.13850000  1.0 -0.1218213113
C  C135  1  0.86150000  0.00000000  0.56870000  1.0 -0.1218213113
C  C136  1  0.43130000  0.29280000  0.43130000  1.0 -0.1218213113
C  C137  1  0.86150000  0.56870000  0.00000000  1.0 -0.1218213113
C  C138  1  0.13850000  0.13850000  0.70720000  1.0 -0.1218213113
C  C139  1  0.56870000  0.86150000  0.00000000  1.0 -0.1218213113
C  C140  1  0.43130000  0.43130000  0.29280000  1.0 -0.1218213113
C  C141  1  0.00000000  0.86150000  0.56870000  1.0 -0.1218213113
C  C142  1  0.70720000  0.13850000  0.13850000  1.0 -0.1218213113
C  C143  1  0.00000000  0.56870000  0.86150000  1.0 -0.1218213113
C  C144  1  0.29280000  0.43130000  0.43130000  1.0 -0.1218213113
N  N1  1  0.48000000  0.14260000  0.73880000  1.0 -0.1956324884
N  N2  1  0.40380000  0.74120000  0.26120000  1.0 -0.1956324884
N  N3  1  0.59620000  0.85740000  0.33740000  1.0 -0.1956324884
N  N4  1  0.52000000  0.25880000  0.66260000  1.0 -0.1956324884
N  N5  1  0.73880000  0.48000000  0.14260000  1.0 -0.1947051221
N  N6  1  0.26120000  0.40380000  0.74120000  1.0 -0.1956324884
N  N7  1  0.33740000  0.59620000  0.85740000  1.0 -0.1956324884
N  N8  1  0.66260000  0.52000000  0.25880000  1.0 -0.1956324884
N  N9  1  0.14260000  0.73880000  0.48000000  1.0 -0.1956324884
N  N10  1  0.74120000  0.26120000  0.40380000  1.0 -0.1956324884
N  N11  1  0.85740000  0.33740000  0.59620000  1.0 -0.1956324884
N  N12  1  0.25880000  0.66260000  0.52000000  1.0 -0.1947051221
N  N13  1  0.14260000  0.48000000  0.73880000  1.0 -0.1956324884
N  N14  1  0.74120000  0.40380000  0.26120000  1.0 -0.1956324884
N  N15  1  0.85740000  0.59620000  0.33740000  1.0 -0.1956324884
N  N16  1  0.25880000  0.52000000  0.66260000  1.0 -0.1956324884
N  N17  1  0.48000000  0.73880000  0.14260000  1.0 -0.1956324884
N  N18  1  0.40380000  0.26120000  0.74120000  1.0 -0.1956324884
N  N19  1  0.59620000  0.33740000  0.85740000  1.0 -0.1956324884
N  N20  1  0.52000000  0.66260000  0.25880000  1.0 -0.1956324884
N  N21  1  0.73880000  0.14260000  0.48000000  1.0 -0.1956324884
N  N22  1  0.26120000  0.74120000  0.40380000  1.0 -0.1956324884
N  N23  1  0.33740000  0.85740000  0.59620000  1.0 -0.1956324884
N  N24  1  0.66260000  0.25880000  0.52000000  1.0 -0.1956324884
N  N25  1  0.52850000  0.14320000  0.80690000  1.0 -0.2433204213
N  N26  1  0.33630000  0.72160000  0.19310000  1.0 -0.2433204213
N  N27  1  0.66370000  0.85680000  0.38530000  1.0 -0.2433204213
N  N28  1  0.47150000  0.27840000  0.61470000  1.0 -0.2433204213
N  N29  1  0.80690000  0.52850000  0.14320000  1.0 -0.2433204213
N  N30  1  0.19310000  0.33630000  0.72160000  1.0 -0.2433204213
N  N31  1  0.38530000  0.66370000  0.85680000  1.0 -0.2433204213
N  N32  1  0.61470000  0.47150000  0.27840000  1.0 -0.2433204213
N  N33  1  0.14320000  0.80690000  0.52850000  1.0 -0.2433204213
N  N34  1  0.72160000  0.19310000  0.33630000  1.0 -0.2433204213
N  N35  1  0.85680000  0.38530000  0.66370000  1.0 -0.2433204213
N  N36  1  0.27840000  0.61470000  0.47150000  1.0 -0.2433204213
N  N37  1  0.14320000  0.52850000  0.80690000  1.0 -0.2433204213
N  N38  1  0.72160000  0.33630000  0.19310000  1.0 -0.2433204213
N  N39  1  0.85680000  0.66370000  0.38530000  1.0 -0.2433204213
N  N40  1  0.27840000  0.47150000  0.61470000  1.0 -0.2433204213
N  N41  1  0.52850000  0.80690000  0.14320000  1.0 -0.2433204213
N  N42  1  0.33630000  0.19310000  0.72160000  1.0 -0.2433204213
N  N43  1  0.66370000  0.38530000  0.85680000  1.0 -0.2433204213
N  N44  1  0.47150000  0.61470000  0.27840000  1.0 -0.2433204213
N  N45  1  0.80690000  0.14320000  0.52850000  1.0 -0.2433204213
N  N46  1  0.19310000  0.72160000  0.33630000  1.0 -0.2433204213
N  N47  1  0.38530000  0.85680000  0.66370000  1.0 -0.2433204213
N  N48  1  0.61470000  0.27840000  0.47150000  1.0 -0.2433204213
N  N49  1  0.54700000  0.54700000  0.54700000  1.0 0.6023418522
N  N50  1  0.00000000  0.00000000  0.45300000  1.0 0.6023418522
N  N51  1  0.00000000  0.45300000  0.00000000  1.0 0.6023418522
N  N52  1  0.45300000  0.00000000  0.00000000  1.0 0.6023418522
O  O1  1  0.52810000  0.52810000  0.59120000  1.0 -0.3890381936
O  O2  1  0.59120000  0.52810000  0.52810000  1.0 -0.3890381936
O  O3  1  0.52810000  0.59120000  0.52810000  1.0 -0.3890381936
O  O4  1  0.93690000  0.93690000  0.40880000  1.0 -0.3890381936
O  O5  1  0.00000000  0.06310000  0.47190000  1.0 -0.3890381936
O  O6  1  0.06310000  0.00000000  0.47190000  1.0 -0.3890381936
O  O7  1  0.06310000  0.47190000  0.00000000  1.0 -0.3890381936
O  O8  1  0.00000000  0.47190000  0.06310000  1.0 -0.3890381936
O  O9  1  0.93690000  0.40880000  0.93690000  1.0 -0.3890381936
O  O10  1  0.47190000  0.06310000  0.00000000  1.0 -0.3890381936
O  O11  1  0.40880000  0.93690000  0.93690000  1.0 -0.3890381936
O  O12  1  0.47190000  0.00000000  0.06310000  1.0 -0.3890381936
