# DDEC6 charges by PACMAN v1.1 (https://github.com/mtap-research/PACMAN-charge/)
data_EVAKIV_ion_pacman
_symmetry_space_group_name_H-M   'P 1'
_cell_length_a   20.52780000
_cell_length_b   20.52780000
_cell_length_c   20.52780000
_cell_angle_alpha   109.47100000
_cell_angle_beta   109.47100000
_cell_angle_gamma   109.47100000
_symmetry_Int_Tables_number   1
_chemical_formula_structural   Cu6H144C144N48(ClO4)11
_chemical_formula_sum   'Cu6 H144 C144 N48 Cl11 O44'
_cell_volume   6658.99793420
_cell_formula_units_Z   1
loop_
 _symmetry_equiv_pos_site_id
 _symmetry_equiv_pos_as_xyz
  1  'x, y, z'
loop_
 _atom_site_type_symbol
 _atom_site_label
 _atom_site_symmetry_multiplicity
 _atom_site_fract_x
 _atom_site_fract_y
 _atom_site_fract_z
 _atom_site_occupancy
 _atom_site_charge
Cu  Cu1  1  0.50000000  0.75000000  0.25000000  1.0 0.4623396178
Cu  Cu2  1  0.50000000  0.25000000  0.75000000  1.0 0.4623396178
Cu  Cu3  1  0.25000000  0.50000000  0.75000000  1.0 0.4623396178
Cu  Cu4  1  0.75000000  0.50000000  0.25000000  1.0 0.4623396178
Cu  Cu5  1  0.75000000  0.25000000  0.50000000  1.0 0.4623396178
Cu  Cu6  1  0.25000000  0.75000000  0.50000000  1.0 0.4623396178
H  H1  1  0.63120000  0.87840000  0.38500000  1.0 0.1185695588
H  H2  1  0.49340000  0.24620000  0.61500000  1.0 0.1185695588
H  H3  1  0.50660000  0.12160000  0.75280000  1.0 0.1185695588
H  H4  1  0.36880000  0.75380000  0.24720000  1.0 0.1185695588
H  H5  1  0.38500000  0.63120000  0.87840000  1.0 0.1185695588
H  H6  1  0.61500000  0.49340000  0.24620000  1.0 0.1185695588
H  H7  1  0.75280000  0.50660000  0.12160000  1.0 0.1185695588
H  H8  1  0.24720000  0.36880000  0.75380000  1.0 0.1185695588
H  H9  1  0.87840000  0.38500000  0.63120000  1.0 0.1185695588
H  H10  1  0.24620000  0.61500000  0.49340000  1.0 0.1185695588
H  H11  1  0.12160000  0.75280000  0.50660000  1.0 0.1185695588
H  H12  1  0.75380000  0.24720000  0.36880000  1.0 0.1185695588
H  H13  1  0.87840000  0.63120000  0.38500000  1.0 0.1185695588
H  H14  1  0.24620000  0.49340000  0.61500000  1.0 0.1185695588
H  H15  1  0.12160000  0.50660000  0.75280000  1.0 0.1185695588
H  H16  1  0.75380000  0.36880000  0.24720000  1.0 0.1185695588
H  H17  1  0.63120000  0.38500000  0.87840000  1.0 0.1185695588
H  H18  1  0.49340000  0.61500000  0.24620000  1.0 0.1185695588
H  H19  1  0.50660000  0.75280000  0.12160000  1.0 0.1185695588
H  H20  1  0.36880000  0.24720000  0.75380000  1.0 0.1185695588
H  H21  1  0.38500000  0.87840000  0.63120000  1.0 0.1185695588
H  H22  1  0.61500000  0.24620000  0.49340000  1.0 0.1185695588
H  H23  1  0.75280000  0.12160000  0.50660000  1.0 0.1185695588
H  H24  1  0.24720000  0.75380000  0.36880000  1.0 0.1185695588
H  H25  1  0.59850000  0.92190000  0.43140000  1.0 0.1492450441
H  H26  1  0.49050000  0.16710000  0.56860000  1.0 0.1492450441
H  H27  1  0.50950000  0.07810000  0.67660000  1.0 0.1492450441
H  H28  1  0.40150000  0.83290000  0.32340000  1.0 0.1492450441
H  H29  1  0.43140000  0.59850000  0.92190000  1.0 0.1492450441
H  H30  1  0.56860000  0.49050000  0.16710000  1.0 0.1492450441
H  H31  1  0.67660000  0.50950000  0.07810000  1.0 0.1492450441
H  H32  1  0.32340000  0.40150000  0.83290000  1.0 0.1492450441
H  H33  1  0.92190000  0.43140000  0.59850000  1.0 0.1492450441
H  H34  1  0.16710000  0.56860000  0.49050000  1.0 0.1492450441
H  H35  1  0.07810000  0.67660000  0.50950000  1.0 0.1492450441
H  H36  1  0.83290000  0.32340000  0.40150000  1.0 0.1492450441
H  H37  1  0.92190000  0.59850000  0.43140000  1.0 0.1492450441
H  H38  1  0.16710000  0.49050000  0.56860000  1.0 0.1492450441
H  H39  1  0.07810000  0.50950000  0.67660000  1.0 0.1492450441
H  H40  1  0.83290000  0.40150000  0.32340000  1.0 0.1492450441
H  H41  1  0.59850000  0.43140000  0.92190000  1.0 0.1492450441
H  H42  1  0.49050000  0.56860000  0.16710000  1.0 0.1492450441
H  H43  1  0.50950000  0.67660000  0.07810000  1.0 0.1492450441
H  H44  1  0.40150000  0.32340000  0.83290000  1.0 0.1492450441
H  H45  1  0.43140000  0.92190000  0.59850000  1.0 0.1492450441
H  H46  1  0.56860000  0.16710000  0.49050000  1.0 0.1492450441
H  H47  1  0.67660000  0.07810000  0.50950000  1.0 0.1492450441
H  H48  1  0.32340000  0.83290000  0.40150000  1.0 0.1492450441
H  H49  1  0.73580000  0.00000000  0.42580000  1.0 0.1110723371
H  H50  1  0.57420000  0.31000000  0.57420000  1.0 0.1110723371
H  H51  1  0.42580000  0.00000000  0.73580000  1.0 0.1110723371
H  H52  1  0.26420000  0.69000000  0.26420000  1.0 0.1110723371
H  H53  1  0.42580000  0.73580000  0.00000000  1.0 0.1110723371
H  H54  1  0.57420000  0.57420000  0.31000000  1.0 0.1110723371
H  H55  1  0.73580000  0.42580000  0.00000000  1.0 0.1110723371
H  H56  1  0.26420000  0.26420000  0.69000000  1.0 0.1110723371
H  H57  1  0.00000000  0.42580000  0.73580000  1.0 0.1110723371
H  H58  1  0.31000000  0.57420000  0.57420000  1.0 0.1110723371
H  H59  1  0.00000000  0.73580000  0.42580000  1.0 0.1110723371
H  H60  1  0.69000000  0.26420000  0.26420000  1.0 0.1110723371
H  H61  1  0.73715000  0.00000000  0.50185000  1.0 0.1185695588
H  H62  1  0.49815000  0.23530000  0.49815000  1.0 0.1185695588
H  H63  1  0.50185000  0.00000000  0.73715000  1.0 0.1185695588
H  H64  1  0.26285000  0.76470000  0.26285000  1.0 0.1185695588
H  H65  1  0.50185000  0.73715000  0.00000000  1.0 0.1185695588
H  H66  1  0.49815000  0.49815000  0.23530000  1.0 0.1185695588
H  H67  1  0.73715000  0.50185000  0.00000000  1.0 0.1185695588
H  H68  1  0.26285000  0.26285000  0.76470000  1.0 0.1185695588
H  H69  1  0.00000000  0.50185000  0.73715000  1.0 0.1185695588
H  H70  1  0.23530000  0.49815000  0.49815000  1.0 0.1185695588
H  H71  1  0.00000000  0.73715000  0.50185000  1.0 0.1185695588
H  H72  1  0.76470000  0.26285000  0.26285000  1.0 0.1185695588
H  H73  1  0.38670000  0.88170000  0.09480000  1.0 0.1346068734
H  H74  1  0.78690000  0.29190000  0.90520000  1.0 0.1346068734
H  H75  1  0.21310000  0.11830000  0.50500000  1.0 0.1346068734
H  H76  1  0.61330000  0.70810000  0.49500000  1.0 0.1346068734
H  H77  1  0.09480000  0.38670000  0.88170000  1.0 0.1346068734
H  H78  1  0.90520000  0.78690000  0.29190000  1.0 0.1346068734
H  H79  1  0.50500000  0.21310000  0.11830000  1.0 0.1346068734
H  H80  1  0.49500000  0.61330000  0.70810000  1.0 0.1346068734
H  H81  1  0.88170000  0.09480000  0.38670000  1.0 0.1346068734
H  H82  1  0.29190000  0.90520000  0.78690000  1.0 0.1346068734
H  H83  1  0.11830000  0.50500000  0.21310000  1.0 0.1346068734
H  H84  1  0.70810000  0.49500000  0.61330000  1.0 0.1346068734
H  H85  1  0.88170000  0.38670000  0.09480000  1.0 0.1346068734
H  H86  1  0.29190000  0.78690000  0.90520000  1.0 0.1346068734
H  H87  1  0.11830000  0.21310000  0.50500000  1.0 0.1346068734
H  H88  1  0.70810000  0.61330000  0.49500000  1.0 0.1346068734
H  H89  1  0.38670000  0.09480000  0.88170000  1.0 0.1346068734
H  H90  1  0.78690000  0.90520000  0.29190000  1.0 0.1346068734
H  H91  1  0.21310000  0.50500000  0.11830000  1.0 0.1346068734
H  H92  1  0.61330000  0.49500000  0.70810000  1.0 0.1346068734
H  H93  1  0.09480000  0.88170000  0.38670000  1.0 0.1346068734
H  H94  1  0.90520000  0.29190000  0.78690000  1.0 0.1346068734
H  H95  1  0.50500000  0.11830000  0.21310000  1.0 0.1346068734
H  H96  1  0.49500000  0.70810000  0.61330000  1.0 0.1346068734
H  H97  1  0.46300000  0.91590000  0.08910000  1.0 0.1393580268
H  H98  1  0.82680000  0.37390000  0.91090000  1.0 0.1393580268
H  H99  1  0.17320000  0.08410000  0.54710000  1.0 0.1393580268
H  H100  1  0.53700000  0.62610000  0.45290000  1.0 0.1393580268
H  H101  1  0.08910000  0.46300000  0.91590000  1.0 0.1393580268
H  H102  1  0.91090000  0.82680000  0.37390000  1.0 0.1393580268
H  H103  1  0.54710000  0.17320000  0.08410000  1.0 0.1393580268
H  H104  1  0.45290000  0.53700000  0.62610000  1.0 0.1393580268
H  H105  1  0.91590000  0.08910000  0.46300000  1.0 0.1393580268
H  H106  1  0.37390000  0.91090000  0.82680000  1.0 0.1393580268
H  H107  1  0.08410000  0.54710000  0.17320000  1.0 0.1393580268
H  H108  1  0.62610000  0.45290000  0.53700000  1.0 0.1393580268
H  H109  1  0.91590000  0.46300000  0.08910000  1.0 0.1393580268
H  H110  1  0.37390000  0.82680000  0.91090000  1.0 0.1393580268
H  H111  1  0.08410000  0.17320000  0.54710000  1.0 0.1393580268
H  H112  1  0.62610000  0.53700000  0.45290000  1.0 0.1393580268
H  H113  1  0.46300000  0.08910000  0.91590000  1.0 0.1393580268
H  H114  1  0.82680000  0.91090000  0.37390000  1.0 0.1393580268
H  H115  1  0.17320000  0.54710000  0.08410000  1.0 0.1393580268
H  H116  1  0.53700000  0.45290000  0.62610000  1.0 0.1393580268
H  H117  1  0.08910000  0.91590000  0.46300000  1.0 0.1393580268
H  H118  1  0.91090000  0.37390000  0.82680000  1.0 0.1393580268
H  H119  1  0.54710000  0.08410000  0.17320000  1.0 0.1393580268
H  H120  1  0.45290000  0.62610000  0.53700000  1.0 0.1393580268
H  H121  1  0.40045000  0.00000000  0.15675000  1.0 0.1017933207
H  H122  1  0.84325000  0.24370000  0.84325000  1.0 0.1017933207
H  H123  1  0.15675000  0.00000000  0.40045000  1.0 0.1017933207
H  H124  1  0.59955000  0.75630000  0.59955000  1.0 0.1017933207
H  H125  1  0.15675000  0.40045000  0.00000000  1.0 0.1017933207
H  H126  1  0.84325000  0.84325000  0.24370000  1.0 0.1017933207
H  H127  1  0.40045000  0.15675000  0.00000000  1.0 0.1017933207
H  H128  1  0.59955000  0.59955000  0.75630000  1.0 0.1017933207
H  H129  1  0.00000000  0.15675000  0.40045000  1.0 0.1017933207
H  H130  1  0.24370000  0.84325000  0.84325000  1.0 0.1017933207
H  H131  1  0.00000000  0.40045000  0.15675000  1.0 0.1017933207
H  H132  1  0.75630000  0.59955000  0.59955000  1.0 0.1017933207
H  H133  1  0.41790000  0.00000000  0.08910000  1.0 0.1185695588
H  H134  1  0.91090000  0.32880000  0.91090000  1.0 0.1185695588
H  H135  1  0.08910000  0.00000000  0.41790000  1.0 0.1185695588
H  H136  1  0.58210000  0.67120000  0.58210000  1.0 0.1185695588
H  H137  1  0.08910000  0.41790000  0.00000000  1.0 0.1185695588
H  H138  1  0.91090000  0.91090000  0.32880000  1.0 0.1185695588
H  H139  1  0.41790000  0.08910000  0.00000000  1.0 0.1185695588
H  H140  1  0.58210000  0.58210000  0.67120000  1.0 0.1185695588
H  H141  1  0.00000000  0.08910000  0.41790000  1.0 0.1185695588
H  H142  1  0.32880000  0.91090000  0.91090000  1.0 0.1185695588
H  H143  1  0.00000000  0.41790000  0.08910000  1.0 0.1185695588
H  H144  1  0.67120000  0.58210000  0.58210000  1.0 0.1185695588
C  C1  1  0.48860000  0.92570000  0.19770000  1.0 0.2262621502
C  C2  1  0.72800000  0.29090000  0.80230000  1.0 0.2262621502
C  C3  1  0.27200000  0.07430000  0.56290000  1.0 0.2262621502
C  C4  1  0.51140000  0.70910000  0.43710000  1.0 0.2262621502
C  C5  1  0.19770000  0.48860000  0.92570000  1.0 0.2262621502
C  C6  1  0.80230000  0.72800000  0.29090000  1.0 0.2262621502
C  C7  1  0.56290000  0.27200000  0.07430000  1.0 0.2262621502
C  C8  1  0.43710000  0.51140000  0.70910000  1.0 0.2262621502
C  C9  1  0.92570000  0.19770000  0.48860000  1.0 0.2262621502
C  C10  1  0.29090000  0.80230000  0.72800000  1.0 0.2262621502
C  C11  1  0.07430000  0.56290000  0.27200000  1.0 0.2262621502
C  C12  1  0.70910000  0.43710000  0.51140000  1.0 0.2262621502
C  C13  1  0.92570000  0.48860000  0.19770000  1.0 0.2262621502
C  C14  1  0.29090000  0.72800000  0.80230000  1.0 0.2262621502
C  C15  1  0.07430000  0.27200000  0.56290000  1.0 0.2262621502
C  C16  1  0.70910000  0.51140000  0.43710000  1.0 0.2262621502
C  C17  1  0.48860000  0.19770000  0.92570000  1.0 0.2262621502
C  C18  1  0.72800000  0.80230000  0.29090000  1.0 0.2262621502
C  C19  1  0.27200000  0.56290000  0.07430000  1.0 0.2262621502
C  C20  1  0.51140000  0.43710000  0.70910000  1.0 0.2262621502
C  C21  1  0.19770000  0.92570000  0.48860000  1.0 0.2262621502
C  C22  1  0.80230000  0.29090000  0.72800000  1.0 0.2262621502
C  C23  1  0.56290000  0.07430000  0.27200000  1.0 0.2262621502
C  C24  1  0.43710000  0.70910000  0.51140000  1.0 0.2262621502
C  C25  1  0.54770000  0.00000000  0.26650000  1.0 -0.0378103947
C  C26  1  0.73350000  0.28120000  0.73350000  1.0 -0.0378103947
C  C27  1  0.26650000  0.00000000  0.54770000  1.0 -0.0378103947
C  C28  1  0.45230000  0.71880000  0.45230000  1.0 -0.0378103947
C  C29  1  0.26650000  0.54770000  0.00000000  1.0 -0.0378103947
C  C30  1  0.73350000  0.73350000  0.28120000  1.0 -0.0378103947
C  C31  1  0.54770000  0.26650000  0.00000000  1.0 -0.0378103947
C  C32  1  0.45230000  0.45230000  0.71880000  1.0 -0.0378103947
C  C33  1  0.00000000  0.26650000  0.54770000  1.0 -0.0378103947
C  C34  1  0.28120000  0.73350000  0.73350000  1.0 -0.0378103947
C  C35  1  0.00000000  0.54770000  0.26650000  1.0 -0.0378103947
C  C36  1  0.71880000  0.45230000  0.45230000  1.0 -0.0378103947
C  C37  1  0.59190000  0.00000000  0.33390000  1.0 -0.0378103947
C  C38  1  0.66610000  0.25800000  0.66610000  1.0 -0.0378103947
C  C39  1  0.33390000  0.00000000  0.59190000  1.0 -0.0378103947
C  C40  1  0.40810000  0.74200000  0.40810000  1.0 -0.0378103947
C  C41  1  0.33390000  0.59190000  0.00000000  1.0 -0.0378103947
C  C42  1  0.66610000  0.66610000  0.25800000  1.0 -0.0378103947
C  C43  1  0.59190000  0.33390000  0.00000000  1.0 -0.0378103947
C  C44  1  0.40810000  0.40810000  0.74200000  1.0 -0.0378103947
C  C45  1  0.00000000  0.33390000  0.59190000  1.0 -0.0378103947
C  C46  1  0.25800000  0.66610000  0.66610000  1.0 -0.0378103947
C  C47  1  0.00000000  0.59190000  0.33390000  1.0 -0.0378103947
C  C48  1  0.74200000  0.40810000  0.40810000  1.0 -0.0378103947
C  C49  1  0.57720000  0.92590000  0.32950000  1.0 0.2355993954
C  C50  1  0.59640000  0.24770000  0.67050000  1.0 0.2355993954
C  C51  1  0.40360000  0.07410000  0.65130000  1.0 0.2355993954
C  C52  1  0.42280000  0.75230000  0.34870000  1.0 0.2355993954
C  C53  1  0.32950000  0.57720000  0.92590000  1.0 0.2355993954
C  C54  1  0.67050000  0.59640000  0.24770000  1.0 0.2355993954
C  C55  1  0.65130000  0.40360000  0.07410000  1.0 0.2355993954
C  C56  1  0.34870000  0.42280000  0.75230000  1.0 0.2355993954
C  C57  1  0.92590000  0.32950000  0.57720000  1.0 0.2355993954
C  C58  1  0.24770000  0.67050000  0.59640000  1.0 0.2355993954
C  C59  1  0.07410000  0.65130000  0.40360000  1.0 0.2355993954
C  C60  1  0.75230000  0.34870000  0.42280000  1.0 0.2355993954
C  C61  1  0.92590000  0.57720000  0.32950000  1.0 0.2355993954
C  C62  1  0.24770000  0.59640000  0.67050000  1.0 0.2355993954
C  C63  1  0.07410000  0.40360000  0.65130000  1.0 0.2355993954
C  C64  1  0.75230000  0.42280000  0.34870000  1.0 0.2355993954
C  C65  1  0.57720000  0.32950000  0.92590000  1.0 0.2355993954
C  C66  1  0.59640000  0.67050000  0.24770000  1.0 0.2355993954
C  C67  1  0.40360000  0.65130000  0.07410000  1.0 0.2355993954
C  C68  1  0.42280000  0.34870000  0.75230000  1.0 0.2355993954
C  C69  1  0.32950000  0.92590000  0.57720000  1.0 0.2355993954
C  C70  1  0.67050000  0.24770000  0.59640000  1.0 0.2355993954
C  C71  1  0.65130000  0.07410000  0.40360000  1.0 0.2355993954
C  C72  1  0.34870000  0.75230000  0.42280000  1.0 0.2355993954
C  C73  1  0.62530000  0.92470000  0.40120000  1.0 -0.2710661076
C  C74  1  0.52350000  0.22410000  0.59880000  1.0 -0.2710661076
C  C75  1  0.47650000  0.07530000  0.70060000  1.0 -0.2710661076
C  C76  1  0.37470000  0.77590000  0.29940000  1.0 -0.2710661076
C  C77  1  0.40120000  0.62530000  0.92470000  1.0 -0.2710661076
C  C78  1  0.59880000  0.52350000  0.22410000  1.0 -0.2710661076
C  C79  1  0.70060000  0.47650000  0.07530000  1.0 -0.2710661076
C  C80  1  0.29940000  0.37470000  0.77590000  1.0 -0.2710661076
C  C81  1  0.92470000  0.40120000  0.62530000  1.0 -0.2710661076
C  C82  1  0.22410000  0.59880000  0.52350000  1.0 -0.2710661076
C  C83  1  0.07530000  0.70060000  0.47650000  1.0 -0.2710661076
C  C84  1  0.77590000  0.29940000  0.37470000  1.0 -0.2710661076
C  C85  1  0.92470000  0.62530000  0.40120000  1.0 -0.2710661076
C  C86  1  0.22410000  0.52350000  0.59880000  1.0 -0.2710661076
C  C87  1  0.07530000  0.47650000  0.70060000  1.0 -0.2710661076
C  C88  1  0.77590000  0.37470000  0.29940000  1.0 -0.2710661076
C  C89  1  0.62530000  0.40120000  0.92470000  1.0 -0.2710661076
C  C90  1  0.52350000  0.59880000  0.22410000  1.0 -0.2710661076
C  C91  1  0.47650000  0.70060000  0.07530000  1.0 -0.2710661076
C  C92  1  0.37470000  0.29940000  0.77590000  1.0 -0.2710661076
C  C93  1  0.40120000  0.92470000  0.62530000  1.0 -0.2710661076
C  C94  1  0.59880000  0.22410000  0.52350000  1.0 -0.2710661076
C  C95  1  0.70060000  0.07530000  0.47650000  1.0 -0.2710661076
C  C96  1  0.29940000  0.77590000  0.37470000  1.0 -0.2710661076
C  C97  1  0.70740000  0.00000000  0.45460000  1.0 -0.0984352493
C  C98  1  0.54540000  0.25280000  0.54540000  1.0 -0.0984352493
C  C99  1  0.45460000  0.00000000  0.70740000  1.0 -0.0984352493
C  C100  1  0.29260000  0.74720000  0.29260000  1.0 -0.0984352493
C  C101  1  0.45460000  0.70740000  0.00000000  1.0 -0.0984352493
C  C102  1  0.54540000  0.54540000  0.25280000  1.0 -0.0984352493
C  C103  1  0.70740000  0.45460000  0.00000000  1.0 -0.0984352493
C  C104  1  0.29260000  0.29260000  0.74720000  1.0 -0.0984352493
C  C105  1  0.00000000  0.45460000  0.70740000  1.0 -0.0984352493
C  C106  1  0.25280000  0.54540000  0.54540000  1.0 -0.0984352493
C  C107  1  0.00000000  0.70740000  0.45460000  1.0 -0.0984352493
C  C108  1  0.74720000  0.29260000  0.29260000  1.0 -0.0984352493
C  C109  1  0.44040000  0.92510000  0.12310000  1.0 -0.2378304571
C  C110  1  0.80200000  0.31730000  0.87690000  1.0 -0.2378304571
C  C111  1  0.19800000  0.07490000  0.51530000  1.0 -0.2378304571
C  C112  1  0.55960000  0.68270000  0.48470000  1.0 -0.2378304571
C  C113  1  0.12310000  0.44040000  0.92510000  1.0 -0.2378304571
C  C114  1  0.87690000  0.80200000  0.31730000  1.0 -0.2378304571
C  C115  1  0.51530000  0.19800000  0.07490000  1.0 -0.2378304571
C  C116  1  0.48470000  0.55960000  0.68270000  1.0 -0.2378304571
C  C117  1  0.92510000  0.12310000  0.44040000  1.0 -0.2378304571
C  C118  1  0.31730000  0.87690000  0.80200000  1.0 -0.2378304571
C  C119  1  0.07490000  0.51530000  0.19800000  1.0 -0.2378304571
C  C120  1  0.68270000  0.48470000  0.55960000  1.0 -0.2378304571
C  C121  1  0.92510000  0.44040000  0.12310000  1.0 -0.2378304571
C  C122  1  0.31730000  0.80200000  0.87690000  1.0 -0.2378304571
C  C123  1  0.07490000  0.19800000  0.51530000  1.0 -0.2378304571
C  C124  1  0.68270000  0.55960000  0.48470000  1.0 -0.2378304571
C  C125  1  0.44040000  0.12310000  0.92510000  1.0 -0.2378304571
C  C126  1  0.80200000  0.87690000  0.31730000  1.0 -0.2378304571
C  C127  1  0.19800000  0.51530000  0.07490000  1.0 -0.2378304571
C  C128  1  0.55960000  0.48470000  0.68270000  1.0 -0.2378304571
C  C129  1  0.12310000  0.92510000  0.44040000  1.0 -0.2378304571
C  C130  1  0.87690000  0.31730000  0.80200000  1.0 -0.2378304571
C  C131  1  0.51530000  0.07490000  0.19800000  1.0 -0.2378304571
C  C132  1  0.48470000  0.68270000  0.55960000  1.0 -0.2378304571
C  C133  1  0.43790000  0.00000000  0.13850000  1.0 -0.1151735999
C  C134  1  0.86150000  0.29940000  0.86150000  1.0 -0.1151735999
C  C135  1  0.13850000  0.00000000  0.43790000  1.0 -0.1151735999
C  C136  1  0.56210000  0.70060000  0.56210000  1.0 -0.1151735999
C  C137  1  0.13850000  0.43790000  0.00000000  1.0 -0.1143058111
C  C138  1  0.86150000  0.86150000  0.29940000  1.0 -0.1151735999
C  C139  1  0.43790000  0.13850000  0.00000000  1.0 -0.1151735999
C  C140  1  0.56210000  0.56210000  0.70060000  1.0 -0.1151735999
C  C141  1  0.00000000  0.13850000  0.43790000  1.0 -0.1151735999
C  C142  1  0.29940000  0.86150000  0.86150000  1.0 -0.1151735999
C  C143  1  0.00000000  0.43790000  0.13850000  1.0 -0.1151735999
C  C144  1  0.70060000  0.56210000  0.56210000  1.0 -0.1151735999
N  N1  1  0.52230000  0.85910000  0.26380000  1.0 -0.1643951158
N  N2  1  0.59530000  0.25850000  0.73620000  1.0 -0.1643951158
N  N3  1  0.40470000  0.14090000  0.66320000  1.0 -0.1643951158
N  N4  1  0.47770000  0.74150000  0.33680000  1.0 -0.1643951158
N  N5  1  0.26380000  0.52230000  0.85910000  1.0 -0.1643951158
N  N6  1  0.73620000  0.59530000  0.25850000  1.0 -0.1643951158
N  N7  1  0.66320000  0.40470000  0.14090000  1.0 -0.1643951158
N  N8  1  0.33680000  0.47770000  0.74150000  1.0 -0.1643951158
N  N9  1  0.85910000  0.26380000  0.52230000  1.0 -0.1643951158
N  N10  1  0.25850000  0.73620000  0.59530000  1.0 -0.1643951158
N  N11  1  0.14090000  0.66320000  0.40470000  1.0 -0.1643951158
N  N12  1  0.74150000  0.33680000  0.47770000  1.0 -0.1643951158
N  N13  1  0.85910000  0.52230000  0.26380000  1.0 -0.1643951158
N  N14  1  0.25850000  0.59530000  0.73620000  1.0 -0.1643951158
N  N15  1  0.14090000  0.40470000  0.66320000  1.0 -0.1643951158
N  N16  1  0.74150000  0.47770000  0.33680000  1.0 -0.1643951158
N  N17  1  0.52230000  0.26380000  0.85910000  1.0 -0.1643951158
N  N18  1  0.59530000  0.73620000  0.25850000  1.0 -0.1643951158
N  N19  1  0.40470000  0.66320000  0.14090000  1.0 -0.1643951158
N  N20  1  0.47770000  0.33680000  0.74150000  1.0 -0.1643951158
N  N21  1  0.26380000  0.85910000  0.52230000  1.0 -0.1643951158
N  N22  1  0.73620000  0.25850000  0.59530000  1.0 -0.1643951158
N  N23  1  0.66320000  0.14090000  0.40470000  1.0 -0.1643951158
N  N24  1  0.33680000  0.74150000  0.47770000  1.0 -0.1643951158
N  N25  1  0.47500000  0.85760000  0.19520000  1.0 -0.2187620787
N  N26  1  0.66240000  0.27980000  0.80480000  1.0 -0.2187620787
N  N27  1  0.33760000  0.14240000  0.61740000  1.0 -0.2187620787
N  N28  1  0.52500000  0.72020000  0.38260000  1.0 -0.2187620787
N  N29  1  0.19520000  0.47500000  0.85760000  1.0 -0.2187620787
N  N30  1  0.80480000  0.66240000  0.27980000  1.0 -0.2187620787
N  N31  1  0.61740000  0.33760000  0.14240000  1.0 -0.2187620787
N  N32  1  0.38260000  0.52500000  0.72020000  1.0 -0.2187620787
N  N33  1  0.85760000  0.19520000  0.47500000  1.0 -0.2187620787
N  N34  1  0.27980000  0.80480000  0.66240000  1.0 -0.2187620787
N  N35  1  0.14240000  0.61740000  0.33760000  1.0 -0.2187620787
N  N36  1  0.72020000  0.38260000  0.52500000  1.0 -0.2187620787
N  N37  1  0.85760000  0.47500000  0.19520000  1.0 -0.2187620787
N  N38  1  0.27980000  0.66240000  0.80480000  1.0 -0.2187620787
N  N39  1  0.14240000  0.33760000  0.61740000  1.0 -0.2187620787
N  N40  1  0.72020000  0.52500000  0.38260000  1.0 -0.2187620787
N  N41  1  0.47500000  0.19520000  0.85760000  1.0 -0.2187620787
N  N42  1  0.66240000  0.80480000  0.27980000  1.0 -0.2187620787
N  N43  1  0.33760000  0.61740000  0.14240000  1.0 -0.2187620787
N  N44  1  0.52500000  0.38260000  0.72020000  1.0 -0.2187620787
N  N45  1  0.19520000  0.85760000  0.47500000  1.0 -0.2187620787
N  N46  1  0.80480000  0.27980000  0.66240000  1.0 -0.2187620787
N  N47  1  0.61740000  0.14240000  0.33760000  1.0 -0.2187620787
N  N48  1  0.38260000  0.72020000  0.52500000  1.0 -0.2187620787
Cl  Cl1  1  0.00000000  0.24960000  0.00000000  1.0 1.1953528056
Cl  Cl2  1  0.24960000  0.00000000  0.00000000  1.0 1.1932194362
Cl  Cl3  1  0.75040000  0.75040000  0.75040000  1.0 1.2128249536
Cl  Cl4  1  0.00000000  0.00000000  0.24960000  1.0 1.2128249536
Cl  Cl5  1  0.44740000  0.44740000  0.44740000  1.0 1.2621039792
Cl  Cl6  1  0.00000000  0.00000000  0.55260000  1.0 1.2621039792
Cl  Cl7  1  0.00000000  0.55260000  0.00000000  1.0 1.2621039792
Cl  Cl8  1  0.55260000  0.00000000  0.00000000  1.0 1.2621039792
Cl  Cl9  1  0.00000000  0.50000000  0.50000000  1.0 1.2621039792
Cl  Cl10  1  0.50000000  0.50000000  0.00000000  1.0 1.2621039792
Cl  Cl11  1  0.50000000  0.00000000  0.50000000  1.0 1.2621039792
O  O1  1  0.92680000  0.18220000  0.92680000  1.0 -0.4692919527
O  O2  1  0.07320000  0.25540000  0.00000000  1.0 -0.4692919527
O  O3  1  0.00000000  0.25540000  0.07320000  1.0 -0.4759849579
O  O4  1  0.00000000  0.32040000  0.00000000  1.0 -0.5112099717
O  O5  1  0.25540000  0.00000000  0.07320000  1.0 -0.4759849579
O  O6  1  0.25540000  0.07320000  0.00000000  1.0 -0.4759849579
O  O7  1  0.18220000  0.92680000  0.92680000  1.0 -0.4692919527
O  O8  1  0.32040000  0.00000000  0.00000000  1.0 -0.5112099717
O  O9  1  0.74460000  0.81780000  0.74460000  1.0 -0.4692919527
O  O10  1  0.74460000  0.74460000  0.81780000  1.0 -0.4692919527
O  O11  1  0.81780000  0.74460000  0.74460000  1.0 -0.4692919527
O  O12  1  0.67960000  0.67960000  0.67960000  1.0 -0.5112099717
O  O13  1  0.07320000  0.00000000  0.25540000  1.0 -0.4692919527
O  O14  1  0.92680000  0.92680000  0.18220000  1.0 -0.4692919527
O  O15  1  0.00000000  0.07320000  0.25540000  1.0 -0.4692919527
O  O16  1  0.00000000  0.00000000  0.32040000  1.0 -0.5152902474
O  O17  1  0.52000000  0.52000000  0.52000000  1.0 -0.4692919527
O  O18  1  0.44890000  0.44890000  0.37920000  1.0 -0.4692919527
O  O19  1  0.37920000  0.44890000  0.44890000  1.0 -0.4692919527
O  O20  1  0.44890000  0.37920000  0.44890000  1.0 -0.4692919527
O  O21  1  0.00000000  0.00000000  0.48000000  1.0 -0.4692919527
O  O22  1  0.06970000  0.06970000  0.62080000  1.0 -0.4692919527
O  O23  1  0.00000000  0.93030000  0.55110000  1.0 -0.4692919527
O  O24  1  0.93030000  0.00000000  0.55110000  1.0 -0.4692919527
O  O25  1  0.00000000  0.48000000  0.00000000  1.0 -0.4639361968
O  O26  1  0.93030000  0.55110000  0.00000000  1.0 -0.4692919527
O  O27  1  0.00000000  0.55110000  0.93030000  1.0 -0.4692919527
O  O28  1  0.06970000  0.62080000  0.06970000  1.0 -0.4692919527
O  O29  1  0.48000000  0.00000000  0.00000000  1.0 -0.4639361968
O  O30  1  0.55110000  0.93030000  0.00000000  1.0 -0.4692919527
O  O31  1  0.62080000  0.06970000  0.06970000  1.0 -0.4692919527
O  O32  1  0.55110000  0.00000000  0.93030000  1.0 -0.4692919527
O  O33  1  0.00000000  0.43070000  0.50090000  1.0 -0.486065812
O  O34  1  0.07020000  0.56930000  0.56930000  1.0 -0.486065812
O  O35  1  0.00000000  0.50090000  0.43070000  1.0 -0.486065812
O  O36  1  0.92980000  0.49910000  0.49910000  1.0 -0.486065812
O  O37  1  0.43070000  0.50090000  0.00000000  1.0 -0.486065812
O  O38  1  0.56930000  0.56930000  0.07020000  1.0 -0.486065812
O  O39  1  0.50090000  0.43070000  0.00000000  1.0 -0.486065812
O  O40  1  0.49910000  0.49910000  0.92980000  1.0 -0.486065812
O  O41  1  0.50090000  0.00000000  0.43070000  1.0 -0.486065812
O  O42  1  0.56930000  0.07020000  0.56930000  1.0 -0.486065812
O  O43  1  0.43070000  0.00000000  0.50090000  1.0 -0.486065812
O  O44  1  0.49910000  0.92980000  0.49910000  1.0 -0.486065812
