# DDEC6 charges by PACMAN v1.1 (https://github.com/mtap-research/PACMAN-charge/)
data_EVEGER_FSR_pacman
_symmetry_space_group_name_H-M   'P 1'
_cell_length_a   15.44000000
_cell_length_b   15.44000000
_cell_length_c   16.25400000
_cell_angle_alpha   90.00000000
_cell_angle_beta   90.00000000
_cell_angle_gamma   120.00000000
_symmetry_Int_Tables_number   1
_chemical_formula_structural   Yb2Mn3H42C42(NO5)6
_chemical_formula_sum   'Yb4 Mn6 H84 C84 N12 O60'
_cell_volume   3355.71816727
_cell_formula_units_Z   2
loop_
 _symmetry_equiv_pos_site_id
 _symmetry_equiv_pos_as_xyz
  1  'x, y, z'
loop_
 _atom_site_type_symbol
 _atom_site_label
 _atom_site_symmetry_multiplicity
 _atom_site_fract_x
 _atom_site_fract_y
 _atom_site_fract_z
 _atom_site_occupancy
 _atom_site_charge
Yb  Yb1  1  0.33333333  0.66666667  0.25000000  1.0 1.8913677531
Yb  Yb2  1  0.66666667  0.33333333  0.25000000  1.0 1.8913677531
Yb  Yb3  1  0.66666667  0.33333333  0.75000000  1.0 1.8913677531
Yb  Yb4  1  0.33333333  0.66666667  0.75000000  1.0 1.8913677531
Mn  Mn1  1  0.50000000  0.50000000  0.00000000  1.0 1.0580616194
Mn  Mn2  1  0.50000000  0.00000000  0.00000000  1.0 1.0580616194
Mn  Mn3  1  0.00000000  0.50000000  0.00000000  1.0 1.0580616194
Mn  Mn4  1  0.50000000  0.50000000  0.50000000  1.0 1.0580616194
Mn  Mn5  1  0.00000000  0.50000000  0.50000000  1.0 1.0580616194
Mn  Mn6  1  0.50000000  0.00000000  0.50000000  1.0 1.0580616194
H  H1  1  0.70097000  0.55330000  0.03140000  1.0 0.1403332406
H  H2  1  0.44670000  0.14767000  0.03140000  1.0 0.1403332406
H  H3  1  0.85233000  0.29903000  0.03140000  1.0 0.1403332406
H  H4  1  0.55330000  0.85233000  0.03140000  1.0 0.1403332406
H  H5  1  0.14767000  0.70097000  0.03140000  1.0 0.1403332406
H  H6  1  0.55330000  0.70097000  0.46860000  1.0 0.1403332406
H  H7  1  0.85233000  0.55330000  0.46860000  1.0 0.1403332406
H  H8  1  0.70097000  0.14767000  0.46860000  1.0 0.1403332406
H  H9  1  0.29903000  0.44670000  0.03140000  1.0 0.1403332406
H  H10  1  0.14767000  0.44670000  0.46860000  1.0 0.1403332406
H  H11  1  0.29903000  0.85233000  0.46860000  1.0 0.1403332406
H  H12  1  0.44670000  0.29903000  0.46860000  1.0 0.1403332406
H  H13  1  0.29903000  0.44670000  0.96860000  1.0 0.1403332406
H  H14  1  0.55330000  0.85233000  0.96860000  1.0 0.1403332406
H  H15  1  0.14767000  0.70097000  0.96860000  1.0 0.1403332406
H  H16  1  0.44670000  0.14767000  0.96860000  1.0 0.1403332406
H  H17  1  0.85233000  0.29903000  0.96860000  1.0 0.1403332406
H  H18  1  0.44670000  0.29903000  0.53140000  1.0 0.1403332406
H  H19  1  0.14767000  0.44670000  0.53140000  1.0 0.1403332406
H  H20  1  0.29903000  0.85233000  0.53140000  1.0 0.1403332406
H  H21  1  0.70097000  0.55330000  0.96860000  1.0 0.1403332406
H  H22  1  0.85233000  0.55330000  0.53140000  1.0 0.1403332406
H  H23  1  0.70097000  0.14767000  0.53140000  1.0 0.1403332406
H  H24  1  0.55330000  0.70097000  0.53140000  1.0 0.1403332406
H  H25  1  0.79727000  0.89863000  0.25000000  1.0 0.1096586707
H  H26  1  0.10137000  0.89863000  0.25000000  1.0 0.1096586707
H  H27  1  0.10137000  0.20273000  0.25000000  1.0 0.1096586707
H  H28  1  0.89863000  0.10137000  0.25000000  1.0 0.1096586707
H  H29  1  0.89863000  0.79727000  0.25000000  1.0 0.1096586707
H  H30  1  0.20273000  0.10137000  0.25000000  1.0 0.1096586707
H  H31  1  0.20273000  0.10137000  0.75000000  1.0 0.1096586707
H  H32  1  0.89863000  0.10137000  0.75000000  1.0 0.1096586707
H  H33  1  0.89863000  0.79727000  0.75000000  1.0 0.1096586707
H  H34  1  0.10137000  0.89863000  0.75000000  1.0 0.1096586707
H  H35  1  0.10137000  0.20273000  0.75000000  1.0 0.1096586707
H  H36  1  0.79727000  0.89863000  0.75000000  1.0 0.1096586707
H  H37  1  0.70857000  0.76800000  0.15630000  1.0 0.1403332406
H  H38  1  0.23200000  0.94057000  0.15630000  1.0 0.1403332406
H  H39  1  0.05943000  0.29143000  0.15630000  1.0 0.1403332406
H  H40  1  0.76800000  0.05943000  0.15630000  1.0 0.1403332406
H  H41  1  0.94057000  0.70857000  0.15630000  1.0 0.1403332406
H  H42  1  0.76800000  0.70857000  0.34370000  1.0 0.1403332406
H  H43  1  0.05943000  0.76800000  0.34370000  1.0 0.1403332406
H  H44  1  0.70857000  0.94057000  0.34370000  1.0 0.1403332406
H  H45  1  0.29143000  0.23200000  0.15630000  1.0 0.1403332406
H  H46  1  0.94057000  0.23200000  0.34370000  1.0 0.1403332406
H  H47  1  0.29143000  0.05943000  0.34370000  1.0 0.1403332406
H  H48  1  0.23200000  0.29143000  0.34370000  1.0 0.1403332406
H  H49  1  0.29143000  0.23200000  0.84370000  1.0 0.1403332406
H  H50  1  0.76800000  0.05943000  0.84370000  1.0 0.1403332406
H  H51  1  0.94057000  0.70857000  0.84370000  1.0 0.1403332406
H  H52  1  0.23200000  0.94057000  0.84370000  1.0 0.1403332406
H  H53  1  0.05943000  0.29143000  0.84370000  1.0 0.1403332406
H  H54  1  0.23200000  0.29143000  0.65630000  1.0 0.1403332406
H  H55  1  0.94057000  0.23200000  0.65630000  1.0 0.1403332406
H  H56  1  0.29143000  0.05943000  0.65630000  1.0 0.1403332406
H  H57  1  0.70857000  0.76800000  0.84370000  1.0 0.1403332406
H  H58  1  0.05943000  0.76800000  0.65630000  1.0 0.1403332406
H  H59  1  0.70857000  0.94057000  0.65630000  1.0 0.1403332406
H  H60  1  0.76800000  0.70857000  0.65630000  1.0 0.1403332406
H  H61  1  0.66587000  0.47420000  0.96860000  1.0 0.1694847299
H  H62  1  0.52580000  0.19167000  0.96860000  1.0 0.1694847299
H  H63  1  0.80833000  0.33413000  0.96860000  1.0 0.1694847299
H  H64  1  0.47420000  0.80833000  0.96860000  1.0 0.1694847299
H  H65  1  0.19167000  0.66587000  0.96860000  1.0 0.1694847299
H  H66  1  0.47420000  0.66587000  0.53140000  1.0 0.1694847299
H  H67  1  0.80833000  0.47420000  0.53140000  1.0 0.1694847299
H  H68  1  0.66587000  0.19167000  0.53140000  1.0 0.1694847299
H  H69  1  0.33413000  0.52580000  0.96860000  1.0 0.1694847299
H  H70  1  0.19167000  0.52580000  0.53140000  1.0 0.1694847299
H  H71  1  0.33413000  0.80833000  0.53140000  1.0 0.1694847299
H  H72  1  0.52580000  0.33413000  0.53140000  1.0 0.1694847299
H  H73  1  0.33413000  0.52580000  0.03140000  1.0 0.1694847299
H  H74  1  0.47420000  0.80833000  0.03140000  1.0 0.1694847299
H  H75  1  0.19167000  0.66587000  0.03140000  1.0 0.1694847299
H  H76  1  0.52580000  0.19167000  0.03140000  1.0 0.1694847299
H  H77  1  0.80833000  0.33413000  0.03140000  1.0 0.1694847299
H  H78  1  0.52580000  0.33413000  0.46860000  1.0 0.1694847299
H  H79  1  0.19167000  0.52580000  0.46860000  1.0 0.1694847299
H  H80  1  0.33413000  0.80833000  0.46860000  1.0 0.1694847299
H  H81  1  0.66587000  0.47420000  0.03140000  1.0 0.1694847299
H  H82  1  0.80833000  0.47420000  0.46860000  1.0 0.1694847299
H  H83  1  0.66587000  0.19167000  0.46860000  1.0 0.1694847299
H  H84  1  0.47420000  0.66587000  0.46860000  1.0 0.1694847299
C  C1  1  0.72777000  0.86388000  0.25000000  1.0 -0.0641306125
C  C2  1  0.13612000  0.86388000  0.25000000  1.0 -0.0641306125
C  C3  1  0.13612000  0.27223000  0.25000000  1.0 -0.0641306125
C  C4  1  0.86388000  0.13612000  0.25000000  1.0 -0.0641306125
C  C5  1  0.86388000  0.72777000  0.25000000  1.0 -0.0641306125
C  C6  1  0.27223000  0.13612000  0.25000000  1.0 -0.0641306125
C  C7  1  0.27223000  0.13612000  0.75000000  1.0 -0.0641306125
C  C8  1  0.86388000  0.13612000  0.75000000  1.0 -0.0641306125
C  C9  1  0.86388000  0.72777000  0.75000000  1.0 -0.0641306125
C  C10  1  0.13612000  0.86388000  0.75000000  1.0 -0.0641306125
C  C11  1  0.13612000  0.27223000  0.75000000  1.0 -0.0641306125
C  C12  1  0.72777000  0.86388000  0.75000000  1.0 -0.0641306125
C  C13  1  0.67487000  0.78540000  0.19430000  1.0 -0.1426105973
C  C14  1  0.21460000  0.88947000  0.19430000  1.0 -0.1426105973
C  C15  1  0.11053000  0.32513000  0.19430000  1.0 -0.1426105973
C  C16  1  0.78540000  0.11053000  0.19430000  1.0 -0.1426105973
C  C17  1  0.88947000  0.67487000  0.19430000  1.0 -0.1426105973
C  C18  1  0.78540000  0.67487000  0.30570000  1.0 -0.1426105973
C  C19  1  0.11053000  0.78540000  0.30570000  1.0 -0.1426105973
C  C20  1  0.67487000  0.88947000  0.30570000  1.0 -0.1426105973
C  C21  1  0.32513000  0.21460000  0.19430000  1.0 -0.1426105973
C  C22  1  0.88947000  0.21460000  0.30570000  1.0 -0.1426105973
C  C23  1  0.32513000  0.11053000  0.30570000  1.0 -0.1426105973
C  C24  1  0.21460000  0.32513000  0.30570000  1.0 -0.1426105973
C  C25  1  0.32513000  0.21460000  0.80570000  1.0 -0.1426105973
C  C26  1  0.78540000  0.11053000  0.80570000  1.0 -0.1426105973
C  C27  1  0.88947000  0.67487000  0.80570000  1.0 -0.1426105973
C  C28  1  0.21460000  0.88947000  0.80570000  1.0 -0.1426105973
C  C29  1  0.11053000  0.32513000  0.80570000  1.0 -0.1426105973
C  C30  1  0.21460000  0.32513000  0.69430000  1.0 -0.1426105973
C  C31  1  0.88947000  0.21460000  0.69430000  1.0 -0.1426105973
C  C32  1  0.32513000  0.11053000  0.69430000  1.0 -0.1426105973
C  C33  1  0.67487000  0.78540000  0.80570000  1.0 -0.1426105973
C  C34  1  0.11053000  0.78540000  0.69430000  1.0 -0.1426105973
C  C35  1  0.67487000  0.88947000  0.69430000  1.0 -0.1426105973
C  C36  1  0.78540000  0.67487000  0.69430000  1.0 -0.1426105973
C  C37  1  0.57137000  0.73440000  0.19720000  1.0 0.1310333098
C  C38  1  0.26560000  0.83697000  0.19720000  1.0 0.1310333098
C  C39  1  0.16303000  0.42863000  0.19720000  1.0 0.1310333098
C  C40  1  0.73440000  0.16303000  0.19720000  1.0 0.1310333098
C  C41  1  0.83697000  0.57137000  0.19720000  1.0 0.1310333098
C  C42  1  0.73440000  0.57137000  0.30280000  1.0 0.1310333098
C  C43  1  0.16303000  0.73440000  0.30280000  1.0 0.1310333098
C  C44  1  0.57137000  0.83697000  0.30280000  1.0 0.1310333098
C  C45  1  0.42863000  0.26560000  0.19720000  1.0 0.1310333098
C  C46  1  0.83697000  0.26560000  0.30280000  1.0 0.1310333098
C  C47  1  0.42863000  0.16303000  0.30280000  1.0 0.1310333098
C  C48  1  0.26560000  0.42863000  0.30280000  1.0 0.1310333098
C  C49  1  0.42863000  0.26560000  0.80280000  1.0 0.1310333098
C  C50  1  0.73440000  0.16303000  0.80280000  1.0 0.1310333098
C  C51  1  0.83697000  0.57137000  0.80280000  1.0 0.1310333098
C  C52  1  0.26560000  0.83697000  0.80280000  1.0 0.1310333098
C  C53  1  0.16303000  0.42863000  0.80280000  1.0 0.1310333098
C  C54  1  0.26560000  0.42863000  0.69720000  1.0 0.1310333098
C  C55  1  0.83697000  0.26560000  0.69720000  1.0 0.1310333098
C  C56  1  0.42863000  0.16303000  0.69720000  1.0 0.1310333098
C  C57  1  0.57137000  0.73440000  0.80280000  1.0 0.1310333098
C  C58  1  0.16303000  0.73440000  0.69720000  1.0 0.1310333098
C  C59  1  0.57137000  0.83697000  0.69720000  1.0 0.1310333098
C  C60  1  0.73440000  0.57137000  0.69720000  1.0 0.1310333098
C  C61  1  0.50427000  0.64680000  0.13960000  1.0 0.5692515818
C  C62  1  0.35320000  0.85747000  0.13960000  1.0 0.5692515818
C  C63  1  0.14253000  0.49573000  0.13960000  1.0 0.5692515818
C  C64  1  0.64680000  0.14253000  0.13960000  1.0 0.5692515818
C  C65  1  0.85747000  0.50427000  0.13960000  1.0 0.5692515818
C  C66  1  0.64680000  0.50427000  0.36040000  1.0 0.5692515818
C  C67  1  0.14253000  0.64680000  0.36040000  1.0 0.5692515818
C  C68  1  0.50427000  0.85747000  0.36040000  1.0 0.5692515818
C  C69  1  0.49573000  0.35320000  0.13960000  1.0 0.5692515818
C  C70  1  0.85747000  0.35320000  0.36040000  1.0 0.5692515818
C  C71  1  0.49573000  0.14253000  0.36040000  1.0 0.5692515818
C  C72  1  0.35320000  0.49573000  0.36040000  1.0 0.5692515818
C  C73  1  0.49573000  0.35320000  0.86040000  1.0 0.5692515818
C  C74  1  0.64680000  0.14253000  0.86040000  1.0 0.5692515818
C  C75  1  0.85747000  0.50427000  0.86040000  1.0 0.5692515818
C  C76  1  0.35320000  0.85747000  0.86040000  1.0 0.5692515818
C  C77  1  0.14253000  0.49573000  0.86040000  1.0 0.5692515818
C  C78  1  0.35320000  0.49573000  0.63960000  1.0 0.5692515818
C  C79  1  0.85747000  0.35320000  0.63960000  1.0 0.5692515818
C  C80  1  0.49573000  0.14253000  0.63960000  1.0 0.5692515818
C  C81  1  0.50427000  0.64680000  0.86040000  1.0 0.5692515818
C  C82  1  0.14253000  0.64680000  0.63960000  1.0 0.5692515818
C  C83  1  0.50427000  0.85747000  0.63960000  1.0 0.5692515818
C  C84  1  0.64680000  0.50427000  0.63960000  1.0 0.5692515818
N  N1  1  0.51907000  0.75953000  0.25000000  1.0 -0.3709638022
N  N2  1  0.24047000  0.75953000  0.25000000  1.0 -0.3709638022
N  N3  1  0.24047000  0.48093000  0.25000000  1.0 -0.3709638022
N  N4  1  0.75953000  0.24047000  0.25000000  1.0 -0.3709638022
N  N5  1  0.75953000  0.51907000  0.25000000  1.0 -0.3709638022
N  N6  1  0.48093000  0.24047000  0.25000000  1.0 -0.3709638022
N  N7  1  0.48093000  0.24047000  0.75000000  1.0 -0.3709638022
N  N8  1  0.75953000  0.24047000  0.75000000  1.0 -0.3709638022
N  N9  1  0.75953000  0.51907000  0.75000000  1.0 -0.3709638022
N  N10  1  0.24047000  0.75953000  0.75000000  1.0 -0.3709638022
N  N11  1  0.24047000  0.48093000  0.75000000  1.0 -0.3709638022
N  N12  1  0.51907000  0.75953000  0.75000000  1.0 -0.3709638022
O  O1  1  0.40877000  0.61040000  0.14590000  1.0 -0.6294786585
O  O2  1  0.38960000  0.79837000  0.14590000  1.0 -0.6294786585
O  O3  1  0.20163000  0.59123000  0.14590000  1.0 -0.6294786585
O  O4  1  0.61040000  0.20163000  0.14590000  1.0 -0.6294786585
O  O5  1  0.79837000  0.40877000  0.14590000  1.0 -0.6294786585
O  O6  1  0.61040000  0.40877000  0.35410000  1.0 -0.6294786585
O  O7  1  0.20163000  0.61040000  0.35410000  1.0 -0.6294786585
O  O8  1  0.40877000  0.79837000  0.35410000  1.0 -0.6294786585
O  O9  1  0.59123000  0.38960000  0.14590000  1.0 -0.6294786585
O  O10  1  0.79837000  0.38960000  0.35410000  1.0 -0.6294786585
O  O11  1  0.59123000  0.20163000  0.35410000  1.0 -0.6294786585
O  O12  1  0.38960000  0.59123000  0.35410000  1.0 -0.6294786585
O  O13  1  0.59123000  0.38960000  0.85410000  1.0 -0.6294786585
O  O14  1  0.61040000  0.20163000  0.85410000  1.0 -0.6294786585
O  O15  1  0.79837000  0.40877000  0.85410000  1.0 -0.6294786585
O  O16  1  0.38960000  0.79837000  0.85410000  1.0 -0.6294786585
O  O17  1  0.20163000  0.59123000  0.85410000  1.0 -0.6294786585
O  O18  1  0.38960000  0.59123000  0.64590000  1.0 -0.6294786585
O  O19  1  0.79837000  0.38960000  0.64590000  1.0 -0.6294786585
O  O20  1  0.59123000  0.20163000  0.64590000  1.0 -0.6294786585
O  O21  1  0.40877000  0.61040000  0.85410000  1.0 -0.6294786585
O  O22  1  0.20163000  0.61040000  0.64590000  1.0 -0.6294786585
O  O23  1  0.40877000  0.79837000  0.64590000  1.0 -0.6294786585
O  O24  1  0.61040000  0.40877000  0.64590000  1.0 -0.6294786585
O  O25  1  0.54907000  0.61650000  0.09270000  1.0 -0.562242985
O  O26  1  0.38350000  0.93257000  0.09270000  1.0 -0.562242985
O  O27  1  0.06743000  0.45093000  0.09270000  1.0 -0.562242985
O  O28  1  0.61650000  0.06743000  0.09270000  1.0 -0.562242985
O  O29  1  0.93257000  0.54907000  0.09270000  1.0 -0.562242985
O  O30  1  0.61650000  0.54907000  0.40730000  1.0 -0.562242985
O  O31  1  0.06743000  0.61650000  0.40730000  1.0 -0.562242985
O  O32  1  0.54907000  0.93257000  0.40730000  1.0 -0.562242985
O  O33  1  0.45093000  0.38350000  0.09270000  1.0 -0.562242985
O  O34  1  0.93257000  0.38350000  0.40730000  1.0 -0.562242985
O  O35  1  0.45093000  0.06743000  0.40730000  1.0 -0.562242985
O  O36  1  0.38350000  0.45093000  0.40730000  1.0 -0.562242985
O  O37  1  0.45093000  0.38350000  0.90730000  1.0 -0.562242985
O  O38  1  0.61650000  0.06743000  0.90730000  1.0 -0.562242985
O  O39  1  0.93257000  0.54907000  0.90730000  1.0 -0.562242985
O  O40  1  0.38350000  0.93257000  0.90730000  1.0 -0.562242985
O  O41  1  0.06743000  0.45093000  0.90730000  1.0 -0.562242985
O  O42  1  0.38350000  0.45093000  0.59270000  1.0 -0.562242985
O  O43  1  0.93257000  0.38350000  0.59270000  1.0 -0.562242985
O  O44  1  0.45093000  0.06743000  0.59270000  1.0 -0.562242985
O  O45  1  0.54907000  0.61650000  0.90730000  1.0 -0.562242985
O  O46  1  0.06743000  0.61650000  0.59270000  1.0 -0.562242985
O  O47  1  0.54907000  0.93257000  0.59270000  1.0 -0.562242985
O  O48  1  0.61650000  0.54907000  0.59270000  1.0 -0.562242985
O  O49  1  0.65487000  0.51160000  0.00000000  1.0 -0.4662587074
O  O50  1  0.48840000  0.14327000  0.00000000  1.0 -0.4662587074
O  O51  1  0.85673000  0.34513000  0.00000000  1.0 -0.4662587074
O  O52  1  0.51160000  0.85673000  0.00000000  1.0 -0.4662587074
O  O53  1  0.14327000  0.65487000  0.00000000  1.0 -0.4662587074
O  O54  1  0.51160000  0.65487000  0.50000000  1.0 -0.4662587074
O  O55  1  0.85673000  0.51160000  0.50000000  1.0 -0.4662587074
O  O56  1  0.65487000  0.14327000  0.50000000  1.0 -0.4662587074
O  O57  1  0.34513000  0.48840000  0.00000000  1.0 -0.4662587074
O  O58  1  0.14327000  0.48840000  0.50000000  1.0 -0.4662587074
O  O59  1  0.34513000  0.85673000  0.50000000  1.0 -0.4662587074
O  O60  1  0.48840000  0.34513000  0.50000000  1.0 -0.4662587074
