# DDEC6 charges by PACMAN v1.1 (https://github.com/mtap-research/PACMAN-charge/)
data_EVOHOM_ASR_pacman
_symmetry_space_group_name_H-M   'P 1'
_cell_length_a   15.32550000
_cell_length_b   15.32550000
_cell_length_c   9.20100000
_cell_angle_alpha   80.14870000
_cell_angle_beta   99.85130000
_cell_angle_gamma   37.41150000
_symmetry_Int_Tables_number   1
_chemical_formula_structural   Ba2Zr(CO2)8
_chemical_formula_sum   'Ba4 Zr2 C16 O32'
_cell_volume   1110.47716726
_cell_formula_units_Z   2
loop_
 _symmetry_equiv_pos_site_id
 _symmetry_equiv_pos_as_xyz
  1  'x, y, z'
loop_
 _atom_site_type_symbol
 _atom_site_label
 _atom_site_symmetry_multiplicity
 _atom_site_fract_x
 _atom_site_fract_y
 _atom_site_fract_z
 _atom_site_occupancy
 _atom_site_charge
Ba  Ba1  1  0.02867000  0.02867000  0.75000000  1.0 1.3801833088
Ba  Ba2  1  0.97133000  0.97133000  0.25000000  1.0 1.3801833088
Ba  Ba3  1  0.22910000  0.22910000  0.25000000  1.0 1.3801833088
Ba  Ba4  1  0.77090000  0.77090000  0.75000000  1.0 1.3877043818
Zr  Zr1  1  0.38452000  0.38452000  0.75000000  1.0 1.8708210085
Zr  Zr2  1  0.61548000  0.61548000  0.25000000  1.0 1.8708210085
C  C1  1  0.62340000  0.26760000  0.63060000  1.0 0.4779672269
C  C2  1  0.26760000  0.62340000  0.86940000  1.0 0.4779672269
C  C3  1  0.37660000  0.73240000  0.36940000  1.0 0.4779672269
C  C4  1  0.73240000  0.37660000  0.13060000  1.0 0.4779672269
C  C5  1  0.72980000  0.15660000  0.82980000  1.0 0.4898082484
C  C6  1  0.15660000  0.72980000  0.67020000  1.0 0.4898082484
C  C7  1  0.27020000  0.84340000  0.17020000  1.0 0.4898082484
C  C8  1  0.84340000  0.27020000  0.32980000  1.0 0.4898082484
C  C9  1  0.24080000  0.40460000  0.44540000  1.0 0.4898082484
C  C10  1  0.40460000  0.24080000  0.05460000  1.0 0.4898082484
C  C11  1  0.75920000  0.59540000  0.55460000  1.0 0.4898082484
C  C12  1  0.59540000  0.75920000  0.94540000  1.0 0.4898082484
C  C13  1  0.40760000  0.21720000  0.58190000  1.0 0.5121236388
C  C14  1  0.21720000  0.40760000  0.91810000  1.0 0.5121236388
C  C15  1  0.59240000  0.78280000  0.41810000  1.0 0.5121236388
C  C16  1  0.78280000  0.59240000  0.08190000  1.0 0.5121236388
O  O1  1  0.68990000  0.24030000  0.54980000  1.0 -0.4473957922
O  O2  1  0.24030000  0.68990000  0.95020000  1.0 -0.4473957922
O  O3  1  0.31010000  0.75970000  0.45020000  1.0 -0.4473957922
O  O4  1  0.75970000  0.31010000  0.04980000  1.0 -0.4473957922
O  O5  1  0.88170000  0.03690000  0.90490000  1.0 -0.5280170943
O  O6  1  0.03690000  0.88170000  0.59510000  1.0 -0.5280170943
O  O7  1  0.11830000  0.96310000  0.09510000  1.0 -0.5280170943
O  O8  1  0.96310000  0.11830000  0.40490000  1.0 -0.5280170943
O  O9  1  0.64500000  0.20180000  0.90000000  1.0 -0.5769271075
O  O10  1  0.20180000  0.64500000  0.60000000  1.0 -0.5749066378
O  O11  1  0.35500000  0.79820000  0.10000000  1.0 -0.5769271075
O  O12  1  0.79820000  0.35500000  0.40000000  1.0 -0.5769271075
O  O13  1  0.46780000  0.38160000  0.57390000  1.0 -0.5769271075
O  O14  1  0.38160000  0.46780000  0.92610000  1.0 -0.5769271075
O  O15  1  0.53220000  0.61840000  0.42610000  1.0 -0.5769271075
O  O16  1  0.61840000  0.53220000  0.07390000  1.0 -0.5769271075
O  O17  1  0.20230000  0.49710000  0.49940000  1.0 -0.5398958679
O  O18  1  0.49710000  0.20230000  0.00060000  1.0 -0.5398958679
O  O19  1  0.79770000  0.50290000  0.50060000  1.0 -0.5398958679
O  O20  1  0.50290000  0.79770000  0.99940000  1.0 -0.5398958679
O  O21  1  0.48610000  0.18490000  0.72030000  1.0 -0.6072695907
O  O22  1  0.18490000  0.48610000  0.77970000  1.0 -0.6072695907
O  O23  1  0.51390000  0.81510000  0.27970000  1.0 -0.6072695907
O  O24  1  0.81510000  0.51390000  0.22030000  1.0 -0.6072695907
O  O25  1  0.45540000  0.11320000  0.55230000  1.0 -0.5398958679
O  O26  1  0.11320000  0.45540000  0.94770000  1.0 -0.5398958679
O  O27  1  0.54460000  0.88680000  0.44770000  1.0 -0.5398958679
O  O28  1  0.88680000  0.54460000  0.05230000  1.0 -0.5398958679
O  O29  1  0.15860000  0.44920000  0.30570000  1.0 -0.4713581334
O  O30  1  0.44920000  0.15860000  0.19430000  1.0 -0.4713581334
O  O31  1  0.84140000  0.55080000  0.69430000  1.0 -0.4713581334
O  O32  1  0.55080000  0.84140000  0.80570000  1.0 -0.4713581334
