# DDEC6 charges by PACMAN v1.1 (https://github.com/mtap-research/PACMAN-charge/)
data_EVUNOY_FSR_pacman
_symmetry_space_group_name_H-M   'P 1'
_cell_length_a   13.23700000
_cell_length_b   14.69800000
_cell_length_c   14.87000000
_cell_angle_alpha   90.00000000
_cell_angle_beta   90.00000000
_cell_angle_gamma   90.00000000
_symmetry_Int_Tables_number   1
_chemical_formula_structural   Cd3H12(C7N5)2
_chemical_formula_sum   'Cd12 H48 C56 N40'
_cell_volume   2893.06892462
_cell_formula_units_Z   4
loop_
 _symmetry_equiv_pos_site_id
 _symmetry_equiv_pos_as_xyz
  1  'x, y, z'
loop_
 _atom_site_type_symbol
 _atom_site_label
 _atom_site_symmetry_multiplicity
 _atom_site_fract_x
 _atom_site_fract_y
 _atom_site_fract_z
 _atom_site_occupancy
 _atom_site_charge
Cd  Cd1  1  0.00000000  0.25000000  0.35115000  1.0 0.9387215205
Cd  Cd2  1  0.50000000  0.25000000  0.85115000  1.0 0.9387215205
Cd  Cd3  1  0.00000000  0.75000000  0.64885000  1.0 0.9387215205
Cd  Cd4  1  0.50000000  0.75000000  0.14885000  1.0 0.9387215205
Cd  Cd5  1  0.76169000  0.93679000  0.38990000  1.0 0.4906604118
Cd  Cd6  1  0.26169000  0.56321000  0.88990000  1.0 0.4906604118
Cd  Cd7  1  0.76169000  0.43679000  0.61010000  1.0 0.4906604118
Cd  Cd8  1  0.73831000  0.93679000  0.88990000  1.0 0.4906604118
Cd  Cd9  1  0.23831000  0.06321000  0.61010000  1.0 0.4906604118
Cd  Cd10  1  0.73831000  0.43679000  0.11010000  1.0 0.4906604118
Cd  Cd11  1  0.23831000  0.56321000  0.38990000  1.0 0.4906604118
Cd  Cd12  1  0.26169000  0.06321000  0.11010000  1.0 0.4906604118
H  H1  1  0.54400000  0.99910000  0.66666667  1.0 0.2951413333
H  H2  1  0.04400000  0.50090000  0.16667000  1.0 0.2951413333
H  H3  1  0.54400000  0.49910000  0.33333333  1.0 0.2951413333
H  H4  1  0.95600000  0.99910000  0.16667000  1.0 0.2951413333
H  H5  1  0.45600000  0.00090000  0.33333333  1.0 0.2951413333
H  H6  1  0.95600000  0.49910000  0.83333000  1.0 0.2951413333
H  H7  1  0.45600000  0.50090000  0.66666667  1.0 0.2951413333
H  H8  1  0.04400000  0.00090000  0.83333000  1.0 0.2951413333
H  H9  1  0.67200000  0.13860000  0.48090000  1.0 0.127527082
H  H10  1  0.17200000  0.36140000  0.98090000  1.0 0.127527082
H  H11  1  0.67200000  0.63860000  0.51910000  1.0 0.127527082
H  H12  1  0.82800000  0.13860000  0.98090000  1.0 0.127527082
H  H13  1  0.32800000  0.86140000  0.51910000  1.0 0.127527082
H  H14  1  0.82800000  0.63860000  0.01910000  1.0 0.127527082
H  H15  1  0.32800000  0.36140000  0.48090000  1.0 0.127527082
H  H16  1  0.17200000  0.86140000  0.01910000  1.0 0.127527082
H  H17  1  0.57920000  0.15060000  0.62280000  1.0 0.127527082
H  H18  1  0.07920000  0.34940000  0.12280000  1.0 0.127527082
H  H19  1  0.57920000  0.65060000  0.37720000  1.0 0.127527082
H  H20  1  0.92080000  0.15060000  0.12280000  1.0 0.127527082
H  H21  1  0.42080000  0.84940000  0.37720000  1.0 0.127527082
H  H22  1  0.92080000  0.65060000  0.87720000  1.0 0.127527082
H  H23  1  0.42080000  0.34940000  0.62280000  1.0 0.127527082
H  H24  1  0.07920000  0.84940000  0.87720000  1.0 0.127527082
H  H25  1  0.64650000  0.82410000  0.52310000  1.0 0.1405386753
H  H26  1  0.14650000  0.67590000  0.02310000  1.0 0.1405386753
H  H27  1  0.64650000  0.32410000  0.47690000  1.0 0.1405386753
H  H28  1  0.85350000  0.82410000  0.02310000  1.0 0.1405386753
H  H29  1  0.35350000  0.17590000  0.47690000  1.0 0.1405386753
H  H30  1  0.85350000  0.32410000  0.97690000  1.0 0.1405386753
H  H31  1  0.35350000  0.67590000  0.52310000  1.0 0.1405386753
H  H32  1  0.14650000  0.17590000  0.97690000  1.0 0.1405386753
H  H33  1  0.64610000  0.83640000  0.62780000  1.0 0.1560744174
H  H34  1  0.14610000  0.66360000  0.12780000  1.0 0.1560744174
H  H35  1  0.64610000  0.33640000  0.37220000  1.0 0.1560744174
H  H36  1  0.85390000  0.83640000  0.12780000  1.0 0.1560744174
H  H37  1  0.35390000  0.16360000  0.37220000  1.0 0.1560744174
H  H38  1  0.85390000  0.33640000  0.87220000  1.0 0.1560744174
H  H39  1  0.35390000  0.66360000  0.62780000  1.0 0.1560744174
H  H40  1  0.14610000  0.16360000  0.87220000  1.0 0.1560744174
H  H41  1  0.54380000  0.83350000  0.57480000  1.0 0.1405386753
H  H42  1  0.04380000  0.66650000  0.07480000  1.0 0.1405386753
H  H43  1  0.54380000  0.33350000  0.42520000  1.0 0.1405386753
H  H44  1  0.95620000  0.83350000  0.07480000  1.0 0.1405386753
H  H45  1  0.45620000  0.16650000  0.42520000  1.0 0.1405386753
H  H46  1  0.95620000  0.33350000  0.92520000  1.0 0.1405386753
H  H47  1  0.45620000  0.66650000  0.57480000  1.0 0.1405386753
H  H48  1  0.04380000  0.16650000  0.92520000  1.0 0.1405386753
C  C1  1  0.84960000  0.05930000  0.35290000  1.0 -0.0526714031
C  C2  1  0.34960000  0.44070000  0.85290000  1.0 -0.0526714031
C  C3  1  0.84960000  0.55930000  0.64710000  1.0 -0.0526714031
C  C4  1  0.65040000  0.05930000  0.85290000  1.0 -0.0526714031
C  C5  1  0.15040000  0.94070000  0.64710000  1.0 -0.0526714031
C  C6  1  0.65040000  0.55930000  0.14710000  1.0 -0.0526714031
C  C7  1  0.15040000  0.44070000  0.35290000  1.0 -0.0526714031
C  C8  1  0.34960000  0.94070000  0.14710000  1.0 -0.0526714031
C  C9  1  0.83780000  0.35820000  0.20010000  1.0 -0.0940603935
C  C10  1  0.33780000  0.14180000  0.70010000  1.0 -0.0952540808
C  C11  1  0.83780000  0.85820000  0.79990000  1.0 -0.0940603935
C  C12  1  0.66220000  0.35820000  0.70010000  1.0 -0.0952540808
C  C13  1  0.16220000  0.64180000  0.79990000  1.0 -0.0940603935
C  C14  1  0.66220000  0.85820000  0.29990000  1.0 -0.0940603935
C  C15  1  0.16220000  0.14180000  0.20010000  1.0 -0.0940603935
C  C16  1  0.33780000  0.64180000  0.29990000  1.0 -0.0940603935
C  C17  1  0.85440000  0.34930000  0.51760000  1.0 -0.0301329349
C  C18  1  0.35440000  0.15070000  0.01760000  1.0 -0.0301329349
C  C19  1  0.85440000  0.84930000  0.48240000  1.0 -0.0301329349
C  C20  1  0.64560000  0.34930000  0.01760000  1.0 -0.0301329349
C  C21  1  0.14560000  0.65070000  0.48240000  1.0 -0.0301329349
C  C22  1  0.64560000  0.84930000  0.98240000  1.0 -0.0301329349
C  C23  1  0.14560000  0.15070000  0.51760000  1.0 -0.0301329349
C  C24  1  0.35440000  0.65070000  0.98240000  1.0 -0.0301329349
C  C25  1  0.61700000  0.95360000  0.56130000  1.0 0.365545997
C  C26  1  0.11700000  0.54640000  0.06130000  1.0 0.365545997
C  C27  1  0.61700000  0.45360000  0.43870000  1.0 0.365545997
C  C28  1  0.88300000  0.95360000  0.06130000  1.0 0.365545997
C  C29  1  0.38300000  0.04640000  0.43870000  1.0 0.365545997
C  C30  1  0.88300000  0.45360000  0.93870000  1.0 0.365545997
C  C31  1  0.38300000  0.54640000  0.56130000  1.0 0.365545997
C  C32  1  0.11700000  0.04640000  0.93870000  1.0 0.365545997
C  C33  1  0.64860000  0.09040000  0.51570000  1.0 -0.0735197584
C  C34  1  0.14860000  0.40960000  0.01570000  1.0 -0.0735197584
C  C35  1  0.64860000  0.59040000  0.48430000  1.0 -0.0735197584
C  C36  1  0.85140000  0.09040000  0.01570000  1.0 -0.0735197584
C  C37  1  0.35140000  0.90960000  0.48430000  1.0 -0.0735197584
C  C38  1  0.85140000  0.59040000  0.98430000  1.0 -0.0735197584
C  C39  1  0.35140000  0.40960000  0.51570000  1.0 -0.0735197584
C  C40  1  0.14860000  0.90960000  0.98430000  1.0 -0.0735197584
C  C41  1  0.59720000  0.09720000  0.59330000  1.0 -0.0411421899
C  C42  1  0.09720000  0.40280000  0.09330000  1.0 -0.0411421899
C  C43  1  0.59720000  0.59720000  0.40670000  1.0 -0.0411421899
C  C44  1  0.90280000  0.09720000  0.09330000  1.0 -0.0411421899
C  C45  1  0.40280000  0.90280000  0.40670000  1.0 -0.0411421899
C  C46  1  0.90280000  0.59720000  0.90670000  1.0 -0.0411421899
C  C47  1  0.40280000  0.40280000  0.59330000  1.0 -0.0411421899
C  C48  1  0.09720000  0.90280000  0.90670000  1.0 -0.0411421899
C  C49  1  0.61300000  0.85300000  0.57280000  1.0 -0.5320053719
C  C50  1  0.11300000  0.64700000  0.07280000  1.0 -0.5320053719
C  C51  1  0.61300000  0.35300000  0.42720000  1.0 -0.5320053719
C  C52  1  0.88700000  0.85300000  0.07280000  1.0 -0.5320053719
C  C53  1  0.38700000  0.14700000  0.42720000  1.0 -0.5320053719
C  C54  1  0.88700000  0.35300000  0.92720000  1.0 -0.5320053719
C  C55  1  0.38700000  0.64700000  0.57280000  1.0 -0.5320053719
C  C56  1  0.11300000  0.14700000  0.92720000  1.0 -0.5320053719
N  N1  1  0.89710000  0.12130000  0.34490000  1.0 -0.3103125503
N  N2  1  0.39710000  0.37870000  0.84490000  1.0 -0.3103125503
N  N3  1  0.89710000  0.62130000  0.65510000  1.0 -0.3103125503
N  N4  1  0.60290000  0.12130000  0.84490000  1.0 -0.3103125503
N  N5  1  0.10290000  0.87870000  0.65510000  1.0 -0.3103125503
N  N6  1  0.60290000  0.62130000  0.15510000  1.0 -0.3103125503
N  N7  1  0.10290000  0.37870000  0.34490000  1.0 -0.3103125503
N  N8  1  0.39710000  0.87870000  0.15510000  1.0 -0.3103125503
N  N9  1  0.89470000  0.31960000  0.24280000  1.0 -0.3429026068
N  N10  1  0.39470000  0.18040000  0.74280000  1.0 -0.3429026068
N  N11  1  0.89470000  0.81960000  0.75720000  1.0 -0.3429026068
N  N12  1  0.60530000  0.31960000  0.74280000  1.0 -0.3429026068
N  N13  1  0.10530000  0.68040000  0.75720000  1.0 -0.3429026068
N  N14  1  0.60530000  0.81960000  0.25720000  1.0 -0.3429026068
N  N15  1  0.10530000  0.18040000  0.24280000  1.0 -0.3429026068
N  N16  1  0.39470000  0.68040000  0.25720000  1.0 -0.3429026068
N  N17  1  0.89850000  0.31260000  0.46450000  1.0 -0.3103125503
N  N18  1  0.39850000  0.18740000  0.96450000  1.0 -0.3103125503
N  N19  1  0.89850000  0.81260000  0.53550000  1.0 -0.3103125503
N  N20  1  0.60150000  0.31260000  0.96450000  1.0 -0.3103125503
N  N21  1  0.10150000  0.68740000  0.53550000  1.0 -0.3103125503
N  N22  1  0.60150000  0.81260000  0.03550000  1.0 -0.3103125503
N  N23  1  0.10150000  0.18740000  0.46450000  1.0 -0.3103125503
N  N24  1  0.39850000  0.68740000  0.03550000  1.0 -0.3103125503
N  N25  1  0.57750000  0.01340000  0.61920000  1.0 -0.2145417802
N  N26  1  0.07750000  0.48660000  0.11920000  1.0 -0.2154776775
N  N27  1  0.57750000  0.51340000  0.38080000  1.0 -0.2154776775
N  N28  1  0.92250000  0.01340000  0.11920000  1.0 -0.2145417802
N  N29  1  0.42250000  0.98660000  0.38080000  1.0 -0.2154776775
N  N30  1  0.92250000  0.51340000  0.88080000  1.0 -0.2154776775
N  N31  1  0.42250000  0.48660000  0.61920000  1.0 -0.2154776775
N  N32  1  0.07750000  0.98660000  0.88080000  1.0 -0.2154776775
N  N33  1  0.66040000  0.99980000  0.49680000  1.0 -0.3103125503
N  N34  1  0.16040000  0.50020000  0.99680000  1.0 -0.3103125503
N  N35  1  0.66040000  0.49980000  0.50320000  1.0 -0.3103125503
N  N36  1  0.83960000  0.99980000  0.99680000  1.0 -0.3103125503
N  N37  1  0.33960000  0.00020000  0.50320000  1.0 -0.3103125503
N  N38  1  0.83960000  0.49980000  0.00320000  1.0 -0.3103125503
N  N39  1  0.33960000  0.50020000  0.49680000  1.0 -0.3103125503
N  N40  1  0.16040000  0.00020000  0.00320000  1.0 -0.3103125503
