# DDEC6 charges by PACMAN v1.1 (https://github.com/mtap-research/PACMAN-charge/)
data_EVUNIT_ASR_pacman
_symmetry_space_group_name_H-M   'P 1'
_cell_length_a   9.84380000
_cell_length_b   13.20670000
_cell_length_c   16.49190000
_cell_angle_alpha   81.12080000
_cell_angle_beta   72.63580000
_cell_angle_gamma   68.11880000
_symmetry_Int_Tables_number   1
_chemical_formula_structural   Eu4Zn8H7C44(N2O5)8
_chemical_formula_sum   'Eu4 Zn8 H7 C44 N16 O40'
_cell_volume   1896.63435429
_cell_formula_units_Z   1
loop_
 _symmetry_equiv_pos_site_id
 _symmetry_equiv_pos_as_xyz
  1  'x, y, z'
loop_
 _atom_site_type_symbol
 _atom_site_label
 _atom_site_symmetry_multiplicity
 _atom_site_fract_x
 _atom_site_fract_y
 _atom_site_fract_z
 _atom_site_occupancy
 _atom_site_charge
Eu  Eu1  1  0.58145000  0.61809000  0.42715000  1.0 2.1063419532
Eu  Eu2  1  0.62669000  0.88191000  0.07285000  1.0 2.1063419532
Eu  Eu3  1  0.41855000  0.38191000  0.57285000  1.0 2.1063419532
Eu  Eu4  1  0.37331000  0.11809000  0.92715000  1.0 2.1044102859
Zn  Zn1  1  0.32462000  0.11040000  0.31778000  1.0 0.7752127599
Zn  Zn2  1  0.11411000  0.16050000  0.54572000  1.0 0.9009382676
Zn  Zn3  1  0.75280000  0.38960000  0.18222000  1.0 0.7735037755
Zn  Zn4  1  0.82033000  0.33950000  0.95428000  1.0 0.8847707064
Zn  Zn5  1  0.67538000  0.88960000  0.68222000  1.0 0.7869062971
Zn  Zn6  1  0.88589000  0.83950000  0.45428000  1.0 0.8847707064
Zn  Zn7  1  0.24720000  0.61040000  0.81778000  1.0 0.7735037755
Zn  Zn8  1  0.17967000  0.66050000  0.04572000  1.0 0.8847707064
H  H1  1  0.96276000  0.08716000  0.36456000  1.0 0.0591175607
H  H2  1  0.62273000  0.17938000  0.17002000  1.0 0.0724080554
H  H3  1  0.41448000  0.41284000  0.13544000  1.0 0.0591175607
H  H4  1  0.97212000  0.32062000  0.32998000  1.0 0.0724080554
H  H5  1  0.37727000  0.82062000  0.82998000  1.0 0.0724080554
H  H6  1  0.58552000  0.58716000  0.86456000  1.0 0.0591175607
H  H7  1  0.02788000  0.67938000  0.67002000  1.0 0.0755066153
C  C1  1  0.42730000  0.89740000  0.40860000  1.0 0.5902379703
C  C2  1  0.26870000  0.91720000  0.41180000  1.0 -0.0030214415
C  C3  1  0.17430000  0.85670000  0.43990000  1.0 -0.0086889246
C  C4  1  0.19130000  0.74570000  0.48030000  1.0 0.6092369061
C  C5  1  0.05150000  0.01360000  0.38740000  1.0 0.1808311692
C  C6  1  0.55190000  0.42420000  0.35740000  1.0 0.6092369061
C  C7  1  0.52985000  0.33240000  0.32810000  1.0 -0.0086889246
C  C8  1  0.43324000  0.27282000  0.35830000  1.0 -0.0030214415
C  C9  1  0.31450000  0.27030000  0.43770000  1.0 0.6270325434
C  C10  1  0.56950000  0.22130000  0.23310000  1.0 0.1976171311
C  C11  1  0.73330000  0.60260000  0.09140000  1.0 0.5902379703
C  C12  1  0.59770000  0.58280000  0.08820000  1.0 -0.0030214415
C  C13  1  0.47090000  0.64330000  0.06010000  1.0 -0.0086889246
C  C14  1  0.41730000  0.75430000  0.01970000  1.0 0.6092369061
C  C15  1  0.45250000  0.48640000  0.11260000  1.0 0.1808311692
C  C16  1  0.33350000  0.07580000  0.14260000  1.0 0.6092369061
C  C17  1  0.19035000  0.16760000  0.17190000  1.0 -0.0086889246
C  C18  1  0.06436000  0.22718000  0.14170000  1.0 -0.0030214415
C  C19  1  0.02250000  0.22970000  0.06230000  1.0 0.6270325434
C  C20  1  0.02390000  0.27870000  0.26690000  1.0 0.1947204571
C  C21  1  0.57270000  0.10260000  0.59140000  1.0 0.5902379703
C  C22  1  0.73130000  0.08280000  0.58820000  1.0 0.0036702494
C  C23  1  0.82570000  0.14330000  0.56010000  1.0 -0.0152282093
C  C24  1  0.80870000  0.25430000  0.51970000  1.0 0.6092369061
C  C25  1  0.94850000  0.98640000  0.61260000  1.0 0.2411720108
C  C26  1  0.44810000  0.57580000  0.64260000  1.0 0.6092369061
C  C27  1  0.47015000  0.66760000  0.67190000  1.0 -0.0086889246
C  C28  1  0.56676000  0.72718000  0.64170000  1.0 -0.0030214415
C  C29  1  0.68550000  0.72970000  0.56230000  1.0 0.6270325434
C  C30  1  0.43050000  0.77870000  0.76690000  1.0 0.1976171311
C  C31  1  0.26670000  0.39740000  0.90860000  1.0 0.5902379703
C  C32  1  0.40230000  0.41720000  0.91180000  1.0 -0.0030214415
C  C33  1  0.52910000  0.35670000  0.93990000  1.0 -0.0086889246
C  C34  1  0.58270000  0.24570000  0.98030000  1.0 0.6092369061
C  C35  1  0.54750000  0.51360000  0.88740000  1.0 0.1808311692
C  C36  1  0.66650000  0.92420000  0.85740000  1.0 0.6092369061
C  C37  1  0.80965000  0.83240000  0.82810000  1.0 -0.0086889246
C  C38  1  0.93564000  0.77282000  0.85830000  1.0 -0.0030214415
C  C39  1  0.97750000  0.77030000  0.93770000  1.0 0.6270325434
C  C40  1  0.97610000  0.72130000  0.73310000  1.0 0.2076094549
C  C41  1  0.68530000  0.75000000  0.25000000  1.0 0.5141283225
C  C42  1  0.52710000  0.75000000  0.25000000  1.0 0.496728639
C  C43  1  0.31470000  0.25000000  0.75000000  1.0 0.5141283225
C  C44  1  0.47290000  0.25000000  0.75000000  1.0 0.496728639
N  N1  1  0.19043000  0.01594000  0.37880000  1.0 -0.3316290948
N  N2  1  0.03654000  0.91832000  0.42420000  1.0 -0.3460999378
N  N3  1  0.61730000  0.29770000  0.24850000  1.0 -0.3316290948
N  N4  1  0.45964000  0.20352000  0.29740000  1.0 -0.3124156345
N  N5  1  0.58517000  0.48406000  0.12120000  1.0 -0.3316290948
N  N6  1  0.37906000  0.58168000  0.07580000  1.0 -0.3460999378
N  N7  1  0.16350000  0.20230000  0.25150000  1.0 -0.3316290948
N  N8  1  0.96056000  0.29648000  0.20260000  1.0 -0.3124156345
N  N9  1  0.80957000  0.98406000  0.62120000  1.0 -0.3316290948
N  N10  1  0.96346000  0.08168000  0.57580000  1.0 -0.3031917561
N  N11  1  0.38270000  0.70230000  0.75150000  1.0 -0.3316290948
N  N12  1  0.54036000  0.79648000  0.70260000  1.0 -0.3124156345
N  N13  1  0.41483000  0.51594000  0.87880000  1.0 -0.3316290948
N  N14  1  0.62094000  0.41832000  0.92420000  1.0 -0.3460999378
N  N15  1  0.83650000  0.79770000  0.74850000  1.0 -0.3316290948
N  N16  1  0.03944000  0.70352000  0.79740000  1.0 -0.3124156345
O  O1  1  0.47806000  0.97228000  0.37200000  1.0 -0.4891822089
O  O2  1  0.50565000  0.81040000  0.43950000  1.0 -0.6274696935
O  O3  1  0.31586000  0.68178000  0.49130000  1.0 -0.6388089109
O  O4  1  0.07269000  0.72112000  0.50190000  1.0 -0.5280707129
O  O5  1  0.64692000  0.46344000  0.30852000  1.0 -0.5630104292
O  O6  1  0.47528000  0.46482000  0.42962000  1.0 -0.7236136246
O  O7  1  0.27794000  0.33388000  0.49524000  1.0 -0.6185072351
O  O8  1  0.25351000  0.19910000  0.44128000  1.0 -0.5389665563
O  O9  1  0.74499000  0.68894000  0.30548000  1.0 -0.5892478574
O  O10  1  0.46778000  0.69593000  0.30891000  1.0 -0.5811229694
O  O11  1  0.82234000  0.52772000  0.12800000  1.0 -0.4891822089
O  O12  1  0.75555000  0.68960000  0.06050000  1.0 -0.6274696935
O  O13  1  0.48894000  0.81822000  0.00870000  1.0 -0.6388089109
O  O14  1  0.29571000  0.77888000  0.99810000  1.0 -0.5280707129
O  O15  1  0.41888000  0.03656000  0.19148000  1.0 -0.5630104292
O  O16  1  0.36972000  0.03518000  0.07038000  1.0 -0.7236136246
O  O17  1  0.10706000  0.16612000  0.00476000  1.0 -0.6185072351
O  O18  1  0.89389000  0.30090000  0.05872000  1.0 -0.5389665563
O  O19  1  0.73941000  0.81106000  0.19452000  1.0 -0.5892478574
O  O20  1  0.47262000  0.80407000  0.19109000  1.0 -0.5811229694
O  O21  1  0.52194000  0.02772000  0.62800000  1.0 -0.4891822089
O  O22  1  0.49435000  0.18960000  0.56050000  1.0 -0.6185072351
O  O23  1  0.68414000  0.31822000  0.50870000  1.0 -0.6274696935
O  O24  1  0.92731000  0.27888000  0.49810000  1.0 -0.5191878129
O  O25  1  0.35308000  0.53656000  0.69148000  1.0 -0.5630104292
O  O26  1  0.52472000  0.53518000  0.57038000  1.0 -0.7268975425
O  O27  1  0.72206000  0.66612000  0.50476000  1.0 -0.6185072351
O  O28  1  0.74649000  0.80090000  0.55872000  1.0 -0.5389665563
O  O29  1  0.25501000  0.31106000  0.69452000  1.0 -0.5892478574
O  O30  1  0.53222000  0.30407000  0.69109000  1.0 -0.5811229694
O  O31  1  0.17766000  0.47228000  0.87200000  1.0 -0.4891822089
O  O32  1  0.24445000  0.31040000  0.93950000  1.0 -0.6274696935
O  O33  1  0.51106000  0.18178000  0.99130000  1.0 -0.6388089109
O  O34  1  0.70429000  0.22112000  0.00190000  1.0 -0.5280707129
O  O35  1  0.58112000  0.96344000  0.80852000  1.0 -0.5630104292
O  O36  1  0.63028000  0.96482000  0.92962000  1.0 -0.7236136246
O  O37  1  0.89294000  0.83388000  0.99524000  1.0 -0.6185072351
O  O38  1  0.10611000  0.69910000  0.94128000  1.0 -0.5389665563
O  O39  1  0.26059000  0.18894000  0.80548000  1.0 -0.5892478574
O  O40  1  0.52738000  0.19593000  0.80891000  1.0 -0.5811229694
