# DDEC6 charges by PACMAN v1.1 (https://github.com/mtap-research/PACMAN-charge/)
data_EWECOY_ASR_pacman
_symmetry_space_group_name_H-M   'P 1'
_cell_length_a   15.75000000
_cell_length_b   14.50100000
_cell_length_c   19.36300000
_cell_angle_alpha   90.00000000
_cell_angle_beta   113.67000000
_cell_angle_gamma   90.00000000
_symmetry_Int_Tables_number   1
_chemical_formula_structural   Cd3(C11O7)2
_chemical_formula_sum   'Cd12 C88 O56'
_cell_volume   4050.29240653
_cell_formula_units_Z   4
loop_
 _symmetry_equiv_pos_site_id
 _symmetry_equiv_pos_as_xyz
  1  'x, y, z'
loop_
 _atom_site_type_symbol
 _atom_site_label
 _atom_site_symmetry_multiplicity
 _atom_site_fract_x
 _atom_site_fract_y
 _atom_site_fract_z
 _atom_site_occupancy
 _atom_site_charge
Cd  Cd1  1  0.79376000  0.14313000  0.53674000  1.0 1.0586628868
Cd  Cd2  1  0.20624000  0.64313000  0.96326000  1.0 1.0586628868
Cd  Cd3  1  0.20624000  0.85687000  0.46326000  1.0 1.0586628868
Cd  Cd4  1  0.79376000  0.35687000  0.03674000  1.0 1.0586628868
Cd  Cd5  1  0.34491000  0.69950000  0.65176000  1.0 1.0661176695
Cd  Cd6  1  0.65509000  0.19950000  0.84824000  1.0 1.0661176695
Cd  Cd7  1  0.65509000  0.30050000  0.34824000  1.0 1.0661176695
Cd  Cd8  1  0.34491000  0.80050000  0.15176000  1.0 1.0661176695
Cd  Cd9  1  0.23301000  0.58024000  0.78480000  1.0 1.1439194931
Cd  Cd10  1  0.76699000  0.08024000  0.71520000  1.0 1.1439194931
Cd  Cd11  1  0.76699000  0.41976000  0.21520000  1.0 1.1439194931
Cd  Cd12  1  0.23301000  0.91976000  0.28480000  1.0 1.1439194931
C  C1  1  0.93170000  0.00350000  0.67490000  1.0 0.6534508719
C  C2  1  0.06830000  0.50350000  0.82510000  1.0 0.6534508719
C  C3  1  0.06830000  0.99650000  0.32510000  1.0 0.6534508719
C  C4  1  0.93170000  0.49650000  0.17490000  1.0 0.6534508719
C  C5  1  0.01270000  0.93770000  0.69460000  1.0 -0.0708028876
C  C6  1  0.98730000  0.43770000  0.80540000  1.0 -0.0708028876
C  C7  1  0.98730000  0.06230000  0.30540000  1.0 -0.0708028876
C  C8  1  0.01270000  0.56230000  0.19460000  1.0 -0.0708028876
C  C9  1  0.14920000  0.76420000  0.84540000  1.0 0.6272671772
C  C10  1  0.85080000  0.26420000  0.65460000  1.0 0.6272671772
C  C11  1  0.85080000  0.23580000  0.15460000  1.0 0.6272671772
C  C12  1  0.14920000  0.73580000  0.34540000  1.0 0.6272671772
C  C13  1  0.11860000  0.82510000  0.77710000  1.0 -0.0794064769
C  C14  1  0.88140000  0.32510000  0.72290000  1.0 -0.0794064769
C  C15  1  0.88140000  0.17490000  0.22290000  1.0 -0.0794064769
C  C16  1  0.11860000  0.67490000  0.27710000  1.0 -0.0794064769
C  C17  1  0.04350000  0.88540000  0.76040000  1.0 0.0715833334
C  C18  1  0.95650000  0.38540000  0.73960000  1.0 0.0715833334
C  C19  1  0.95650000  0.11460000  0.23960000  1.0 0.0715833334
C  C20  1  0.04350000  0.61460000  0.26040000  1.0 0.0715833334
C  C21  1  0.41500000  0.78190000  0.55680000  1.0 0.6207488431
C  C22  1  0.58500000  0.28190000  0.94320000  1.0 0.6207488431
C  C23  1  0.58500000  0.21810000  0.44320000  1.0 0.6207488431
C  C24  1  0.41500000  0.71810000  0.05680000  1.0 0.6207488431
C  C25  1  0.46380000  0.82360000  0.51210000  1.0 -0.063097449
C  C26  1  0.53620000  0.32360000  0.98790000  1.0 -0.063097449
C  C27  1  0.53620000  0.17640000  0.48790000  1.0 -0.063097449
C  C28  1  0.46380000  0.67640000  0.01210000  1.0 -0.063097449
C  C29  1  0.42910000  0.80750000  0.43450000  1.0 0.0290117823
C  C30  1  0.57090000  0.30750000  0.06550000  1.0 0.0290117823
C  C31  1  0.57090000  0.19250000  0.56550000  1.0 0.0290117823
C  C32  1  0.42910000  0.69250000  0.93450000  1.0 0.0290117823
C  C33  1  0.47470000  0.84530000  0.39260000  1.0 -0.0708028876
C  C34  1  0.52530000  0.34530000  0.10740000  1.0 -0.0708028876
C  C35  1  0.52530000  0.15470000  0.60740000  1.0 -0.0708028876
C  C36  1  0.47470000  0.65470000  0.89260000  1.0 -0.0708028876
C  C37  1  0.66180000  0.98860000  0.53980000  1.0 0.6390023384
C  C38  1  0.33820000  0.48860000  0.96020000  1.0 0.6390023384
C  C39  1  0.33820000  0.01140000  0.46020000  1.0 0.6390023384
C  C40  1  0.66180000  0.51140000  0.03980000  1.0 0.6390023384
C  C41  1  0.58480000  0.91990000  0.50420000  1.0 -0.0794064769
C  C42  1  0.41520000  0.41990000  0.99580000  1.0 -0.0855433838
C  C43  1  0.41520000  0.08010000  0.49580000  1.0 -0.0794064769
C  C44  1  0.58480000  0.58010000  0.00420000  1.0 -0.0794064769
C  C45  1  0.54170000  0.87980000  0.54660000  1.0 0.0794672789
C  C46  1  0.45830000  0.37980000  0.95340000  1.0 0.0794672789
C  C47  1  0.45830000  0.12020000  0.45340000  1.0 0.0794672789
C  C48  1  0.54170000  0.62020000  0.04660000  1.0 0.0794672789
C  C49  1  0.17900000  0.85680000  0.60840000  1.0 0.6390023384
C  C50  1  0.82100000  0.35680000  0.89160000  1.0 0.6390023384
C  C51  1  0.82100000  0.14320000  0.39160000  1.0 0.6390023384
C  C52  1  0.17900000  0.64320000  0.10840000  1.0 0.6390023384
C  C53  1  0.13170000  0.86970000  0.66160000  1.0 -0.0708028876
C  C54  1  0.86830000  0.36970000  0.83840000  1.0 -0.0708028876
C  C55  1  0.86830000  0.13030000  0.33840000  1.0 -0.0708028876
C  C56  1  0.13170000  0.63030000  0.16160000  1.0 -0.0708028876
C  C57  1  0.05550000  0.92770000  0.64430000  1.0 0.0910463529
C  C58  1  0.94450000  0.42770000  0.85570000  1.0 0.0910463529
C  C59  1  0.94450000  0.07230000  0.35570000  1.0 0.0910463529
C  C60  1  0.05550000  0.57230000  0.14430000  1.0 0.0910463529
C  C61  1  0.16560000  0.81960000  0.72970000  1.0 0.0637237197
C  C62  1  0.83440000  0.31960000  0.77030000  1.0 0.0637237197
C  C63  1  0.83440000  0.18040000  0.27030000  1.0 0.0637237197
C  C64  1  0.16560000  0.68040000  0.22970000  1.0 0.0637237197
C  C65  1  0.15570000  0.60270000  0.60460000  1.0 0.6390023384
C  C66  1  0.84430000  0.10270000  0.89540000  1.0 0.6390023384
C  C67  1  0.84430000  0.39730000  0.39540000  1.0 0.6390023384
C  C68  1  0.15570000  0.89730000  0.10460000  1.0 0.6390023384
C  C69  1  0.07480000  0.54970000  0.55040000  1.0 -0.063097449
C  C70  1  0.92520000  0.04970000  0.94960000  1.0 -0.063097449
C  C71  1  0.92520000  0.45030000  0.44960000  1.0 -0.063097449
C  C72  1  0.07480000  0.95030000  0.05040000  1.0 -0.063097449
C  C73  1  0.01440000  0.50560000  0.57610000  1.0 0.009372135
C  C74  1  0.98560000  0.00560000  0.92390000  1.0 0.009372135
C  C75  1  0.98560000  0.49440000  0.42390000  1.0 0.009372135
C  C76  1  0.01440000  0.99440000  0.07610000  1.0 0.009372135
C  C77  1  0.06080000  0.54360000  0.47400000  1.0 0.0455562972
C  C78  1  0.93920000  0.04360000  0.02600000  1.0 0.0455562972
C  C79  1  0.93920000  0.45640000  0.52600000  1.0 0.0455562972
C  C80  1  0.06080000  0.95640000  0.97400000  1.0 0.0442496976
C  C81  1  0.43780000  0.82570000  0.30970000  1.0 0.6272671772
C  C82  1  0.56220000  0.32570000  0.19030000  1.0 0.6272671772
C  C83  1  0.56220000  0.17430000  0.69030000  1.0 0.6272671772
C  C84  1  0.43780000  0.67430000  0.80970000  1.0 0.6272671772
C  C85  1  0.55250000  0.90060000  0.42690000  1.0 0.0794672789
C  C86  1  0.44750000  0.40060000  0.07310000  1.0 0.0794672789
C  C87  1  0.44750000  0.09940000  0.57310000  1.0 0.0794672789
C  C88  1  0.55250000  0.59940000  0.92690000  1.0 0.0794672789
O  O1  1  0.90910000  0.04670000  0.61483000  1.0 -0.5392437921
O  O2  1  0.09090000  0.54670000  0.88517000  1.0 -0.5392437921
O  O3  1  0.09090000  0.95330000  0.38517000  1.0 -0.5392437921
O  O4  1  0.90910000  0.45330000  0.11483000  1.0 -0.5392437921
O  O5  1  0.11660000  0.77350000  0.89368000  1.0 -0.4918583479
O  O6  1  0.88340000  0.27350000  0.60632000  1.0 -0.4918583479
O  O7  1  0.88340000  0.22650000  0.10632000  1.0 -0.4918583479
O  O8  1  0.11660000  0.72650000  0.39368000  1.0 -0.4918583479
O  O9  1  0.21010000  0.70170000  0.85178000  1.0 -0.6091582002
O  O10  1  0.78990000  0.20170000  0.64822000  1.0 -0.6091582002
O  O11  1  0.78990000  0.29830000  0.14822000  1.0 -0.6091582002
O  O12  1  0.21010000  0.79830000  0.35178000  1.0 -0.6091582002
O  O13  1  0.69530000  0.02680000  0.49814000  1.0 -0.5278778421
O  O14  1  0.30470000  0.52680000  0.00186000  1.0 -0.5278778421
O  O15  1  0.30470000  0.97320000  0.50186000  1.0 -0.5278778421
O  O16  1  0.69530000  0.47320000  0.99814000  1.0 -0.5278778421
O  O17  1  0.33250000  0.75340000  0.52302000  1.0 -0.5692267285
O  O18  1  0.66750000  0.25340000  0.97698000  1.0 -0.5692267285
O  O19  1  0.66750000  0.24660000  0.47698000  1.0 -0.5692267285
O  O20  1  0.33250000  0.74660000  0.02302000  1.0 -0.5692267285
O  O21  1  0.13160000  0.87260000  0.53926000  1.0 -0.5127196954
O  O22  1  0.86840000  0.37260000  0.96074000  1.0 -0.5127196954
O  O23  1  0.86840000  0.12740000  0.46074000  1.0 -0.5127196954
O  O24  1  0.13160000  0.62740000  0.03926000  1.0 -0.5127196954
O  O25  1  0.26290000  0.83330000  0.63560000  1.0 -0.5692267285
O  O26  1  0.73710000  0.33333333  0.86440000  1.0 -0.5692267285
O  O27  1  0.73710000  0.16670000  0.36440000  1.0 -0.5692267285
O  O28  1  0.26290000  0.66666667  0.13560000  1.0 -0.5692267285
O  O29  1  0.22220000  0.61720000  0.58512000  1.0 -0.5392437921
O  O30  1  0.77780000  0.11720000  0.91488000  1.0 -0.5392437921
O  O31  1  0.77780000  0.38280000  0.41488000  1.0 -0.5392437921
O  O32  1  0.22220000  0.88280000  0.08512000  1.0 -0.5392437921
O  O33  1  0.34990000  0.82850000  0.27167000  1.0 -0.6091582002
O  O34  1  0.65010000  0.32850000  0.22833000  1.0 -0.6091582002
O  O35  1  0.65010000  0.17150000  0.72833000  1.0 -0.6091582002
O  O36  1  0.34990000  0.67150000  0.77167000  1.0 -0.6091582002
O  O37  1  0.49210000  0.80660000  0.27968000  1.0 -0.4918583479
O  O38  1  0.50790000  0.30660000  0.22032000  1.0 -0.4918583479
O  O39  1  0.50790000  0.19340000  0.72032000  1.0 -0.4918583479
O  O40  1  0.49210000  0.69340000  0.77968000  1.0 -0.4918583479
O  O41  1  0.45830000  0.77370000  0.62723000  1.0 -0.4918583479
O  O42  1  0.54170000  0.27370000  0.87277000  1.0 -0.4918583479
O  O43  1  0.54170000  0.22630000  0.37277000  1.0 -0.4918583479
O  O44  1  0.45830000  0.72630000  0.12723000  1.0 -0.4918583479
O  O45  1  0.15250000  0.62860000  0.66507000  1.0 -0.5643357382
O  O46  1  0.84750000  0.12860000  0.83493000  1.0 -0.5692267285
O  O47  1  0.84750000  0.37140000  0.33493000  1.0 -0.5692267285
O  O48  1  0.15250000  0.87140000  0.16507000  1.0 -0.5643357382
O  O49  1  0.89610000  0.00900000  0.72262000  1.0 -0.5750852572
O  O50  1  0.10390000  0.50900000  0.77738000  1.0 -0.5750852572
O  O51  1  0.10390000  0.99100000  0.27738000  1.0 -0.5750852572
O  O52  1  0.89610000  0.49100000  0.22262000  1.0 -0.5750852572
O  O53  1  0.68510000  0.00390000  0.60908000  1.0 -0.5910954074
O  O54  1  0.31490000  0.50390000  0.89092000  1.0 -0.5910954074
O  O55  1  0.31490000  0.99610000  0.39092000  1.0 -0.5910954074
O  O56  1  0.68510000  0.49610000  0.10908000  1.0 -0.5910954074
