# DDEC6 charges by PACMAN v1.1 (https://github.com/mtap-research/PACMAN-charge/)
data_EWETIL_FSR_pacman
_symmetry_space_group_name_H-M   'P 1'
_cell_length_a   9.00300000
_cell_length_b   12.11800000
_cell_length_c   12.86500000
_cell_angle_alpha   98.74000000
_cell_angle_beta   90.25100000
_cell_angle_gamma   93.32500000
_symmetry_Int_Tables_number   1
_chemical_formula_structural   ZnH22C31N4O5
_chemical_formula_sum   'Zn2 H44 C62 N8 O10'
_cell_volume   1384.79325531
_cell_formula_units_Z   2
loop_
 _symmetry_equiv_pos_site_id
 _symmetry_equiv_pos_as_xyz
  1  'x, y, z'
loop_
 _atom_site_type_symbol
 _atom_site_label
 _atom_site_symmetry_multiplicity
 _atom_site_fract_x
 _atom_site_fract_y
 _atom_site_fract_z
 _atom_site_occupancy
 _atom_site_charge
Zn  Zn1  1  0.40462000  0.57505000  0.12693000  1.0 0.7993872697
Zn  Zn2  1  0.59538000  0.42495000  0.87307000  1.0 0.7993872697
H  H1  1  0.05820000  0.68710000  0.41010000  1.0 0.1093339686
H  H2  1  0.94180000  0.31290000  0.58990000  1.0 0.1093339686
H  H3  1  0.95380000  0.82430000  0.52810000  1.0 0.1014017603
H  H4  1  0.04620000  0.17570000  0.47190000  1.0 0.1014017603
H  H5  1  0.06440000  0.04740000  0.34000000  1.0 0.1093339686
H  H6  1  0.93560000  0.95260000  0.66000000  1.0 0.1093339686
H  H7  1  0.19140000  0.91320000  0.23100000  1.0 0.0715586106
H  H8  1  0.80860000  0.08680000  0.76900000  1.0 0.0715586106
H  H9  1  0.22820000  0.24180000  0.16650000  1.0 0.1093339686
H  H10  1  0.77180000  0.75820000  0.83350000  1.0 0.1093339686
H  H11  1  0.09010000  0.06850000  0.15330000  1.0 0.0872036452
H  H12  1  0.90990000  0.93150000  0.84670000  1.0 0.0872036452
H  H13  1  0.97820000  0.10150000  0.84970000  1.0 0.0789012055
H  H14  1  0.02180000  0.89850000  0.15030000  1.0 0.0789012055
H  H15  1  0.14910000  0.25740000  0.85920000  1.0 0.1014017603
H  H16  1  0.85090000  0.74260000  0.14080000  1.0 0.1014017603
H  H17  1  0.36970000  0.75110000  0.98470000  1.0 0.1093339686
H  H18  1  0.63030000  0.24890000  0.01530000  1.0 0.1093339686
H  H19  1  0.24760000  0.78510000  0.83520000  1.0 0.1298758398
H  H20  1  0.75240000  0.21490000  0.16480000  1.0 0.1298758398
H  H21  1  0.01230000  0.48990000  0.82870000  1.0 0.1356896992
H  H22  1  0.98770000  0.51010000  0.17130000  1.0 0.1356896992
H  H23  1  0.14330000  0.46400000  0.97780000  1.0 0.1014017603
H  H24  1  0.85670000  0.53600000  0.02220000  1.0 0.1014017603
H  H25  1  0.76060000  0.45820000  0.57150000  1.0 0.1093339686
H  H26  1  0.23940000  0.54180000  0.42850000  1.0 0.1093339686
H  H27  1  0.75510000  0.69670000  0.43460000  1.0 0.1298758398
H  H28  1  0.24490000  0.30330000  0.56540000  1.0 0.1298758398
H  H29  1  0.62240000  0.70510000  0.28260000  1.0 0.1093339686
H  H30  1  0.37760000  0.29490000  0.71740000  1.0 0.1093339686
H  H31  1  0.47190000  0.39210000  0.26630000  1.0 0.1093339686
H  H32  1  0.52810000  0.60790000  0.73370000  1.0 0.1093339686
H  H33  1  0.60650000  0.37280000  0.41660000  1.0 0.1356896992
H  H34  1  0.39350000  0.62720000  0.58340000  1.0 0.1356896992
H  H35  1  0.91000000  0.52600000  0.69800000  1.0 0.2628703649
H  H36  1  0.09000000  0.47400000  0.30200000  1.0 0.2628703649
H  H37  1  0.19850000  0.06130000  0.40590000  1.0 0.1093339686
H  H38  1  0.80150000  0.93870000  0.59410000  1.0 0.1093339686
H  H39  1  0.29800000  0.92320000  0.28310000  1.0 0.0789012055
H  H40  1  0.70200000  0.07680000  0.71690000  1.0 0.0789012055
H  H41  1  0.15480000  0.00450000  0.85630000  1.0 0.1014017603
H  H42  1  0.84520000  0.99550000  0.14370000  1.0 0.1014017603
H  H43  1  0.32050000  0.16110000  0.86960000  1.0 0.1093339686
H  H44  1  0.67950000  0.83890000  0.13040000  1.0 0.1093339686
C  C1  1  0.24230000  0.70340000  0.25090000  1.0 0.5224765475
C  C2  1  0.75770000  0.29660000  0.74910000  1.0 0.5224765475
C  C3  1  0.16440000  0.79050000  0.32230000  1.0 -0.0211404352
C  C4  1  0.83560000  0.20950000  0.67770000  1.0 -0.0211404352
C  C5  1  0.07610000  0.76340000  0.40240000  1.0 -0.1705656303
C  C6  1  0.92390000  0.23660000  0.59760000  1.0 -0.1705656303
C  C7  1  0.01260000  0.84530000  0.47240000  1.0 -0.2144603719
C  C8  1  0.98740000  0.15470000  0.52760000  1.0 -0.2144603719
C  C9  1  0.03310000  0.95580000  0.46230000  1.0 0.0483798702
C  C10  1  0.96690000  0.04420000  0.53770000  1.0 0.0483798702
C  C11  1  0.08090000  0.97750000  0.36170000  1.0 -0.0503323198
C  C12  1  0.91910000  0.02250000  0.63830000  1.0 -0.0503323198
C  C13  1  0.15150000  0.89630000  0.29540000  1.0 -0.0211404352
C  C14  1  0.84850000  0.10370000  0.70460000  1.0 -0.0211404352
C  C15  1  0.34530000  0.34350000  0.01370000  1.0 0.5535730357
C  C16  1  0.65470000  0.65650000  0.98630000  1.0 0.5535730357
C  C17  1  0.24380000  0.24100000  0.01150000  1.0 0.0060739769
C  C18  1  0.75620000  0.75900000  0.98850000  1.0 0.0060739769
C  C19  1  0.19610000  0.20270000  0.09980000  1.0 -0.2201013853
C  C20  1  0.80390000  0.79730000  0.90020000  1.0 -0.2201013853
C  C21  1  0.10090000  0.10740000  0.09470000  1.0 -0.1317899813
C  C22  1  0.89910000  0.89260000  0.90530000  1.0 -0.1317899813
C  C23  1  0.01800000  0.06880000  0.99710000  1.0 0.064000995
C  C24  1  0.98200000  0.93120000  0.00290000  1.0 0.064000995
C  C25  1  0.03710000  0.12470000  0.91150000  1.0 -0.1355562498
C  C26  1  0.96290000  0.87530000  0.08850000  1.0 -0.1355562498
C  C27  1  0.14160000  0.21430000  0.91500000  1.0 -0.0819542491
C  C28  1  0.85840000  0.78570000  0.08500000  1.0 -0.0819542491
C  C29  1  0.29720000  0.69680000  0.95170000  1.0 0.0715586106
C  C30  1  0.70280000  0.30320000  0.04830000  1.0 0.0715586106
C  C31  1  0.22450000  0.71780000  0.86290000  1.0 -0.1705656303
C  C32  1  0.77550000  0.28220000  0.13710000  1.0 -0.1705656303
C  C33  1  0.11720000  0.63960000  0.81410000  1.0 0.03489633
C  C34  1  0.88280000  0.36040000  0.18590000  1.0 0.03489633
C  C35  1  0.08650000  0.54460000  0.85870000  1.0 -0.1797999357
C  C36  1  0.91350000  0.45540000  0.14130000  1.0 -0.1797999357
C  C37  1  0.16530000  0.52990000  0.94790000  1.0 0.0789012055
C  C38  1  0.83470000  0.47010000  0.05210000  1.0 0.0789012055
C  C39  1  0.04270000  0.66460000  0.71590000  1.0 0.4241417284
C  C40  1  0.95730000  0.33540000  0.28410000  1.0 0.4241417284
C  C41  1  0.77750000  0.52300000  0.53890000  1.0 -0.0319720324
C  C42  1  0.22250000  0.47700000  0.46110000  1.0 -0.0319720324
C  C43  1  0.69650000  0.53320000  0.44180000  1.0 0.1194698895
C  C44  1  0.30350000  0.46680000  0.55820000  1.0 0.1194698895
C  C45  1  0.69870000  0.63250000  0.40080000  1.0 -0.1904423152
C  C46  1  0.30130000  0.36750000  0.59920000  1.0 -0.1904423152
C  C47  1  0.61820000  0.63690000  0.31070000  1.0 0.0789012055
C  C48  1  0.38180000  0.36310000  0.68930000  1.0 0.0789012055
C  C49  1  0.53110000  0.45460000  0.30080000  1.0 0.0789012055
C  C50  1  0.46890000  0.54540000  0.69920000  1.0 0.0789012055
C  C51  1  0.61080000  0.44230000  0.39070000  1.0 -0.2008697455
C  C52  1  0.38920000  0.55770000  0.60930000  1.0 -0.2008697455
C  C53  1  0.15900000  0.98610000  0.39860000  1.0 -0.0319720324
C  C54  1  0.84100000  0.01390000  0.60140000  1.0 -0.0319720324
C  C55  1  0.22000000  0.90410000  0.32770000  1.0 -0.0070766883
C  C56  1  0.78000000  0.09590000  0.67230000  1.0 -0.0070766883
C  C57  1  0.08560000  0.03220000  0.00790000  1.0 0.0483798702
C  C58  1  0.91440000  0.96780000  0.99210000  1.0 0.0483798702
C  C59  1  0.16330000  0.05570000  0.92000000  1.0 -0.0562900369
C  C60  1  0.83670000  0.94430000  0.08000000  1.0 -0.0562900369
C  C61  1  0.25260000  0.15280000  0.92460000  1.0 -0.0819542491
C  C62  1  0.74740000  0.84720000  0.07540000  1.0 -0.0819542491
N  N1  1  0.27010000  0.60340000  0.99360000  1.0 -0.2399093312
N  N2  1  0.72990000  0.39660000  0.00640000  1.0 -0.2399093312
N  N3  1  0.94090000  0.58510000  0.67000000  1.0 -0.2399093312
N  N4  1  0.05910000  0.41490000  0.33000000  1.0 -0.2399093312
N  N5  1  0.87090000  0.60170000  0.57930000  1.0 -0.1317899813
N  N6  1  0.12910000  0.39830000  0.42070000  1.0 -0.1317899813
N  N7  1  0.53380000  0.54990000  0.26040000  1.0 -0.2201013853
N  N8  1  0.46620000  0.45010000  0.73960000  1.0 -0.2201013853
O  O1  1  0.35060000  0.73496000  0.19922000  1.0 -0.5108788674
O  O2  1  0.64940000  0.26504000  0.80078000  1.0 -0.5108788674
O  O3  1  0.20010000  0.60145000  0.24513000  1.0 -0.5512563651
O  O4  1  0.79990000  0.39855000  0.75487000  1.0 -0.5512563651
O  O5  1  0.35480000  0.40917000  0.09940000  1.0 -0.5408368175
O  O6  1  0.64520000  0.59083000  0.90060000  1.0 -0.5408368175
O  O7  1  0.40770000  0.35714000  0.92975000  1.0 -0.5408368175
O  O8  1  0.59230000  0.64286000  0.07025000  1.0 -0.5408368175
O  O9  1  0.07520000  0.75080000  0.68210000  1.0 -0.4557179873
O  O10  1  0.92480000  0.24920000  0.31790000  1.0 -0.4557179873
