# DDEC6 charges by PACMAN v1.1 (https://github.com/mtap-research/PACMAN-charge/)
data_EWOKAF_ASR_pacman
_symmetry_space_group_name_H-M   'P 1'
_cell_length_a   16.27330000
_cell_length_b   16.27330000
_cell_length_c   19.12040000
_cell_angle_alpha   88.43140000
_cell_angle_beta   91.56860000
_cell_angle_gamma   39.50360000
_symmetry_Int_Tables_number   1
_chemical_formula_structural   GdH15C24N4O11
_chemical_formula_sum   'Gd4 H60 C96 N16 O44'
_cell_volume   3210.42438888
_cell_formula_units_Z   4
loop_
 _symmetry_equiv_pos_site_id
 _symmetry_equiv_pos_as_xyz
  1  'x, y, z'
loop_
 _atom_site_type_symbol
 _atom_site_label
 _atom_site_symmetry_multiplicity
 _atom_site_fract_x
 _atom_site_fract_y
 _atom_site_fract_z
 _atom_site_occupancy
 _atom_site_charge
Gd  Gd1  1  0.30460000  0.30460000  0.25000000  1.0 2.0012921737
Gd  Gd2  1  0.69540000  0.69540000  0.75000000  1.0 2.0012921737
Gd  Gd3  1  0.78552000  0.78552000  0.25000000  1.0 1.9534132526
Gd  Gd4  1  0.21448000  0.21448000  0.75000000  1.0 1.9534132526
H  H1  1  0.95615000  0.86121000  0.56970000  1.0 0.2778698848
H  H2  1  0.14709000  0.75879000  0.57431000  1.0 0.2644465611
H  H3  1  0.58080000  0.59864000  0.38831000  1.0 0.2778698848
H  H4  1  0.75615000  0.51671000  0.38373000  1.0 0.2778698848
H  H5  1  0.84351000  0.92597000  0.39441000  1.0 0.1504657836
H  H6  1  0.75338000  0.98082000  0.59464000  1.0 0.12904188
H  H7  1  0.48738000  0.13018000  0.43902000  1.0 0.12904188
H  H8  1  0.28532000  0.62672000  0.42553000  1.0 0.12904188
H  H9  1  0.46132000  0.56268000  0.38662000  1.0 0.12904188
H  H10  1  0.45450000  0.71964000  0.54805000  1.0 0.12904188
H  H11  1  0.27248000  0.79500000  0.58170000  1.0 0.12904188
H  H12  1  0.93830000  0.43612000  0.34795000  1.0 0.1414525275
H  H13  1  0.23043000  0.26869000  0.48970000  1.0 0.1098630921
H  H14  1  0.89975000  0.42857000  0.55389000  1.0 0.1414525275
H  H15  1  0.36148000  0.17862000  0.57331000  1.0 0.3178539918
H  H16  1  0.86121000  0.95615000  0.93030000  1.0 0.2778698848
H  H17  1  0.75879000  0.14709000  0.92569000  1.0 0.2644465611
H  H18  1  0.59864000  0.58080000  0.11169000  1.0 0.2778698848
H  H19  1  0.51671000  0.75615000  0.11627000  1.0 0.2778698848
H  H20  1  0.92597000  0.84351000  0.10559000  1.0 0.1504657836
H  H21  1  0.98082000  0.75338000  0.90536000  1.0 0.12904188
H  H22  1  0.13018000  0.48738000  0.06098000  1.0 0.12904188
H  H23  1  0.62672000  0.28532000  0.07447000  1.0 0.12904188
H  H24  1  0.56268000  0.46132000  0.11338000  1.0 0.12904188
H  H25  1  0.71964000  0.45450000  0.95195000  1.0 0.12904188
H  H26  1  0.79500000  0.27248000  0.91830000  1.0 0.12904188
H  H27  1  0.43612000  0.93830000  0.15205000  1.0 0.1414525275
H  H28  1  0.26869000  0.23043000  0.01030000  1.0 0.1098630921
H  H29  1  0.42857000  0.89975000  0.94611000  1.0 0.1414525275
H  H30  1  0.17862000  0.36148000  0.92669000  1.0 0.3178539918
H  H31  1  0.04385000  0.13879000  0.43030000  1.0 0.2778698848
H  H32  1  0.85291000  0.24121000  0.42569000  1.0 0.2644465611
H  H33  1  0.41920000  0.40136000  0.61169000  1.0 0.2778698848
H  H34  1  0.24385000  0.48329000  0.61627000  1.0 0.2778698848
H  H35  1  0.15649000  0.07403000  0.60559000  1.0 0.1504657836
H  H36  1  0.24662000  0.01918000  0.40536000  1.0 0.12904188
H  H37  1  0.51262000  0.86982000  0.56098000  1.0 0.12904188
H  H38  1  0.71468000  0.37328000  0.57447000  1.0 0.12904188
H  H39  1  0.53868000  0.43732000  0.61338000  1.0 0.12904188
H  H40  1  0.54550000  0.28036000  0.45195000  1.0 0.12904188
H  H41  1  0.72752000  0.20500000  0.41830000  1.0 0.12904188
H  H42  1  0.06170000  0.56388000  0.65205000  1.0 0.1414525275
H  H43  1  0.76957000  0.73131000  0.51030000  1.0 0.1098630921
H  H44  1  0.10025000  0.57143000  0.44611000  1.0 0.1414525275
H  H45  1  0.63852000  0.82138000  0.42669000  1.0 0.3178539918
H  H46  1  0.13879000  0.04385000  0.06970000  1.0 0.2778698848
H  H47  1  0.24121000  0.85291000  0.07431000  1.0 0.2644465611
H  H48  1  0.40136000  0.41920000  0.88831000  1.0 0.2778698848
H  H49  1  0.48329000  0.24385000  0.88373000  1.0 0.2778698848
H  H50  1  0.07403000  0.15649000  0.89441000  1.0 0.1504657836
H  H51  1  0.01918000  0.24662000  0.09464000  1.0 0.12904188
H  H52  1  0.86982000  0.51262000  0.93902000  1.0 0.12904188
H  H53  1  0.37328000  0.71468000  0.92553000  1.0 0.12904188
H  H54  1  0.43732000  0.53868000  0.88662000  1.0 0.12904188
H  H55  1  0.28036000  0.54550000  0.04805000  1.0 0.12904188
H  H56  1  0.20500000  0.72752000  0.08170000  1.0 0.12904188
H  H57  1  0.56388000  0.06170000  0.84795000  1.0 0.1414525275
H  H58  1  0.73131000  0.76957000  0.98970000  1.0 0.1098630921
H  H59  1  0.57143000  0.10025000  0.05389000  1.0 0.1414525275
H  H60  1  0.82138000  0.63852000  0.07331000  1.0 0.3178539918
C  C1  1  0.62550000  0.04730000  0.32940000  1.0 0.6684702681
C  C2  1  0.65990000  0.03190000  0.40570000  1.0 -0.0278965368
C  C3  1  0.78370000  0.96130000  0.42740000  1.0 -0.1886407302
C  C4  1  0.81960000  0.94280000  0.49850000  1.0 0.2353836865
C  C5  1  0.73080000  0.99220000  0.54700000  1.0 -0.2210253133
C  C6  1  0.60850000  0.05850000  0.52480000  1.0 -0.0612009507
C  C7  1  0.57100000  0.08180000  0.45380000  1.0 -0.1670966028
C  C8  1  0.51670000  0.10670000  0.57870000  1.0 0.4629996166
C  C9  1  0.04060000  0.82900000  0.48960000  1.0 0.5866659925
C  C10  1  0.25400000  0.72960000  0.50450000  1.0 0.2082156957
C  C11  1  0.31510000  0.65110000  0.44750000  1.0 -0.1568839802
C  C12  1  0.42120000  0.61180000  0.42530000  1.0 -0.1886407302
C  C13  1  0.47020000  0.64480000  0.46020000  1.0 0.2082156957
C  C14  1  0.41710000  0.70690000  0.52090000  1.0 -0.1670966028
C  C15  1  0.30920000  0.75020000  0.54140000  1.0 -0.1886407302
C  C16  1  0.67850000  0.55890000  0.47130000  1.0 0.5791268841
C  C17  1  0.89770000  0.44390000  0.44830000  1.0 0.2207087622
C  C18  1  0.97230000  0.41270000  0.39430000  1.0 -0.208723019
C  C19  1  0.09540000  0.34760000  0.40850000  1.0 -0.0070171273
C  C20  1  0.14760000  0.31200000  0.47930000  1.0 -0.1670966028
C  C21  1  0.07230000  0.34330000  0.53260000  1.0 -0.0278965368
C  C22  1  0.94880000  0.40840000  0.51760000  1.0 -0.1670966028
C  C23  1  0.17360000  0.31920000  0.35250000  1.0 0.5674540446
C  C24  1  0.12140000  0.30680000  0.60800000  1.0 0.5613364623
C  C25  1  0.04730000  0.62550000  0.17060000  1.0 0.6684702681
C  C26  1  0.03190000  0.65990000  0.09430000  1.0 -0.0278965368
C  C27  1  0.96130000  0.78370000  0.07260000  1.0 -0.1886407302
C  C28  1  0.94280000  0.81960000  0.00150000  1.0 0.2353836865
C  C29  1  0.99220000  0.73080000  0.95300000  1.0 -0.2210253133
C  C30  1  0.05850000  0.60850000  0.97520000  1.0 -0.0612009507
C  C31  1  0.08180000  0.57100000  0.04620000  1.0 -0.1670966028
C  C32  1  0.10670000  0.51670000  0.92130000  1.0 0.4629996166
C  C33  1  0.82900000  0.04060000  0.01040000  1.0 0.5866659925
C  C34  1  0.72960000  0.25400000  0.99550000  1.0 0.2082156957
C  C35  1  0.65110000  0.31510000  0.05250000  1.0 -0.1568839802
C  C36  1  0.61180000  0.42120000  0.07470000  1.0 -0.1886407302
C  C37  1  0.64480000  0.47020000  0.03980000  1.0 0.2082156957
C  C38  1  0.70690000  0.41710000  0.97910000  1.0 -0.1670966028
C  C39  1  0.75020000  0.30920000  0.95860000  1.0 -0.1886407302
C  C40  1  0.55890000  0.67850000  0.02870000  1.0 0.5791268841
C  C41  1  0.44390000  0.89770000  0.05170000  1.0 0.2207087622
C  C42  1  0.41270000  0.97230000  0.10570000  1.0 -0.208723019
C  C43  1  0.34760000  0.09540000  0.09150000  1.0 -0.0070171273
C  C44  1  0.31200000  0.14760000  0.02070000  1.0 -0.1670966028
C  C45  1  0.34330000  0.07230000  0.96740000  1.0 -0.0278965368
C  C46  1  0.40840000  0.94880000  0.98240000  1.0 -0.1670966028
C  C47  1  0.31920000  0.17360000  0.14750000  1.0 0.5674540446
C  C48  1  0.30680000  0.12140000  0.89200000  1.0 0.5613364623
C  C49  1  0.37450000  0.95270000  0.67060000  1.0 0.6684702681
C  C50  1  0.34010000  0.96810000  0.59430000  1.0 -0.0278965368
C  C51  1  0.21630000  0.03870000  0.57260000  1.0 -0.1886407302
C  C52  1  0.18040000  0.05720000  0.50150000  1.0 0.2353836865
C  C53  1  0.26920000  0.00780000  0.45300000  1.0 -0.2210253133
C  C54  1  0.39150000  0.94150000  0.47520000  1.0 -0.0612009507
C  C55  1  0.42900000  0.91820000  0.54620000  1.0 -0.1670966028
C  C56  1  0.48330000  0.89330000  0.42130000  1.0 0.4629996166
C  C57  1  0.95940000  0.17100000  0.51040000  1.0 0.5866659925
C  C58  1  0.74600000  0.27040000  0.49550000  1.0 0.2082156957
C  C59  1  0.68490000  0.34890000  0.55250000  1.0 -0.1568839802
C  C60  1  0.57880000  0.38820000  0.57470000  1.0 -0.1886407302
C  C61  1  0.52980000  0.35520000  0.53980000  1.0 0.2082156957
C  C62  1  0.58290000  0.29310000  0.47910000  1.0 -0.1670966028
C  C63  1  0.69080000  0.24980000  0.45860000  1.0 -0.1886407302
C  C64  1  0.32150000  0.44110000  0.52870000  1.0 0.5791268841
C  C65  1  0.10230000  0.55610000  0.55170000  1.0 0.2207087622
C  C66  1  0.02770000  0.58730000  0.60570000  1.0 -0.208723019
C  C67  1  0.90460000  0.65240000  0.59150000  1.0 -0.0070171273
C  C68  1  0.85240000  0.68800000  0.52070000  1.0 -0.1670966028
C  C69  1  0.92770000  0.65670000  0.46740000  1.0 -0.0278965368
C  C70  1  0.05120000  0.59160000  0.48240000  1.0 -0.1670966028
C  C71  1  0.82640000  0.68080000  0.64750000  1.0 0.5674540446
C  C72  1  0.87860000  0.69320000  0.39200000  1.0 0.5613364623
C  C73  1  0.95270000  0.37450000  0.82940000  1.0 0.6684702681
C  C74  1  0.96810000  0.34010000  0.90570000  1.0 -0.0278965368
C  C75  1  0.03870000  0.21630000  0.92740000  1.0 -0.1886407302
C  C76  1  0.05720000  0.18040000  0.99850000  1.0 0.2353836865
C  C77  1  0.00780000  0.26920000  0.04700000  1.0 -0.2210253133
C  C78  1  0.94150000  0.39150000  0.02480000  1.0 -0.0612009507
C  C79  1  0.91820000  0.42900000  0.95380000  1.0 -0.1670966028
C  C80  1  0.89330000  0.48330000  0.07870000  1.0 0.4629996166
C  C81  1  0.17100000  0.95940000  0.98960000  1.0 0.5866659925
C  C82  1  0.27040000  0.74600000  0.00450000  1.0 0.2082156957
C  C83  1  0.34890000  0.68490000  0.94750000  1.0 -0.1568839802
C  C84  1  0.38820000  0.57880000  0.92530000  1.0 -0.1886407302
C  C85  1  0.35520000  0.52980000  0.96020000  1.0 0.2082156957
C  C86  1  0.29310000  0.58290000  0.02090000  1.0 -0.1670966028
C  C87  1  0.24980000  0.69080000  0.04140000  1.0 -0.1886407302
C  C88  1  0.44110000  0.32150000  0.97130000  1.0 0.5791268841
C  C89  1  0.55610000  0.10230000  0.94830000  1.0 0.2207087622
C  C90  1  0.58730000  0.02770000  0.89430000  1.0 -0.208723019
C  C91  1  0.65240000  0.90460000  0.90850000  1.0 -0.0070171273
C  C92  1  0.68800000  0.85240000  0.97930000  1.0 -0.1670966028
C  C93  1  0.65670000  0.92770000  0.03260000  1.0 -0.0278965368
C  C94  1  0.59160000  0.05120000  0.01760000  1.0 -0.1670966028
C  C95  1  0.68080000  0.82640000  0.85250000  1.0 0.5674540446
C  C96  1  0.69320000  0.87860000  0.10800000  1.0 0.5613364623
N  N1  1  0.94200000  0.87520000  0.52480000  1.0 -0.4033023595
N  N2  1  0.14540000  0.77140000  0.53000000  1.0 -0.4361062898
N  N3  1  0.57780000  0.60020000  0.43320000  1.0 -0.4209836638
N  N4  1  0.77430000  0.50810000  0.42800000  1.0 -0.4209836638
N  N5  1  0.87520000  0.94200000  0.97520000  1.0 -0.4033023595
N  N6  1  0.77140000  0.14540000  0.97000000  1.0 -0.4346632316
N  N7  1  0.60020000  0.57780000  0.06680000  1.0 -0.4209836638
N  N8  1  0.50810000  0.77430000  0.07200000  1.0 -0.4209836638
N  N9  1  0.05800000  0.12480000  0.47520000  1.0 -0.4033023595
N  N10  1  0.85460000  0.22860000  0.47000000  1.0 -0.4361062898
N  N11  1  0.42220000  0.39980000  0.56680000  1.0 -0.4209836638
N  N12  1  0.22570000  0.49190000  0.57200000  1.0 -0.4209836638
N  N13  1  0.12480000  0.05800000  0.02480000  1.0 -0.4033023595
N  N14  1  0.22860000  0.85460000  0.03000000  1.0 -0.4361062898
N  N15  1  0.39980000  0.42220000  0.93320000  1.0 -0.4209836638
N  N16  1  0.49190000  0.22570000  0.92800000  1.0 -0.4209836638
O  O1  1  0.51119000  0.14499000  0.30460000  1.0 -0.6702499691
O  O2  1  0.71845000  0.95725000  0.29240000  1.0 -0.6702499691
O  O3  1  0.53480000  0.10720000  0.63990000  1.0 -0.4827968432
O  O4  1  0.03640000  0.83580000  0.42520000  1.0 -0.4878590434
O  O5  1  0.68470000  0.56270000  0.53340000  1.0 -0.4635035946
O  O6  1  0.12292000  0.36752000  0.28970000  1.0 -0.618286307
O  O7  1  0.29090000  0.24590000  0.36410000  1.0 -0.6067584409
O  O8  1  0.23567000  0.24347000  0.62670000  1.0 -0.6702499691
O  O9  1  0.05040000  0.33720000  0.65390000  1.0 -0.569945152
O  O10  1  0.42880000  0.12060000  0.55400000  1.0 -0.0612009507
O  O11  1  0.40300000  0.17700000  0.54990000  1.0 -0.0803572956
O  O12  1  0.14499000  0.51119000  0.19540000  1.0 -0.6702499691
O  O13  1  0.95725000  0.71845000  0.20760000  1.0 -0.6702499691
O  O14  1  0.10720000  0.53480000  0.86010000  1.0 -0.4827968432
O  O15  1  0.83580000  0.03640000  0.07480000  1.0 -0.4878590434
O  O16  1  0.56270000  0.68470000  0.96660000  1.0 -0.4635035946
O  O17  1  0.36752000  0.12292000  0.21030000  1.0 -0.618286307
O  O18  1  0.24590000  0.29090000  0.13590000  1.0 -0.6067584409
O  O19  1  0.24347000  0.23567000  0.87330000  1.0 -0.6702499691
O  O20  1  0.33720000  0.05040000  0.84610000  1.0 -0.569945152
O  O21  1  0.12060000  0.42880000  0.94600000  1.0 -0.0612009507
O  O22  1  0.17700000  0.40300000  0.95010000  1.0 -0.0803572956
O  O23  1  0.48881000  0.85501000  0.69540000  1.0 -0.6702499691
O  O24  1  0.28155000  0.04275000  0.70760000  1.0 -0.6702499691
O  O25  1  0.46520000  0.89280000  0.36010000  1.0 -0.4827968432
O  O26  1  0.96360000  0.16420000  0.57480000  1.0 -0.4878590434
O  O27  1  0.31530000  0.43730000  0.46660000  1.0 -0.4635035946
O  O28  1  0.87708000  0.63248000  0.71030000  1.0 -0.618286307
O  O29  1  0.70910000  0.75410000  0.63590000  1.0 -0.6067584409
O  O30  1  0.76433000  0.75653000  0.37330000  1.0 -0.6702499691
O  O31  1  0.94960000  0.66280000  0.34610000  1.0 -0.569945152
O  O32  1  0.57120000  0.87940000  0.44600000  1.0 -0.0650018035
O  O33  1  0.59700000  0.82300000  0.45010000  1.0 -0.0803572956
O  O34  1  0.85501000  0.48881000  0.80460000  1.0 -0.6702499691
O  O35  1  0.04275000  0.28155000  0.79240000  1.0 -0.6702499691
O  O36  1  0.89280000  0.46520000  0.13990000  1.0 -0.4827968432
O  O37  1  0.16420000  0.96360000  0.92520000  1.0 -0.4878590434
O  O38  1  0.43730000  0.31530000  0.03340000  1.0 -0.4635035946
O  O39  1  0.63248000  0.87708000  0.78970000  1.0 -0.618286307
O  O40  1  0.75410000  0.70910000  0.86410000  1.0 -0.6067584409
O  O41  1  0.75653000  0.76433000  0.12670000  1.0 -0.6702499691
O  O42  1  0.66280000  0.94960000  0.15390000  1.0 -0.569945152
O  O43  1  0.87940000  0.57120000  0.05400000  1.0 -0.0650018035
O  O44  1  0.82300000  0.59700000  0.04990000  1.0 -0.0803572956
