# DDEC6 charges by PACMAN v1.1 (https://github.com/mtap-research/PACMAN-charge/)
data_EWUFAF_FSR_pacman
_symmetry_space_group_name_H-M   'P 1'
_cell_length_a   17.49200000
_cell_length_b   17.49200000
_cell_length_c   13.24200000
_cell_angle_alpha   90.00000000
_cell_angle_beta   90.00000000
_cell_angle_gamma   120.00000000
_symmetry_Int_Tables_number   1
_chemical_formula_structural   CaCu6Hg6H39C34S6N6(Cl4O7)3
_chemical_formula_sum   'Ca2 Cu12 Hg12 H78 C68 S12 N12 Cl24 O42'
_cell_volume   3508.83666615
_cell_formula_units_Z   2
loop_
 _symmetry_equiv_pos_site_id
 _symmetry_equiv_pos_as_xyz
  1  'x, y, z'
loop_
 _atom_site_type_symbol
 _atom_site_label
 _atom_site_symmetry_multiplicity
 _atom_site_fract_x
 _atom_site_fract_y
 _atom_site_fract_z
 _atom_site_occupancy
 _atom_site_charge
Ca  Ca1  1  0.66666667  0.33333333  0.26250000  1.0 1.3910762474
Ca  Ca2  1  0.33333333  0.66666667  0.76250000  1.0 1.3910762474
Cu  Cu1  1  0.55764000  0.42464000  0.13860000  1.0 0.9767542884
Cu  Cu2  1  0.57536000  0.13300000  0.13860000  1.0 0.9767542884
Cu  Cu3  1  0.86700000  0.44236000  0.13860000  1.0 0.9767542884
Cu  Cu4  1  0.44236000  0.57536000  0.63860000  1.0 0.9767542884
Cu  Cu5  1  0.42464000  0.86700000  0.63860000  1.0 0.9767542884
Cu  Cu6  1  0.13300000  0.55764000  0.63860000  1.0 0.9767542884
Cu  Cu7  1  0.55283000  0.41905000  0.39090000  1.0 0.8819108611
Cu  Cu8  1  0.58095000  0.13378000  0.39090000  1.0 0.8819108611
Cu  Cu9  1  0.86622000  0.44717000  0.39090000  1.0 0.8819108611
Cu  Cu10  1  0.44717000  0.58095000  0.89090000  1.0 0.8819108611
Cu  Cu11  1  0.41905000  0.86622000  0.89090000  1.0 0.8819108611
Cu  Cu12  1  0.13378000  0.55283000  0.89090000  1.0 0.8819108611
Hg  Hg1  1  0.74430000  0.76070000  0.32500000  1.0 0.3372890458
Hg  Hg2  1  0.23930000  0.98360000  0.32500000  1.0 0.3372890458
Hg  Hg3  1  0.01640000  0.25570000  0.32500000  1.0 0.3372890458
Hg  Hg4  1  0.25570000  0.23930000  0.82500000  1.0 0.3372890458
Hg  Hg5  1  0.76070000  0.01640000  0.82500000  1.0 0.3372890458
Hg  Hg6  1  0.98360000  0.74430000  0.82500000  1.0 0.3372890458
Hg  Hg7  1  0.19310000  0.35400000  0.24390000  1.0 0.2293613807
Hg  Hg8  1  0.64600000  0.83910000  0.24390000  1.0 0.2293613807
Hg  Hg9  1  0.16090000  0.80690000  0.24390000  1.0 0.2293613807
Hg  Hg10  1  0.80690000  0.64600000  0.74390000  1.0 0.2293613807
Hg  Hg11  1  0.35400000  0.16090000  0.74390000  1.0 0.2293613807
Hg  Hg12  1  0.83910000  0.19310000  0.74390000  1.0 0.2293613807
H  H1  1  0.69620000  0.53260000  0.93240000  1.0 0.1173372059
H  H2  1  0.46740000  0.16360000  0.93240000  1.0 0.1173372059
H  H3  1  0.83640000  0.30380000  0.93240000  1.0 0.1173372059
H  H4  1  0.30380000  0.46740000  0.43240000  1.0 0.1173372059
H  H5  1  0.53260000  0.83640000  0.43240000  1.0 0.1173372059
H  H6  1  0.16360000  0.69620000  0.43240000  1.0 0.1173372059
H  H7  1  0.28500000  0.40860000  0.03960000  1.0 0.1173372059
H  H8  1  0.59140000  0.87640000  0.03960000  1.0 0.1173372059
H  H9  1  0.12360000  0.71500000  0.03960000  1.0 0.1173372059
H  H10  1  0.71500000  0.59140000  0.53960000  1.0 0.1173372059
H  H11  1  0.40860000  0.12360000  0.53960000  1.0 0.1173372059
H  H12  1  0.87640000  0.28500000  0.53960000  1.0 0.1173372059
H  H13  1  0.72220000  0.66850000  0.00390000  1.0 0.125858973
H  H14  1  0.33150000  0.05370000  0.00390000  1.0 0.125858973
H  H15  1  0.94630000  0.27780000  0.00390000  1.0 0.125858973
H  H16  1  0.27780000  0.33150000  0.50390000  1.0 0.125858973
H  H17  1  0.66850000  0.94630000  0.50390000  1.0 0.125858973
H  H18  1  0.05370000  0.72220000  0.50390000  1.0 0.125858973
H  H19  1  0.79500000  0.65390000  0.95240000  1.0 0.1118748591
H  H20  1  0.34610000  0.14110000  0.95240000  1.0 0.1118748591
H  H21  1  0.85890000  0.20500000  0.95240000  1.0 0.1118748591
H  H22  1  0.20500000  0.34610000  0.45240000  1.0 0.1118748591
H  H23  1  0.65390000  0.85890000  0.45240000  1.0 0.1118748591
H  H24  1  0.14110000  0.79500000  0.45240000  1.0 0.1118748591
H  H25  1  0.87790000  0.74270000  0.06460000  1.0 0.1498027213
H  H26  1  0.25730000  0.13520000  0.06460000  1.0 0.1498027213
H  H27  1  0.86480000  0.12210000  0.06460000  1.0 0.1498027213
H  H28  1  0.12210000  0.25730000  0.56460000  1.0 0.1498027213
H  H29  1  0.74270000  0.86480000  0.56460000  1.0 0.1498027213
H  H30  1  0.13520000  0.87790000  0.56460000  1.0 0.1498027213
H  H31  1  0.83410000  0.65920000  0.14180000  1.0 0.1620419354
H  H32  1  0.34080000  0.17490000  0.14180000  1.0 0.1620419354
H  H33  1  0.82510000  0.16590000  0.14180000  1.0 0.1620419354
H  H34  1  0.16590000  0.34080000  0.64180000  1.0 0.1620419354
H  H35  1  0.65920000  0.82510000  0.64180000  1.0 0.1620419354
H  H36  1  0.17490000  0.83410000  0.64180000  1.0 0.1620419354
H  H37  1  0.74140000  0.78620000  0.97940000  1.0 0.1848444298
H  H38  1  0.21380000  0.95520000  0.97940000  1.0 0.1851639554
H  H39  1  0.04480000  0.25860000  0.97940000  1.0 0.1848444298
H  H40  1  0.25860000  0.21380000  0.47940000  1.0 0.1848444298
H  H41  1  0.78620000  0.04480000  0.47940000  1.0 0.1848444298
H  H42  1  0.95520000  0.74140000  0.47940000  1.0 0.1848444298
H  H43  1  0.78150000  0.86570000  0.05890000  1.0 0.1620419354
H  H44  1  0.13430000  0.91580000  0.05890000  1.0 0.1620419354
H  H45  1  0.08420000  0.21850000  0.05890000  1.0 0.1620419354
H  H46  1  0.21850000  0.13430000  0.55890000  1.0 0.1620419354
H  H47  1  0.86570000  0.08420000  0.55890000  1.0 0.1620419354
H  H48  1  0.91580000  0.78150000  0.55890000  1.0 0.1620419354
H  H49  1  0.67770000  0.79710000  0.05750000  1.0 0.1498027213
H  H50  1  0.20290000  0.88060000  0.05750000  1.0 0.1498027213
H  H51  1  0.11940000  0.32230000  0.05750000  1.0 0.1498027213
H  H52  1  0.32230000  0.20290000  0.55750000  1.0 0.1498027213
H  H53  1  0.79710000  0.11940000  0.55750000  1.0 0.1498027213
H  H54  1  0.88060000  0.67770000  0.55750000  1.0 0.1498027213
H  H55  1  0.36940000  0.51680000  0.17860000  1.0 0.137564759
H  H56  1  0.48320000  0.85260000  0.17860000  1.0 0.137564759
H  H57  1  0.14740000  0.63060000  0.17860000  1.0 0.137564759
H  H58  1  0.63060000  0.48320000  0.67860000  1.0 0.137564759
H  H59  1  0.51680000  0.14740000  0.67860000  1.0 0.137564759
H  H60  1  0.85260000  0.36940000  0.67860000  1.0 0.137564759
H  H61  1  0.26600000  0.44790000  0.17940000  1.0 0.1173372059
H  H62  1  0.55210000  0.81810000  0.17940000  1.0 0.1173372059
H  H63  1  0.18190000  0.73400000  0.17940000  1.0 0.1173372059
H  H64  1  0.73400000  0.55210000  0.67940000  1.0 0.1173372059
H  H65  1  0.44790000  0.18190000  0.67940000  1.0 0.1173372059
H  H66  1  0.81810000  0.26600000  0.67940000  1.0 0.1173372059
H  H67  1  0.24720000  0.56710000  0.11230000  1.0 0.125858973
H  H68  1  0.43290000  0.68010000  0.11230000  1.0 0.125858973
H  H69  1  0.31990000  0.75280000  0.11230000  1.0 0.125858973
H  H70  1  0.75280000  0.43290000  0.61230000  1.0 0.125858973
H  H71  1  0.56710000  0.31990000  0.61230000  1.0 0.125858973
H  H72  1  0.68010000  0.24720000  0.61230000  1.0 0.125858973
H  H73  1  0.34830000  0.63110000  0.14960000  1.0 0.0091361554
H  H74  1  0.36890000  0.71720000  0.14960000  1.0 0.0091361554
H  H75  1  0.28280000  0.65170000  0.14960000  1.0 0.0091361554
H  H76  1  0.65170000  0.36890000  0.64960000  1.0 0.0091361554
H  H77  1  0.63110000  0.28280000  0.64960000  1.0 0.0091361554
H  H78  1  0.71720000  0.34830000  0.64960000  1.0 0.0091361554
C  C1  1  0.54640000  0.52610000  0.99000000  1.0 0.3457188364
C  C2  1  0.47390000  0.02030000  0.99000000  1.0 0.3457188364
C  C3  1  0.97970000  0.45360000  0.99000000  1.0 0.3457188364
C  C4  1  0.45360000  0.47390000  0.49000000  1.0 0.3457188364
C  C5  1  0.52610000  0.97970000  0.49000000  1.0 0.3457188364
C  C6  1  0.02030000  0.54640000  0.49000000  1.0 0.3457188364
C  C7  1  0.45700000  0.48140000  0.04300000  1.0 0.3622355764
C  C8  1  0.51860000  0.97560000  0.04300000  1.0 0.3622355764
C  C9  1  0.02440000  0.54300000  0.04300000  1.0 0.3622355764
C  C10  1  0.54300000  0.51860000  0.54300000  1.0 0.3622355764
C  C11  1  0.48140000  0.02440000  0.54300000  1.0 0.3622355764
C  C12  1  0.97560000  0.45700000  0.54300000  1.0 0.3622355764
C  C13  1  0.69660000  0.54820000  0.00500000  1.0 -0.0599440967
C  C14  1  0.45180000  0.14840000  0.00500000  1.0 -0.0599440967
C  C15  1  0.85160000  0.30340000  0.00500000  1.0 -0.0599440967
C  C16  1  0.30340000  0.45180000  0.50500000  1.0 -0.0599440967
C  C17  1  0.54820000  0.85160000  0.50500000  1.0 -0.0599440967
C  C18  1  0.14840000  0.69660000  0.50500000  1.0 -0.0599440967
C  C19  1  0.72510000  0.49600000  0.06200000  1.0 0.5681759125
C  C20  1  0.50400000  0.22910000  0.06200000  1.0 0.5681759125
C  C21  1  0.77090000  0.27490000  0.06200000  1.0 0.5681759125
C  C22  1  0.27490000  0.50400000  0.56200000  1.0 0.5681759125
C  C23  1  0.49600000  0.77090000  0.56200000  1.0 0.5681759125
C  C24  1  0.22910000  0.72510000  0.56200000  1.0 0.5681759125
C  C25  1  0.31870000  0.47500000  0.04270000  1.0 0.0091361554
C  C26  1  0.52500000  0.84370000  0.04270000  1.0 0.0091361554
C  C27  1  0.15630000  0.68130000  0.04270000  1.0 0.0091361554
C  C28  1  0.68130000  0.52500000  0.54270000  1.0 0.0091361554
C  C29  1  0.47500000  0.15630000  0.54270000  1.0 0.0091361554
C  C30  1  0.84370000  0.31870000  0.54270000  1.0 0.0091361554
C  C31  1  0.27400000  0.51200000  0.96000000  1.0 0.5469838684
C  C32  1  0.48800000  0.76200000  0.96000000  1.0 0.5469838684
C  C33  1  0.23800000  0.72600000  0.96000000  1.0 0.5469838684
C  C34  1  0.72600000  0.48800000  0.46000000  1.0 0.5469838684
C  C35  1  0.51200000  0.23800000  0.46000000  1.0 0.5469838684
C  C36  1  0.76200000  0.27400000  0.46000000  1.0 0.5469838684
C  C37  1  0.75800000  0.64020000  0.01400000  1.0 -0.1521513767
C  C38  1  0.35980000  0.11780000  0.01400000  1.0 -0.1521513767
C  C39  1  0.88220000  0.24200000  0.01400000  1.0 -0.1521513767
C  C40  1  0.24200000  0.35980000  0.51400000  1.0 -0.1521513767
C  C41  1  0.64020000  0.88220000  0.51400000  1.0 -0.1521513767
C  C42  1  0.11780000  0.75800000  0.51400000  1.0 -0.1521513767
C  C43  1  0.82190000  0.69450000  0.09260000  1.0 -0.2206951871
C  C44  1  0.30550000  0.12740000  0.09260000  1.0 -0.2206951871
C  C45  1  0.87260000  0.17810000  0.09260000  1.0 -0.2206951871
C  C46  1  0.17810000  0.30550000  0.59260000  1.0 -0.2206951871
C  C47  1  0.69450000  0.87260000  0.59260000  1.0 -0.2206951871
C  C48  1  0.12740000  0.82190000  0.59260000  1.0 -0.2206951871
C  C49  1  0.73600000  0.80400000  0.04800000  1.0 -0.4875140356
C  C50  1  0.19600000  0.93200000  0.04800000  1.0 -0.4875140356
C  C51  1  0.06800000  0.26400000  0.04800000  1.0 -0.4875140356
C  C52  1  0.26400000  0.19600000  0.54800000  1.0 -0.4875140356
C  C53  1  0.80400000  0.06800000  0.54800000  1.0 -0.4875140356
C  C54  1  0.93200000  0.73600000  0.54800000  1.0 -0.4875140356
C  C55  1  0.31300000  0.50020000  0.14410000  1.0 -0.1687428225
C  C56  1  0.49980000  0.81280000  0.14410000  1.0 -0.1687428225
C  C57  1  0.18720000  0.68700000  0.14410000  1.0 -0.1687428225
C  C58  1  0.68700000  0.49980000  0.64410000  1.0 -0.1687428225
C  C59  1  0.50020000  0.18720000  0.64410000  1.0 -0.1687428225
C  C60  1  0.81280000  0.31300000  0.64410000  1.0 -0.1687428225
C  C61  1  0.29500000  0.57220000  0.15680000  1.0 -0.1521513767
C  C62  1  0.42780000  0.72280000  0.15680000  1.0 -0.1521513767
C  C63  1  0.27720000  0.70500000  0.15680000  1.0 -0.1521513767
C  C64  1  0.70500000  0.42780000  0.65680000  1.0 -0.1521513767
C  C65  1  0.57220000  0.27720000  0.65680000  1.0 -0.1521513767
C  C66  1  0.72280000  0.29500000  0.65680000  1.0 -0.1521513767
C  C67  1  0.33333333  0.66666667  0.30200000  1.0 -0.0164188321
C  C68  1  0.66666667  0.33333333  0.80200000  1.0 -0.0164188321
S  S1  1  0.75240000  0.73210000  0.14170000  1.0 0.2384420738
S  S2  1  0.26790000  0.02030000  0.14170000  1.0 0.2451631681
S  S3  1  0.97970000  0.24760000  0.14170000  1.0 0.2384420738
S  S4  1  0.24760000  0.26790000  0.64170000  1.0 0.2384420738
S  S5  1  0.73210000  0.97970000  0.64170000  1.0 0.2293613807
S  S6  1  0.02030000  0.75240000  0.64170000  1.0 0.2384420738
S  S7  1  0.25930000  0.54220000  0.29110000  1.0 0.0200863613
S  S8  1  0.45780000  0.71710000  0.29110000  1.0 0.0200863613
S  S9  1  0.28290000  0.74070000  0.29110000  1.0 0.0200863613
S  S10  1  0.74070000  0.45780000  0.79110000  1.0 0.0200863613
S  S11  1  0.54220000  0.28290000  0.79110000  1.0 0.0200863613
S  S12  1  0.71710000  0.25930000  0.79110000  1.0 0.0200863613
N  N1  1  0.60410000  0.50980000  0.03600000  1.0 -0.3933497265
N  N2  1  0.49020000  0.09430000  0.03600000  1.0 -0.3933497265
N  N3  1  0.90570000  0.39590000  0.03600000  1.0 -0.3933497265
N  N4  1  0.39590000  0.49020000  0.53600000  1.0 -0.3933497265
N  N5  1  0.50980000  0.90570000  0.53600000  1.0 -0.3933497265
N  N6  1  0.09430000  0.60410000  0.53600000  1.0 -0.3933497265
N  N7  1  0.40550000  0.50330000  0.00800000  1.0 -0.3499171778
N  N8  1  0.49670000  0.90220000  0.00800000  1.0 -0.3499171778
N  N9  1  0.09780000  0.59450000  0.00800000  1.0 -0.3499171778
N  N10  1  0.59450000  0.49670000  0.50800000  1.0 -0.3499171778
N  N11  1  0.50330000  0.09780000  0.50800000  1.0 -0.3499171778
N  N12  1  0.90220000  0.40550000  0.50800000  1.0 -0.3499171778
Cl  Cl1  1  0.58850000  0.73260000  0.38910000  1.0 -0.1885941371
Cl  Cl2  1  0.26740000  0.85590000  0.38910000  1.0 -0.1885941371
Cl  Cl3  1  0.14410000  0.41150000  0.38910000  1.0 -0.1885941371
Cl  Cl4  1  0.41150000  0.26740000  0.88910000  1.0 -0.1885941371
Cl  Cl5  1  0.73260000  0.14410000  0.88910000  1.0 -0.1885941371
Cl  Cl6  1  0.85590000  0.58850000  0.88910000  1.0 -0.1885941371
Cl  Cl7  1  0.89840000  0.77920000  0.37010000  1.0 -0.3781239783
Cl  Cl8  1  0.22080000  0.11920000  0.37010000  1.0 -0.3781239783
Cl  Cl9  1  0.88080000  0.10160000  0.37010000  1.0 -0.3781239783
Cl  Cl10  1  0.10160000  0.22080000  0.87010000  1.0 -0.3781239783
Cl  Cl11  1  0.77920000  0.88080000  0.87010000  1.0 -0.3781239783
Cl  Cl12  1  0.11920000  0.89840000  0.87010000  1.0 -0.3781239783
Cl  Cl13  1  0.80560000  0.86190000  0.22720000  1.0 -0.0599440967
Cl  Cl14  1  0.13810000  0.94370000  0.22720000  1.0 -0.0599440967
Cl  Cl15  1  0.05630000  0.19440000  0.22720000  1.0 -0.0599440967
Cl  Cl16  1  0.19440000  0.13810000  0.72720000  1.0 -0.0599440967
Cl  Cl17  1  0.86190000  0.05630000  0.72720000  1.0 -0.0599440967
Cl  Cl18  1  0.94370000  0.80560000  0.72720000  1.0 -0.0599440967
Cl  Cl19  1  0.33100000  0.32800000  0.24500000  1.0 -0.399871473
Cl  Cl20  1  0.67200000  0.00300000  0.24500000  1.0 -0.399871473
Cl  Cl21  1  0.99700000  0.66900000  0.24500000  1.0 -0.399871473
Cl  Cl22  1  0.66900000  0.67200000  0.74500000  1.0 -0.399871473
Cl  Cl23  1  0.32800000  0.99700000  0.74500000  1.0 -0.399871473
Cl  Cl24  1  0.00300000  0.33100000  0.74500000  1.0 -0.399871473
O  O1  1  0.53150000  0.36130000  0.26200000  1.0 -0.713155736
O  O2  1  0.63870000  0.17020000  0.26200000  1.0 -0.713155736
O  O3  1  0.82980000  0.46850000  0.26200000  1.0 -0.713155736
O  O4  1  0.46850000  0.63870000  0.76200000  1.0 -0.713155736
O  O5  1  0.36130000  0.82980000  0.76200000  1.0 -0.713155736
O  O6  1  0.17020000  0.53150000  0.76200000  1.0 -0.713155736
O  O7  1  0.32460000  0.56080000  0.89400000  1.0 -0.5272385672
O  O8  1  0.43920000  0.76380000  0.89400000  1.0 -0.5272385672
O  O9  1  0.23620000  0.67540000  0.89400000  1.0 -0.5272385672
O  O10  1  0.67540000  0.43920000  0.39400000  1.0 -0.5272385672
O  O11  1  0.56080000  0.23620000  0.39400000  1.0 -0.5272385672
O  O12  1  0.76380000  0.32460000  0.39400000  1.0 -0.5272385672
O  O13  1  0.67700000  0.44190000  0.13600000  1.0 -0.5590202107
O  O14  1  0.55810000  0.23510000  0.13600000  1.0 -0.5590202107
O  O15  1  0.76490000  0.32300000  0.13600000  1.0 -0.5590202107
O  O16  1  0.32300000  0.55810000  0.63600000  1.0 -0.5590202107
O  O17  1  0.44190000  0.76490000  0.63600000  1.0 -0.5590202107
O  O18  1  0.23510000  0.67700000  0.63600000  1.0 -0.5590202107
O  O19  1  0.55240000  0.57090000  0.90900000  1.0 -0.4382170458
O  O20  1  0.42910000  0.98150000  0.90900000  1.0 -0.4382170458
O  O21  1  0.01850000  0.44760000  0.90900000  1.0 -0.4382170458
O  O22  1  0.44760000  0.42910000  0.40900000  1.0 -0.4382170458
O  O23  1  0.57090000  0.01850000  0.40900000  1.0 -0.4382170458
O  O24  1  0.98150000  0.55240000  0.40900000  1.0 -0.4382170458
O  O25  1  0.19920000  0.49200000  0.98200000  1.0 -0.4875140356
O  O26  1  0.50800000  0.70720000  0.98200000  1.0 -0.4875140356
O  O27  1  0.29280000  0.80080000  0.98200000  1.0 -0.4875140356
O  O28  1  0.80080000  0.50800000  0.48200000  1.0 -0.4875140356
O  O29  1  0.49200000  0.29280000  0.48200000  1.0 -0.4847283557
O  O30  1  0.70720000  0.19920000  0.48200000  1.0 -0.4875140356
O  O31  1  0.80360000  0.50820000  0.05000000  1.0 -0.470914721
O  O32  1  0.49180000  0.29540000  0.05000000  1.0 -0.470914721
O  O33  1  0.70460000  0.19640000  0.05000000  1.0 -0.470914721
O  O34  1  0.19640000  0.49180000  0.55000000  1.0 -0.470914721
O  O35  1  0.50820000  0.70460000  0.55000000  1.0 -0.470914721
O  O36  1  0.29540000  0.80360000  0.55000000  1.0 -0.470914721
O  O37  1  0.44400000  0.42750000  0.11500000  1.0 -0.4382170458
O  O38  1  0.57250000  0.01650000  0.11500000  1.0 -0.4382170458
O  O39  1  0.98350000  0.55600000  0.11500000  1.0 -0.4382170458
O  O40  1  0.55600000  0.57250000  0.61500000  1.0 -0.4382170458
O  O41  1  0.42750000  0.98350000  0.61500000  1.0 -0.4382170458
O  O42  1  0.01650000  0.44400000  0.61500000  1.0 -0.4382170458
