# DDEC6 charges by PACMAN v1.1 (https://github.com/mtap-research/PACMAN-charge/)
data_EWUKEO_ASR_pacman
_symmetry_space_group_name_H-M   'P 1'
_cell_length_a   18.38900000
_cell_length_b   18.38900000
_cell_length_c   17.96900000
_cell_angle_alpha   90.00000000
_cell_angle_beta   90.00000000
_cell_angle_gamma   120.00000000
_symmetry_Int_Tables_number   1
_chemical_formula_structural   Zn2CoH5C15O11
_chemical_formula_sum   'Zn12 Co6 H30 C90 O66'
_cell_volume   5262.24138735
_cell_formula_units_Z   6
loop_
 _symmetry_equiv_pos_site_id
 _symmetry_equiv_pos_as_xyz
  1  'x, y, z'
loop_
 _atom_site_type_symbol
 _atom_site_label
 _atom_site_symmetry_multiplicity
 _atom_site_fract_x
 _atom_site_fract_y
 _atom_site_fract_z
 _atom_site_occupancy
 _atom_site_charge
Zn  Zn1  1  0.75691000  0.65858000  0.33316000  1.0 0.9624805033
Zn  Zn2  1  0.34142000  0.09833000  0.33316000  1.0 0.9624805033
Zn  Zn3  1  0.90167000  0.24309000  0.33316000  1.0 0.9624805033
Zn  Zn4  1  0.24309000  0.34142000  0.83316000  1.0 0.9624805033
Zn  Zn5  1  0.65858000  0.90167000  0.83316000  1.0 0.9624805033
Zn  Zn6  1  0.09833000  0.75691000  0.83316000  1.0 0.9624805033
Zn  Zn7  1  0.34142000  0.24309000  0.83316000  1.0 0.9624805033
Zn  Zn8  1  0.90167000  0.65858000  0.83316000  1.0 0.9624805033
Zn  Zn9  1  0.75691000  0.09833000  0.83316000  1.0 0.9624805033
Zn  Zn10  1  0.65858000  0.75691000  0.33316000  1.0 0.9656545401
Zn  Zn11  1  0.09833000  0.34142000  0.33316000  1.0 0.9656545401
Zn  Zn12  1  0.24309000  0.90167000  0.33316000  1.0 0.9624805033
Co  Co1  1  0.65066000  0.65066000  0.17540000  1.0 1.133150059
Co  Co2  1  0.34934000  0.00000000  0.17540000  1.0 1.133150059
Co  Co3  1  0.00000000  0.34934000  0.17540000  1.0 1.133150059
Co  Co4  1  0.34934000  0.34934000  0.67540000  1.0 1.133150059
Co  Co5  1  0.65066000  0.00000000  0.67540000  1.0 1.133150059
Co  Co6  1  0.00000000  0.65066000  0.67540000  1.0 1.133150059
H  H1  1  0.84430000  0.71760000  0.55130000  1.0 0.1293694109
H  H2  1  0.28240000  0.12670000  0.55130000  1.0 0.1293694109
H  H3  1  0.87330000  0.15570000  0.55130000  1.0 0.1293694109
H  H4  1  0.15570000  0.28240000  0.05130000  1.0 0.1293694109
H  H5  1  0.71760000  0.87330000  0.05130000  1.0 0.1293694109
H  H6  1  0.12670000  0.84430000  0.05130000  1.0 0.1293694109
H  H7  1  0.28240000  0.15570000  0.05130000  1.0 0.1293694109
H  H8  1  0.87330000  0.71760000  0.05130000  1.0 0.1293694109
H  H9  1  0.84430000  0.12670000  0.05130000  1.0 0.1293694109
H  H10  1  0.71760000  0.84430000  0.55130000  1.0 0.1293694109
H  H11  1  0.12670000  0.28240000  0.55130000  1.0 0.1293694109
H  H12  1  0.15570000  0.87330000  0.55130000  1.0 0.1293694109
H  H13  1  0.80210000  0.44750000  0.37750000  1.0 0.13581312
H  H14  1  0.55250000  0.35460000  0.37750000  1.0 0.13581312
H  H15  1  0.64540000  0.19790000  0.37750000  1.0 0.13581312
H  H16  1  0.19790000  0.55250000  0.87750000  1.0 0.13581312
H  H17  1  0.44750000  0.64540000  0.87750000  1.0 0.13581312
H  H18  1  0.35460000  0.80210000  0.87750000  1.0 0.13581312
H  H19  1  0.55250000  0.19790000  0.87750000  1.0 0.13581312
H  H20  1  0.64540000  0.44750000  0.87750000  1.0 0.13581312
H  H21  1  0.80210000  0.35460000  0.87750000  1.0 0.13581312
H  H22  1  0.44750000  0.80210000  0.37750000  1.0 0.13581312
H  H23  1  0.35460000  0.55250000  0.37750000  1.0 0.13581312
H  H24  1  0.19790000  0.64540000  0.37750000  1.0 0.13581312
H  H25  1  0.81525000  0.81525000  0.74300000  1.0 0.1293694109
H  H26  1  0.18475000  0.00000000  0.74300000  1.0 0.1293694109
H  H27  1  0.00000000  0.18475000  0.74300000  1.0 0.1293694109
H  H28  1  0.18475000  0.18475000  0.24300000  1.0 0.1293694109
H  H29  1  0.81525000  0.00000000  0.24300000  1.0 0.1293694109
H  H30  1  0.00000000  0.81525000  0.24300000  1.0 0.1293694109
C  C1  1  0.76020000  0.76020000  0.46040000  1.0 0.5914979398
C  C2  1  0.23980000  0.00000000  0.46040000  1.0 0.5846659124
C  C3  1  0.00000000  0.23980000  0.46040000  1.0 0.5914979398
C  C4  1  0.23980000  0.23980000  0.96040000  1.0 0.5846659124
C  C5  1  0.76020000  0.00000000  0.96040000  1.0 0.5846659124
C  C6  1  0.00000000  0.76020000  0.96040000  1.0 0.5914979398
C  C7  1  0.69170000  0.50370000  0.37070000  1.0 0.5259597968
C  C8  1  0.49630000  0.18800000  0.37070000  1.0 0.5259597968
C  C9  1  0.81200000  0.30830000  0.37070000  1.0 0.5246851623
C  C10  1  0.30830000  0.49630000  0.87070000  1.0 0.5259597968
C  C11  1  0.50370000  0.81200000  0.87070000  1.0 0.5259597968
C  C12  1  0.18800000  0.69170000  0.87070000  1.0 0.5259597968
C  C13  1  0.49630000  0.30830000  0.87070000  1.0 0.5259597968
C  C14  1  0.81200000  0.50370000  0.87070000  1.0 0.5259597968
C  C15  1  0.69170000  0.18800000  0.87070000  1.0 0.5259597968
C  C16  1  0.50370000  0.69170000  0.37070000  1.0 0.5259597968
C  C17  1  0.18800000  0.49630000  0.37070000  1.0 0.5259597968
C  C18  1  0.30830000  0.81200000  0.37070000  1.0 0.5259597968
C  C19  1  0.77800000  0.77800000  0.53940000  1.0 -0.0641820997
C  C20  1  0.22200000  0.00000000  0.53940000  1.0 -0.0641820997
C  C21  1  0.00000000  0.22200000  0.53940000  1.0 -0.0641820997
C  C22  1  0.22200000  0.22200000  0.03940000  1.0 -0.0641820997
C  C23  1  0.77800000  0.00000000  0.03940000  1.0 -0.0641820997
C  C24  1  0.00000000  0.77800000  0.03940000  1.0 -0.0641820997
C  C25  1  0.67750000  0.41320000  0.37700000  1.0 0.0145486847
C  C26  1  0.58680000  0.26430000  0.37700000  1.0 0.0145486847
C  C27  1  0.73570000  0.32250000  0.37700000  1.0 0.0165643999
C  C28  1  0.32250000  0.58680000  0.87700000  1.0 0.0165643999
C  C29  1  0.41320000  0.73570000  0.87700000  1.0 0.0165643999
C  C30  1  0.26430000  0.67750000  0.87700000  1.0 0.0165643999
C  C31  1  0.58680000  0.32250000  0.87700000  1.0 0.0165643999
C  C32  1  0.73570000  0.41320000  0.87700000  1.0 0.0165643999
C  C33  1  0.67750000  0.26430000  0.87700000  1.0 0.0165643999
C  C34  1  0.41320000  0.67750000  0.37700000  1.0 0.0165643999
C  C35  1  0.26430000  0.58680000  0.37700000  1.0 0.0145486847
C  C36  1  0.32250000  0.73570000  0.37700000  1.0 0.0145486847
C  C37  1  0.82210000  0.74630000  0.57760000  1.0 -0.0692113198
C  C38  1  0.25370000  0.07580000  0.57760000  1.0 -0.0692113198
C  C39  1  0.92420000  0.17790000  0.57760000  1.0 -0.0692113198
C  C40  1  0.17790000  0.25370000  0.07760000  1.0 -0.0692113198
C  C41  1  0.74630000  0.92420000  0.07760000  1.0 -0.0692113198
C  C42  1  0.07580000  0.82210000  0.07760000  1.0 -0.0692113198
C  C43  1  0.25370000  0.17790000  0.07760000  1.0 -0.0692113198
C  C44  1  0.92420000  0.74630000  0.07760000  1.0 -0.0692113198
C  C45  1  0.82210000  0.07580000  0.07760000  1.0 -0.0692113198
C  C46  1  0.74630000  0.82210000  0.57760000  1.0 -0.0692113198
C  C47  1  0.07580000  0.25370000  0.57760000  1.0 -0.0692113198
C  C48  1  0.17790000  0.92420000  0.57760000  1.0 -0.0692113198
C  C49  1  0.74740000  0.40100000  0.37720000  1.0 -0.1031568132
C  C50  1  0.59900000  0.34640000  0.37720000  1.0 -0.1031568132
C  C51  1  0.65360000  0.25260000  0.37720000  1.0 -0.1031568132
C  C52  1  0.25260000  0.59900000  0.87720000  1.0 -0.1031568132
C  C53  1  0.40100000  0.65360000  0.87720000  1.0 -0.1031568132
C  C54  1  0.34640000  0.74740000  0.87720000  1.0 -0.1031568132
C  C55  1  0.59900000  0.25260000  0.87720000  1.0 -0.1031568132
C  C56  1  0.65360000  0.40100000  0.87720000  1.0 -0.1031568132
C  C57  1  0.74740000  0.34640000  0.87720000  1.0 -0.1031568132
C  C58  1  0.40100000  0.74740000  0.37720000  1.0 -0.1031568132
C  C59  1  0.34640000  0.59900000  0.37720000  1.0 -0.1031568132
C  C60  1  0.25260000  0.65360000  0.37720000  1.0 -0.1031568132
C  C61  1  0.83350000  0.75660000  0.65400000  1.0 -0.0519280155
C  C62  1  0.24340000  0.07690000  0.65400000  1.0 -0.0519280155
C  C63  1  0.92310000  0.16650000  0.65400000  1.0 -0.0519280155
C  C64  1  0.16650000  0.24340000  0.15400000  1.0 -0.0519280155
C  C65  1  0.75660000  0.92310000  0.15400000  1.0 -0.0519280155
C  C66  1  0.07690000  0.83350000  0.15400000  1.0 -0.0519280155
C  C67  1  0.24340000  0.16650000  0.15400000  1.0 -0.0519280155
C  C68  1  0.92310000  0.75660000  0.15400000  1.0 -0.0519280155
C  C69  1  0.83350000  0.07690000  0.15400000  1.0 -0.0519280155
C  C70  1  0.75660000  0.83350000  0.65400000  1.0 -0.0519280155
C  C71  1  0.07690000  0.24340000  0.65400000  1.0 -0.0519280155
C  C72  1  0.16650000  0.92310000  0.65400000  1.0 -0.0519280155
C  C73  1  0.80370000  0.80370000  0.69210000  1.0 -0.0780995558
C  C74  1  0.19630000  0.00000000  0.69210000  1.0 -0.0780995558
C  C75  1  0.00000000  0.19630000  0.69210000  1.0 -0.0780995558
C  C76  1  0.19630000  0.19630000  0.19210000  1.0 -0.0780995558
C  C77  1  0.80370000  0.00000000  0.19210000  1.0 -0.0780995558
C  C78  1  0.00000000  0.80370000  0.19210000  1.0 -0.0780995558
C  C79  1  0.87700000  0.72180000  0.69680000  1.0 0.5914979398
C  C80  1  0.27820000  0.15520000  0.69680000  1.0 0.5914979398
C  C81  1  0.84480000  0.12300000  0.69680000  1.0 0.5914979398
C  C82  1  0.12300000  0.27820000  0.19680000  1.0 0.5914979398
C  C83  1  0.72180000  0.84480000  0.19680000  1.0 0.5914979398
C  C84  1  0.15520000  0.87700000  0.19680000  1.0 0.5914979398
C  C85  1  0.27820000  0.12300000  0.19680000  1.0 0.5914979398
C  C86  1  0.84480000  0.72180000  0.19680000  1.0 0.5914979398
C  C87  1  0.87700000  0.15520000  0.19680000  1.0 0.5914979398
C  C88  1  0.72180000  0.87700000  0.69680000  1.0 0.5914979398
C  C89  1  0.15520000  0.27820000  0.69680000  1.0 0.5914979398
C  C90  1  0.12300000  0.84480000  0.69680000  1.0 0.5914979398
O  O1  1  0.65710000  0.65710000  0.29210000  1.0 -1.0193604449
O  O2  1  0.34290000  0.00000000  0.29210000  1.0 -1.0193604449
O  O3  1  0.00000000  0.34290000  0.29210000  1.0 -1.0193604449
O  O4  1  0.34290000  0.34290000  0.79210000  1.0 -1.0193604449
O  O5  1  0.65710000  0.00000000  0.79210000  1.0 -1.0193604449
O  O6  1  0.00000000  0.65710000  0.79210000  1.0 -1.0193604449
O  O7  1  0.78770000  0.71860000  0.42930000  1.0 -0.5117741917
O  O8  1  0.28140000  0.06910000  0.42930000  1.0 -0.5117741917
O  O9  1  0.93090000  0.21230000  0.42930000  1.0 -0.5117741917
O  O10  1  0.21230000  0.28140000  0.92930000  1.0 -0.5117741917
O  O11  1  0.71860000  0.93090000  0.92930000  1.0 -0.5117741917
O  O12  1  0.06910000  0.78770000  0.92930000  1.0 -0.5117741917
O  O13  1  0.28140000  0.21230000  0.92930000  1.0 -0.5117741917
O  O14  1  0.93090000  0.71860000  0.92930000  1.0 -0.5117741917
O  O15  1  0.78770000  0.06910000  0.92930000  1.0 -0.5117741917
O  O16  1  0.71860000  0.78770000  0.42930000  1.0 -0.5117741917
O  O17  1  0.06910000  0.28140000  0.42930000  1.0 -0.5117741917
O  O18  1  0.21230000  0.93090000  0.42930000  1.0 -0.5117741917
O  O19  1  0.76030000  0.55680000  0.34990000  1.0 -0.4692632675
O  O20  1  0.44320000  0.20350000  0.34990000  1.0 -0.4692632675
O  O21  1  0.79650000  0.23970000  0.34990000  1.0 -0.4692632675
O  O22  1  0.23970000  0.44320000  0.84990000  1.0 -0.4692632675
O  O23  1  0.55680000  0.79650000  0.84990000  1.0 -0.4692632675
O  O24  1  0.20350000  0.76030000  0.84990000  1.0 -0.4692632675
O  O25  1  0.44320000  0.23970000  0.84990000  1.0 -0.4692632675
O  O26  1  0.79650000  0.55680000  0.84990000  1.0 -0.4692632675
O  O27  1  0.76030000  0.20350000  0.84990000  1.0 -0.4692632675
O  O28  1  0.55680000  0.76030000  0.34990000  1.0 -0.4692632675
O  O29  1  0.20350000  0.44320000  0.34990000  1.0 -0.4692632675
O  O30  1  0.23970000  0.79650000  0.34990000  1.0 -0.4692632675
O  O31  1  0.87990000  0.72900000  0.76690000  1.0 -0.5117741917
O  O32  1  0.27100000  0.15090000  0.76690000  1.0 -0.5117741917
O  O33  1  0.84910000  0.12010000  0.76690000  1.0 -0.5117741917
O  O34  1  0.12010000  0.27100000  0.26690000  1.0 -0.5117741917
O  O35  1  0.72900000  0.84910000  0.26690000  1.0 -0.5117741917
O  O36  1  0.15090000  0.87990000  0.26690000  1.0 -0.5117741917
O  O37  1  0.27100000  0.12010000  0.26690000  1.0 -0.5117741917
O  O38  1  0.84910000  0.72900000  0.26690000  1.0 -0.5117741917
O  O39  1  0.87990000  0.15090000  0.26690000  1.0 -0.5117741917
O  O40  1  0.72900000  0.87990000  0.76690000  1.0 -0.5117741917
O  O41  1  0.15090000  0.27100000  0.76690000  1.0 -0.5117741917
O  O42  1  0.12010000  0.84910000  0.76690000  1.0 -0.5117741917
O  O43  1  0.90700000  0.68440000  0.66270000  1.0 -0.5779348632
O  O44  1  0.31560000  0.22260000  0.66270000  1.0 -0.5779348632
O  O45  1  0.77740000  0.09300000  0.66270000  1.0 -0.5779348632
O  O46  1  0.09300000  0.31560000  0.16270000  1.0 -0.5779348632
O  O47  1  0.68440000  0.77740000  0.16270000  1.0 -0.5779348632
O  O48  1  0.22260000  0.90700000  0.16270000  1.0 -0.5779348632
O  O49  1  0.31560000  0.09300000  0.16270000  1.0 -0.5779348632
O  O50  1  0.77740000  0.68440000  0.16270000  1.0 -0.5779348632
O  O51  1  0.90700000  0.22260000  0.16270000  1.0 -0.5779348632
O  O52  1  0.68440000  0.90700000  0.66270000  1.0 -0.5779348632
O  O53  1  0.22260000  0.31560000  0.66270000  1.0 -0.5779348632
O  O54  1  0.09300000  0.77740000  0.66270000  1.0 -0.5779348632
O  O55  1  0.63110000  0.51300000  0.38090000  1.0 -0.4108730375
O  O56  1  0.48700000  0.11810000  0.38090000  1.0 -0.4108730375
O  O57  1  0.88190000  0.36890000  0.38090000  1.0 -0.4108730375
O  O58  1  0.36890000  0.48700000  0.88090000  1.0 -0.4108730375
O  O59  1  0.51300000  0.88190000  0.88090000  1.0 -0.4108730375
O  O60  1  0.11810000  0.63110000  0.88090000  1.0 -0.4108730375
O  O61  1  0.48700000  0.36890000  0.88090000  1.0 -0.4108730375
O  O62  1  0.88190000  0.51300000  0.88090000  1.0 -0.4108730375
O  O63  1  0.63110000  0.11810000  0.88090000  1.0 -0.4108730375
O  O64  1  0.51300000  0.63110000  0.38090000  1.0 -0.4108730375
O  O65  1  0.11810000  0.48700000  0.38090000  1.0 -0.4108730375
O  O66  1  0.36890000  0.88190000  0.38090000  1.0 -0.4108730375
