# DDEC6 charges by PACMAN v1.1 (https://github.com/mtap-research/PACMAN-charge/)
data_EWULOA_FSR_pacman
_symmetry_space_group_name_H-M   'P 1'
_cell_length_a   12.32500000
_cell_length_b   12.93500000
_cell_length_c   34.43700000
_cell_angle_alpha   90.50000000
_cell_angle_beta   92.33000000
_cell_angle_gamma   99.98000000
_symmetry_Int_Tables_number   1
_chemical_formula_structural   Mn3CuH74C87(NO)12
_chemical_formula_sum   'Mn6 Cu2 H148 C174 N24 O24'
_cell_volume   5401.84154003
_cell_formula_units_Z   2
loop_
 _symmetry_equiv_pos_site_id
 _symmetry_equiv_pos_as_xyz
  1  'x, y, z'
loop_
 _atom_site_type_symbol
 _atom_site_label
 _atom_site_symmetry_multiplicity
 _atom_site_fract_x
 _atom_site_fract_y
 _atom_site_fract_z
 _atom_site_occupancy
 _atom_site_charge
Mn  Mn1  1  0.80712000  0.39868000  0.56946000  1.0 0.8985042493
Mn  Mn2  1  0.23420000  0.62015000  0.05771000  1.0 0.8562377017
Mn  Mn3  1  0.19288000  0.60132000  0.43054000  1.0 0.8985042493
Mn  Mn4  1  0.76580000  0.37985000  0.94229000  1.0 0.8562377017
Mn  Mn5  1  0.00000000  0.50000000  0.50000000  1.0 1.1106433194
Mn  Mn6  1  0.00000000  0.50000000  0.00000000  1.0 1.0557728332
Cu  Cu1  1  0.29037000  0.32144000  0.25057000  1.0 0.2798929136
Cu  Cu2  1  0.70963000  0.67856000  0.74943000  1.0 0.2798929136
H  H1  1  0.77229000  0.30457000  0.65436000  1.0 0.1499549946
H  H2  1  0.67843000  0.21044000  0.66693000  1.0 0.1189312247
H  H3  1  0.45269000  0.07867000  0.24742000  1.0 0.1287882983
H  H4  1  0.33409000  0.11282000  0.24223000  1.0 0.1287882983
H  H5  1  0.26850000  0.70629000  0.14158000  1.0 0.1499549946
H  H6  1  0.35677000  0.80177000  0.16026000  1.0 0.1287882983
H  H7  1  0.96990000  0.12497000  0.53887000  1.0 0.1499549946
H  H8  1  0.93472000  0.23676000  0.53133000  1.0 0.16942355
H  H9  1  0.86522000  0.13334000  0.51077000  1.0 0.1499549946
H  H10  1  0.34812000  0.38883000  0.37434000  1.0 0.1591712605
H  H11  1  0.27575000  0.39201000  0.33486000  1.0 0.1403409986
H  H12  1  0.39760000  0.45931000  0.33911000  1.0 0.1499549946
H  H13  1  0.13330000  0.77469000  0.01065000  1.0 0.1499549946
H  H14  1  0.17061000  0.89329000  0.99730000  1.0 0.1499549946
H  H15  1  0.06399000  0.86294000  0.02261000  1.0 0.1499549946
H  H16  1  0.63350000  0.94441000  0.63206000  1.0 0.1499549946
H  H17  1  0.59539000  0.04922000  0.64726000  1.0 0.1403409986
H  H18  1  0.70076000  0.01120000  0.66734000  1.0 0.1499549946
H  H19  1  0.55063000  0.04083000  0.30670000  1.0 0.1403409986
H  H20  1  0.61918000  0.10776000  0.34169000  1.0 0.1499549946
H  H21  1  0.64522000  0.13788000  0.29766000  1.0 0.1499549946
H  H22  1  0.37142000  0.08158000  0.13694000  1.0 0.1499549946
H  H23  1  0.33857000  0.98884000  0.16698000  1.0 0.1403409986
H  H24  1  0.45046000  0.99711000  0.14431000  1.0 0.1403409986
H  H25  1  0.79321000  0.95213000  0.51418000  1.0 0.1189312247
H  H26  1  0.69895000  0.32555000  0.35487000  1.0 0.112095398
H  H27  1  0.39077000  0.14696000  0.06694000  1.0 0.0998008285
H  H28  1  0.83362000  0.78369000  0.50246000  1.0 0.1189312247
H  H29  1  0.80729000  0.36831000  0.41111000  1.0 0.112095398
H  H30  1  0.35540000  0.31723000  0.05760000  1.0 0.112095398
H  H31  1  0.84949000  0.72591000  0.61689000  1.0 0.112095398
H  H32  1  0.54213000  0.27377000  0.47733000  1.0 0.1189312247
H  H33  1  0.03387000  0.20074000  0.04307000  1.0 0.1287882983
H  H34  1  0.81328000  0.89653000  0.63262000  1.0 0.112095398
H  H35  1  0.43142000  0.23861000  0.41815000  1.0 0.1189312247
H  H36  1  0.06074000  0.03905000  0.05773000  1.0 0.1189312247
H  H37  1  0.60320000  0.54577000  0.55736000  1.0 0.1591712605
H  H38  1  0.47440000  0.50009000  0.55106000  1.0 0.1403409986
H  H39  1  0.56292000  0.44585000  0.52940000  1.0 0.1591712605
H  H40  1  0.39062000  0.42569000  0.13938000  1.0 0.1591712605
H  H41  1  0.47364000  0.49828000  0.16940000  1.0 0.1499549946
H  H42  1  0.35089000  0.45195000  0.18145000  1.0 0.1499549946
H  H43  1  0.50531000  0.61604000  0.01685000  1.0 0.1403409986
H  H44  1  0.41903000  0.52633000  0.03612000  1.0 0.1591712605
H  H45  1  0.54813000  0.52239000  0.03953000  1.0 0.1403409986
H  H46  1  0.43176000  0.15179000  0.65518000  1.0 0.1403409986
H  H47  1  0.41345000  0.24873000  0.68185000  1.0 0.1499549946
H  H48  1  0.52812000  0.20663000  0.68496000  1.0 0.1287882983
H  H49  1  0.66772000  0.15092000  0.21496000  1.0 0.1499549946
H  H50  1  0.64345000  0.13617000  0.16906000  1.0 0.1403409986
H  H51  1  0.56822000  0.06334000  0.19844000  1.0 0.1287882983
H  H52  1  0.63107000  0.75748000  0.17813000  1.0 0.1499549946
H  H53  1  0.52021000  0.80478000  0.18193000  1.0 0.1287882983
H  H54  1  0.61811000  0.86473000  0.15707000  1.0 0.1499549946
H  H55  1  0.33100000  0.40487000  0.66630000  1.0 0.112095398
H  H56  1  0.14102000  0.41340000  0.65765000  1.0 0.112095398
H  H57  1  0.45769000  0.29748000  0.09758000  1.0 0.0998008285
H  H58  1  0.53789000  0.33782000  0.04617000  1.0 0.112095398
H  H59  1  0.16581000  0.37649000  0.53950000  1.0 0.1189312247
H  H60  1  0.82933000  0.42139000  0.10237000  1.0 0.1287882983
H  H61  1  0.33952000  0.35135000  0.54904000  1.0 0.1287882983
H  H62  1  0.73635000  0.37337000  0.15623000  1.0 0.1189312247
H  H63  1  0.70655000  0.71167000  0.04120000  1.0 0.1189312247
H  H64  1  0.88631000  0.68156000  0.03352000  1.0 0.1189312247
H  H65  1  0.91136000  0.61393000  0.14789000  1.0 0.1189312247
H  H66  1  0.73159000  0.64404000  0.15557000  1.0 0.112095398
H  H67  1  0.06327000  0.45799000  0.31766000  1.0 0.1287882983
H  H68  1  0.93674000  0.38387000  0.36426000  1.0 0.1189312247
H  H69  1  0.86909000  0.21011000  0.36477000  1.0 0.1189312247
H  H70  1  0.92886000  0.09797000  0.32205000  1.0 0.1189312247
H  H71  1  0.06592000  0.15767000  0.28147000  1.0 0.112095398
H  H72  1  0.21052000  0.43308000  0.21053000  1.0 0.1907182369
H  H73  1  0.52699000  0.19094000  0.09695000  1.0 0.112095398
H  H74  1  0.64149000  0.20521000  0.05296000  1.0 0.1287882983
H  H75  1  0.22771000  0.69543000  0.34564000  1.0 0.1499549946
H  H76  1  0.32157000  0.78956000  0.33307000  1.0 0.1189312247
H  H77  1  0.54731000  0.92133000  0.75258000  1.0 0.1287882983
H  H78  1  0.66591000  0.88718000  0.75777000  1.0 0.1287882983
H  H79  1  0.73150000  0.29371000  0.85842000  1.0 0.1499549946
H  H80  1  0.64323000  0.19823000  0.83974000  1.0 0.1287882983
H  H81  1  0.03010000  0.87503000  0.46113000  1.0 0.1499549946
H  H82  1  0.06528000  0.76324000  0.46867000  1.0 0.16942355
H  H83  1  0.13478000  0.86666000  0.48923000  1.0 0.1499549946
H  H84  1  0.65188000  0.61117000  0.62566000  1.0 0.1591712605
H  H85  1  0.72425000  0.60799000  0.66514000  1.0 0.1403409986
H  H86  1  0.60240000  0.54069000  0.66089000  1.0 0.1499549946
H  H87  1  0.86670000  0.22531000  0.98935000  1.0 0.1499549946
H  H88  1  0.82939000  0.10671000  0.00270000  1.0 0.1499549946
H  H89  1  0.93601000  0.13706000  0.97739000  1.0 0.1499549946
H  H90  1  0.36650000  0.05559000  0.36794000  1.0 0.1499549946
H  H91  1  0.40461000  0.95078000  0.35274000  1.0 0.1403409986
H  H92  1  0.29924000  0.98880000  0.33266000  1.0 0.1499549946
H  H93  1  0.44937000  0.95917000  0.69330000  1.0 0.1403409986
H  H94  1  0.38082000  0.89224000  0.65831000  1.0 0.1499549946
H  H95  1  0.35478000  0.86212000  0.70234000  1.0 0.1499549946
H  H96  1  0.62858000  0.91842000  0.86306000  1.0 0.1499549946
H  H97  1  0.66143000  0.01116000  0.83302000  1.0 0.1403409986
H  H98  1  0.54954000  0.00289000  0.85569000  1.0 0.1403409986
H  H99  1  0.20679000  0.04787000  0.48582000  1.0 0.1189312247
H  H100  1  0.30105000  0.67445000  0.64513000  1.0 0.112095398
H  H101  1  0.60923000  0.85304000  0.93306000  1.0 0.0998008285
H  H102  1  0.16638000  0.21631000  0.49754000  1.0 0.1189312247
H  H103  1  0.19271000  0.63169000  0.58889000  1.0 0.112095398
H  H104  1  0.64460000  0.68277000  0.94240000  1.0 0.112095398
H  H105  1  0.15051000  0.27409000  0.38311000  1.0 0.112095398
H  H106  1  0.45787000  0.72623000  0.52267000  1.0 0.1189312247
H  H107  1  0.96613000  0.79926000  0.95693000  1.0 0.1287882983
H  H108  1  0.18672000  0.10347000  0.36738000  1.0 0.112095398
H  H109  1  0.56858000  0.76139000  0.58185000  1.0 0.1189312247
H  H110  1  0.93926000  0.96095000  0.94227000  1.0 0.1189312247
H  H111  1  0.39680000  0.45423000  0.44264000  1.0 0.1591712605
H  H112  1  0.52560000  0.49991000  0.44894000  1.0 0.1403409986
H  H113  1  0.43708000  0.55415000  0.47060000  1.0 0.1591712605
H  H114  1  0.60938000  0.57431000  0.86062000  1.0 0.1591712605
H  H115  1  0.52636000  0.50172000  0.83060000  1.0 0.1499549946
H  H116  1  0.64911000  0.54805000  0.81855000  1.0 0.1403409986
H  H117  1  0.49469000  0.38396000  0.98315000  1.0 0.1403409986
H  H118  1  0.58097000  0.47367000  0.96388000  1.0 0.1591712605
H  H119  1  0.45187000  0.47761000  0.96047000  1.0 0.1403409986
H  H120  1  0.56824000  0.84821000  0.34482000  1.0 0.1403409986
H  H121  1  0.58655000  0.75127000  0.31815000  1.0 0.1499549946
H  H122  1  0.47188000  0.79337000  0.31504000  1.0 0.1287882983
H  H123  1  0.33228000  0.84908000  0.78504000  1.0 0.1499549946
H  H124  1  0.35655000  0.86383000  0.83094000  1.0 0.1403409986
H  H125  1  0.43178000  0.93666000  0.80156000  1.0 0.1287882983
H  H126  1  0.36893000  0.24252000  0.82187000  1.0 0.1499549946
H  H127  1  0.47979000  0.19522000  0.81807000  1.0 0.1287882983
H  H128  1  0.38189000  0.13527000  0.84293000  1.0 0.1499549946
H  H129  1  0.66900000  0.59513000  0.33370000  1.0 0.112095398
H  H130  1  0.85898000  0.58660000  0.34235000  1.0 0.112095398
H  H131  1  0.54231000  0.70252000  0.90242000  1.0 0.0998008285
H  H132  1  0.46211000  0.66218000  0.95383000  1.0 0.112095398
H  H133  1  0.83419000  0.62351000  0.46050000  1.0 0.1189312247
H  H134  1  0.17067000  0.57861000  0.89763000  1.0 0.1287882983
H  H135  1  0.66048000  0.64865000  0.45096000  1.0 0.1287882983
H  H136  1  0.26365000  0.62663000  0.84377000  1.0 0.1189312247
H  H137  1  0.29345000  0.28833000  0.95880000  1.0 0.1189312247
H  H138  1  0.11369000  0.31844000  0.96648000  1.0 0.1189312247
H  H139  1  0.08864000  0.38607000  0.85211000  1.0 0.1189312247
H  H140  1  0.26841000  0.35596000  0.84443000  1.0 0.112095398
H  H141  1  0.93673000  0.54201000  0.68234000  1.0 0.1287882983
H  H142  1  0.06326000  0.61613000  0.63574000  1.0 0.1189312247
H  H143  1  0.13091000  0.78989000  0.63523000  1.0 0.1189312247
H  H144  1  0.07114000  0.90203000  0.67795000  1.0 0.1189312247
H  H145  1  0.93408000  0.84233000  0.71853000  1.0 0.112095398
H  H146  1  0.78948000  0.56692000  0.78947000  1.0 0.1907182369
H  H147  1  0.47301000  0.80906000  0.90305000  1.0 0.112095398
H  H148  1  0.35851000  0.79479000  0.94704000  1.0 0.1287882983
C  C1  1  0.70790000  0.25270000  0.64470000  1.0 -0.0702503688
C  C2  1  0.41330000  0.13910000  0.24830000  1.0 -0.0993523252
C  C3  1  0.33100000  0.76240000  0.13590000  1.0 -0.1201703925
C  C4  1  0.83770000  0.14670000  0.56690000  1.0 0.2520190995
C  C5  1  0.39910000  0.29690000  0.32920000  1.0 0.2070099931
C  C6  1  0.20690000  0.87100000  0.05370000  1.0 0.203799374
C  C7  1  0.78940000  0.05320000  0.58450000  1.0 -0.1914213453
C  C8  1  0.48530000  0.25620000  0.34320000  1.0 -0.1807830983
C  C9  1  0.24900000  0.96600000  0.07420000  1.0 -0.1807830983
C  C10  1  0.72860000  0.07560000  0.61570000  1.0 0.1591712605
C  C11  1  0.50500000  0.18230000  0.31540000  1.0 0.1403409986
C  C12  1  0.30680000  0.93290000  0.10690000  1.0 0.1591712605
C  C13  1  0.90740000  0.16160000  0.53440000  1.0 -0.4797572333
C  C14  1  0.35050000  0.39350000  0.34600000  1.0 -0.4883674097
C  C15  1  0.13800000  0.84860000  0.01820000  1.0 -0.5022453595
C  C16  1  0.65910000  0.01530000  0.64270000  1.0 -0.5122557957
C  C17  1  0.58690000  0.11120000  0.31540000  1.0 -0.5022453595
C  C18  1  0.37360000  0.00770000  0.14240000  1.0 -0.5234355409
C  C19  1  0.80410000  0.94200000  0.57500000  1.0 0.1287882983
C  C20  1  0.55250000  0.27560000  0.38130000  1.0 0.112095398
C  C21  1  0.22680000  0.06810000  0.06350000  1.0 0.1189312247
C  C22  1  0.80610000  0.90780000  0.53510000  1.0 -0.1807830983
C  C23  1  0.66640000  0.31650000  0.37940000  1.0 -0.1585307591
C  C24  1  0.31680000  0.15770000  0.06310000  1.0 -0.1807830983
C  C25  1  0.82790000  0.80680000  0.52840000  1.0 -0.0993523252
C  C26  1  0.73050000  0.34340000  0.41290000  1.0 -0.1101829721
C  C27  1  0.29530000  0.26020000  0.05710000  1.0 -0.1317561161
C  C28  1  0.84090000  0.74080000  0.55800000  1.0 -0.0547432307
C  C29  1  0.68430000  0.33450000  0.44970000  1.0 -0.029608631
C  C30  1  0.19110000  0.27970000  0.05050000  1.0 -0.029608631
C  C31  1  0.83790000  0.77290000  0.59670000  1.0 -0.0894386288
C  C32  1  0.57330000  0.28830000  0.45280000  1.0 -0.0993523252
C  C33  1  0.10700000  0.19080000  0.04950000  1.0 -0.0993523252
C  C34  1  0.81760000  0.87470000  0.60640000  1.0 -0.1807830983
C  C35  1  0.50830000  0.26390000  0.41680000  1.0 -0.1585307591
C  C36  1  0.12320000  0.09340000  0.05690000  1.0 -0.1379625652
C  C37  1  0.85930000  0.63230000  0.55070000  1.0 0.5904801707
C  C38  1  0.76100000  0.36800000  0.48530000  1.0 0.5819639485
C  C39  1  0.17080000  0.38850000  0.04420000  1.0 0.5740651112
C  C40  1  0.55510000  0.40610000  0.58920000  1.0 0.2375174608
C  C41  1  0.45130000  0.34520000  0.18220000  1.0 0.1403409986
C  C42  1  0.50340000  0.63300000  0.07650000  1.0 0.1907182369
C  C43  1  0.47230000  0.36330000  0.61150000  1.0 -0.1914213453
C  C44  1  0.53350000  0.29060000  0.16830000  1.0 -0.0702503688
C  C45  1  0.58250000  0.68070000  0.10200000  1.0 -0.1585307591
C  C46  1  0.51240000  0.29430000  0.63580000  1.0 0.16942355
C  C47  1  0.53430000  0.21130000  0.19560000  1.0 0.0573324091
C  C48  1  0.52850000  0.73260000  0.12770000  1.0 0.1403409986
C  C49  1  0.54820000  0.48170000  0.55330000  1.0 -0.4883674097
C  C50  1  0.41350000  0.43780000  0.16690000  1.0 -0.5022453595
C  C51  1  0.49300000  0.56870000  0.03890000  1.0 -0.4883674097
C  C52  1  0.46740000  0.21860000  0.66720000  1.0 -0.4883674097
C  C53  1  0.60980000  0.13390000  0.19440000  1.0 -0.5122557957
C  C54  1  0.57910000  0.79600000  0.16460000  1.0 -0.4797572333
C  C55  1  0.35380000  0.37970000  0.60560000  1.0 0.1189312247
C  C56  1  0.59060000  0.32140000  0.13360000  1.0 0.0704734906
C  C57  1  0.29500000  0.39830000  0.64130000  1.0 -0.1585307591
C  C58  1  0.18320000  0.40560000  0.63570000  1.0 -0.1101829721
C  C59  1  0.53570000  0.31700000  0.09870000  1.0 -0.0993523252
C  C60  1  0.58220000  0.33670000  0.06930000  1.0 -0.0389764964
C  C61  1  0.13060000  0.40140000  0.59710000  1.0 -0.0829743424
C  C62  1  0.70550000  0.36010000  0.06590000  1.0 0.0704734906
C  C63  1  0.19740000  0.38110000  0.56520000  1.0 -0.0894386288
C  C64  1  0.75500000  0.38610000  0.10020000  1.0 -0.1201703925
C  C65  1  0.30080000  0.36880000  0.57080000  1.0 -0.1379625652
C  C66  1  0.69650000  0.36100000  0.13200000  1.0 -0.1807830983
C  C67  1  0.01690000  0.40970000  0.59100000  1.0 0.5485969108
C  C68  1  0.77530000  0.38790000  0.03010000  1.0 0.4842005889
C  C69  1  0.70220000  0.68070000  0.09910000  1.0 0.1189312247
C  C70  1  0.74810000  0.69180000  0.06290000  1.0 -0.1488773106
C  C71  1  0.85490000  0.67390000  0.05830000  1.0 -0.0894386288
C  C72  1  0.91570000  0.64490000  0.09000000  1.0 -0.0215891045
C  C73  1  0.86980000  0.63380000  0.12620000  1.0 -0.1101829721
C  C74  1  0.76300000  0.65170000  0.13080000  1.0 -0.1488773106
C  C75  1  0.03400000  0.62540000  0.08650000  1.0 0.5347803157
C  C76  1  0.07250000  0.31720000  0.29140000  1.0 0.112095398
C  C77  1  0.03730000  0.38440000  0.31800000  1.0 -0.1317561161
C  C78  1  0.96090000  0.33910000  0.34570000  1.0 -0.0829743424
C  C79  1  0.92230000  0.23680000  0.34650000  1.0 -0.1101829721
C  C80  1  0.95840000  0.17080000  0.32170000  1.0 -0.0993523252
C  C81  1  0.03520000  0.20650000  0.29650000  1.0 -0.1488773106
C  C82  1  0.14860000  0.35820000  0.26250000  1.0 -0.0389764964
C  C83  1  0.18310000  0.39990000  0.23350000  1.0 -0.3252828795
C  C84  1  0.60800000  0.28500000  0.13510000  1.0 0.0704734906
C  C85  1  0.59300000  0.24000000  0.10130000  1.0 -0.0702503688
C  C86  1  0.65500000  0.25400000  0.07400000  1.0 -0.062117523
C  C87  1  0.72700000  0.32100000  0.07190000  1.0 0.0439498942
C  C88  1  0.29210000  0.74730000  0.35530000  1.0 -0.0702503688
C  C89  1  0.58670000  0.86090000  0.75170000  1.0 -0.0993523252
C  C90  1  0.66900000  0.23760000  0.86410000  1.0 -0.1201703925
C  C91  1  0.16230000  0.85330000  0.43310000  1.0 0.2520190995
C  C92  1  0.60090000  0.70310000  0.67080000  1.0 0.2070099931
C  C93  1  0.79310000  0.12900000  0.94630000  1.0 0.203799374
C  C94  1  0.21060000  0.94680000  0.41550000  1.0 -0.1914213453
C  C95  1  0.51470000  0.74380000  0.65680000  1.0 -0.1807830983
C  C96  1  0.75100000  0.03400000  0.92580000  1.0 -0.1807830983
C  C97  1  0.27140000  0.92440000  0.38430000  1.0 0.1591712605
C  C98  1  0.49500000  0.81770000  0.68460000  1.0 0.1403409986
C  C99  1  0.69320000  0.06710000  0.89310000  1.0 0.1591712605
C  C100  1  0.09260000  0.83840000  0.46560000  1.0 -0.4883674097
C  C101  1  0.64950000  0.60650000  0.65400000  1.0 -0.4883674097
C  C102  1  0.86200000  0.15140000  0.98180000  1.0 -0.5022453595
C  C103  1  0.34090000  0.98470000  0.35730000  1.0 -0.5122557957
C  C104  1  0.41310000  0.88880000  0.68460000  1.0 -0.5022453595
C  C105  1  0.62640000  0.99230000  0.85760000  1.0 -0.5234355409
C  C106  1  0.19590000  0.05800000  0.42500000  1.0 0.1287882983
C  C107  1  0.44750000  0.72440000  0.61870000  1.0 0.112095398
C  C108  1  0.77320000  0.93190000  0.93650000  1.0 0.1189312247
C  C109  1  0.19390000  0.09220000  0.46490000  1.0 -0.1807830983
C  C110  1  0.33360000  0.68350000  0.62060000  1.0 -0.1585307591
C  C111  1  0.68320000  0.84230000  0.93690000  1.0 -0.1807830983
C  C112  1  0.17210000  0.19320000  0.47160000  1.0 -0.0993523252
C  C113  1  0.26950000  0.65660000  0.58710000  1.0 -0.1101829721
C  C114  1  0.70470000  0.73980000  0.94290000  1.0 -0.1317561161
C  C115  1  0.15910000  0.25920000  0.44200000  1.0 -0.0547432307
C  C116  1  0.31570000  0.66550000  0.55030000  1.0 -0.029608631
C  C117  1  0.80890000  0.72030000  0.94950000  1.0 -0.029608631
C  C118  1  0.16210000  0.22710000  0.40330000  1.0 -0.0894386288
C  C119  1  0.42670000  0.71170000  0.54720000  1.0 -0.0993523252
C  C120  1  0.89300000  0.80920000  0.95050000  1.0 -0.0993523252
C  C121  1  0.18240000  0.12530000  0.39360000  1.0 -0.1807830983
C  C122  1  0.49170000  0.73610000  0.58320000  1.0 -0.1585307591
C  C123  1  0.87680000  0.90660000  0.94310000  1.0 -0.1379625652
C  C124  1  0.14070000  0.36770000  0.44930000  1.0 0.5904801707
C  C125  1  0.23900000  0.63200000  0.51470000  1.0 0.5819639485
C  C126  1  0.82920000  0.61150000  0.95580000  1.0 0.5740651112
C  C127  1  0.44490000  0.59390000  0.41080000  1.0 0.2375174608
C  C128  1  0.54870000  0.65480000  0.81780000  1.0 0.1403409986
C  C129  1  0.49660000  0.36700000  0.92350000  1.0 0.1907182369
C  C130  1  0.52770000  0.63670000  0.38850000  1.0 -0.1914213453
C  C131  1  0.46650000  0.70940000  0.83170000  1.0 -0.0702503688
C  C132  1  0.41750000  0.31930000  0.89800000  1.0 -0.1585307591
C  C133  1  0.48760000  0.70570000  0.36420000  1.0 0.16942355
C  C134  1  0.46570000  0.78870000  0.80440000  1.0 0.0573324091
C  C135  1  0.47150000  0.26740000  0.87230000  1.0 0.1403409986
C  C136  1  0.45180000  0.51830000  0.44670000  1.0 -0.4883674097
C  C137  1  0.58650000  0.56220000  0.83310000  1.0 -0.5022453595
C  C138  1  0.50700000  0.43130000  0.96110000  1.0 -0.4883674097
C  C139  1  0.53260000  0.78140000  0.33280000  1.0 -0.4883674097
C  C140  1  0.39020000  0.86610000  0.80560000  1.0 -0.5122557957
C  C141  1  0.42090000  0.20400000  0.83540000  1.0 -0.4797572333
C  C142  1  0.64620000  0.62030000  0.39440000  1.0 0.1189312247
C  C143  1  0.40940000  0.67860000  0.86640000  1.0 0.0704734906
C  C144  1  0.70500000  0.60170000  0.35870000  1.0 -0.1585307591
C  C145  1  0.81680000  0.59440000  0.36430000  1.0 -0.1101829721
C  C146  1  0.46430000  0.68300000  0.90130000  1.0 -0.0993523252
C  C147  1  0.41780000  0.66330000  0.93070000  1.0 -0.0389764964
C  C148  1  0.86940000  0.59860000  0.40290000  1.0 -0.0894386288
C  C149  1  0.29450000  0.63990000  0.93410000  1.0 0.0704734906
C  C150  1  0.80260000  0.61890000  0.43480000  1.0 -0.0894386288
C  C151  1  0.24500000  0.61390000  0.89980000  1.0 -0.1201703925
C  C152  1  0.69920000  0.63120000  0.42920000  1.0 -0.1379625652
C  C153  1  0.30350000  0.63900000  0.86800000  1.0 -0.1807830983
C  C154  1  0.98310000  0.59030000  0.40900000  1.0 0.5485969108
C  C155  1  0.22470000  0.61210000  0.96990000  1.0 0.4842005889
C  C156  1  0.29780000  0.31930000  0.90090000  1.0 0.1189312247
C  C157  1  0.25190000  0.30820000  0.93710000  1.0 -0.1488773106
C  C158  1  0.14510000  0.32610000  0.94170000  1.0 -0.0993523252
C  C159  1  0.08430000  0.35510000  0.91000000  1.0 -0.0215891045
C  C160  1  0.13020000  0.36620000  0.87380000  1.0 -0.1101829721
C  C161  1  0.23700000  0.34830000  0.86920000  1.0 -0.1488773106
C  C162  1  0.96600000  0.37460000  0.91350000  1.0 0.5347803157
C  C163  1  0.92750000  0.68280000  0.70860000  1.0 0.112095398
C  C164  1  0.96270000  0.61560000  0.68200000  1.0 -0.1317561161
C  C165  1  0.03910000  0.66090000  0.65430000  1.0 -0.0829743424
C  C166  1  0.07770000  0.76320000  0.65350000  1.0 -0.1101829721
C  C167  1  0.04160000  0.82920000  0.67830000  1.0 -0.0993523252
C  C168  1  0.96480000  0.79350000  0.70350000  1.0 -0.1488773106
C  C169  1  0.85140000  0.64180000  0.73750000  1.0 -0.0389764964
C  C170  1  0.81690000  0.60010000  0.76650000  1.0 -0.3252828795
C  C171  1  0.39200000  0.71500000  0.86490000  1.0 0.0704734906
C  C172  1  0.40700000  0.76000000  0.89870000  1.0 -0.0702503688
C  C173  1  0.34500000  0.74600000  0.92600000  1.0 -0.062117523
C  C174  1  0.27300000  0.67900000  0.92810000  1.0 0.0439498942
N  N1  1  0.74250000  0.18430000  0.61550000  1.0 0.0573324091
N  N2  1  0.42730000  0.18720000  0.28810000  1.0 0.0939257216
N  N3  1  0.29700000  0.83270000  0.10670000  1.0 0.1287882983
N  N4  1  0.80760000  0.22640000  0.58530000  1.0 -0.304696836
N  N5  1  0.36030000  0.25910000  0.29330000  1.0 -0.3133286912
N  N6  1  0.23780000  0.79680000  0.07660000  1.0 -0.2240393538
N  N7  1  0.62250000  0.30820000  0.62800000  1.0 0.0548852082
N  N8  1  0.45470000  0.21270000  0.22040000  1.0 0.0775416899
N  N9  1  0.42120000  0.71710000  0.11950000  1.0 0.1189312247
N  N10  1  0.65380000  0.37950000  0.59810000  1.0 -0.3244279701
N  N11  1  0.39570000  0.29490000  0.21330000  1.0 -0.2870189626
N  N12  1  0.39980000  0.65850000  0.08800000  1.0 -0.2559887249
N  N13  1  0.25750000  0.81570000  0.38450000  1.0 0.0573324091
N  N14  1  0.57270000  0.81280000  0.71190000  1.0 0.0939257216
N  N15  1  0.70300000  0.16730000  0.89330000  1.0 0.1189312247
N  N16  1  0.19240000  0.77360000  0.41470000  1.0 -0.304696836
N  N17  1  0.63970000  0.74090000  0.70670000  1.0 -0.3133286912
N  N18  1  0.76220000  0.20320000  0.92340000  1.0 -0.2240393538
N  N19  1  0.37750000  0.69180000  0.37200000  1.0 0.0548852082
N  N20  1  0.54530000  0.78730000  0.77960000  1.0 0.0775416899
N  N21  1  0.57880000  0.28290000  0.88050000  1.0 0.1189312247
N  N22  1  0.34620000  0.62050000  0.40190000  1.0 -0.3244279701
N  N23  1  0.60430000  0.70510000  0.78670000  1.0 -0.2870189626
N  N24  1  0.60020000  0.34150000  0.91200000  1.0 -0.2559887249
O  O1  1  0.90520000  0.61380000  0.51950000  1.0 -0.5738228191
O  O2  1  0.86170000  0.40200000  0.47790000  1.0 -0.5767802078
O  O3  1  0.24200000  0.46110000  0.05690000  1.0 -0.5234355409
O  O4  1  0.81920000  0.56010000  0.57430000  1.0 -0.5525116999
O  O5  1  0.72020000  0.35530000  0.51800000  1.0 -0.5370840509
O  O6  1  0.08030000  0.39130000  0.02760000  1.0 -0.5525116999
O  O7  1  0.95380000  0.41590000  0.61930000  1.0 -0.558727451
O  O8  1  0.86330000  0.43870000  0.03230000  1.0 -0.4529875148
O  O9  1  0.05810000  0.61340000  0.04920000  1.0 -0.6084491689
O  O10  1  0.97580000  0.41590000  0.55530000  1.0 -0.6084491689
O  O11  1  0.71100000  0.35490000  0.99850000  1.0 -0.5738228191
O  O12  1  0.09690000  0.60590000  0.11050000  1.0 -0.4797572333
O  O13  1  0.09480000  0.38620000  0.48050000  1.0 -0.5738228191
O  O14  1  0.13830000  0.59800000  0.52210000  1.0 -0.5767802078
O  O15  1  0.75800000  0.53890000  0.94310000  1.0 -0.5234355409
O  O16  1  0.18080000  0.43990000  0.42570000  1.0 -0.5525116999
O  O17  1  0.27980000  0.64470000  0.48200000  1.0 -0.5370840509
O  O18  1  0.91970000  0.60870000  0.97240000  1.0 -0.5525116999
O  O19  1  0.04620000  0.58410000  0.38070000  1.0 -0.558727451
O  O20  1  0.13670000  0.56130000  0.96770000  1.0 -0.4529875148
O  O21  1  0.94190000  0.38660000  0.95080000  1.0 -0.6084491689
O  O22  1  0.02420000  0.58410000  0.44470000  1.0 -0.6084491689
O  O23  1  0.28900000  0.64510000  0.00150000  1.0 -0.5738228191
O  O24  1  0.90310000  0.39410000  0.88950000  1.0 -0.4797572333
