# DDEC6 charges by PACMAN v1.1 (https://github.com/mtap-research/PACMAN-charge/)
data_EXEMUS_FSR_pacman
_symmetry_space_group_name_H-M   'P 1'
_cell_length_a   7.10200000
_cell_length_b   14.15400000
_cell_length_c   26.31060000
_cell_angle_alpha   90.00000000
_cell_angle_beta   103.06900000
_cell_angle_gamma   90.00000000
_symmetry_Int_Tables_number   1
_chemical_formula_structural   Ni2H12C19N10
_chemical_formula_sum   'Ni8 H48 C76 N40'
_cell_volume   2576.28239490
_cell_formula_units_Z   4
loop_
 _symmetry_equiv_pos_site_id
 _symmetry_equiv_pos_as_xyz
  1  'x, y, z'
loop_
 _atom_site_type_symbol
 _atom_site_label
 _atom_site_symmetry_multiplicity
 _atom_site_fract_x
 _atom_site_fract_y
 _atom_site_fract_z
 _atom_site_occupancy
 _atom_site_charge
Ni  Ni1  1  0.01026000  0.24550000  0.51146000  1.0 0.1318186245
Ni  Ni2  1  0.98974000  0.24550000  0.98854000  1.0 0.1318186245
Ni  Ni3  1  0.98974000  0.75450000  0.48854000  1.0 0.1318186245
Ni  Ni4  1  0.01026000  0.75450000  0.01146000  1.0 0.1318186245
Ni  Ni5  1  0.50000000  0.00000000  0.00000000  1.0 0.7302926158
Ni  Ni6  1  0.50000000  0.00000000  0.50000000  1.0 0.7302926158
Ni  Ni7  1  0.50000000  0.50000000  0.50000000  1.0 0.754454193
Ni  Ni8  1  0.50000000  0.50000000  0.00000000  1.0 0.754454193
H  H1  1  0.55227000  0.19536000  0.05639000  1.0 0.1202051611
H  H2  1  0.63761000  0.25533000  0.14036000  1.0 0.1400800372
H  H3  1  0.66836000  0.99081000  0.19654000  1.0 0.1318186245
H  H4  1  0.58860000  0.93802000  0.10932000  1.0 0.1202051611
H  H5  1  0.82025000  0.28999000  0.30137000  1.0 0.1318186245
H  H6  1  0.89152000  0.33346000  0.38808000  1.0 0.1117254129
H  H7  1  0.93762000  0.06801000  0.43204000  1.0 0.1202051611
H  H8  1  0.85969000  0.02087000  0.34495000  1.0 0.1400800372
H  H9  1  0.24156000  0.49723000  0.57720000  1.0 0.1202051611
H  H10  1  0.25499000  0.50818000  0.66657000  1.0 0.1318186245
H  H11  1  0.83628000  0.55165000  0.69013000  1.0 0.1400800372
H  H12  1  0.80077000  0.54259000  0.59964000  1.0 0.1117254129
H  H13  1  0.44773000  0.19536000  0.44361000  1.0 0.1202051611
H  H14  1  0.36239000  0.25533000  0.35964000  1.0 0.1400800372
H  H15  1  0.33164000  0.99081000  0.30346000  1.0 0.1318186245
H  H16  1  0.41140000  0.93802000  0.39068000  1.0 0.1202051611
H  H17  1  0.17975000  0.28999000  0.19863000  1.0 0.1318186245
H  H18  1  0.10848000  0.33346000  0.11192000  1.0 0.1117254129
H  H19  1  0.06238000  0.06801000  0.06796000  1.0 0.1202051611
H  H20  1  0.14031000  0.02087000  0.15505000  1.0 0.1400800372
H  H21  1  0.75844000  0.49723000  0.92280000  1.0 0.1202051611
H  H22  1  0.74501000  0.50818000  0.83343000  1.0 0.1318186245
H  H23  1  0.16372000  0.55165000  0.80987000  1.0 0.1400800372
H  H24  1  0.19923000  0.54259000  0.90036000  1.0 0.1117254129
H  H25  1  0.44773000  0.80464000  0.94361000  1.0 0.1202051611
H  H26  1  0.36239000  0.74467000  0.85964000  1.0 0.1400800372
H  H27  1  0.33164000  0.00919000  0.80346000  1.0 0.1318186245
H  H28  1  0.41140000  0.06198000  0.89068000  1.0 0.1202051611
H  H29  1  0.17975000  0.71001000  0.69863000  1.0 0.1318186245
H  H30  1  0.10848000  0.66654000  0.61192000  1.0 0.1117254129
H  H31  1  0.06238000  0.93199000  0.56796000  1.0 0.1202051611
H  H32  1  0.14031000  0.97913000  0.65505000  1.0 0.1400800372
H  H33  1  0.75844000  0.50277000  0.42280000  1.0 0.1202051611
H  H34  1  0.74501000  0.49182000  0.33343000  1.0 0.1318186245
H  H35  1  0.16372000  0.44835000  0.30987000  1.0 0.1400800372
H  H36  1  0.19923000  0.45741000  0.40036000  1.0 0.1117254129
H  H37  1  0.55227000  0.80464000  0.55639000  1.0 0.1202051611
H  H38  1  0.63761000  0.74467000  0.64036000  1.0 0.1400800372
H  H39  1  0.66836000  0.00919000  0.69654000  1.0 0.1318186245
H  H40  1  0.58860000  0.06198000  0.60932000  1.0 0.1202051611
H  H41  1  0.82025000  0.71001000  0.80137000  1.0 0.1318186245
H  H42  1  0.89152000  0.66654000  0.88808000  1.0 0.1117254129
H  H43  1  0.93762000  0.93199000  0.93204000  1.0 0.1202051611
H  H44  1  0.85969000  0.97913000  0.84495000  1.0 0.1400800372
H  H45  1  0.24156000  0.50277000  0.07720000  1.0 0.1202051611
H  H46  1  0.25499000  0.49182000  0.16657000  1.0 0.1318186245
H  H47  1  0.83628000  0.44835000  0.19013000  1.0 0.1400800372
H  H48  1  0.80077000  0.45741000  0.09964000  1.0 0.1117254129
C  C1  1  0.57740000  0.15350000  0.08440000  1.0 0.1117254129
C  C2  1  0.62920000  0.19030000  0.13520000  1.0 -0.1999826903
C  C3  1  0.66750000  0.13160000  0.17650000  1.0 0.1868452032
C  C4  1  0.64880000  0.03320000  0.16880000  1.0 -0.2112406964
C  C5  1  0.59790000  0.00260000  0.11590000  1.0 0.0874268388
C  C6  1  0.81890000  0.15040000  0.31590000  1.0 0.169800659
C  C7  1  0.83850000  0.24450000  0.32750000  1.0 -0.1890705346
C  C8  1  0.88760000  0.26960000  0.37960000  1.0 0.0687549735
C  C9  1  0.91390000  0.11350000  0.40590000  1.0 0.0982562782
C  C10  1  0.86250000  0.08470000  0.35350000  1.0 -0.1776631462
C  C11  1  0.36020000  0.50750000  0.60020000  1.0 0.0687549735
C  C12  1  0.36700000  0.51380000  0.65400000  1.0 -0.2112406964
C  C13  1  0.55230000  0.52910000  0.68930000  1.0 0.2182361608
C  C14  1  0.71550000  0.54030000  0.66850000  1.0 -0.2292540881
C  C15  1  0.69230000  0.53390000  0.61330000  1.0 0.1202051611
C  C16  1  0.83310000  0.15700000  0.52110000  1.0 0.0687549735
C  C17  1  0.20060000  0.15380000  0.52260000  1.0 0.059786623
C  C18  1  0.83120000  0.34260000  0.51120000  1.0 0.059786623
C  C19  1  0.19460000  0.33260000  0.50360000  1.0 0.059786623
C  C20  1  0.42260000  0.15350000  0.41560000  1.0 0.1117254129
C  C21  1  0.37080000  0.19030000  0.36480000  1.0 -0.1999826903
C  C22  1  0.33250000  0.13160000  0.32350000  1.0 0.1868452032
C  C23  1  0.35120000  0.03320000  0.33120000  1.0 -0.2112406964
C  C24  1  0.40210000  0.00260000  0.38410000  1.0 0.0874268388
C  C25  1  0.18110000  0.15040000  0.18410000  1.0 0.169800659
C  C26  1  0.16150000  0.24450000  0.17250000  1.0 -0.1890705346
C  C27  1  0.11240000  0.26960000  0.12040000  1.0 0.0687549735
C  C28  1  0.08610000  0.11350000  0.09410000  1.0 0.0982562782
C  C29  1  0.13750000  0.08470000  0.14650000  1.0 -0.1776631462
C  C30  1  0.63980000  0.50750000  0.89980000  1.0 0.0687549735
C  C31  1  0.63300000  0.51380000  0.84600000  1.0 -0.2112406964
C  C32  1  0.44770000  0.52910000  0.81070000  1.0 0.2182361608
C  C33  1  0.28450000  0.54030000  0.83150000  1.0 -0.2292540881
C  C34  1  0.30770000  0.53390000  0.88670000  1.0 0.1202051611
C  C35  1  0.16690000  0.15700000  0.97890000  1.0 0.0687549735
C  C36  1  0.79940000  0.15380000  0.97740000  1.0 0.059786623
C  C37  1  0.16880000  0.34260000  0.98880000  1.0 0.059786623
C  C38  1  0.80540000  0.33260000  0.99640000  1.0 0.059786623
C  C39  1  0.42260000  0.84650000  0.91560000  1.0 0.1117254129
C  C40  1  0.37080000  0.80970000  0.86480000  1.0 -0.1999826903
C  C41  1  0.33250000  0.86840000  0.82350000  1.0 0.1868452032
C  C42  1  0.35120000  0.96680000  0.83120000  1.0 -0.2112406964
C  C43  1  0.40210000  0.99740000  0.88410000  1.0 0.0874268388
C  C44  1  0.18110000  0.84960000  0.68410000  1.0 0.169800659
C  C45  1  0.16150000  0.75550000  0.67250000  1.0 -0.1890705346
C  C46  1  0.11240000  0.73040000  0.62040000  1.0 0.0687549735
C  C47  1  0.08610000  0.88650000  0.59410000  1.0 0.0982562782
C  C48  1  0.13750000  0.91530000  0.64650000  1.0 -0.1776631462
C  C49  1  0.63980000  0.49250000  0.39980000  1.0 0.0687549735
C  C50  1  0.63300000  0.48620000  0.34600000  1.0 -0.2112406964
C  C51  1  0.44770000  0.47090000  0.31070000  1.0 0.2182361608
C  C52  1  0.28450000  0.45970000  0.33150000  1.0 -0.2292540881
C  C53  1  0.30770000  0.46610000  0.38670000  1.0 0.1202051611
C  C54  1  0.16690000  0.84300000  0.47890000  1.0 0.0687549735
C  C55  1  0.79940000  0.84620000  0.47740000  1.0 0.059786623
C  C56  1  0.16880000  0.65740000  0.48880000  1.0 0.059786623
C  C57  1  0.80540000  0.66740000  0.49640000  1.0 0.059786623
C  C58  1  0.57740000  0.84650000  0.58440000  1.0 0.1117254129
C  C59  1  0.62920000  0.80970000  0.63520000  1.0 -0.1999826903
C  C60  1  0.66750000  0.86840000  0.67650000  1.0 0.1868452032
C  C61  1  0.64880000  0.96680000  0.66880000  1.0 -0.2112406964
C  C62  1  0.59790000  0.99740000  0.61590000  1.0 0.0874268388
C  C63  1  0.81890000  0.84960000  0.81590000  1.0 0.169800659
C  C64  1  0.83850000  0.75550000  0.82750000  1.0 -0.1890705346
C  C65  1  0.88760000  0.73040000  0.87960000  1.0 0.0687549735
C  C66  1  0.91390000  0.88650000  0.90590000  1.0 0.0982562782
C  C67  1  0.86250000  0.91530000  0.85350000  1.0 -0.1776631462
C  C68  1  0.36020000  0.49250000  0.10020000  1.0 0.0687549735
C  C69  1  0.36700000  0.48620000  0.15400000  1.0 -0.2112406964
C  C70  1  0.55230000  0.47090000  0.18930000  1.0 0.2182361608
C  C71  1  0.71550000  0.45970000  0.16850000  1.0 -0.2292540881
C  C72  1  0.69230000  0.46610000  0.11330000  1.0 0.1202051611
C  C73  1  0.83310000  0.84300000  0.02110000  1.0 0.0687549735
C  C74  1  0.20060000  0.84620000  0.02260000  1.0 0.059786623
C  C75  1  0.83120000  0.65740000  0.01120000  1.0 0.059786623
C  C76  1  0.19460000  0.66740000  0.00360000  1.0 0.059786623
N  N1  1  0.56370000  0.06220000  0.07470000  1.0 -0.2112406964
N  N2  1  0.72330000  0.17340000  0.22830000  1.0 -0.1250828082
N  N3  1  0.76690000  0.11030000  0.26290000  1.0 -0.1092833865
N  N4  1  0.92810000  0.20590000  0.41910000  1.0 -0.1999826903
N  N5  1  0.52550000  0.51630000  0.58050000  1.0 -0.2112406964
N  N6  1  0.58290000  0.53220000  0.74290000  1.0 -0.1890705346
N  N7  1  0.71890000  0.09750000  0.52290000  1.0 -0.3898795272
N  N8  1  0.31020000  0.09230000  0.52220000  1.0 -0.3823949422
N  N9  1  0.72070000  0.40380000  0.51170000  1.0 -0.3678264271
N  N10  1  0.30080000  0.39270000  0.49780000  1.0 -0.3678264271
N  N11  1  0.43630000  0.06220000  0.42530000  1.0 -0.2112406964
N  N12  1  0.27670000  0.17340000  0.27170000  1.0 -0.1250828082
N  N13  1  0.23310000  0.11030000  0.23710000  1.0 -0.1092833865
N  N14  1  0.07190000  0.20590000  0.08090000  1.0 -0.1999826903
N  N15  1  0.47450000  0.51630000  0.91950000  1.0 -0.2112406964
N  N16  1  0.41710000  0.53220000  0.75710000  1.0 -0.1890705346
N  N17  1  0.28110000  0.09750000  0.97710000  1.0 -0.3898795272
N  N18  1  0.68980000  0.09230000  0.97780000  1.0 -0.3823949422
N  N19  1  0.27930000  0.40380000  0.98830000  1.0 -0.3678264271
N  N20  1  0.69920000  0.39270000  0.00220000  1.0 -0.3678264271
N  N21  1  0.43630000  0.93780000  0.92530000  1.0 -0.2112406964
N  N22  1  0.27670000  0.82660000  0.77170000  1.0 -0.1250828082
N  N23  1  0.23310000  0.88970000  0.73710000  1.0 -0.1092833865
N  N24  1  0.07190000  0.79410000  0.58090000  1.0 -0.1999826903
N  N25  1  0.47450000  0.48370000  0.41950000  1.0 -0.2112406964
N  N26  1  0.41710000  0.46780000  0.25710000  1.0 -0.1890705346
N  N27  1  0.28110000  0.90250000  0.47710000  1.0 -0.3898795272
N  N28  1  0.68980000  0.90770000  0.47780000  1.0 -0.3823949422
N  N29  1  0.27930000  0.59620000  0.48830000  1.0 -0.3678264271
N  N30  1  0.69920000  0.60730000  0.50220000  1.0 -0.3678264271
N  N31  1  0.56370000  0.93780000  0.57470000  1.0 -0.2112406964
N  N32  1  0.72330000  0.82660000  0.72830000  1.0 -0.1250828082
N  N33  1  0.76690000  0.88970000  0.76290000  1.0 -0.1092833865
N  N34  1  0.92810000  0.79410000  0.91910000  1.0 -0.1999826903
N  N35  1  0.52550000  0.48370000  0.08050000  1.0 -0.2112406964
N  N36  1  0.58290000  0.46780000  0.24290000  1.0 -0.1890705346
N  N37  1  0.71890000  0.90250000  0.02290000  1.0 -0.3898795272
N  N38  1  0.31020000  0.90770000  0.02220000  1.0 -0.3823949422
N  N39  1  0.72070000  0.59620000  0.01170000  1.0 -0.3678264271
N  N40  1  0.30080000  0.60730000  0.99780000  1.0 -0.3678264271
