# DDEC6 charges by PACMAN v1.1 (https://github.com/mtap-research/PACMAN-charge/)
data_EXIDEV_ASR_pacman
_symmetry_space_group_name_H-M   'P 1'
_cell_length_a   10.19770000
_cell_length_b   9.39250000
_cell_length_c   24.46160000
_cell_angle_alpha   90.00000000
_cell_angle_beta   91.92600000
_cell_angle_gamma   90.00000000
_symmetry_Int_Tables_number   1
_chemical_formula_structural   Co2H31C41N4O17
_chemical_formula_sum   'Co4 H62 C82 N8 O34'
_cell_volume   2341.65483355
_cell_formula_units_Z   2
loop_
 _symmetry_equiv_pos_site_id
 _symmetry_equiv_pos_as_xyz
  1  'x, y, z'
loop_
 _atom_site_type_symbol
 _atom_site_label
 _atom_site_symmetry_multiplicity
 _atom_site_fract_x
 _atom_site_fract_y
 _atom_site_fract_z
 _atom_site_occupancy
 _atom_site_charge
Co  Co1  1  0.25140000  0.65741000  0.12680000  1.0 0.5939683304
Co  Co2  1  0.25140000  0.34259000  0.62680000  1.0 0.5939683304
Co  Co3  1  0.74930000  0.00130000  0.37750000  1.0 0.7907907054
Co  Co4  1  0.74930000  0.99870000  0.87750000  1.0 0.7907907054
H  H1  1  0.15150000  0.89880000  0.06240000  1.0 0.1013434116
H  H2  1  0.15150000  0.10120000  0.56240000  1.0 0.1013434116
H  H3  1  0.01850000  0.10770000  0.07030000  1.0 0.1583636724
H  H4  1  0.01850000  0.89230000  0.57030000  1.0 0.1583636724
H  H5  1  0.87010000  0.92340000  0.19800000  1.0 0.1583636724
H  H6  1  0.87010000  0.07660000  0.69800000  1.0 0.1583636724
H  H7  1  0.01900000  0.74160000  0.19220000  1.0 0.1013434116
H  H8  1  0.01900000  0.25840000  0.69220000  1.0 0.1013434116
H  H9  1  0.95030000  0.33650000  0.11330000  1.0 0.1116250665
H  H10  1  0.95030000  0.66350000  0.61330000  1.0 0.1116250665
H  H11  1  0.86540000  0.23370000  0.07500000  1.0 0.1116250665
H  H12  1  0.86540000  0.76630000  0.57500000  1.0 0.1116250665
H  H13  1  0.66880000  0.22520000  0.17600000  1.0 0.1116250665
H  H14  1  0.66880000  0.77480000  0.67600000  1.0 0.1116250665
H  H15  1  0.56350000  0.32590000  0.14830000  1.0 0.1116250665
H  H16  1  0.56350000  0.67410000  0.64830000  1.0 0.1116250665
H  H17  1  0.57780000  0.96510000  0.03730000  1.0 0.1583636724
H  H18  1  0.57780000  0.03490000  0.53730000  1.0 0.1583636724
H  H19  1  0.46470000  0.76260000  0.05630000  1.0 0.1013434116
H  H20  1  0.46470000  0.23740000  0.55630000  1.0 0.1013434116
H  H21  1  0.33020000  0.92380000  0.18780000  1.0 0.1116250665
H  H22  1  0.33020000  0.07620000  0.68780000  1.0 0.1116250665
H  H23  1  0.44130000  0.11790000  0.17940000  1.0 0.1583636724
H  H24  1  0.44130000  0.88210000  0.67940000  1.0 0.1583636724
H  H25  1  0.86780000  0.50320000  0.16370000  1.0 0.1013434116
H  H26  1  0.86780000  0.49680000  0.66370000  1.0 0.1013434116
H  H27  1  0.82320000  0.38470000  0.20490000  1.0 0.1116250665
H  H28  1  0.82320000  0.61530000  0.70490000  1.0 0.1116250665
H  H29  1  0.89790000  0.60000000  0.24780000  1.0 0.1427700952
H  H30  1  0.89790000  0.40000000  0.74780000  1.0 0.1427700952
H  H31  1  0.89800000  0.76520000  0.32960000  1.0 0.1116250665
H  H32  1  0.89800000  0.23480000  0.82960000  1.0 0.1116250665
H  H33  1  0.56600000  0.90360000  0.27900000  1.0 0.1116250665
H  H34  1  0.56600000  0.09640000  0.77900000  1.0 0.1116250665
H  H35  1  0.52150000  0.71590000  0.22640000  1.0 0.1427700952
H  H36  1  0.52150000  0.28410000  0.72640000  1.0 0.1427700952
H  H37  1  0.64000000  0.53220000  0.08710000  1.0 0.1013434116
H  H38  1  0.64000000  0.46780000  0.58710000  1.0 0.1013434116
H  H39  1  0.67190000  0.40800000  0.04710000  1.0 0.1116250665
H  H40  1  0.67190000  0.59200000  0.54710000  1.0 0.1116250665
H  H41  1  0.98260000  0.68020000  0.01830000  1.0 0.1427700952
H  H42  1  0.98260000  0.31980000  0.51830000  1.0 0.1427700952
H  H43  1  0.96130000  0.85110000  0.94880000  1.0 0.1116250665
H  H44  1  0.96130000  0.14890000  0.44880000  1.0 0.1116250665
H  H45  1  0.58400000  0.77230000  0.94230000  1.0 0.1303964566
H  H46  1  0.58400000  0.22770000  0.44230000  1.0 0.1303964566
H  H47  1  0.60610000  0.59060000  0.99320000  1.0 0.1492232517
H  H48  1  0.60610000  0.40940000  0.49320000  1.0 0.1492232517
H  H49  1  0.45590000  0.40240000  0.25210000  1.0 0.1303964566
H  H50  1  0.45590000  0.59760000  0.75210000  1.0 0.1303964566
H  H51  1  0.34800000  0.04180000  0.32670000  1.0 0.1427700952
H  H52  1  0.34800000  0.95820000  0.82670000  1.0 0.1427700952
H  H53  1  0.08810000  0.25450000  0.23030000  1.0 0.1492232517
H  H54  1  0.08810000  0.74550000  0.73030000  1.0 0.1492232517
H  H55  1  0.13690000  0.02690000  0.93510000  1.0 0.1196424959
H  H56  1  0.13690000  0.97310000  0.43510000  1.0 0.1196424959
H  H57  1  0.41680000  0.25630000  0.01400000  1.0 0.1196424959
H  H58  1  0.41680000  0.74370000  0.51400000  1.0 0.1196424959
H  H59  1  0.04790000  0.40570000  0.00060000  1.0 0.1116250665
H  H60  1  0.04790000  0.59430000  0.50060000  1.0 0.1116250665
H  H61  1  0.14310000  0.96410000  0.30840000  1.0 0.3476598397
H  H62  1  0.14310000  0.03590000  0.80840000  1.0 0.3476598397
C  C1  1  0.09900000  0.90900000  0.09240000  1.0 0.1013434116
C  C2  1  0.09900000  0.09100000  0.59240000  1.0 0.1013434116
C  C3  1  0.02400000  0.03900000  0.09780000  1.0 -0.2709403251
C  C4  1  0.02400000  0.96100000  0.59780000  1.0 -0.2709403251
C  C5  1  0.96200000  0.05400000  0.14490000  1.0 0.3010741458
C  C6  1  0.96200000  0.94600000  0.64490000  1.0 0.3010741458
C  C7  1  0.93910000  0.92890000  0.17420000  1.0 -0.291698944
C  C8  1  0.93910000  0.07110000  0.67420000  1.0 -0.2788453712
C  C9  1  0.02000000  0.81600000  0.16700000  1.0 0.1013434116
C  C10  1  0.02000000  0.18400000  0.66700000  1.0 0.1013434116
C  C11  1  0.87400000  0.27500000  0.11130000  1.0 -0.1113283214
C  C12  1  0.87400000  0.72500000  0.61130000  1.0 -0.1113283214
C  C13  1  0.73700000  0.36170000  0.12840000  1.0 0.0700094686
C  C14  1  0.73700000  0.63830000  0.62840000  1.0 0.0700094686
C  C15  1  0.64290000  0.27200000  0.14210000  1.0 -0.0646333113
C  C16  1  0.64290000  0.72800000  0.64210000  1.0 -0.0646333113
C  C17  1  0.54900000  0.05500000  0.11550000  1.0 0.3234500275
C  C18  1  0.54900000  0.94500000  0.61550000  1.0 0.3234500275
C  C19  1  0.53700000  0.95300000  0.07050000  1.0 -0.2235465362
C  C20  1  0.53700000  0.04700000  0.57050000  1.0 -0.2235465362
C  C21  1  0.46100000  0.83600000  0.08160000  1.0 0.0308839925
C  C22  1  0.46100000  0.16400000  0.58160000  1.0 0.0308839925
C  C23  1  0.38500000  0.92800000  0.15820000  1.0 0.0499348962
C  C24  1  0.38500000  0.07200000  0.65820000  1.0 0.0499348962
C  C25  1  0.45400000  0.04300000  0.15520000  1.0 -0.258207859
C  C26  1  0.45400000  0.95700000  0.65520000  1.0 -0.258207859
C  C27  1  0.79400000  0.44600000  0.17510000  1.0 -0.0915780529
C  C28  1  0.79400000  0.55400000  0.67510000  1.0 -0.0915780529
C  C29  1  0.70700000  0.63100000  0.23310000  1.0 0.2845329032
C  C30  1  0.70700000  0.36900000  0.73310000  1.0 0.2845329032
C  C31  1  0.82300000  0.64900000  0.25800000  1.0 -0.291698944
C  C32  1  0.82300000  0.35100000  0.75800000  1.0 -0.291698944
C  C33  1  0.82300000  0.76100000  0.30690000  1.0 0.1303964566
C  C34  1  0.82300000  0.23900000  0.80690000  1.0 0.1303964566
C  C35  1  0.62690000  0.83000000  0.27940000  1.0 0.0118243098
C  C36  1  0.62690000  0.17000000  0.77940000  1.0 0.0118243098
C  C37  1  0.60300000  0.72600000  0.24380000  1.0 -0.2302653718
C  C38  1  0.60300000  0.27400000  0.74380000  1.0 -0.2302653718
C  C39  1  0.70700000  0.46500000  0.07730000  1.0 -0.0450281738
C  C40  1  0.70700000  0.53500000  0.57730000  1.0 -0.0450281738
C  C41  1  0.79500000  0.63700000  0.02110000  1.0 0.2845329032
C  C42  1  0.79500000  0.36300000  0.52110000  1.0 0.2845329032
C  C43  1  0.90000000  0.70300000  0.00340000  1.0 -0.2709403251
C  C44  1  0.90000000  0.29700000  0.50340000  1.0 -0.2709403251
C  C45  1  0.88810000  0.80590000  0.96240000  1.0 0.0868594073
C  C46  1  0.88810000  0.19410000  0.46240000  1.0 0.0868594073
C  C47  1  0.66690000  0.75400000  0.95770000  1.0 0.1196424959
C  C48  1  0.66690000  0.24600000  0.45770000  1.0 0.1196424959
C  C49  1  0.67500000  0.65400000  0.98960000  1.0 -0.2709403251
C  C50  1  0.67500000  0.34600000  0.48960000  1.0 -0.2709403251
C  C51  1  0.24100000  0.49400000  0.20200000  1.0 0.4516623453
C  C52  1  0.24100000  0.50600000  0.70200000  1.0 0.4516623453
C  C53  1  0.26700000  0.34740000  0.23550000  1.0 0.0156532651
C  C54  1  0.26700000  0.65260000  0.73550000  1.0 0.0156532651
C  C55  1  0.39230000  0.33450000  0.25910000  1.0 -0.1705426886
C  C56  1  0.39230000  0.66550000  0.75910000  1.0 -0.1705426886
C  C57  1  0.42270000  0.22000000  0.29330000  1.0 0.0308839925
C  C58  1  0.42270000  0.78000000  0.79330000  1.0 0.0308839925
C  C59  1  0.32770000  0.11840000  0.30380000  1.0 -0.2788453712
C  C60  1  0.32770000  0.88160000  0.80380000  1.0 -0.2788453712
C  C61  1  0.20230000  0.13130000  0.28030000  1.0 0.2900464521
C  C62  1  0.20230000  0.86870000  0.78030000  1.0 0.2900464521
C  C63  1  0.17190000  0.24580000  0.24610000  1.0 -0.2302653718
C  C64  1  0.17190000  0.75420000  0.74610000  1.0 -0.2302653718
C  C65  1  0.56700000  0.17700000  0.31290000  1.0 0.5249475823
C  C66  1  0.56700000  0.82300000  0.81290000  1.0 0.5249475823
C  C67  1  0.94000000  0.20000000  0.94290000  1.0 0.5534690902
C  C68  1  0.94000000  0.80000000  0.44290000  1.0 0.5534690902
C  C69  1  0.07090000  0.21360000  0.96480000  1.0 -0.0805928125
C  C70  1  0.07090000  0.78640000  0.46480000  1.0 -0.0805928125
C  C71  1  0.16240000  0.10810000  0.95440000  1.0 -0.212944658
C  C72  1  0.16240000  0.89190000  0.45440000  1.0 -0.212944658
C  C73  1  0.29200000  0.12410000  0.97280000  1.0 0.3257458196
C  C74  1  0.29200000  0.87590000  0.47280000  1.0 0.3257458196
C  C75  1  0.33010000  0.24560000  0.00170000  1.0 -0.1932610437
C  C76  1  0.33010000  0.75440000  0.50170000  1.0 -0.1932610437
C  C77  1  0.23860000  0.35110000  0.01210000  1.0 -0.1520232572
C  C78  1  0.23860000  0.64890000  0.51210000  1.0 -0.1520232572
C  C79  1  0.10910000  0.33510000  0.99360000  1.0 -0.1307239845
C  C80  1  0.10910000  0.66490000  0.49360000  1.0 -0.1307239845
C  C81  1  0.27770000  0.46430000  0.04830000  1.0 0.3733643279
C  C82  1  0.27770000  0.53570000  0.54830000  1.0 0.3733643279
N  N1  1  0.09470000  0.80710000  0.12810000  1.0 -0.258207859
N  N2  1  0.09470000  0.19290000  0.62810000  1.0 -0.258207859
N  N3  1  0.38120000  0.81310000  0.12430000  1.0 -0.3695556238
N  N4  1  0.38120000  0.18690000  0.62430000  1.0 -0.3695556238
N  N5  1  0.73050000  0.84300000  0.31710000  1.0 -0.2302653718
N  N6  1  0.73050000  0.15700000  0.81710000  1.0 -0.236035706
N  N7  1  0.76150000  0.83800000  0.94290000  1.0 -0.258207859
N  N8  1  0.76150000  0.16200000  0.44290000  1.0 -0.258207859
O  O1  1  0.88050000  0.16260000  0.15470000  1.0 -0.1705426886
O  O2  1  0.88050000  0.83740000  0.65470000  1.0 -0.1705426886
O  O3  1  0.61700000  0.17180000  0.10290000  1.0 -0.11716699
O  O4  1  0.61700000  0.82820000  0.60290000  1.0 -0.11716699
O  O5  1  0.68480000  0.53650000  0.19100000  1.0 -0.1831469401
O  O6  1  0.68480000  0.46350000  0.69100000  1.0 -0.1831469401
O  O7  1  0.81430000  0.53970000  0.05950000  1.0 -0.1113283214
O  O8  1  0.81430000  0.46030000  0.55950000  1.0 -0.1113283214
O  O9  1  0.30700000  0.58000000  0.20220000  1.0 -0.0369263008
O  O10  1  0.30700000  0.42000000  0.70220000  1.0 -0.0369263008
O  O11  1  0.13450000  0.46810000  0.16850000  1.0 -0.6171997502
O  O12  1  0.13450000  0.53190000  0.66850000  1.0 -0.6171997502
O  O13  1  0.11040000  0.02600000  0.28880000  1.0 -0.4428850725
O  O14  1  0.11040000  0.97400000  0.78880000  1.0 -0.4428850725
O  O15  1  0.58260000  0.09280000  0.34670000  1.0 -0.4428850725
O  O16  1  0.58260000  0.90720000  0.84670000  1.0 -0.4428850725
O  O17  1  0.64210000  0.30090000  0.30520000  1.0 -0.6171997502
O  O18  1  0.64210000  0.69910000  0.80520000  1.0 -0.6171997502
O  O19  1  0.91450000  0.09820000  0.90860000  1.0 -0.5865171864
O  O20  1  0.91450000  0.90180000  0.40860000  1.0 -0.5865171864
O  O21  1  0.84370000  0.24350000  0.97160000  1.0 -0.5789920702
O  O22  1  0.84370000  0.75650000  0.47160000  1.0 -0.5789920702
O  O23  1  0.38470000  0.02500000  0.96360000  1.0 -0.5699541583
O  O24  1  0.38470000  0.97500000  0.46360000  1.0 -0.5699541583
O  O25  1  0.39500000  0.47700000  0.06780000  1.0 -0.2302653718
O  O26  1  0.39500000  0.52300000  0.56780000  1.0 -0.2302653718
O  O27  1  0.21900000  0.59500000  0.04800000  1.0 0.0499348962
O  O28  1  0.21900000  0.40500000  0.54800000  1.0 0.0499348962
O  O29  1  0.36300000  0.43600000  0.53800000  1.0 0.0756398797
O  O30  1  0.36300000  0.56400000  0.03800000  1.0 0.0756398797
O  O31  1  0.18600000  0.45700000  0.56390000  1.0 -0.1113283214
O  O32  1  0.18600000  0.54300000  0.06390000  1.0 -0.1113283214
O  O33  1  0.36100000  0.49600000  0.16700000  1.0 -0.258207859
O  O34  1  0.36100000  0.50400000  0.66700000  1.0 -0.258207859
