# DDEC6 charges by PACMAN v1.1 (https://github.com/mtap-research/PACMAN-charge/)
data_EXOZEX_FSR_pacman
_symmetry_space_group_name_H-M   'P 1'
_cell_length_a   13.21370000
_cell_length_b   13.21370000
_cell_length_c   8.91140000
_cell_angle_alpha   87.00450000
_cell_angle_beta   92.99550000
_cell_angle_gamma   128.93900000
_symmetry_Int_Tables_number   1
_chemical_formula_structural   Cu3H28C24(N3O10)2
_chemical_formula_sum   'Cu3 H28 C24 N6 O20'
_cell_volume   1208.20862398
_cell_formula_units_Z   1
loop_
 _symmetry_equiv_pos_site_id
 _symmetry_equiv_pos_as_xyz
  1  'x, y, z'
loop_
 _atom_site_type_symbol
 _atom_site_label
 _atom_site_symmetry_multiplicity
 _atom_site_fract_x
 _atom_site_fract_y
 _atom_site_fract_z
 _atom_site_occupancy
 _atom_site_charge
Cu  Cu1  1  0.00000000  0.00000000  0.00000000  1.0 0.8909304977
Cu  Cu2  1  0.03032000  0.96968000  0.62777000  1.0 0.8302808047
Cu  Cu3  1  0.96968000  0.03032000  0.37223000  1.0 0.8302808047
H  H1  1  0.29240000  0.84540000  0.95070000  1.0 0.1126525591
H  H2  1  0.84540000  0.29240000  0.04930000  1.0 0.1126525591
H  H3  1  0.70760000  0.15460000  0.04930000  1.0 0.1126525591
H  H4  1  0.15460000  0.70760000  0.95070000  1.0 0.1126525591
H  H5  1  0.10490000  0.33830000  0.75580000  1.0 0.15223957
H  H6  1  0.33830000  0.10490000  0.24420000  1.0 0.15223957
H  H7  1  0.89510000  0.66170000  0.24420000  1.0 0.15223957
H  H8  1  0.66170000  0.89510000  0.75580000  1.0 0.15223957
H  H9  1  0.23870000  0.40290000  0.68180000  1.0 0.1436875254
H  H10  1  0.40290000  0.23870000  0.31820000  1.0 0.1436875254
H  H11  1  0.76130000  0.59710000  0.31820000  1.0 0.1436875254
H  H12  1  0.59710000  0.76130000  0.68180000  1.0 0.1436875254
H  H13  1  0.14770000  0.43830000  0.45600000  1.0 0.1126525591
H  H14  1  0.43830000  0.14770000  0.54400000  1.0 0.1126525591
H  H15  1  0.85230000  0.56170000  0.54400000  1.0 0.1126525591
H  H16  1  0.56170000  0.85230000  0.45600000  1.0 0.1126525591
H  H17  1  0.03720000  0.40460000  0.55990000  1.0 0.1126525591
H  H18  1  0.40460000  0.03720000  0.44010000  1.0 0.1126525591
H  H19  1  0.96280000  0.59540000  0.44010000  1.0 0.1126525591
H  H20  1  0.59540000  0.96280000  0.55990000  1.0 0.1126525591
H  H21  1  0.81250000  0.79350000  0.92020000  1.0 0.4144680292
H  H22  1  0.79350000  0.81250000  0.07980000  1.0 0.4144680292
H  H23  1  0.18750000  0.20650000  0.07980000  1.0 0.4144680292
H  H24  1  0.20650000  0.18750000  0.92020000  1.0 0.4144680292
H  H25  1  0.22300000  0.91420000  0.75010000  1.0 0.1436875254
H  H26  1  0.91420000  0.22300000  0.24990000  1.0 0.1436875254
H  H27  1  0.77700000  0.08580000  0.24990000  1.0 0.1436875254
H  H28  1  0.08580000  0.77700000  0.75010000  1.0 0.1436875254
C  C1  1  0.11260000  0.88740000  0.92570000  1.0 0.6418868542
C  C2  1  0.88740000  0.11260000  0.07430000  1.0 0.6418868542
C  C3  1  0.15850000  0.84150000  0.81210000  1.0 -0.3505374252
C  C4  1  0.84150000  0.15850000  0.18790000  1.0 -0.3505374252
C  C5  1  0.21810000  0.78190000  0.88750000  1.0 -0.0372516088
C  C6  1  0.78190000  0.21810000  0.11250000  1.0 -0.0372516088
C  C7  1  0.09080000  0.22420000  0.59360000  1.0 0.650133738
C  C8  1  0.22420000  0.09080000  0.40640000  1.0 0.650133738
C  C9  1  0.90920000  0.77580000  0.40640000  1.0 0.650133738
C  C10  1  0.77580000  0.90920000  0.59360000  1.0 0.650133738
C  C11  1  0.14640000  0.35480000  0.66090000  1.0 -0.3337936833
C  C12  1  0.35480000  0.14640000  0.33910000  1.0 -0.3337936833
C  C13  1  0.85360000  0.64520000  0.33910000  1.0 -0.3337936833
C  C14  1  0.64520000  0.85360000  0.66090000  1.0 -0.3337936833
C  C15  1  0.12730000  0.43970000  0.55860000  1.0 -0.03498943
C  C16  1  0.43970000  0.12730000  0.44140000  1.0 -0.03498943
C  C17  1  0.87270000  0.56030000  0.44140000  1.0 -0.03498943
C  C18  1  0.56030000  0.87270000  0.55860000  1.0 -0.0372516088
C  C19  1  0.34190000  0.65810000  0.55920000  1.0 0.5416637898
C  C20  1  0.65810000  0.34190000  0.44080000  1.0 0.5416637898
C  C21  1  0.17120000  0.61260000  0.71830000  1.0 0.5416637898
C  C22  1  0.61260000  0.17120000  0.28170000  1.0 0.5416637898
C  C23  1  0.82880000  0.38740000  0.28170000  1.0 0.5416637898
C  C24  1  0.38740000  0.82880000  0.71830000  1.0 0.5416637898
N  N1  1  0.26090000  0.73910000  0.76960000  1.0 -0.2421396484
N  N2  1  0.73910000  0.26090000  0.23040000  1.0 -0.2421396484
N  N3  1  0.21360000  0.57660000  0.61110000  1.0 -0.2421396484
N  N4  1  0.57660000  0.21360000  0.38890000  1.0 -0.2421396484
N  N5  1  0.78640000  0.42340000  0.38890000  1.0 -0.2421396484
N  N6  1  0.42340000  0.78640000  0.61110000  1.0 -0.2421396484
O  O1  1  0.09760000  0.14740000  0.67740000  1.0 -0.5760745764
O  O2  1  0.14740000  0.09760000  0.32260000  1.0 -0.5760745764
O  O3  1  0.90240000  0.85260000  0.32260000  1.0 -0.5760745764
O  O4  1  0.85260000  0.90240000  0.67740000  1.0 -0.5760745764
O  O5  1  0.04607000  0.20093000  0.46100000  1.0 -0.5143597185
O  O6  1  0.20093000  0.04607000  0.53900000  1.0 -0.5143597185
O  O7  1  0.95393000  0.79907000  0.53900000  1.0 -0.5143597185
O  O8  1  0.79907000  0.95393000  0.46100000  1.0 -0.5143597185
O  O9  1  0.06150000  0.93850000  0.86290000  1.0 -0.6359302759
O  O10  1  0.93850000  0.06150000  0.13710000  1.0 -0.6346984267
O  O11  1  0.12270000  0.87730000  0.06340000  1.0 -0.5402593374
O  O12  1  0.87730000  0.12270000  0.93660000  1.0 -0.5402593374
O  O13  1  0.82760000  0.82760000  0.00000000  1.0 -0.6043404698
O  O14  1  0.17240000  0.17240000  0.00000000  1.0 -0.6060383677
O  O15  1  0.38020000  0.61980000  0.47170000  1.0 -0.4766102343
O  O16  1  0.61980000  0.38020000  0.52830000  1.0 -0.4766102343
O  O17  1  0.05930000  0.53710000  0.76370000  1.0 -0.4679125905
O  O18  1  0.53710000  0.05930000  0.23630000  1.0 -0.4679125905
O  O19  1  0.94070000  0.46290000  0.23630000  1.0 -0.4679125905
O  O20  1  0.46290000  0.94070000  0.76370000  1.0 -0.4679125905
