# DDEC6 charges by PACMAN v1.1 (https://github.com/mtap-research/PACMAN-charge/)
data_EXOZIB_ASR_pacman
_symmetry_space_group_name_H-M   'P 1'
_cell_length_a   13.19490000
_cell_length_b   13.19490000
_cell_length_c   12.62600000
_cell_angle_alpha   76.51790000
_cell_angle_beta   103.48200000
_cell_angle_gamma   127.32000000
_symmetry_Int_Tables_number   1
_chemical_formula_structural   CuH8C8(NO3)2
_chemical_formula_sum   'Cu3 H24 C24 N6 O18'
_cell_volume   1687.99474025
_cell_formula_units_Z   3
loop_
 _symmetry_equiv_pos_site_id
 _symmetry_equiv_pos_as_xyz
  1  'x, y, z'
loop_
 _atom_site_type_symbol
 _atom_site_label
 _atom_site_symmetry_multiplicity
 _atom_site_fract_x
 _atom_site_fract_y
 _atom_site_fract_z
 _atom_site_occupancy
 _atom_site_charge
Cu  Cu1  1  0.98647000  0.01353000  0.09456000  1.0 0.8403709389
Cu  Cu2  1  0.01353000  0.98647000  0.90544000  1.0 0.8403709389
Cu  Cu3  1  0.00000000  0.00000000  0.50000000  1.0 0.9286944725
H  H1  1  0.79850000  0.06750000  0.15690000  1.0 0.1491258152
H  H2  1  0.06750000  0.79850000  0.84310000  1.0 0.1491258152
H  H3  1  0.20150000  0.93250000  0.84310000  1.0 0.1491258152
H  H4  1  0.93250000  0.20150000  0.15690000  1.0 0.1491258152
H  H5  1  0.88750000  0.24650000  0.30150000  1.0 0.0941449784
H  H6  1  0.24650000  0.88750000  0.69850000  1.0 0.0941449784
H  H7  1  0.11250000  0.75350000  0.69850000  1.0 0.0941449784
H  H8  1  0.75350000  0.11250000  0.30150000  1.0 0.0941449784
H  H9  1  0.42500000  0.17660000  0.95620000  1.0 0.1134174846
H  H10  1  0.17660000  0.42500000  0.04380000  1.0 0.1134174846
H  H11  1  0.57500000  0.82340000  0.04380000  1.0 0.1134174846
H  H12  1  0.82340000  0.57500000  0.95620000  1.0 0.1134174846
H  H13  1  0.41240000  0.05420000  0.02410000  1.0 0.1134174846
H  H14  1  0.05420000  0.41240000  0.97590000  1.0 0.1134174846
H  H15  1  0.58760000  0.94580000  0.97590000  1.0 0.1134174846
H  H16  1  0.94580000  0.58760000  0.02410000  1.0 0.1134174846
H  H17  1  0.37590000  0.08830000  0.17640000  1.0 0.1448203109
H  H18  1  0.08830000  0.37590000  0.82360000  1.0 0.1448203109
H  H19  1  0.62410000  0.91170000  0.82360000  1.0 0.1448203109
H  H20  1  0.91170000  0.62410000  0.17640000  1.0 0.1448203109
H  H21  1  0.41190000  0.22410000  0.12300000  1.0 0.1491258152
H  H22  1  0.22410000  0.41190000  0.87700000  1.0 0.1491258152
H  H23  1  0.58810000  0.77590000  0.87700000  1.0 0.1491258152
H  H24  1  0.77590000  0.58810000  0.12300000  1.0 0.1491258152
C  C1  1  0.92700000  0.07300000  0.28670000  1.0 0.6908533133
C  C2  1  0.07300000  0.92700000  0.71330000  1.0 0.6908533133
C  C3  1  0.86830000  0.13170000  0.20330000  1.0 -0.3610619746
C  C4  1  0.13170000  0.86830000  0.79670000  1.0 -0.3610619746
C  C5  1  0.81810000  0.18190000  0.25540000  1.0 -0.0322463486
C  C6  1  0.18190000  0.81810000  0.74460000  1.0 -0.0322463486
C  C7  1  0.63149000  0.15931000  0.13640000  1.0 0.5393619395
C  C8  1  0.15931000  0.63149000  0.86360000  1.0 0.5393619395
C  C9  1  0.36851000  0.84069000  0.86360000  1.0 0.5393619395
C  C10  1  0.84069000  0.36851000  0.13640000  1.0 0.5393619395
C  C11  1  0.65140000  0.34860000  0.02910000  1.0 0.5313740231
C  C12  1  0.34860000  0.65140000  0.97090000  1.0 0.5313740231
C  C13  1  0.44190000  0.14090000  0.02870000  1.0 -0.0379255742
C  C14  1  0.14090000  0.44190000  0.97130000  1.0 -0.0379255742
C  C15  1  0.55810000  0.85910000  0.97130000  1.0 -0.0379255742
C  C16  1  0.85910000  0.55810000  0.02870000  1.0 -0.0379255742
C  C17  1  0.36980000  0.13720000  0.10790000  1.0 -0.3232023858
C  C18  1  0.13720000  0.36980000  0.89210000  1.0 -0.3232023858
C  C19  1  0.63020000  0.86280000  0.89210000  1.0 -0.3232023858
C  C20  1  0.86280000  0.63020000  0.10790000  1.0 -0.3232023858
C  C21  1  0.22988000  0.07992000  0.06950000  1.0 0.630082161
C  C22  1  0.07992000  0.22988000  0.93050000  1.0 0.630082161
C  C23  1  0.77012000  0.92008000  0.93050000  1.0 0.630082161
C  C24  1  0.92008000  0.77012000  0.06950000  1.0 0.630082161
N  N1  1  0.76150000  0.23850000  0.17120000  1.0 -0.2388552569
N  N2  1  0.23850000  0.76150000  0.82880000  1.0 -0.2388552569
N  N3  1  0.58083000  0.21917000  0.06480000  1.0 -0.2513374977
N  N4  1  0.21917000  0.58083000  0.93520000  1.0 -0.2513374977
N  N5  1  0.41917000  0.78083000  0.93520000  1.0 -0.2513374977
N  N6  1  0.78083000  0.41917000  0.06480000  1.0 -0.2513374977
O  O1  1  0.97289000  0.02711000  0.25260000  1.0 -0.5775730155
O  O2  1  0.02711000  0.97289000  0.74740000  1.0 -0.5704253458
O  O3  1  0.92820000  0.07180000  0.38560000  1.0 -0.5704253458
O  O4  1  0.07180000  0.92820000  0.61440000  1.0 -0.5638243102
O  O5  1  0.18951000  0.04929000  0.97420000  1.0 -0.5258699797
O  O6  1  0.04929000  0.18951000  0.02580000  1.0 -0.5258699797
O  O7  1  0.81049000  0.95071000  0.02580000  1.0 -0.5258699797
O  O8  1  0.95071000  0.81049000  0.97420000  1.0 -0.5258699797
O  O9  1  0.16587000  0.07033000  0.13340000  1.0 -0.4970388703
O  O10  1  0.07033000  0.16587000  0.86660000  1.0 -0.4970388703
O  O11  1  0.83413000  0.92967000  0.86660000  1.0 -0.4970388703
O  O12  1  0.92967000  0.83413000  0.13340000  1.0 -0.4970388703
O  O13  1  0.56664000  0.04636000  0.16620000  1.0 -0.4499670955
O  O14  1  0.04636000  0.56664000  0.83380000  1.0 -0.4499670955
O  O15  1  0.43336000  0.95364000  0.83380000  1.0 -0.4499670955
O  O16  1  0.95364000  0.43336000  0.16620000  1.0 -0.4499670955
O  O17  1  0.60230000  0.39770000  0.97240000  1.0 -0.4499670955
O  O18  1  0.39770000  0.60230000  0.02760000  1.0 -0.4499670955
