# DDEC6 charges by PACMAN v1.1 (https://github.com/mtap-research/PACMAN-charge/)
data_EXUHUC_ASR_pacman
_symmetry_space_group_name_H-M   'P 1'
_cell_length_a   15.44980000
_cell_length_b   15.44980000
_cell_length_c   15.44980000
_cell_angle_alpha   110.97500000
_cell_angle_beta   110.97500000
_cell_angle_gamma   110.97500000
_symmetry_Int_Tables_number   1
_chemical_formula_structural   Mn3H14C22(NO3)4
_chemical_formula_sum   'Mn9 H42 C66 N12 O36'
_cell_volume   2669.16370402
_cell_formula_units_Z   3
loop_
 _symmetry_equiv_pos_site_id
 _symmetry_equiv_pos_as_xyz
  1  'x, y, z'
loop_
 _atom_site_type_symbol
 _atom_site_label
 _atom_site_symmetry_multiplicity
 _atom_site_fract_x
 _atom_site_fract_y
 _atom_site_fract_z
 _atom_site_occupancy
 _atom_site_charge
Mn  Mn1  1  0.50946000  0.26863000  0.78594000  1.0 0.8547491563
Mn  Mn2  1  0.26863000  0.78594000  0.50946000  1.0 0.8547491563
Mn  Mn3  1  0.78594000  0.50946000  0.26863000  1.0 0.8547491563
Mn  Mn4  1  0.49054000  0.73137000  0.21406000  1.0 0.8547491563
Mn  Mn5  1  0.73137000  0.21406000  0.49054000  1.0 0.8547491563
Mn  Mn6  1  0.21406000  0.49054000  0.73137000  1.0 0.8547491563
Mn  Mn7  1  0.00000000  0.50000000  0.00000000  1.0 1.0297872556
Mn  Mn8  1  0.50000000  0.00000000  0.00000000  1.0 1.0297872556
Mn  Mn9  1  0.00000000  0.00000000  0.50000000  1.0 1.0297872556
H  H1  1  0.17430000  0.95080000  0.23710000  1.0 0.1395105181
H  H2  1  0.95080000  0.23710000  0.17430000  1.0 0.1395105181
H  H3  1  0.23710000  0.17430000  0.95080000  1.0 0.1395105181
H  H4  1  0.82570000  0.04920000  0.76290000  1.0 0.1395105181
H  H5  1  0.04920000  0.76290000  0.82570000  1.0 0.1395105181
H  H6  1  0.76290000  0.82570000  0.04920000  1.0 0.1395105181
H  H7  1  0.48790000  0.03450000  0.41190000  1.0 0.1395105181
H  H8  1  0.03450000  0.41190000  0.48790000  1.0 0.1395105181
H  H9  1  0.41190000  0.48790000  0.03450000  1.0 0.1395105181
H  H10  1  0.51210000  0.96550000  0.58810000  1.0 0.1395105181
H  H11  1  0.96550000  0.58810000  0.51210000  1.0 0.1395105181
H  H12  1  0.58810000  0.51210000  0.96550000  1.0 0.1395105181
H  H13  1  0.21830000  0.11040000  0.37940000  1.0 0.1206303091
H  H14  1  0.11040000  0.37940000  0.21830000  1.0 0.1206303091
H  H15  1  0.37940000  0.21830000  0.11040000  1.0 0.1206303091
H  H16  1  0.78170000  0.88960000  0.62060000  1.0 0.1206303091
H  H17  1  0.88960000  0.62060000  0.78170000  1.0 0.1206303091
H  H18  1  0.62060000  0.78170000  0.88960000  1.0 0.1206303091
H  H19  1  0.39880000  0.23550000  0.54030000  1.0 0.1206303091
H  H20  1  0.23550000  0.54030000  0.39880000  1.0 0.1206303091
H  H21  1  0.54030000  0.39880000  0.23550000  1.0 0.1206303091
H  H22  1  0.60120000  0.76450000  0.45970000  1.0 0.1206303091
H  H23  1  0.76450000  0.45970000  0.60120000  1.0 0.1206303091
H  H24  1  0.45970000  0.60120000  0.76450000  1.0 0.1206303091
H  H25  1  0.22960000  0.83270000  0.19760000  1.0 0.3555939925
H  H26  1  0.83270000  0.19760000  0.22960000  1.0 0.3555939925
H  H27  1  0.19760000  0.22960000  0.83270000  1.0 0.3555939925
H  H28  1  0.77040000  0.16730000  0.80240000  1.0 0.3555939925
H  H29  1  0.16730000  0.80240000  0.77040000  1.0 0.3555939925
H  H30  1  0.80240000  0.77040000  0.16730000  1.0 0.3555939925
H  H31  1  0.49080000  0.08290000  0.76860000  1.0 0.3073451055
H  H32  1  0.08290000  0.76860000  0.49080000  1.0 0.3073451055
H  H33  1  0.76860000  0.49080000  0.08290000  1.0 0.3073451055
H  H34  1  0.50920000  0.91710000  0.23140000  1.0 0.3073451055
H  H35  1  0.91710000  0.23140000  0.50920000  1.0 0.3073451055
H  H36  1  0.23140000  0.50920000  0.91710000  1.0 0.3073451055
H  H37  1  0.54460000  0.14800000  0.75140000  1.0 0.2306043737
H  H38  1  0.14800000  0.75140000  0.54460000  1.0 0.2306043737
H  H39  1  0.75140000  0.54460000  0.14800000  1.0 0.2306043737
H  H40  1  0.45540000  0.85200000  0.24860000  1.0 0.2306043737
H  H41  1  0.85200000  0.24860000  0.45540000  1.0 0.2306043737
H  H42  1  0.24860000  0.45540000  0.85200000  1.0 0.2306043737
C  C1  1  0.57563000  0.22790000  0.59607000  1.0 0.3156874908
C  C2  1  0.22790000  0.59607000  0.57563000  1.0 0.3156874908
C  C3  1  0.59607000  0.57563000  0.22790000  1.0 0.3156874908
C  C4  1  0.42437000  0.77210000  0.40393000  1.0 0.3156874908
C  C5  1  0.77210000  0.40393000  0.42437000  1.0 0.3156874908
C  C6  1  0.40393000  0.42437000  0.77210000  1.0 0.3156874908
C  C7  1  0.46223000  0.14890000  0.49237000  1.0 0.0558359954
C  C8  1  0.14890000  0.49237000  0.46223000  1.0 0.0558359954
C  C9  1  0.49237000  0.46223000  0.14890000  1.0 0.0558359954
C  C10  1  0.53777000  0.85110000  0.50763000  1.0 0.0558359954
C  C11  1  0.85110000  0.50763000  0.53777000  1.0 0.0558359954
C  C12  1  0.50763000  0.53777000  0.85110000  1.0 0.0558359954
C  C13  1  0.75270000  0.41970000  0.89020000  1.0 0.5700773132
C  C14  1  0.41970000  0.89020000  0.75270000  1.0 0.5700773132
C  C15  1  0.89020000  0.75270000  0.41970000  1.0 0.5700773132
C  C16  1  0.24730000  0.58030000  0.10980000  1.0 0.5700773132
C  C17  1  0.58030000  0.10980000  0.24730000  1.0 0.5700773132
C  C18  1  0.10980000  0.24730000  0.58030000  1.0 0.5700773132
C  C19  1  0.70771000  0.34844000  0.77035000  1.0 -0.0136480461
C  C20  1  0.34844000  0.77035000  0.70771000  1.0 -0.0136480461
C  C21  1  0.77035000  0.70771000  0.34844000  1.0 -0.0136480461
C  C22  1  0.29229000  0.65156000  0.22965000  1.0 -0.0136480461
C  C23  1  0.65156000  0.22965000  0.29229000  1.0 -0.0136480461
C  C24  1  0.22965000  0.29229000  0.65156000  1.0 -0.0136480461
C  C25  1  0.24620000  0.00010000  0.30160000  1.0 -0.2372249084
C  C26  1  0.00010000  0.30160000  0.24620000  1.0 -0.2372249084
C  C27  1  0.30160000  0.24620000  0.00010000  1.0 -0.2372249084
C  C28  1  0.75380000  0.99990000  0.69840000  1.0 -0.2372249084
C  C29  1  0.99990000  0.69840000  0.75380000  1.0 -0.2372249084
C  C30  1  0.69840000  0.75380000  0.99990000  1.0 -0.2372249084
C  C31  1  0.43410000  0.05020000  0.40590000  1.0 -0.2547792065
C  C32  1  0.05020000  0.40590000  0.43410000  1.0 -0.2547792065
C  C33  1  0.40590000  0.43410000  0.05020000  1.0 -0.2551385927
C  C34  1  0.56590000  0.94980000  0.59410000  1.0 -0.2547792065
C  C35  1  0.94980000  0.59410000  0.56590000  1.0 -0.2547792065
C  C36  1  0.59410000  0.56590000  0.94980000  1.0 -0.2547792065
C  C37  1  0.32670000  0.97620000  0.31160000  1.0 0.2999718817
C  C38  1  0.97620000  0.31160000  0.32670000  1.0 0.2999718817
C  C39  1  0.31160000  0.32670000  0.97620000  1.0 0.2999718817
C  C40  1  0.67330000  0.02380000  0.68840000  1.0 0.2999718817
C  C41  1  0.02380000  0.68840000  0.67330000  1.0 0.2999718817
C  C42  1  0.68840000  0.67330000  0.02380000  1.0 0.2999718817
C  C43  1  0.27250000  0.09510000  0.38580000  1.0 -0.0449692624
C  C44  1  0.09510000  0.38580000  0.27250000  1.0 -0.0449692624
C  C45  1  0.38580000  0.27250000  0.09510000  1.0 -0.0452100168
C  C46  1  0.72750000  0.90490000  0.61420000  1.0 -0.0449692624
C  C47  1  0.90490000  0.61420000  0.72750000  1.0 -0.0449692624
C  C48  1  0.61420000  0.72750000  0.90490000  1.0 -0.0449692624
C  C49  1  0.38130000  0.17060000  0.48260000  1.0 -0.1442413198
C  C50  1  0.17060000  0.48260000  0.38130000  1.0 -0.1442413198
C  C51  1  0.48260000  0.38130000  0.17060000  1.0 -0.1442413198
C  C52  1  0.61870000  0.82940000  0.51740000  1.0 -0.1442413198
C  C53  1  0.82940000  0.51740000  0.61870000  1.0 -0.1442413198
C  C54  1  0.51740000  0.61870000  0.82940000  1.0 -0.1442413198
C  C55  1  0.75473000  0.33116000  0.70941000  1.0 -0.0214429664
C  C56  1  0.33116000  0.70941000  0.75473000  1.0 -0.0214429664
C  C57  1  0.70941000  0.75473000  0.33116000  1.0 -0.0214429664
C  C58  1  0.24527000  0.66884000  0.29059000  1.0 -0.0214429664
C  C59  1  0.66884000  0.29059000  0.24527000  1.0 -0.0214429664
C  C60  1  0.29059000  0.24527000  0.66884000  1.0 -0.0214429664
C  C61  1  0.87001000  0.37560000  0.73809000  1.0 0.5630285872
C  C62  1  0.37560000  0.73809000  0.87001000  1.0 0.5630285872
C  C63  1  0.73809000  0.87001000  0.37560000  1.0 0.5630285872
C  C64  1  0.12999000  0.62440000  0.26191000  1.0 0.5630285872
C  C65  1  0.62440000  0.26191000  0.12999000  1.0 0.5630285872
C  C66  1  0.26191000  0.12999000  0.62440000  1.0 0.5630285872
N  N1  1  0.59330000  0.28176000  0.69734000  1.0 -0.3951921133
N  N2  1  0.28176000  0.69734000  0.59330000  1.0 -0.3951921133
N  N3  1  0.69734000  0.59330000  0.28176000  1.0 -0.3951921133
N  N4  1  0.40670000  0.71824000  0.30266000  1.0 -0.3951921133
N  N5  1  0.71824000  0.30266000  0.40670000  1.0 -0.3951921133
N  N6  1  0.30266000  0.40670000  0.71824000  1.0 -0.3951921133
N  N7  1  0.66937000  0.25400000  0.59833000  1.0 -0.3857469129
N  N8  1  0.25400000  0.59833000  0.66937000  1.0 -0.3857469129
N  N9  1  0.59833000  0.66937000  0.25400000  1.0 -0.3857469129
N  N10  1  0.33063000  0.74600000  0.40167000  1.0 -0.3857469129
N  N11  1  0.74600000  0.40167000  0.33063000  1.0 -0.3857469129
N  N12  1  0.40167000  0.33063000  0.74600000  1.0 -0.3857469129
O  O1  1  0.68302000  0.40191000  0.91656000  1.0 -0.5028078723
O  O2  1  0.40191000  0.91656000  0.68302000  1.0 -0.5028078723
O  O3  1  0.91656000  0.68302000  0.40191000  1.0 -0.5028078723
O  O4  1  0.31698000  0.59809000  0.08344000  1.0 -0.5028078723
O  O5  1  0.59809000  0.08344000  0.31698000  1.0 -0.5028078723
O  O6  1  0.08344000  0.31698000  0.59809000  1.0 -0.5028078723
O  O7  1  0.85406000  0.49590000  0.96044000  1.0 -0.5444180178
O  O8  1  0.49590000  0.96044000  0.85406000  1.0 -0.5453483331
O  O9  1  0.96044000  0.85406000  0.49590000  1.0 -0.5444180178
O  O10  1  0.14594000  0.50410000  0.03956000  1.0 -0.5444180178
O  O11  1  0.50410000  0.03956000  0.14594000  1.0 -0.5444180178
O  O12  1  0.03956000  0.14594000  0.50410000  1.0 -0.5444180178
O  O13  1  0.95346000  0.44300000  0.83594000  1.0 -0.5444180178
O  O14  1  0.44300000  0.83594000  0.95346000  1.0 -0.5453483331
O  O15  1  0.83594000  0.95346000  0.44300000  1.0 -0.5444180178
O  O16  1  0.04654000  0.55700000  0.16406000  1.0 -0.5444180178
O  O17  1  0.55700000  0.16406000  0.04654000  1.0 -0.5444180178
O  O18  1  0.16406000  0.04654000  0.55700000  1.0 -0.5444180178
O  O19  1  0.29420000  0.88100000  0.22480000  1.0 -0.3818332123
O  O20  1  0.88100000  0.22480000  0.29420000  1.0 -0.3818332123
O  O21  1  0.22480000  0.29420000  0.88100000  1.0 -0.3818332123
O  O22  1  0.70580000  0.11900000  0.77520000  1.0 -0.3818332123
O  O23  1  0.11900000  0.77520000  0.70580000  1.0 -0.3818332123
O  O24  1  0.77520000  0.70580000  0.11900000  1.0 -0.3818332123
O  O25  1  0.87955000  0.33889000  0.65636000  1.0 -0.5146664249
O  O26  1  0.33889000  0.65636000  0.87955000  1.0 -0.5146664249
O  O27  1  0.65636000  0.87955000  0.33889000  1.0 -0.5146664249
O  O28  1  0.12045000  0.66111000  0.34364000  1.0 -0.5146664249
O  O29  1  0.66111000  0.34364000  0.12045000  1.0 -0.5146664249
O  O30  1  0.34364000  0.12045000  0.66111000  1.0 -0.5146664249
O  O31  1  0.54882000  0.14518000  0.80760000  1.0 -0.6022707688
O  O32  1  0.14518000  0.80760000  0.54882000  1.0 -0.6022707688
O  O33  1  0.80760000  0.54882000  0.14518000  1.0 -0.6022707688
O  O34  1  0.45118000  0.85482000  0.19240000  1.0 -0.6022707688
O  O35  1  0.85482000  0.19240000  0.45118000  1.0 -0.6022707688
O  O36  1  0.19240000  0.45118000  0.85482000  1.0 -0.6022707688
