# DDEC6 charges by PACMAN v1.1 (https://github.com/mtap-research/PACMAN-charge/)
data_EXUHEM_FSR_pacman
_symmetry_space_group_name_H-M   'P 1'
_cell_length_a   13.31200000
_cell_length_b   7.31600000
_cell_length_c   19.72920000
_cell_angle_alpha   90.00000000
_cell_angle_beta   131.10500000
_cell_angle_gamma   90.00000000
_symmetry_Int_Tables_number   1
_chemical_formula_structural   CdH24C22(NO)4
_chemical_formula_sum   'Cd2 H48 C44 N8 O8'
_cell_volume   1447.81545750
_cell_formula_units_Z   2
loop_
 _symmetry_equiv_pos_site_id
 _symmetry_equiv_pos_as_xyz
  1  'x, y, z'
loop_
 _atom_site_type_symbol
 _atom_site_label
 _atom_site_symmetry_multiplicity
 _atom_site_fract_x
 _atom_site_fract_y
 _atom_site_fract_z
 _atom_site_occupancy
 _atom_site_charge
Cd  Cd1  1  0.79418000  0.18386000  0.81459000  1.0 0.8386042089
Cd  Cd2  1  0.79418000  0.81614000  0.31459000  1.0 0.8386042089
H  H1  1  0.83800000  0.20820000  0.62920000  1.0 0.1288944395
H  H2  1  0.83800000  0.79180000  0.12920000  1.0 0.1288944395
H  H3  1  0.81520000  0.55000000  0.45530000  1.0 0.1288944395
H  H4  1  0.81520000  0.45000000  0.95530000  1.0 0.1288944395
H  H5  1  0.31660000  0.21440000  0.63050000  1.0 0.1010808782
H  H6  1  0.31660000  0.78560000  0.13050000  1.0 0.1010808782
H  H7  1  0.33520000  0.24030000  0.56040000  1.0 0.1010808782
H  H8  1  0.33520000  0.75970000  0.06040000  1.0 0.1010808782
H  H9  1  0.19430000  0.51030000  0.43910000  1.0 0.1088175521
H  H10  1  0.19430000  0.48970000  0.93910000  1.0 0.1088175521
H  H11  1  0.74100000  0.77250000  0.49520000  1.0 0.1288944395
H  H12  1  0.74100000  0.22750000  0.99520000  1.0 0.1288944395
H  H13  1  0.53970000  0.85960000  0.50470000  1.0 0.1288944395
H  H14  1  0.53970000  0.14040000  0.00470000  1.0 0.1288944395
H  H15  1  0.77540000  0.45170000  0.66880000  1.0 0.1406255847
H  H16  1  0.77540000  0.54830000  0.16880000  1.0 0.1406255847
H  H17  1  0.60900000  0.19240000  0.35230000  1.0 0.1678098859
H  H18  1  0.60900000  0.80760000  0.85230000  1.0 0.1678098859
H  H19  1  0.65410000  0.15550000  0.29750000  1.0 0.1600941447
H  H20  1  0.65410000  0.84450000  0.79750000  1.0 0.1600941447
H  H21  1  0.68610000  0.34360000  0.34610000  1.0 0.1600941447
H  H22  1  0.68610000  0.65640000  0.84610000  1.0 0.1600941447
H  H23  1  0.04050000  0.89080000  0.53390000  1.0 0.115664673
H  H24  1  0.04050000  0.10920000  0.03390000  1.0 0.115664673
H  H25  1  0.04590000  0.10980000  0.63490000  1.0 0.1406255847
H  H26  1  0.04590000  0.89020000  0.13490000  1.0 0.1406255847
H  H27  1  0.40570000  0.49970000  0.69220000  1.0 0.1088175521
H  H28  1  0.40570000  0.50030000  0.19220000  1.0 0.1088175521
H  H29  1  0.48120000  0.70100000  0.64470000  1.0 0.0941929863
H  H30  1  0.48120000  0.29900000  0.14470000  1.0 0.0941929863
H  H31  1  0.43480000  0.56840000  0.56590000  1.0 0.0941929863
H  H32  1  0.43480000  0.43160000  0.06590000  1.0 0.0941929863
H  H33  1  0.54680000  0.10970000  0.58640000  1.0 0.1288944395
H  H34  1  0.54680000  0.89030000  0.08640000  1.0 0.1288944395
H  H35  1  0.97880000  0.86820000  0.82400000  1.0 0.1600941447
H  H36  1  0.97880000  0.13180000  0.32400000  1.0 0.1600941447
H  H37  1  0.89630000  0.70170000  0.81470000  1.0 0.1600941447
H  H38  1  0.89630000  0.29830000  0.31470000  1.0 0.1600941447
H  H39  1  0.95570000  0.69670000  0.76760000  1.0 0.1469368161
H  H40  1  0.95570000  0.30330000  0.26760000  1.0 0.1469368161
H  H41  1  0.11740000  0.29350000  0.48740000  1.0 0.1010808782
H  H42  1  0.11740000  0.70650000  0.98740000  1.0 0.1010808782
H  H43  1  0.15420000  0.42870000  0.56230000  1.0 0.1010808782
H  H44  1  0.15420000  0.57130000  0.06230000  1.0 0.1010808782
H  H45  1  0.26330000  0.80000000  0.51270000  1.0 0.1010808782
H  H46  1  0.26330000  0.20000000  0.01270000  1.0 0.1010808782
H  H47  1  0.24960000  0.72340000  0.58070000  1.0 0.0941929863
H  H48  1  0.24960000  0.27660000  0.08070000  1.0 0.0941929863
C  C1  1  0.82040000  0.32250000  0.60280000  1.0 -0.1581810443
C  C2  1  0.82040000  0.67750000  0.10280000  1.0 -0.1581810443
C  C3  1  0.79450000  0.14660000  0.42440000  1.0 0.3145353169
C  C4  1  0.79450000  0.85340000  0.92440000  1.0 0.3145353169
C  C5  1  0.75790000  0.63700000  0.59170000  1.0 0.1406255847
C  C6  1  0.75790000  0.36300000  0.09170000  1.0 0.1406255847
C  C7  1  0.80470000  0.52980000  0.49690000  1.0 -0.1347017615
C  C8  1  0.80470000  0.47020000  0.99690000  1.0 -0.136117491
C  C9  1  0.31540000  0.30360000  0.59360000  1.0 -0.1815539584
C  C10  1  0.31540000  0.69640000  0.09360000  1.0 -0.1815539584
C  C11  1  0.55250000  0.36500000  0.71530000  1.0 0.5289577366
C  C12  1  0.55250000  0.63500000  0.21530000  1.0 0.5289577366
C  C13  1  0.17110000  0.55030000  0.47470000  1.0 -0.101510915
C  C14  1  0.17110000  0.44970000  0.97470000  1.0 -0.101510915
C  C15  1  0.76530000  0.65900000  0.52360000  1.0 -0.185756259
C  C16  1  0.76530000  0.34100000  0.02360000  1.0 -0.1815539584
C  C17  1  0.61010000  0.88400000  0.56530000  1.0 -0.0458762954
C  C18  1  0.61010000  0.11600000  0.06530000  1.0 -0.0458762954
C  C19  1  0.78320000  0.47100000  0.62580000  1.0 -0.1581810443
C  C20  1  0.78320000  0.52900000  0.12580000  1.0 -0.1581810443
C  C21  1  0.67750000  0.21450000  0.34970000  1.0 -0.4822560875
C  C22  1  0.67750000  0.78550000  0.84970000  1.0 -0.4822560875
C  C23  1  0.82920000  0.35500000  0.54060000  1.0 0.1406255847
C  C24  1  0.82920000  0.64500000  0.04060000  1.0 0.1469368161
C  C25  1  0.97560000  0.97700000  0.51570000  1.0 -0.0079708857
C  C26  1  0.97560000  0.02300000  0.01570000  1.0 -0.0079708857
C  C27  1  0.98190000  0.10060000  0.57260000  1.0 -0.1508384599
C  C28  1  0.98190000  0.89940000  0.07260000  1.0 -0.1508384599
C  C29  1  0.42340000  0.45030000  0.65480000  1.0 -0.1508384599
C  C30  1  0.42340000  0.54970000  0.15480000  1.0 -0.1508384599
C  C31  1  0.41610000  0.60880000  0.60350000  1.0 -0.1815539584
C  C32  1  0.41610000  0.39120000  0.10350000  1.0 -0.1815539584
C  C33  1  0.61050000  0.01800000  0.61030000  1.0 -0.0764448783
C  C34  1  0.61050000  0.98200000  0.11030000  1.0 -0.0764448783
C  C35  1  0.78590000  0.86200000  0.69820000  1.0 0.3409544648
C  C36  1  0.78590000  0.13800000  0.19820000  1.0 0.3409544648
C  C37  1  0.02520000  0.63900000  0.41080000  1.0 0.5289577366
C  C38  1  0.02520000  0.36100000  0.91080000  1.0 0.5289577366
C  C39  1  0.91650000  0.77400000  0.78450000  1.0 -0.5248873262
C  C40  1  0.91650000  0.22600000  0.28450000  1.0 -0.5253412752
C  C41  1  0.18040000  0.38700000  0.52920000  1.0 -0.185756259
C  C42  1  0.18040000  0.61300000  0.02920000  1.0 -0.185756259
C  C43  1  0.26970000  0.69060000  0.54310000  1.0 -0.1815539584
C  C44  1  0.26970000  0.30940000  0.04310000  1.0 -0.1815539584
N  N1  1  0.71330000  0.79560000  0.61280000  1.0 -0.0277919379
N  N2  1  0.71330000  0.20440000  0.11280000  1.0 -0.0277919379
N  N3  1  0.72440000  0.99670000  0.70030000  1.0 -0.352313432
N  N4  1  0.72440000  0.00330000  0.20030000  1.0 -0.352313432
N  N5  1  0.86080000  0.00250000  0.43040000  1.0 -0.352313432
N  N6  1  0.86080000  0.99750000  0.93040000  1.0 -0.352313432
N  N7  1  0.86020000  0.21330000  0.50810000  1.0 -0.0447953484
N  N8  1  0.86020000  0.78670000  0.00810000  1.0 -0.0447953484
O  O1  1  0.94690000  0.60060000  0.41790000  1.0 -0.4915464549
O  O2  1  0.94690000  0.39940000  0.91790000  1.0 -0.4915464549
O  O3  1  0.64380000  0.41070000  0.71200000  1.0 -0.5619482427
O  O4  1  0.64380000  0.58930000  0.21200000  1.0 -0.5619482427
O  O5  1  0.00770000  0.75800000  0.35700000  1.0 -0.5653309255
O  O6  1  0.00770000  0.24200000  0.85700000  1.0 -0.5653309255
O  O7  1  0.58560000  0.24900000  0.77270000  1.0 -0.5358110099
O  O8  1  0.58560000  0.75100000  0.27270000  1.0 -0.5358110099
