# DDEC6 charges by PACMAN v1.1 (https://github.com/mtap-research/PACMAN-charge/)
data_EXURUM_ASR_pacman
_symmetry_space_group_name_H-M   'P 1'
_cell_length_a   10.48030000
_cell_length_b   17.88550000
_cell_length_c   18.07020000
_cell_angle_alpha   90.00000000
_cell_angle_beta   108.18900000
_cell_angle_gamma   90.00000000
_symmetry_Int_Tables_number   1
_chemical_formula_structural   EuZnH10C22(N2O9)2
_chemical_formula_sum   'Eu4 Zn4 H40 C88 N16 O72'
_cell_volume   3217.92555363
_cell_formula_units_Z   4
loop_
 _symmetry_equiv_pos_site_id
 _symmetry_equiv_pos_as_xyz
  1  'x, y, z'
loop_
 _atom_site_type_symbol
 _atom_site_label
 _atom_site_symmetry_multiplicity
 _atom_site_fract_x
 _atom_site_fract_y
 _atom_site_fract_z
 _atom_site_occupancy
 _atom_site_charge
Eu  Eu1  1  0.02996000  0.01465000  0.62723000  1.0 2.1822715578
Eu  Eu2  1  0.97004000  0.51465000  0.87277000  1.0 2.1822715578
Eu  Eu3  1  0.97004000  0.98535000  0.37277000  1.0 2.1822715578
Eu  Eu4  1  0.02996000  0.48535000  0.12723000  1.0 2.1822715578
Zn  Zn1  1  0.90128000  0.10878000  0.79786000  1.0 0.8479377208
Zn  Zn2  1  0.09872000  0.60878000  0.70214000  1.0 0.8479377208
Zn  Zn3  1  0.09872000  0.89122000  0.20214000  1.0 0.8479377208
Zn  Zn4  1  0.90128000  0.39122000  0.29786000  1.0 0.8479377208
H  H1  1  0.47970000  0.07210000  0.63960000  1.0 0.1297191893
H  H2  1  0.52030000  0.57210000  0.86040000  1.0 0.1297191893
H  H3  1  0.52030000  0.92790000  0.36040000  1.0 0.1297191893
H  H4  1  0.47970000  0.42790000  0.13960000  1.0 0.1297191893
H  H5  1  0.70530000  0.13490000  0.50740000  1.0 0.1103369753
H  H6  1  0.29470000  0.63490000  0.99260000  1.0 0.1103369753
H  H7  1  0.29470000  0.86510000  0.49260000  1.0 0.1103369753
H  H8  1  0.70530000  0.36510000  0.00740000  1.0 0.1103369753
H  H9  1  0.31720000  0.08310000  0.40720000  1.0 0.1201889649
H  H10  1  0.68280000  0.58310000  0.09280000  1.0 0.1201889649
H  H11  1  0.68280000  0.91690000  0.59280000  1.0 0.1201889649
H  H12  1  0.31720000  0.41690000  0.90720000  1.0 0.1201889649
H  H13  1  0.06720000  0.31300000  0.76990000  1.0 0.1297191893
H  H14  1  0.93280000  0.81300000  0.73010000  1.0 0.1297191893
H  H15  1  0.93280000  0.68700000  0.23010000  1.0 0.1297191893
H  H16  1  0.06720000  0.18700000  0.26990000  1.0 0.1297191893
H  H17  1  0.21810000  0.41650000  0.61900000  1.0 0.0865864931
H  H18  1  0.78190000  0.91650000  0.88100000  1.0 0.0865864931
H  H19  1  0.78190000  0.58350000  0.38100000  1.0 0.0865864931
H  H20  1  0.21810000  0.08350000  0.11900000  1.0 0.0865864931
H  H21  1  0.23700000  0.19280000  0.63780000  1.0 0.1103369753
H  H22  1  0.76300000  0.69280000  0.86220000  1.0 0.1103369753
H  H23  1  0.76300000  0.80720000  0.36220000  1.0 0.1103369753
H  H24  1  0.23700000  0.30720000  0.13780000  1.0 0.1103369753
H  H25  1  0.92630000  0.24130000  0.36130000  1.0 0.1103369753
H  H26  1  0.07370000  0.74130000  0.13870000  1.0 0.1103369753
H  H27  1  0.07370000  0.75870000  0.63870000  1.0 0.1103369753
H  H28  1  0.92630000  0.25870000  0.86130000  1.0 0.1103369753
H  H29  1  0.84380000  0.42620000  0.45030000  1.0 0.1028314857
H  H30  1  0.15620000  0.92620000  0.04970000  1.0 0.1028314857
H  H31  1  0.15620000  0.57380000  0.54970000  1.0 0.1028314857
H  H32  1  0.84380000  0.07380000  0.95030000  1.0 0.1028314857
H  H33  1  0.84310000  0.36430000  0.56220000  1.0 0.1297191893
H  H34  1  0.15690000  0.86430000  0.93780000  1.0 0.1297191893
H  H35  1  0.15690000  0.63570000  0.43780000  1.0 0.1297191893
H  H36  1  0.84310000  0.13570000  0.06220000  1.0 0.1297191893
H  H37  1  0.89380000  0.23810000  0.57550000  1.0 0.1297191893
H  H38  1  0.10620000  0.73810000  0.92450000  1.0 0.1297191893
H  H39  1  0.10620000  0.76190000  0.42450000  1.0 0.1297191893
H  H40  1  0.89380000  0.26190000  0.07550000  1.0 0.1297191893
C  C1  1  0.24820000  0.04130000  0.53000000  1.0 0.6357114343
C  C2  1  0.75180000  0.54130000  0.97000000  1.0 0.6357114343
C  C3  1  0.75180000  0.95870000  0.47000000  1.0 0.6357114343
C  C4  1  0.24820000  0.45870000  0.03000000  1.0 0.6357114343
C  C5  1  0.37850000  0.07230000  0.52420000  1.0 -0.0258770488
C  C6  1  0.62150000  0.57230000  0.97580000  1.0 -0.0258770488
C  C7  1  0.62150000  0.92770000  0.47580000  1.0 -0.0258770488
C  C8  1  0.37850000  0.42770000  0.02420000  1.0 -0.0258770488
C  C9  1  0.48880000  0.08110000  0.59080000  1.0 -0.1736250231
C  C10  1  0.51120000  0.58110000  0.90920000  1.0 -0.1736250231
C  C11  1  0.51120000  0.91890000  0.40920000  1.0 -0.1736250231
C  C12  1  0.48880000  0.41890000  0.09080000  1.0 -0.1736250231
C  C13  1  0.61250000  0.10320000  0.58470000  1.0 -0.0024124994
C  C14  1  0.38750000  0.60320000  0.91530000  1.0 -0.0024124994
C  C15  1  0.38750000  0.89680000  0.41530000  1.0 -0.0024124994
C  C16  1  0.61250000  0.39680000  0.08470000  1.0 -0.0024124994
C  C17  1  0.62360000  0.11960000  0.51250000  1.0 -0.1736250231
C  C18  1  0.37640000  0.61960000  0.98750000  1.0 -0.1736250231
C  C19  1  0.37640000  0.88040000  0.48750000  1.0 -0.1736250231
C  C20  1  0.62360000  0.38040000  0.01250000  1.0 -0.1736250231
C  C21  1  0.51170000  0.11300000  0.44810000  1.0 -0.0599932047
C  C22  1  0.48830000  0.61300000  0.05190000  1.0 -0.0599932047
C  C23  1  0.48830000  0.88700000  0.55190000  1.0 -0.0599932047
C  C24  1  0.51170000  0.38700000  0.94810000  1.0 -0.0599932047
C  C25  1  0.39010000  0.08860000  0.45210000  1.0 -0.1800044375
C  C26  1  0.60990000  0.58860000  0.04790000  1.0 -0.1800044375
C  C27  1  0.60990000  0.91140000  0.54790000  1.0 -0.1800044375
C  C28  1  0.39010000  0.41140000  0.95210000  1.0 -0.1800044375
C  C29  1  0.73550000  0.10530000  0.65530000  1.0 0.6018531499
C  C30  1  0.26450000  0.60530000  0.84470000  1.0 0.6018531499
C  C31  1  0.26450000  0.89470000  0.34470000  1.0 0.6018531499
C  C32  1  0.73550000  0.39470000  0.15530000  1.0 0.6018531499
C  C33  1  0.10250000  0.17160000  0.73950000  1.0 0.6344507513
C  C34  1  0.89750000  0.67160000  0.76050000  1.0 0.6344507513
C  C35  1  0.89750000  0.82840000  0.26050000  1.0 0.6344507513
C  C36  1  0.10250000  0.32840000  0.23950000  1.0 0.6344507513
C  C37  1  0.14560000  0.24210000  0.70910000  1.0 -0.0200998625
C  C38  1  0.85440000  0.74210000  0.79090000  1.0 -0.0200998625
C  C39  1  0.85440000  0.75790000  0.29090000  1.0 -0.0200998625
C  C40  1  0.14560000  0.25790000  0.20910000  1.0 -0.0200998625
C  C41  1  0.10950000  0.31090000  0.73170000  1.0 -0.1276643658
C  C42  1  0.89050000  0.81090000  0.76830000  1.0 -0.1276643658
C  C43  1  0.89050000  0.68910000  0.26830000  1.0 -0.1276643658
C  C44  1  0.10950000  0.18910000  0.23170000  1.0 -0.1276643658
C  C45  1  0.13530000  0.37630000  0.69850000  1.0 -0.0200998625
C  C46  1  0.86470000  0.87630000  0.80150000  1.0 -0.0200998625
C  C47  1  0.86470000  0.62370000  0.30150000  1.0 -0.0200998625
C  C48  1  0.13530000  0.12370000  0.19850000  1.0 -0.0200998625
C  C49  1  0.20010000  0.37300000  0.64220000  1.0 -0.2786751213
C  C50  1  0.79990000  0.87300000  0.85780000  1.0 -0.2786751213
C  C51  1  0.79990000  0.62700000  0.35780000  1.0 -0.2786751213
C  C52  1  0.20010000  0.12700000  0.14220000  1.0 -0.2786751213
C  C53  1  0.23700000  0.30440000  0.62160000  1.0 0.0611228533
C  C54  1  0.76300000  0.80440000  0.87840000  1.0 0.0611228533
C  C55  1  0.76300000  0.69560000  0.37840000  1.0 0.0611228533
C  C56  1  0.23700000  0.19560000  0.12160000  1.0 0.0611228533
C  C57  1  0.21130000  0.23850000  0.65330000  1.0 -0.219449074
C  C58  1  0.78870000  0.73850000  0.84670000  1.0 -0.219449074
C  C59  1  0.78870000  0.76150000  0.34670000  1.0 -0.219449074
C  C60  1  0.21130000  0.26150000  0.15330000  1.0 -0.219449074
C  C61  1  0.09170000  0.45100000  0.72150000  1.0 0.6135469852
C  C62  1  0.90830000  0.95100000  0.77850000  1.0 0.6135469852
C  C63  1  0.90830000  0.54900000  0.27850000  1.0 0.6135469852
C  C64  1  0.09170000  0.04900000  0.22150000  1.0 0.6135469852
C  C65  1  0.94790000  0.14270000  0.47250000  1.0 0.6209116755
C  C66  1  0.05210000  0.64270000  0.02750000  1.0 0.6209116755
C  C67  1  0.05210000  0.85730000  0.52750000  1.0 0.6209116755
C  C68  1  0.94790000  0.35730000  0.97250000  1.0 0.6209116755
C  C69  1  0.91510000  0.22570000  0.46870000  1.0 -0.0770818973
C  C70  1  0.08490000  0.72570000  0.03130000  1.0 -0.0770818973
C  C71  1  0.08490000  0.77430000  0.53130000  1.0 -0.0770818973
C  C72  1  0.91510000  0.27430000  0.96870000  1.0 -0.0770818973
C  C73  1  0.91100000  0.26640000  0.40280000  1.0 0.0282458887
C  C74  1  0.08900000  0.76640000  0.09720000  1.0 0.0282458887
C  C75  1  0.08900000  0.73360000  0.59720000  1.0 0.0282458887
C  C76  1  0.91100000  0.23360000  0.90280000  1.0 0.0282458887
C  C77  1  0.86180000  0.37520000  0.45460000  1.0 0.0611228533
C  C78  1  0.13820000  0.87520000  0.04540000  1.0 0.0611228533
C  C79  1  0.13820000  0.62480000  0.54540000  1.0 0.0611228533
C  C80  1  0.86180000  0.12480000  0.95460000  1.0 0.0611228533
C  C81  1  0.86210000  0.33830000  0.52230000  1.0 -0.1509970138
C  C82  1  0.13790000  0.83830000  0.97770000  1.0 -0.1509970138
C  C83  1  0.13790000  0.66170000  0.47770000  1.0 -0.1509970138
C  C84  1  0.86210000  0.16170000  0.02230000  1.0 -0.1509970138
C  C85  1  0.89080000  0.26320000  0.53000000  1.0 -0.0887805643
C  C86  1  0.10920000  0.76320000  0.97000000  1.0 -0.0887805643
C  C87  1  0.10920000  0.73680000  0.47000000  1.0 -0.0887805643
C  C88  1  0.89080000  0.23680000  0.03000000  1.0 -0.0887805643
N  N1  1  0.52430000  0.12910000  0.37010000  1.0 0.4171497478
N  N2  1  0.47570000  0.62910000  0.12990000  1.0 0.4171497478
N  N3  1  0.47570000  0.87090000  0.62990000  1.0 0.4171497478
N  N4  1  0.52430000  0.37090000  0.87010000  1.0 0.4171497478
N  N5  1  0.26750000  0.30050000  0.54410000  1.0 0.3226593075
N  N6  1  0.73250000  0.80050000  0.95590000  1.0 0.3226593075
N  N7  1  0.73250000  0.69950000  0.45590000  1.0 0.3226593075
N  N8  1  0.26750000  0.19950000  0.04410000  1.0 0.3226593075
N  N9  1  0.88650000  0.33980000  0.39560000  1.0 -0.2632211195
N  N10  1  0.11350000  0.83980000  0.10440000  1.0 -0.2632211195
N  N11  1  0.11350000  0.66020000  0.60440000  1.0 -0.2632211195
N  N12  1  0.88650000  0.16020000  0.89560000  1.0 -0.2632211195
N  N13  1  0.33180000  0.30130000  0.57670000  1.0 0.3119173326
N  N14  1  0.66820000  0.80130000  0.92330000  1.0 0.3119173326
N  N15  1  0.66820000  0.69870000  0.42330000  1.0 0.3226593075
N  N16  1  0.33180000  0.19870000  0.07670000  1.0 0.3119173326
O  O1  1  0.26420000  0.35700000  0.50640000  1.0 -0.0599932047
O  O2  1  0.73580000  0.85700000  0.99360000  1.0 -0.0599932047
O  O3  1  0.73580000  0.64300000  0.49360000  1.0 -0.0599932047
O  O4  1  0.26420000  0.14300000  0.00640000  1.0 -0.0599932047
O  O5  1  0.28550000  0.24190000  0.51860000  1.0 -0.0516698689
O  O6  1  0.71450000  0.74190000  0.98140000  1.0 -0.0516698689
O  O7  1  0.71450000  0.75810000  0.48140000  1.0 -0.0516698689
O  O8  1  0.28550000  0.25810000  0.01860000  1.0 -0.0516698689
O  O9  1  0.23500000  0.03420000  0.59640000  1.0 -0.6877386989
O  O10  1  0.76500000  0.53420000  0.90360000  1.0 -0.6877386989
O  O11  1  0.76500000  0.96580000  0.40360000  1.0 -0.6877386989
O  O12  1  0.23500000  0.46580000  0.09640000  1.0 -0.6877386989
O  O13  1  0.16180000  0.02340000  0.46780000  1.0 -0.7007130953
O  O14  1  0.83820000  0.52340000  0.03220000  1.0 -0.7007130953
O  O15  1  0.83820000  0.97660000  0.53220000  1.0 -0.7007130953
O  O16  1  0.16180000  0.47660000  0.96780000  1.0 -0.7007130953
O  O17  1  0.71910000  0.11620000  0.72050000  1.0 -0.535676849
O  O18  1  0.28090000  0.61620000  0.77950000  1.0 -0.535676849
O  O19  1  0.28090000  0.88380000  0.27950000  1.0 -0.535676849
O  O20  1  0.71910000  0.38380000  0.22050000  1.0 -0.535676849
O  O21  1  0.84800000  0.09720000  0.64730000  1.0 -0.6247207942
O  O22  1  0.15200000  0.59720000  0.85270000  1.0 -0.6247207942
O  O23  1  0.15200000  0.90280000  0.35270000  1.0 -0.6247207942
O  O24  1  0.84800000  0.40280000  0.14730000  1.0 -0.6254631104
O  O25  1  0.61890000  0.18010000  0.37090000  1.0 -0.0599932047
O  O26  1  0.38110000  0.68010000  0.12910000  1.0 -0.0599932047
O  O27  1  0.38110000  0.81990000  0.62910000  1.0 -0.0599932047
O  O28  1  0.61890000  0.31990000  0.87090000  1.0 -0.0599932047
O  O29  1  0.42520000  0.13490000  0.31540000  1.0 -0.0516698689
O  O30  1  0.57480000  0.63490000  0.18460000  1.0 -0.0599932047
O  O31  1  0.57480000  0.86510000  0.68460000  1.0 -0.0516698689
O  O32  1  0.42520000  0.36510000  0.81540000  1.0 -0.0516698689
O  O33  1  0.13190000  0.10980000  0.71670000  1.0 -0.6877386989
O  O34  1  0.86810000  0.60980000  0.78330000  1.0 -0.6877386989
O  O35  1  0.86810000  0.89020000  0.28330000  1.0 -0.6877386989
O  O36  1  0.13190000  0.39020000  0.21670000  1.0 -0.6877386989
O  O37  1  0.03280000  0.17990000  0.78520000  1.0 -0.5577444257
O  O38  1  0.96720000  0.67990000  0.71480000  1.0 -0.5577444257
O  O39  1  0.96720000  0.82010000  0.21480000  1.0 -0.5577444257
O  O40  1  0.03280000  0.32010000  0.28520000  1.0 -0.5577444257
O  O41  1  0.06580000  0.45490000  0.78340000  1.0 -0.6561907204
O  O42  1  0.93420000  0.95490000  0.71660000  1.0 -0.6561907204
O  O43  1  0.93420000  0.54510000  0.21660000  1.0 -0.6561907204
O  O44  1  0.06580000  0.04510000  0.28340000  1.0 -0.6561907204
O  O45  1  0.08420000  0.50420000  0.67420000  1.0 -0.5654395642
O  O46  1  0.91580000  0.00420000  0.82580000  1.0 -0.5654395642
O  O47  1  0.91580000  0.49580000  0.32580000  1.0 -0.5654395642
O  O48  1  0.08420000  0.99580000  0.17420000  1.0 -0.5654395642
O  O49  1  0.98870000  0.11540000  0.53890000  1.0 -0.6721511604
O  O50  1  0.01130000  0.61540000  0.96110000  1.0 -0.6721511604
O  O51  1  0.01130000  0.88460000  0.46110000  1.0 -0.6721511604
O  O52  1  0.98870000  0.38460000  0.03890000  1.0 -0.6721511604
O  O53  1  0.93050000  0.11010000  0.40900000  1.0 -0.6804790171
O  O54  1  0.06950000  0.61010000  0.09100000  1.0 -0.6804790171
O  O55  1  0.06950000  0.88990000  0.59100000  1.0 -0.6804790171
O  O56  1  0.93050000  0.38990000  0.90900000  1.0 -0.6804790171
O  O57  1  0.36400000  0.35840000  0.55090000  1.0 -0.0200998625
O  O58  1  0.63600000  0.85840000  0.94910000  1.0 -0.0258770488
O  O59  1  0.63600000  0.64160000  0.44910000  1.0 -0.0258770488
O  O60  1  0.36400000  0.14160000  0.05090000  1.0 -0.0200998625
O  O61  1  0.37400000  0.24490000  0.56090000  1.0 -0.0258770488
O  O62  1  0.62600000  0.74490000  0.93910000  1.0 -0.0258770488
O  O63  1  0.62600000  0.75510000  0.43910000  1.0 -0.0258770488
O  O64  1  0.37400000  0.25510000  0.06090000  1.0 -0.0258770488
O  O65  1  0.63260000  0.14310000  0.36420000  1.0 0.1201889649
O  O66  1  0.36740000  0.64310000  0.13580000  1.0 0.1103369753
O  O67  1  0.36740000  0.85690000  0.63580000  1.0 0.1201889649
O  O68  1  0.63260000  0.35690000  0.86420000  1.0 0.1201889649
O  O69  1  0.44250000  0.08960000  0.31370000  1.0 -0.1138609347
O  O70  1  0.55750000  0.58960000  0.18630000  1.0 -0.1138609347
O  O71  1  0.55750000  0.91040000  0.68630000  1.0 -0.115017754
O  O72  1  0.44250000  0.41040000  0.81370000  1.0 -0.1138609347
