# DDEC6 charges by PACMAN v1.1 (https://github.com/mtap-research/PACMAN-charge/)
data_EXUSAT_ASR_pacman
_symmetry_space_group_name_H-M   'P 1'
_cell_length_a   11.58900000
_cell_length_b   17.79200000
_cell_length_c   16.61220000
_cell_angle_alpha   90.00000000
_cell_angle_beta   111.31600000
_cell_angle_gamma   90.00000000
_symmetry_Int_Tables_number   1
_chemical_formula_structural   TbZnH10C22N4O19
_chemical_formula_sum   'Tb4 Zn4 H40 C88 N16 O76'
_cell_volume   3190.96901003
_cell_formula_units_Z   4
loop_
 _symmetry_equiv_pos_site_id
 _symmetry_equiv_pos_as_xyz
  1  'x, y, z'
loop_
 _atom_site_type_symbol
 _atom_site_label
 _atom_site_symmetry_multiplicity
 _atom_site_fract_x
 _atom_site_fract_y
 _atom_site_fract_z
 _atom_site_occupancy
 _atom_site_charge
Tb  Tb1  1  0.04925000  0.01015000  0.13806000  1.0 1.9981160461
Tb  Tb2  1  0.95075000  0.51015000  0.36194000  1.0 1.9981160461
Tb  Tb3  1  0.95075000  0.98985000  0.86194000  1.0 1.9981160461
Tb  Tb4  1  0.04925000  0.48985000  0.63806000  1.0 1.9981160461
Zn  Zn1  1  0.88870000  0.11520000  0.30047000  1.0 0.798696786
Zn  Zn2  1  0.11130000  0.61520000  0.19953000  1.0 0.798696786
Zn  Zn3  1  0.11130000  0.88480000  0.69953000  1.0 0.798696786
Zn  Zn4  1  0.88870000  0.38480000  0.80047000  1.0 0.798696786
H  H1  1  0.58060000  0.92460000  0.85480000  1.0 0.1191740407
H  H2  1  0.41940000  0.42460000  0.64520000  1.0 0.1191740407
H  H3  1  0.41940000  0.07540000  0.14520000  1.0 0.1191740407
H  H4  1  0.58060000  0.57540000  0.35480000  1.0 0.1191740407
H  H5  1  0.34570000  0.88650000  0.97310000  1.0 0.1114251724
H  H6  1  0.65430000  0.38650000  0.52690000  1.0 0.1114251724
H  H7  1  0.65430000  0.11350000  0.02690000  1.0 0.1114251724
H  H8  1  0.34570000  0.61350000  0.47310000  1.0 0.1114251724
H  H9  1  0.70600000  0.91080000  0.11200000  1.0 0.1114251724
H  H10  1  0.29400000  0.41080000  0.38800000  1.0 0.1114251724
H  H11  1  0.29400000  0.08920000  0.88800000  1.0 0.1114251724
H  H12  1  0.70600000  0.58920000  0.61200000  1.0 0.1114251724
H  H13  1  0.96690000  0.82490000  0.24230000  1.0 0.1191740407
H  H14  1  0.03310000  0.32490000  0.25770000  1.0 0.1191740407
H  H15  1  0.03310000  0.17510000  0.75770000  1.0 0.1191740407
H  H16  1  0.96690000  0.67510000  0.74230000  1.0 0.1191740407
H  H17  1  0.83230000  0.69330000  0.37900000  1.0 0.1035769928
H  H18  1  0.16770000  0.19330000  0.12100000  1.0 0.1035769928
H  H19  1  0.16770000  0.30670000  0.62100000  1.0 0.1035769928
H  H20  1  0.83230000  0.80670000  0.87900000  1.0 0.1035769928
H  H21  1  0.85650000  0.91550000  0.42060000  1.0 0.0808998326
H  H22  1  0.14350000  0.41550000  0.07940000  1.0 0.0808998326
H  H23  1  0.14350000  0.08450000  0.57940000  1.0 0.0808998326
H  H24  1  0.85650000  0.58450000  0.92060000  1.0 0.0808998326
H  H25  1  0.80140000  0.08480000  0.44720000  1.0 0.1035769928
H  H26  1  0.19860000  0.58480000  0.05280000  1.0 0.1035769928
H  H27  1  0.19860000  0.91520000  0.55280000  1.0 0.1035769928
H  H28  1  0.80140000  0.41520000  0.94720000  1.0 0.1035769928
H  H29  1  0.76910000  0.14950000  0.55930000  1.0 0.1287861838
H  H30  1  0.23090000  0.64950000  0.94070000  1.0 0.1287861838
H  H31  1  0.23090000  0.85050000  0.44070000  1.0 0.1287861838
H  H32  1  0.76910000  0.35050000  0.05930000  1.0 0.1287861838
H  H33  1  0.81450000  0.27730000  0.57360000  1.0 0.1287861838
H  H34  1  0.18550000  0.77730000  0.92640000  1.0 0.1287861838
H  H35  1  0.18550000  0.72270000  0.42640000  1.0 0.1287861838
H  H36  1  0.81450000  0.22270000  0.07360000  1.0 0.1287861838
H  H37  1  0.90020000  0.26830000  0.36380000  1.0 0.1035769928
H  H38  1  0.09980000  0.76830000  0.13620000  1.0 0.1035769928
H  H39  1  0.09980000  0.73170000  0.63620000  1.0 0.1035769928
H  H40  1  0.90020000  0.23170000  0.86380000  1.0 0.1035769928
C  C1  1  0.78900000  0.94120000  0.98420000  1.0 0.6335177569
C  C2  1  0.21100000  0.44120000  0.51580000  1.0 0.6335177569
C  C3  1  0.21100000  0.05880000  0.01580000  1.0 0.6335177569
C  C4  1  0.78900000  0.55880000  0.48420000  1.0 0.6335177569
C  C5  1  0.66200000  0.92330000  0.98240000  1.0 -0.0319888848
C  C6  1  0.33800000  0.42330000  0.51760000  1.0 -0.0319888848
C  C7  1  0.33800000  0.07670000  0.01760000  1.0 -0.0319888848
C  C8  1  0.66200000  0.57670000  0.48240000  1.0 -0.0319888848
C  C9  1  0.56570000  0.91850000  0.90570000  1.0 -0.158980502
C  C10  1  0.43430000  0.41850000  0.59430000  1.0 -0.158980502
C  C11  1  0.43430000  0.08150000  0.09430000  1.0 -0.158980502
C  C12  1  0.56570000  0.58150000  0.40570000  1.0 -0.158980502
C  C13  1  0.44510000  0.90460000  0.90110000  1.0 0.0019396824
C  C14  1  0.55490000  0.40460000  0.59890000  1.0 0.0019396824
C  C15  1  0.55490000  0.09540000  0.09890000  1.0 0.0019396824
C  C16  1  0.44510000  0.59540000  0.40110000  1.0 0.0019396824
C  C17  1  0.42570000  0.89430000  0.97430000  1.0 -0.158980502
C  C18  1  0.57430000  0.39430000  0.52570000  1.0 -0.158980502
C  C19  1  0.57430000  0.10570000  0.02570000  1.0 -0.158980502
C  C20  1  0.42570000  0.60570000  0.47430000  1.0 -0.158980502
C  C21  1  0.52380000  0.89510000  0.05200000  1.0 -0.0715792727
C  C22  1  0.47620000  0.39510000  0.44800000  1.0 -0.0715792727
C  C23  1  0.47620000  0.10490000  0.94800000  1.0 -0.0715792727
C  C24  1  0.52380000  0.60490000  0.55200000  1.0 -0.0715792727
C  C25  1  0.64140000  0.90980000  0.05860000  1.0 -0.158980502
C  C26  1  0.35860000  0.40980000  0.44140000  1.0 -0.158980502
C  C27  1  0.35860000  0.09020000  0.94140000  1.0 -0.158980502
C  C28  1  0.64140000  0.59020000  0.55860000  1.0 -0.158980502
C  C29  1  0.33610000  0.90110000  0.81390000  1.0 0.5488758384
C  C30  1  0.66390000  0.40110000  0.68610000  1.0 0.5488758384
C  C31  1  0.66390000  0.09890000  0.18610000  1.0 0.5488758384
C  C32  1  0.33610000  0.59890000  0.31390000  1.0 0.5488758384
C  C33  1  0.93660000  0.96160000  0.30110000  1.0 0.5221431552
C  C34  1  0.06340000  0.46160000  0.19890000  1.0 0.5221431552
C  C35  1  0.06340000  0.03840000  0.69890000  1.0 0.5221431552
C  C36  1  0.93660000  0.53840000  0.80110000  1.0 0.5221431552
C  C37  1  0.90300000  0.88370000  0.31810000  1.0 -0.0319888848
C  C38  1  0.09700000  0.38370000  0.18190000  1.0 -0.0319888848
C  C39  1  0.09700000  0.11630000  0.68190000  1.0 -0.0319888848
C  C40  1  0.90300000  0.61630000  0.81810000  1.0 -0.0319888848
C  C41  1  0.92800000  0.82000000  0.28210000  1.0 -0.158980502
C  C42  1  0.07200000  0.32000000  0.21790000  1.0 -0.158980502
C  C43  1  0.07200000  0.18000000  0.71790000  1.0 -0.158980502
C  C44  1  0.92800000  0.68000000  0.78210000  1.0 -0.158980502
C  C45  1  0.89950000  0.74970000  0.30080000  1.0 -0.0094217063
C  C46  1  0.10050000  0.24970000  0.19920000  1.0 -0.0094217063
C  C47  1  0.10050000  0.25030000  0.69920000  1.0 -0.0094217063
C  C48  1  0.89950000  0.75030000  0.80080000  1.0 -0.0094217063
C  C49  1  0.85170000  0.74100000  0.36480000  1.0 -0.2275084519
C  C50  1  0.14830000  0.24100000  0.13520000  1.0 -0.2275084519
C  C51  1  0.14830000  0.25900000  0.63520000  1.0 -0.2275084519
C  C52  1  0.85170000  0.75900000  0.86480000  1.0 -0.2275084519
C  C53  1  0.83290000  0.80320000  0.40790000  1.0 0.0627123936
C  C54  1  0.16710000  0.30320000  0.09210000  1.0 0.0627123936
C  C55  1  0.16710000  0.19680000  0.59210000  1.0 0.0627123936
C  C56  1  0.83290000  0.69680000  0.90790000  1.0 0.0627123936
C  C57  1  0.86290000  0.87430000  0.38810000  1.0 -0.2742796244
C  C58  1  0.13710000  0.37430000  0.11190000  1.0 -0.2792048754
C  C59  1  0.13710000  0.12570000  0.61190000  1.0 -0.2792048754
C  C60  1  0.86290000  0.62570000  0.88810000  1.0 -0.2742796244
C  C61  1  0.93410000  0.67920000  0.26090000  1.0 0.6141519247
C  C62  1  0.06590000  0.17920000  0.23910000  1.0 0.6141519247
C  C63  1  0.06590000  0.32080000  0.73910000  1.0 0.6141519247
C  C64  1  0.93410000  0.82080000  0.76090000  1.0 0.6141519247
C  C65  1  0.81800000  0.13600000  0.45350000  1.0 0.0808998326
C  C66  1  0.18200000  0.63600000  0.04650000  1.0 0.0808998326
C  C67  1  0.18200000  0.86400000  0.54650000  1.0 0.0808998326
C  C68  1  0.81800000  0.36400000  0.95350000  1.0 0.0808998326
C  C69  1  0.79840000  0.17430000  0.52120000  1.0 -0.1458238812
C  C70  1  0.20160000  0.67430000  0.97880000  1.0 -0.1458238812
C  C71  1  0.20160000  0.82570000  0.47880000  1.0 -0.1458238812
C  C72  1  0.79840000  0.32570000  0.02120000  1.0 -0.1458238812
C  C73  1  0.82450000  0.25000000  0.52890000  1.0 -0.0800182672
C  C74  1  0.17550000  0.75000000  0.97110000  1.0 -0.0800182672
C  C75  1  0.17550000  0.75000000  0.47110000  1.0 -0.0800182672
C  C76  1  0.82450000  0.25000000  0.02890000  1.0 -0.0800182672
C  C77  1  0.86500000  0.28530000  0.47070000  1.0 -0.0626251587
C  C78  1  0.13500000  0.78530000  0.02930000  1.0 -0.0626251587
C  C79  1  0.13500000  0.71470000  0.52930000  1.0 -0.0626251587
C  C80  1  0.86500000  0.21470000  0.97070000  1.0 -0.0626251587
C  C81  1  0.87750000  0.24380000  0.40520000  1.0 0.0132495703
C  C82  1  0.12250000  0.74380000  0.09480000  1.0 0.0132495703
C  C83  1  0.12250000  0.75620000  0.59480000  1.0 0.0132495703
C  C84  1  0.87750000  0.25620000  0.90520000  1.0 0.0132495703
C  C85  1  0.89860000  0.36840000  0.47590000  1.0 0.6335177569
C  C86  1  0.10140000  0.86840000  0.02410000  1.0 0.6335177569
C  C87  1  0.10140000  0.63160000  0.52410000  1.0 0.6335177569
C  C88  1  0.89860000  0.13160000  0.97590000  1.0 0.6335177569
N  N1  1  0.50100000  0.88270000  0.13260000  1.0 0.4286805315
N  N2  1  0.49900000  0.38270000  0.36740000  1.0 0.4286805315
N  N3  1  0.49900000  0.11730000  0.86740000  1.0 0.4286805315
N  N4  1  0.50100000  0.61730000  0.63260000  1.0 0.4286805315
N  N5  1  0.85890000  0.16980000  0.39790000  1.0 -0.2792048754
N  N6  1  0.14110000  0.66980000  0.10210000  1.0 -0.2792048754
N  N7  1  0.14110000  0.83020000  0.60210000  1.0 -0.2792048754
N  N8  1  0.85890000  0.33020000  0.89790000  1.0 -0.2792048754
N  N9  1  0.77100000  0.79400000  0.46300000  1.0 0.2907022684
N  N10  1  0.22900000  0.29400000  0.03700000  1.0 0.2907022684
N  N11  1  0.22900000  0.20600000  0.53700000  1.0 0.2907022684
N  N12  1  0.77100000  0.70600000  0.96300000  1.0 0.2907022684
N  N13  1  0.81500000  0.79600000  0.49500000  1.0 0.3104761242
N  N14  1  0.18500000  0.29600000  0.00500000  1.0 0.3104761242
N  N15  1  0.18500000  0.20400000  0.50500000  1.0 0.3104761242
N  N16  1  0.81500000  0.70400000  0.99500000  1.0 0.3104761242
O  O1  1  0.86880000  0.95220000  0.05710000  1.0 -0.6734417082
O  O2  1  0.13120000  0.45220000  0.44290000  1.0 -0.6734417082
O  O3  1  0.13120000  0.04780000  0.94290000  1.0 -0.6734417082
O  O4  1  0.86880000  0.54780000  0.55710000  1.0 -0.6734417082
O  O5  1  0.80540000  0.94470000  0.91370000  1.0 -0.7083360405
O  O6  1  0.19460000  0.44470000  0.58630000  1.0 -0.7083360405
O  O7  1  0.19460000  0.05530000  0.08630000  1.0 -0.7083360405
O  O8  1  0.80540000  0.55530000  0.41370000  1.0 -0.7083360405
O  O9  1  0.35090000  0.92230000  0.75110000  1.0 -0.4787805231
O  O10  1  0.64910000  0.42230000  0.74890000  1.0 -0.4787805231
O  O11  1  0.64910000  0.07770000  0.24890000  1.0 -0.4787805231
O  O12  1  0.35090000  0.57770000  0.25110000  1.0 -0.4787805231
O  O13  1  0.23260000  0.88450000  0.81460000  1.0 -0.5047023633
O  O14  1  0.76740000  0.38450000  0.68540000  1.0 -0.5047023633
O  O15  1  0.76740000  0.11550000  0.18540000  1.0 -0.5047023633
O  O16  1  0.23260000  0.61550000  0.31460000  1.0 -0.5047023633
O  O17  1  0.39100000  0.89650000  0.13100000  1.0 -0.0094217063
O  O18  1  0.60900000  0.39650000  0.36900000  1.0 -0.0094217063
O  O19  1  0.60900000  0.10350000  0.86900000  1.0 -0.0094217063
O  O20  1  0.39100000  0.60350000  0.63100000  1.0 -0.0094217063
O  O21  1  0.58300000  0.90700000  0.20100000  1.0 -0.0715792727
O  O22  1  0.41700000  0.40700000  0.29900000  1.0 -0.0715792727
O  O23  1  0.41700000  0.09300000  0.79900000  1.0 -0.0715792727
O  O24  1  0.58300000  0.59300000  0.70100000  1.0 -0.0715792727
O  O25  1  0.92620000  0.01240000  0.34500000  1.0 -0.5047023633
O  O26  1  0.07380000  0.51240000  0.15500000  1.0 -0.5047023633
O  O27  1  0.07380000  0.98760000  0.65500000  1.0 -0.5047023633
O  O28  1  0.92620000  0.48760000  0.84500000  1.0 -0.5047023633
O  O29  1  0.93400000  0.98630000  0.21400000  1.0 -0.2109332273
O  O30  1  0.06600000  0.48630000  0.28600000  1.0 -0.2109332273
O  O31  1  0.06600000  0.01370000  0.78600000  1.0 -0.2109332273
O  O32  1  0.93400000  0.51370000  0.71400000  1.0 -0.2109332273
O  O33  1  0.99850000  0.69010000  0.21670000  1.0 -0.5430851878
O  O34  1  0.00150000  0.19010000  0.28330000  1.0 -0.5430851878
O  O35  1  0.00150000  0.30990000  0.78330000  1.0 -0.5430851878
O  O36  1  0.99850000  0.80990000  0.71670000  1.0 -0.5430851878
O  O37  1  0.90090000  0.61730000  0.27890000  1.0 -0.6833920182
O  O38  1  0.09910000  0.11730000  0.22110000  1.0 -0.6833920182
O  O39  1  0.09910000  0.38270000  0.72110000  1.0 -0.6833920182
O  O40  1  0.90090000  0.88270000  0.77890000  1.0 -0.6833920182
O  O41  1  0.72600000  0.73940000  0.47300000  1.0 -0.0319888848
O  O42  1  0.27400000  0.23940000  0.02700000  1.0 -0.0319888848
O  O43  1  0.27400000  0.26060000  0.52700000  1.0 -0.0319888848
O  O44  1  0.72600000  0.76060000  0.97300000  1.0 -0.0319888848
O  O45  1  0.75200000  0.84600000  0.50200000  1.0 0.0221023493
O  O46  1  0.24800000  0.34600000  0.99800000  1.0 0.0221023493
O  O47  1  0.24800000  0.15400000  0.49800000  1.0 0.0221023493
O  O48  1  0.75200000  0.65400000  0.00200000  1.0 0.0221023493
O  O49  1  0.93120000  0.39680000  0.54860000  1.0 -0.6554563494
O  O50  1  0.06880000  0.89680000  0.95140000  1.0 -0.6554563494
O  O51  1  0.06880000  0.60320000  0.45140000  1.0 -0.6554563494
O  O52  1  0.93120000  0.10320000  0.04860000  1.0 -0.6554563494
O  O53  1  0.89300000  0.39920000  0.40690000  1.0 -0.7032792272
O  O54  1  0.10700000  0.89920000  0.09310000  1.0 -0.7032792272
O  O55  1  0.10700000  0.60080000  0.59310000  1.0 -0.7032792272
O  O56  1  0.89300000  0.10080000  0.90690000  1.0 -0.7032792272
O  O57  1  0.39900000  0.85300000  0.12400000  1.0 0.0019396824
O  O58  1  0.60100000  0.35300000  0.37600000  1.0 0.0019396824
O  O59  1  0.60100000  0.14700000  0.87600000  1.0 0.0019396824
O  O60  1  0.39900000  0.64700000  0.62400000  1.0 0.0019396824
O  O61  1  0.59100000  0.86300000  0.19900000  1.0 -0.1168538557
O  O62  1  0.40900000  0.36300000  0.30100000  1.0 -0.1168538557
O  O63  1  0.40900000  0.13700000  0.80100000  1.0 -0.1168538557
O  O64  1  0.59100000  0.63700000  0.69900000  1.0 -0.1168538557
O  O65  1  0.80420000  0.73190000  0.51920000  1.0 -0.0715792727
O  O66  1  0.19580000  0.23190000  0.98080000  1.0 -0.0715792727
O  O67  1  0.19580000  0.26810000  0.48080000  1.0 -0.0715792727
O  O68  1  0.80420000  0.76810000  0.01920000  1.0 -0.0715792727
O  O69  1  0.81450000  0.85000000  0.53750000  1.0 -0.0408344345
O  O70  1  0.18550000  0.35000000  0.96250000  1.0 -0.0408344345
O  O71  1  0.18550000  0.15000000  0.46250000  1.0 -0.0408344345
O  O72  1  0.81450000  0.65000000  0.03750000  1.0 -0.0408344345
O  O73  1  0.98680000  0.96650000  0.24780000  1.0 -0.2109332273
O  O74  1  0.01320000  0.46650000  0.25220000  1.0 -0.2109332273
O  O75  1  0.01320000  0.03350000  0.75220000  1.0 -0.2109332273
O  O76  1  0.98680000  0.53350000  0.74780000  1.0 -0.2109332273
