# DDEC6 charges by PACMAN v1.1 (https://github.com/mtap-research/PACMAN-charge/)
data_EYINOR_ASR_pacman
_symmetry_space_group_name_H-M   'P 1'
_cell_length_a   18.23460000
_cell_length_b   18.23460000
_cell_length_c   19.37890000
_cell_angle_alpha   86.66840000
_cell_angle_beta   93.33160000
_cell_angle_gamma   109.89200000
_symmetry_Int_Tables_number   1
_chemical_formula_structural   Yb2H9(C5O2)6
_chemical_formula_sum   'Yb8 H36 C120 O48'
_cell_volume   6043.76195334
_cell_formula_units_Z   4
loop_
 _symmetry_equiv_pos_site_id
 _symmetry_equiv_pos_as_xyz
  1  'x, y, z'
loop_
 _atom_site_type_symbol
 _atom_site_label
 _atom_site_symmetry_multiplicity
 _atom_site_fract_x
 _atom_site_fract_y
 _atom_site_fract_z
 _atom_site_occupancy
 _atom_site_charge
Yb  Yb1  1  0.54727000  0.10113000  0.94288000  1.0 2.041636877
Yb  Yb2  1  0.10113000  0.54727000  0.55712000  1.0 2.041636877
Yb  Yb3  1  0.45273000  0.89887000  0.05712000  1.0 2.041636877
Yb  Yb4  1  0.89887000  0.45273000  0.44288000  1.0 2.041636877
Yb  Yb5  1  0.98870000  0.35306000  0.03695000  1.0 2.0266601371
Yb  Yb6  1  0.35306000  0.98870000  0.46305000  1.0 2.0266601371
Yb  Yb7  1  0.01130000  0.64694000  0.96305000  1.0 2.0212053585
Yb  Yb8  1  0.64694000  0.01130000  0.53695000  1.0 2.0212053585
H  H1  1  0.59150000  0.38130000  0.90570000  1.0 0.1300130307
H  H2  1  0.38130000  0.59150000  0.59430000  1.0 0.1300130307
H  H3  1  0.40850000  0.61870000  0.09430000  1.0 0.1300130307
H  H4  1  0.61870000  0.40850000  0.40570000  1.0 0.1300130307
H  H5  1  0.79830000  0.54910000  0.94340000  1.0 0.1182030815
H  H6  1  0.54910000  0.79830000  0.55660000  1.0 0.1182030815
H  H7  1  0.20170000  0.45090000  0.05660000  1.0 0.1182030815
H  H8  1  0.45090000  0.20170000  0.44340000  1.0 0.1182030815
H  H9  1  0.76950000  0.32690000  0.00230000  1.0 0.1354333507
H  H10  1  0.32690000  0.76950000  0.49770000  1.0 0.1354333507
H  H11  1  0.23050000  0.67310000  0.99770000  1.0 0.1354333507
H  H12  1  0.67310000  0.23050000  0.50230000  1.0 0.1354333507
H  H13  1  0.62370000  0.79510000  0.70810000  1.0 0.1182030815
H  H14  1  0.79510000  0.62370000  0.79190000  1.0 0.1182030815
H  H15  1  0.37630000  0.20490000  0.29190000  1.0 0.1182030815
H  H16  1  0.20490000  0.37630000  0.20810000  1.0 0.1182030815
H  H17  1  0.56020000  0.96800000  0.77060000  1.0 0.1300130307
H  H18  1  0.96800000  0.56020000  0.72940000  1.0 0.1300130307
H  H19  1  0.43980000  0.03200000  0.22940000  1.0 0.1300130307
H  H20  1  0.03200000  0.43980000  0.27060000  1.0 0.1300130307
H  H21  1  0.55150000  0.78770000  0.90200000  1.0 0.1300130307
H  H22  1  0.78770000  0.55150000  0.59800000  1.0 0.1300130307
H  H23  1  0.44850000  0.21230000  0.09800000  1.0 0.1300130307
H  H24  1  0.21230000  0.44850000  0.40200000  1.0 0.1300130307
H  H25  1  0.73420000  0.13180000  0.03890000  1.0 0.1354333507
H  H26  1  0.13180000  0.73420000  0.46110000  1.0 0.1354333507
H  H27  1  0.26580000  0.86820000  0.96110000  1.0 0.1354333507
H  H28  1  0.86820000  0.26580000  0.53890000  1.0 0.1354333507
H  H29  1  0.70800000  0.92720000  0.13960000  1.0 0.1300130307
H  H30  1  0.92720000  0.70800000  0.36040000  1.0 0.1300130307
H  H31  1  0.29200000  0.07280000  0.86040000  1.0 0.1354333507
H  H32  1  0.07280000  0.29200000  0.63960000  1.0 0.1354333507
H  H33  1  0.91430000  0.10410000  0.15160000  1.0 0.1300130307
H  H34  1  0.10410000  0.91430000  0.34840000  1.0 0.1300130307
H  H35  1  0.08570000  0.89590000  0.84840000  1.0 0.1300130307
H  H36  1  0.89590000  0.08570000  0.65160000  1.0 0.1300130307
C  C1  1  0.62320000  0.25660000  0.95530000  1.0 0.5532597902
C  C2  1  0.25660000  0.62320000  0.54470000  1.0 0.5532597902
C  C3  1  0.37680000  0.74340000  0.04470000  1.0 0.5532597902
C  C4  1  0.74340000  0.37680000  0.45530000  1.0 0.5532597902
C  C5  1  0.67230000  0.34030000  0.95320000  1.0 -0.0292071888
C  C6  1  0.34030000  0.67230000  0.54680000  1.0 -0.0292071888
C  C7  1  0.32770000  0.65970000  0.04680000  1.0 -0.0292071888
C  C8  1  0.65970000  0.32770000  0.45320000  1.0 -0.0292071888
C  C9  1  0.64270000  0.39630000  0.92340000  1.0 -0.1280419451
C  C10  1  0.39630000  0.64270000  0.57660000  1.0 -0.1280419451
C  C11  1  0.35730000  0.60370000  0.07660000  1.0 -0.1280419451
C  C12  1  0.60370000  0.35730000  0.42340000  1.0 -0.1280419451
C  C13  1  0.68980000  0.47540000  0.91970000  1.0 0.1094223487
C  C14  1  0.47540000  0.68980000  0.58030000  1.0 0.1094223487
C  C15  1  0.31020000  0.52460000  0.08030000  1.0 0.1094223487
C  C16  1  0.52460000  0.31020000  0.41970000  1.0 0.1094223487
C  C17  1  0.76670000  0.49690000  0.94600000  1.0 -0.1366695238
C  C18  1  0.49690000  0.76670000  0.55400000  1.0 -0.1366695238
C  C19  1  0.23330000  0.50310000  0.05400000  1.0 -0.1366695238
C  C20  1  0.50310000  0.23330000  0.44600000  1.0 -0.1366695238
C  C21  1  0.79630000  0.44150000  0.97610000  1.0 -0.0389126811
C  C22  1  0.44150000  0.79630000  0.52390000  1.0 -0.0389126811
C  C23  1  0.20370000  0.55850000  0.02390000  1.0 -0.0389126811
C  C24  1  0.55850000  0.20370000  0.47610000  1.0 -0.0389126811
C  C25  1  0.74980000  0.36360000  0.98090000  1.0 -0.0954125447
C  C26  1  0.36360000  0.74980000  0.51910000  1.0 -0.0954125447
C  C27  1  0.25020000  0.63640000  0.01910000  1.0 -0.0954125447
C  C28  1  0.63640000  0.25020000  0.48090000  1.0 -0.0954125447
C  C29  1  0.87960000  0.46780000  0.00450000  1.0 0.6734547841
C  C30  1  0.46780000  0.87960000  0.49550000  1.0 0.6734547841
C  C31  1  0.12040000  0.53220000  0.99550000  1.0 0.6734547841
C  C32  1  0.53220000  0.12040000  0.50450000  1.0 0.6734547841
C  C33  1  0.65970000  0.53330000  0.88870000  1.0 -0.0891027895
C  C34  1  0.53330000  0.65970000  0.61130000  1.0 -0.0891027895
C  C35  1  0.34030000  0.46670000  0.11130000  1.0 -0.0891027895
C  C36  1  0.46670000  0.34030000  0.38870000  1.0 -0.0805849148
C  C37  1  0.64020000  0.58660000  0.86590000  1.0 -0.0472697352
C  C38  1  0.58660000  0.64020000  0.63410000  1.0 -0.0472697352
C  C39  1  0.35980000  0.41340000  0.13410000  1.0 -0.0472697352
C  C40  1  0.41340000  0.35980000  0.36590000  1.0 -0.0472697352
C  C41  1  0.62070000  0.65050000  0.84220000  1.0 -0.0389126811
C  C42  1  0.65050000  0.62070000  0.65780000  1.0 -0.0389126811
C  C43  1  0.37930000  0.34950000  0.15780000  1.0 -0.0389126811
C  C44  1  0.34950000  0.37930000  0.34220000  1.0 -0.0389126811
C  C45  1  0.60510000  0.70750000  0.82290000  1.0 -0.0891027895
C  C46  1  0.70750000  0.60510000  0.67710000  1.0 -0.0891027895
C  C47  1  0.39490000  0.29250000  0.17710000  1.0 -0.0891027895
C  C48  1  0.29250000  0.39490000  0.32290000  1.0 -0.0891027895
C  C49  1  0.59110000  0.77690000  0.80800000  1.0 0.1034173092
C  C50  1  0.77690000  0.59110000  0.69200000  1.0 0.1034173092
C  C51  1  0.40890000  0.22310000  0.19200000  1.0 0.1034173092
C  C52  1  0.22310000  0.40890000  0.30800000  1.0 0.1034173092
C  C53  1  0.60620000  0.81720000  0.74300000  1.0 -0.1093250138
C  C54  1  0.81720000  0.60620000  0.75700000  1.0 -0.1093250138
C  C55  1  0.39380000  0.18280000  0.25700000  1.0 -0.1093250138
C  C56  1  0.18280000  0.39380000  0.24300000  1.0 -0.1093250138
C  C57  1  0.59590000  0.88770000  0.72990000  1.0 -0.0210607019
C  C58  1  0.88770000  0.59590000  0.77010000  1.0 -0.0210607019
C  C59  1  0.40410000  0.11230000  0.27010000  1.0 -0.0210607019
C  C60  1  0.11230000  0.40410000  0.22990000  1.0 -0.0210607019
C  C61  1  0.56800000  0.92060000  0.78020000  1.0 -0.0805849148
C  C62  1  0.92060000  0.56800000  0.71980000  1.0 -0.0805849148
C  C63  1  0.43200000  0.07940000  0.21980000  1.0 -0.0805849148
C  C64  1  0.07940000  0.43200000  0.28020000  1.0 -0.0805849148
C  C65  1  0.55130000  0.88350000  0.84580000  1.0 -0.0578979307
C  C66  1  0.88350000  0.55130000  0.65420000  1.0 -0.0578979307
C  C67  1  0.44870000  0.11650000  0.15420000  1.0 -0.0578979307
C  C68  1  0.11650000  0.44870000  0.34580000  1.0 -0.0578979307
C  C69  1  0.56270000  0.81270000  0.85870000  1.0 -0.1093250138
C  C70  1  0.81270000  0.56270000  0.64130000  1.0 -0.1093250138
C  C71  1  0.43730000  0.18730000  0.14130000  1.0 -0.1093250138
C  C72  1  0.18730000  0.43730000  0.35870000  1.0 -0.1093250138
C  C73  1  0.61360000  0.93000000  0.66130000  1.0 0.5710371959
C  C74  1  0.93000000  0.61360000  0.83870000  1.0 0.5710371959
C  C75  1  0.38640000  0.07000000  0.33870000  1.0 0.5710371959
C  C76  1  0.07000000  0.38640000  0.16130000  1.0 0.5710371959
C  C77  1  0.52310000  0.91990000  0.90070000  1.0 0.6528759229
C  C78  1  0.91990000  0.52310000  0.59930000  1.0 0.6528759229
C  C79  1  0.47690000  0.08010000  0.09930000  1.0 0.6528759229
C  C80  1  0.08010000  0.47690000  0.40070000  1.0 0.6528759229
C  C81  1  0.88230000  0.21010000  0.07370000  1.0 0.5532597902
C  C82  1  0.21010000  0.88230000  0.42630000  1.0 0.5532597902
C  C83  1  0.11770000  0.78990000  0.92630000  1.0 0.5532597902
C  C84  1  0.78990000  0.11770000  0.57370000  1.0 0.5532597902
C  C85  1  0.83220000  0.12960000  0.09240000  1.0 -0.0210607019
C  C86  1  0.12960000  0.83220000  0.40760000  1.0 -0.0210607019
C  C87  1  0.16780000  0.87040000  0.90760000  1.0 -0.0210607019
C  C88  1  0.87040000  0.16780000  0.59240000  1.0 -0.0210607019
C  C89  1  0.75480000  0.10060000  0.06770000  1.0 -0.0891027895
C  C90  1  0.10060000  0.75480000  0.43230000  1.0 -0.0891027895
C  C91  1  0.24520000  0.89940000  0.93230000  1.0 -0.0891027895
C  C92  1  0.89940000  0.24520000  0.56770000  1.0 -0.0891027895
C  C93  1  0.70910000  0.02550000  0.08620000  1.0 -0.0210607019
C  C94  1  0.02550000  0.70910000  0.41380000  1.0 -0.0210607019
C  C95  1  0.29090000  0.97450000  0.91380000  1.0 -0.0210607019
C  C96  1  0.97450000  0.29090000  0.58620000  1.0 -0.0210607019
C  C97  1  0.73920000  0.97780000  0.12750000  1.0 -0.1192539406
C  C98  1  0.97780000  0.73920000  0.37250000  1.0 -0.1192539406
C  C99  1  0.26080000  0.02220000  0.87250000  1.0 -0.1192539406
C  C100  1  0.02220000  0.26080000  0.62750000  1.0 -0.1192539406
C  C101  1  0.81670000  0.00590000  0.15110000  1.0 0.092569303
C  C102  1  0.00590000  0.81670000  0.34890000  1.0 0.092569303
C  C103  1  0.18330000  0.99410000  0.84890000  1.0 0.092569303
C  C104  1  0.99410000  0.18330000  0.65110000  1.0 0.092569303
C  C105  1  0.86310000  0.08410000  0.13420000  1.0 -0.1192539406
C  C106  1  0.08410000  0.86310000  0.36580000  1.0 -0.1192539406
C  C107  1  0.13690000  0.91590000  0.86580000  1.0 -0.1192539406
C  C108  1  0.91590000  0.13690000  0.63420000  1.0 -0.1192539406
C  C109  1  0.62370000  0.99310000  0.06200000  1.0 0.6365498978
C  C110  1  0.99310000  0.62370000  0.43800000  1.0 0.6365498978
C  C111  1  0.37630000  0.00690000  0.93800000  1.0 0.6365498978
C  C112  1  0.00690000  0.37630000  0.56200000  1.0 0.6365498978
C  C113  1  0.85030000  0.95850000  0.19490000  1.0 -0.0685568673
C  C114  1  0.95850000  0.85030000  0.30510000  1.0 -0.0685568673
C  C115  1  0.14970000  0.04150000  0.80510000  1.0 -0.0685568673
C  C116  1  0.04150000  0.14970000  0.69490000  1.0 -0.0685568673
C  C117  1  0.88220000  0.92260000  0.22910000  1.0 -0.0389126811
C  C118  1  0.92260000  0.88220000  0.27090000  1.0 -0.0292071888
C  C119  1  0.11780000  0.07740000  0.77090000  1.0 -0.0389126811
C  C120  1  0.07740000  0.11780000  0.72910000  1.0 -0.0389126811
O  O1  1  0.55530000  0.23510000  0.92960000  1.0 -0.6300403622
O  O2  1  0.23510000  0.55530000  0.57040000  1.0 -0.6300403622
O  O3  1  0.44470000  0.76490000  0.07040000  1.0 -0.6300403622
O  O4  1  0.76490000  0.44470000  0.42960000  1.0 -0.6300403622
O  O5  1  0.65190000  0.20670000  0.98060000  1.0 -0.6393944991
O  O6  1  0.20670000  0.65190000  0.51940000  1.0 -0.6393944991
O  O7  1  0.34810000  0.79330000  0.01940000  1.0 -0.6393944991
O  O8  1  0.79330000  0.34810000  0.48060000  1.0 -0.6393944991
O  O9  1  0.90310000  0.41710000  0.03330000  1.0 -0.6562079859
O  O10  1  0.41710000  0.90310000  0.46670000  1.0 -0.6562079859
O  O11  1  0.09690000  0.58290000  0.96670000  1.0 -0.654400177
O  O12  1  0.58290000  0.09690000  0.53330000  1.0 -0.6562079859
O  O13  1  0.92030000  0.53690000  0.99660000  1.0 -0.6795042974
O  O14  1  0.53690000  0.92030000  0.50340000  1.0 -0.6795042974
O  O15  1  0.07970000  0.46310000  0.00340000  1.0 -0.6795042974
O  O16  1  0.46310000  0.07970000  0.49660000  1.0 -0.6795042974
O  O17  1  0.64702000  0.90518000  0.61810000  1.0 -0.613931067
O  O18  1  0.90518000  0.64702000  0.88190000  1.0 -0.616433727
O  O19  1  0.35298000  0.09482000  0.38190000  1.0 -0.616433727
O  O20  1  0.09482000  0.35298000  0.11810000  1.0 -0.616433727
O  O21  1  0.59424000  0.98856000  0.64710000  1.0 -0.6023408097
O  O22  1  0.98856000  0.59424000  0.85290000  1.0 -0.6023408097
O  O23  1  0.40576000  0.01144000  0.35290000  1.0 -0.6023408097
O  O24  1  0.01144000  0.40576000  0.14710000  1.0 -0.6023408097
O  O25  1  0.50244000  0.88136000  0.95540000  1.0 -0.6300403622
O  O26  1  0.88136000  0.50244000  0.54460000  1.0 -0.6300403622
O  O27  1  0.49756000  0.11864000  0.04460000  1.0 -0.6300403622
O  O28  1  0.11864000  0.49756000  0.45540000  1.0 -0.6300403622
O  O29  1  0.52479000  0.98861000  0.88870000  1.0 -0.7005651665
O  O30  1  0.98861000  0.52479000  0.61130000  1.0 -0.7005651665
O  O31  1  0.47521000  0.01139000  0.11130000  1.0 -0.7005651665
O  O32  1  0.01139000  0.47521000  0.38870000  1.0 -0.7005651665
O  O33  1  0.86570000  0.24810000  0.02510000  1.0 -0.5770179701
O  O34  1  0.24810000  0.86570000  0.47490000  1.0 -0.5770179701
O  O35  1  0.13430000  0.75190000  0.97490000  1.0 -0.5770179701
O  O36  1  0.75190000  0.13430000  0.52510000  1.0 -0.5720567179
O  O37  1  0.94340000  0.24120000  0.10810000  1.0 -0.5942437125
O  O38  1  0.24120000  0.94340000  0.39190000  1.0 -0.5942437125
O  O39  1  0.05660000  0.75880000  0.89190000  1.0 -0.5942437125
O  O40  1  0.75880000  0.05660000  0.60810000  1.0 -0.5942437125
O  O41  1  0.59900000  0.03220000  0.01850000  1.0 -0.7005651665
O  O42  1  0.03220000  0.59900000  0.48150000  1.0 -0.7070290518
O  O43  1  0.40100000  0.96780000  0.98150000  1.0 -0.7005651665
O  O44  1  0.96780000  0.40100000  0.51850000  1.0 -0.7005651665
O  O45  1  0.58335000  0.92985000  0.08760000  1.0 -0.6023408097
O  O46  1  0.92985000  0.58335000  0.41240000  1.0 -0.6023408097
O  O47  1  0.41665000  0.07015000  0.91240000  1.0 -0.6023408097
O  O48  1  0.07015000  0.41665000  0.58760000  1.0 -0.6023408097
