# DDEC6 charges by PACMAN v1.1 (https://github.com/mtap-research/PACMAN-charge/)
data_EYIYES_ASR_pacman
_symmetry_space_group_name_H-M   'P 1'
_cell_length_a   18.33110000
_cell_length_b   18.33110000
_cell_length_c   19.43850000
_cell_angle_alpha   86.74910000
_cell_angle_beta   93.25090000
_cell_angle_gamma   109.57500000
_symmetry_Int_Tables_number   1
_chemical_formula_structural   Dy2H9(C5O2)6
_chemical_formula_sum   'Dy8 H36 C120 O48'
_cell_volume   6139.54184512
_cell_formula_units_Z   4
loop_
 _symmetry_equiv_pos_site_id
 _symmetry_equiv_pos_as_xyz
  1  'x, y, z'
loop_
 _atom_site_type_symbol
 _atom_site_label
 _atom_site_symmetry_multiplicity
 _atom_site_fract_x
 _atom_site_fract_y
 _atom_site_fract_z
 _atom_site_occupancy
 _atom_site_charge
Dy  Dy1  1  0.54890000  0.10196000  0.94115000  1.0 2.0586320367
Dy  Dy2  1  0.10196000  0.54890000  0.55885000  1.0 2.0586320367
Dy  Dy3  1  0.45110000  0.89804000  0.05885000  1.0 2.0586320367
Dy  Dy4  1  0.89804000  0.45110000  0.44115000  1.0 2.0586320367
Dy  Dy5  1  0.98847000  0.35093000  0.03652000  1.0 2.0306896772
Dy  Dy6  1  0.35093000  0.98847000  0.46348000  1.0 2.0306896772
Dy  Dy7  1  0.01153000  0.64907000  0.96348000  1.0 2.0306896772
Dy  Dy8  1  0.64907000  0.01153000  0.53652000  1.0 2.0306896772
H  H1  1  0.59510000  0.38330000  0.90300000  1.0 0.1213737459
H  H2  1  0.38330000  0.59510000  0.59700000  1.0 0.1213737459
H  H3  1  0.40490000  0.61670000  0.09700000  1.0 0.1213737459
H  H4  1  0.61670000  0.40490000  0.40300000  1.0 0.1213737459
H  H5  1  0.79990000  0.54930000  0.94130000  1.0 0.1213737459
H  H6  1  0.54930000  0.79990000  0.55870000  1.0 0.1213737459
H  H7  1  0.20010000  0.45070000  0.05870000  1.0 0.1213737459
H  H8  1  0.45070000  0.20010000  0.44130000  1.0 0.1213737459
H  H9  1  0.77140000  0.33040000  0.00380000  1.0 0.1385503132
H  H10  1  0.33040000  0.77140000  0.49620000  1.0 0.1385503132
H  H11  1  0.22860000  0.66960000  0.99620000  1.0 0.1385503132
H  H12  1  0.66960000  0.22860000  0.50380000  1.0 0.1385503132
H  H13  1  0.62640000  0.79420000  0.70880000  1.0 0.1213737459
H  H14  1  0.79420000  0.62640000  0.79120000  1.0 0.1213737459
H  H15  1  0.37360000  0.20580000  0.29120000  1.0 0.1213737459
H  H16  1  0.20580000  0.37360000  0.20880000  1.0 0.1213737459
H  H17  1  0.56270000  0.96750000  0.77330000  1.0 0.1289767046
H  H18  1  0.96750000  0.56270000  0.72670000  1.0 0.1289767046
H  H19  1  0.43730000  0.03250000  0.22670000  1.0 0.1289767046
H  H20  1  0.03250000  0.43730000  0.27330000  1.0 0.1289767046
H  H21  1  0.55380000  0.78600000  0.90240000  1.0 0.1289767046
H  H22  1  0.78600000  0.55380000  0.59760000  1.0 0.1289767046
H  H23  1  0.44620000  0.21400000  0.09760000  1.0 0.1289767046
H  H24  1  0.21400000  0.44620000  0.40240000  1.0 0.1289767046
H  H25  1  0.73440000  0.13020000  0.03790000  1.0 0.1289767046
H  H26  1  0.13020000  0.73440000  0.46210000  1.0 0.1289767046
H  H27  1  0.26560000  0.86980000  0.96210000  1.0 0.1289767046
H  H28  1  0.86980000  0.26560000  0.53790000  1.0 0.1289767046
H  H29  1  0.70970000  0.92350000  0.13670000  1.0 0.1289767046
H  H30  1  0.92350000  0.70970000  0.36330000  1.0 0.1289767046
H  H31  1  0.29030000  0.07650000  0.86330000  1.0 0.1289767046
H  H32  1  0.07650000  0.29030000  0.63670000  1.0 0.1289767046
H  H33  1  0.91410000  0.09870000  0.14940000  1.0 0.1289767046
H  H34  1  0.09870000  0.91410000  0.35060000  1.0 0.1289767046
H  H35  1  0.08590000  0.90130000  0.85060000  1.0 0.1289767046
H  H36  1  0.90130000  0.08590000  0.64940000  1.0 0.1289767046
C  C1  1  0.62530000  0.25970000  0.95620000  1.0 0.5533201899
C  C2  1  0.25970000  0.62530000  0.54380000  1.0 0.5533201899
C  C3  1  0.37470000  0.74030000  0.04380000  1.0 0.5533201899
C  C4  1  0.74030000  0.37470000  0.45620000  1.0 0.5533201899
C  C5  1  0.67490000  0.34330000  0.95360000  1.0 -0.0167189051
C  C6  1  0.34330000  0.67490000  0.54640000  1.0 -0.0167189051
C  C7  1  0.32510000  0.65670000  0.04640000  1.0 -0.0167189051
C  C8  1  0.65670000  0.32510000  0.45360000  1.0 -0.0167189051
C  C9  1  0.64540000  0.39880000  0.92190000  1.0 -0.1225618731
C  C10  1  0.39880000  0.64540000  0.57810000  1.0 -0.1225618731
C  C11  1  0.35460000  0.60120000  0.07810000  1.0 -0.1225618731
C  C12  1  0.60120000  0.35460000  0.42190000  1.0 -0.1225618731
C  C13  1  0.69070000  0.47690000  0.91830000  1.0 0.102823982
C  C14  1  0.47690000  0.69070000  0.58170000  1.0 0.102823982
C  C15  1  0.30930000  0.52310000  0.08170000  1.0 0.102823982
C  C16  1  0.52310000  0.30930000  0.41830000  1.0 0.102823982
C  C17  1  0.76820000  0.49780000  0.94480000  1.0 -0.1225618731
C  C18  1  0.49780000  0.76820000  0.55520000  1.0 -0.1257997769
C  C19  1  0.23180000  0.50220000  0.05520000  1.0 -0.1225618731
C  C20  1  0.50220000  0.23180000  0.44480000  1.0 -0.1225618731
C  C21  1  0.79690000  0.44470000  0.97490000  1.0 -0.0421522128
C  C22  1  0.44470000  0.79690000  0.52510000  1.0 -0.0421522128
C  C23  1  0.20310000  0.55530000  0.02510000  1.0 -0.0421522128
C  C24  1  0.55530000  0.20310000  0.47490000  1.0 -0.0421522128
C  C25  1  0.75140000  0.36640000  0.98150000  1.0 -0.1002314097
C  C26  1  0.36640000  0.75140000  0.51850000  1.0 -0.1002314097
C  C27  1  0.24860000  0.63360000  0.01850000  1.0 -0.1002314097
C  C28  1  0.63360000  0.24860000  0.48150000  1.0 -0.1002314097
C  C29  1  0.87980000  0.46880000  0.00440000  1.0 0.6695691105
C  C30  1  0.46880000  0.87980000  0.49560000  1.0 0.6695691105
C  C31  1  0.12020000  0.53120000  0.99560000  1.0 0.6695691105
C  C32  1  0.53120000  0.12020000  0.50440000  1.0 0.6695691105
C  C33  1  0.66160000  0.53360000  0.88800000  1.0 -0.0865830649
C  C34  1  0.53360000  0.66160000  0.61200000  1.0 -0.0865830649
C  C35  1  0.33840000  0.46640000  0.11200000  1.0 -0.0865830649
C  C36  1  0.46640000  0.33840000  0.38800000  1.0 -0.0865830649
C  C37  1  0.64200000  0.58700000  0.86660000  1.0 -0.0421522128
C  C38  1  0.58700000  0.64200000  0.63340000  1.0 -0.0421522128
C  C39  1  0.35800000  0.41300000  0.13340000  1.0 -0.0421522128
C  C40  1  0.41300000  0.35800000  0.36660000  1.0 -0.0421522128
C  C41  1  0.62210000  0.65070000  0.84260000  1.0 -0.0421522128
C  C42  1  0.65070000  0.62210000  0.65740000  1.0 -0.0421522128
C  C43  1  0.37790000  0.34930000  0.15740000  1.0 -0.0421522128
C  C44  1  0.34930000  0.37790000  0.34260000  1.0 -0.0421522128
C  C45  1  0.60830000  0.70870000  0.82470000  1.0 -0.0865830649
C  C46  1  0.70870000  0.60830000  0.67530000  1.0 -0.0865830649
C  C47  1  0.39170000  0.29130000  0.17530000  1.0 -0.0841870222
C  C48  1  0.29130000  0.39170000  0.32470000  1.0 -0.0865830649
C  C49  1  0.59260000  0.77680000  0.80670000  1.0 0.1073917095
C  C50  1  0.77680000  0.59260000  0.69330000  1.0 0.1073917095
C  C51  1  0.40740000  0.22320000  0.19330000  1.0 0.1073917095
C  C52  1  0.22320000  0.40740000  0.30670000  1.0 0.1073917095
C  C53  1  0.60850000  0.81610000  0.74350000  1.0 -0.1225618731
C  C54  1  0.81610000  0.60850000  0.75650000  1.0 -0.1225618731
C  C55  1  0.39150000  0.18390000  0.25650000  1.0 -0.1225618731
C  C56  1  0.18390000  0.39150000  0.24350000  1.0 -0.1225618731
C  C57  1  0.59840000  0.88740000  0.73070000  1.0 -0.0030579082
C  C58  1  0.88740000  0.59840000  0.76930000  1.0 -0.0030579082
C  C59  1  0.40160000  0.11260000  0.26930000  1.0 -0.0030579082
C  C60  1  0.11260000  0.40160000  0.23070000  1.0 -0.0030579082
C  C61  1  0.56960000  0.91980000  0.78210000  1.0 -0.0841870222
C  C62  1  0.91980000  0.56960000  0.71790000  1.0 -0.0841870222
C  C63  1  0.43040000  0.08020000  0.21790000  1.0 -0.0841870222
C  C64  1  0.08020000  0.43040000  0.28210000  1.0 -0.0841870222
C  C65  1  0.55080000  0.88160000  0.84660000  1.0 -0.0721115942
C  C66  1  0.88160000  0.55080000  0.65340000  1.0 -0.0721115942
C  C67  1  0.44920000  0.11840000  0.15340000  1.0 -0.0721115942
C  C68  1  0.11840000  0.44920000  0.34660000  1.0 -0.0721115942
C  C69  1  0.56380000  0.81120000  0.85930000  1.0 -0.110967502
C  C70  1  0.81120000  0.56380000  0.64070000  1.0 -0.110967502
C  C71  1  0.43620000  0.18880000  0.14070000  1.0 -0.110967502
C  C72  1  0.18880000  0.43620000  0.35930000  1.0 -0.110967502
C  C73  1  0.61560000  0.92940000  0.66130000  1.0 0.5655613747
C  C74  1  0.92940000  0.61560000  0.83870000  1.0 0.5655613747
C  C75  1  0.38440000  0.07060000  0.33870000  1.0 0.5644419995
C  C76  1  0.07060000  0.38440000  0.16130000  1.0 0.5644419995
C  C77  1  0.52230000  0.91890000  0.89930000  1.0 0.6455745306
C  C78  1  0.91890000  0.52230000  0.60070000  1.0 0.6455745306
C  C79  1  0.47770000  0.08110000  0.10070000  1.0 0.6455745306
C  C80  1  0.08110000  0.47770000  0.39930000  1.0 0.6455745306
C  C81  1  0.88270000  0.20670000  0.07300000  1.0 0.5644419995
C  C82  1  0.20670000  0.88270000  0.42700000  1.0 0.5644419995
C  C83  1  0.11730000  0.79330000  0.92700000  1.0 0.5644419995
C  C84  1  0.79330000  0.11730000  0.57300000  1.0 0.5644419995
C  C85  1  0.83270000  0.12810000  0.09280000  1.0 -0.0421522128
C  C86  1  0.12810000  0.83270000  0.40720000  1.0 -0.0421522128
C  C87  1  0.16730000  0.87190000  0.90720000  1.0 -0.0421522128
C  C88  1  0.87190000  0.16730000  0.59280000  1.0 -0.0421522128
C  C89  1  0.75450000  0.09910000  0.06730000  1.0 -0.0721115942
C  C90  1  0.09910000  0.75450000  0.43270000  1.0 -0.0721115942
C  C91  1  0.24550000  0.90090000  0.93270000  1.0 -0.0721115942
C  C92  1  0.90090000  0.24550000  0.56730000  1.0 -0.0721115942
C  C93  1  0.70720000  0.02320000  0.08680000  1.0 -0.0581812057
C  C94  1  0.02320000  0.70720000  0.41320000  1.0 -0.0581812057
C  C95  1  0.29280000  0.97680000  0.91320000  1.0 -0.0581812057
C  C96  1  0.97680000  0.29280000  0.58680000  1.0 -0.0581812057
C  C97  1  0.73940000  0.97480000  0.12670000  1.0 -0.1002314097
C  C98  1  0.97480000  0.73940000  0.37330000  1.0 -0.1002314097
C  C99  1  0.26060000  0.02520000  0.87330000  1.0 -0.1002314097
C  C100  1  0.02520000  0.26060000  0.62670000  1.0 -0.1002314097
C  C101  1  0.81740000  0.00380000  0.15190000  1.0 0.093151372
C  C102  1  0.00380000  0.81740000  0.34810000  1.0 0.093151372
C  C103  1  0.18260000  0.99620000  0.84810000  1.0 0.093151372
C  C104  1  0.99620000  0.18260000  0.65190000  1.0 0.093151372
C  C105  1  0.86260000  0.08000000  0.13360000  1.0 -0.1002314097
C  C106  1  0.08000000  0.86260000  0.36640000  1.0 -0.1002314097
C  C107  1  0.13740000  0.92000000  0.86640000  1.0 -0.1002314097
C  C108  1  0.92000000  0.13740000  0.63360000  1.0 -0.1002314097
C  C109  1  0.84900000  0.95800000  0.19640000  1.0 -0.0721115942
C  C110  1  0.95800000  0.84900000  0.30360000  1.0 -0.0721115942
C  C111  1  0.15100000  0.04200000  0.80360000  1.0 -0.0721115942
C  C112  1  0.04200000  0.15100000  0.69640000  1.0 -0.0721115942
C  C113  1  0.88290000  0.92090000  0.22820000  1.0 -0.0478089126
C  C114  1  0.92090000  0.88290000  0.27180000  1.0 -0.0478089126
C  C115  1  0.11710000  0.07910000  0.77180000  1.0 -0.0478089126
C  C116  1  0.07910000  0.11710000  0.72820000  1.0 -0.0478089126
C  C117  1  0.62620000  0.99320000  0.06220000  1.0 0.6292123702
C  C118  1  0.99320000  0.62620000  0.43780000  1.0 0.6292123702
C  C119  1  0.37380000  0.00680000  0.93780000  1.0 0.6292123702
C  C120  1  0.00680000  0.37380000  0.56220000  1.0 0.6292123702
O  O1  1  0.55830000  0.23890000  0.92700000  1.0 -0.6431481335
O  O2  1  0.23890000  0.55830000  0.57300000  1.0 -0.6431481335
O  O3  1  0.44170000  0.76110000  0.07300000  1.0 -0.6431481335
O  O4  1  0.76110000  0.44170000  0.42700000  1.0 -0.6431481335
O  O5  1  0.65100000  0.21100000  0.98450000  1.0 -0.6091973874
O  O6  1  0.21100000  0.65100000  0.51550000  1.0 -0.6091973874
O  O7  1  0.34900000  0.78900000  0.01550000  1.0 -0.6091973874
O  O8  1  0.78900000  0.34900000  0.48450000  1.0 -0.6091973874
O  O9  1  0.90260000  0.41720000  0.03110000  1.0 -0.6431481335
O  O10  1  0.41720000  0.90260000  0.46890000  1.0 -0.6457757685
O  O11  1  0.09740000  0.58280000  0.96890000  1.0 -0.6457757685
O  O12  1  0.58280000  0.09740000  0.53110000  1.0 -0.6457757685
O  O13  1  0.91900000  0.53740000  0.99840000  1.0 -0.660956325
O  O14  1  0.53740000  0.91900000  0.50160000  1.0 -0.660956325
O  O15  1  0.08100000  0.46260000  0.00160000  1.0 -0.660956325
O  O16  1  0.46260000  0.08100000  0.49840000  1.0 -0.660956325
O  O17  1  0.64930000  0.90490000  0.61870000  1.0 -0.6091973874
O  O18  1  0.90490000  0.64930000  0.88130000  1.0 -0.6091973874
O  O19  1  0.35070000  0.09510000  0.38130000  1.0 -0.6091973874
O  O20  1  0.09510000  0.35070000  0.11870000  1.0 -0.6091973874
O  O21  1  0.59558000  0.98742000  0.64850000  1.0 -0.601965536
O  O22  1  0.98742000  0.59558000  0.85150000  1.0 -0.601965536
O  O23  1  0.40442000  0.01258000  0.35150000  1.0 -0.601965536
O  O24  1  0.01258000  0.40442000  0.14850000  1.0 -0.601965536
O  O25  1  0.50234000  0.88006000  0.95530000  1.0 -0.6457757685
O  O26  1  0.88006000  0.50234000  0.54470000  1.0 -0.6457757685
O  O27  1  0.49766000  0.11994000  0.04470000  1.0 -0.6457757685
O  O28  1  0.11994000  0.49766000  0.45530000  1.0 -0.6431481335
O  O29  1  0.52323000  0.98577000  0.88680000  1.0 -0.660956325
O  O30  1  0.98577000  0.52323000  0.61320000  1.0 -0.660956325
O  O31  1  0.47677000  0.01423000  0.11320000  1.0 -0.660956325
O  O32  1  0.01423000  0.47677000  0.38680000  1.0 -0.660956325
O  O33  1  0.94410000  0.23650000  0.10700000  1.0 -0.601965536
O  O34  1  0.23650000  0.94410000  0.39300000  1.0 -0.601965536
O  O35  1  0.05590000  0.76350000  0.89300000  1.0 -0.6091973874
O  O36  1  0.76350000  0.05590000  0.60700000  1.0 -0.6091973874
O  O37  1  0.86410000  0.24610000  0.02630000  1.0 -0.5844660792
O  O38  1  0.24610000  0.86410000  0.47370000  1.0 -0.587967415
O  O39  1  0.13590000  0.75390000  0.97370000  1.0 -0.587967415
O  O40  1  0.75390000  0.13590000  0.52630000  1.0 -0.587967415
O  O41  1  0.60030000  0.03150000  0.01860000  1.0 -0.7068410013
O  O42  1  0.03150000  0.60030000  0.48140000  1.0 -0.7044271622
O  O43  1  0.39970000  0.96850000  0.98140000  1.0 -0.7068410013
O  O44  1  0.96850000  0.39970000  0.51860000  1.0 -0.7044271622
O  O45  1  0.58495000  0.92725000  0.08780000  1.0 -0.6457757685
O  O46  1  0.92725000  0.58495000  0.41220000  1.0 -0.6457757685
O  O47  1  0.41505000  0.07275000  0.91220000  1.0 -0.6457757685
O  O48  1  0.07275000  0.41505000  0.58780000  1.0 -0.6457757685
