# DDEC6 charges by PACMAN v1.1 (https://github.com/mtap-research/PACMAN-charge/)
data_EYOCOM_ASR_pacman
_symmetry_space_group_name_H-M   'P 1'
_cell_length_a   18.29150000
_cell_length_b   18.29150000
_cell_length_c   19.43260000
_cell_angle_alpha   86.72880000
_cell_angle_beta   93.27120000
_cell_angle_gamma   109.77500000
_symmetry_Int_Tables_number   1
_chemical_formula_structural   Er2H9(C5O2)6
_chemical_formula_sum   'Er8 H36 C120 O48'
_cell_volume   6103.41812223
_cell_formula_units_Z   4
loop_
 _symmetry_equiv_pos_site_id
 _symmetry_equiv_pos_as_xyz
  1  'x, y, z'
loop_
 _atom_site_type_symbol
 _atom_site_label
 _atom_site_symmetry_multiplicity
 _atom_site_fract_x
 _atom_site_fract_y
 _atom_site_fract_z
 _atom_site_occupancy
 _atom_site_charge
Er  Er1  1  0.54841000  0.10159000  0.94234000  1.0 2.0579361953
Er  Er2  1  0.10159000  0.54841000  0.55766000  1.0 2.0579361953
Er  Er3  1  0.45159000  0.89841000  0.05766000  1.0 2.0579361953
Er  Er4  1  0.89841000  0.45159000  0.44234000  1.0 2.0579361953
Er  Er5  1  0.98802000  0.35200000  0.03745000  1.0 2.026966953
Er  Er6  1  0.35200000  0.98802000  0.46255000  1.0 2.026966953
Er  Er7  1  0.01198000  0.64800000  0.96255000  1.0 2.0226765312
Er  Er8  1  0.64800000  0.01198000  0.53745000  1.0 2.026966953
H  H1  1  0.59450000  0.38330000  0.90420000  1.0 0.1290851608
H  H2  1  0.38330000  0.59450000  0.59580000  1.0 0.1290851608
H  H3  1  0.40550000  0.61670000  0.09580000  1.0 0.1290851608
H  H4  1  0.61670000  0.40550000  0.40420000  1.0 0.1290851608
H  H5  1  0.79920000  0.54980000  0.94530000  1.0 0.1179198709
H  H6  1  0.54980000  0.79920000  0.55470000  1.0 0.1179198709
H  H7  1  0.20080000  0.45020000  0.05470000  1.0 0.1179198709
H  H8  1  0.45020000  0.20080000  0.44530000  1.0 0.1179198709
H  H9  1  0.77000000  0.33000000  0.00440000  1.0 0.1381050088
H  H10  1  0.33000000  0.77000000  0.49560000  1.0 0.1381050088
H  H11  1  0.23000000  0.67000000  0.99560000  1.0 0.1381050088
H  H12  1  0.67000000  0.23000000  0.50440000  1.0 0.1381050088
H  H13  1  0.62400000  0.79340000  0.70790000  1.0 0.1179198709
H  H14  1  0.79340000  0.62400000  0.79210000  1.0 0.1179198709
H  H15  1  0.37600000  0.20660000  0.29210000  1.0 0.1179198709
H  H16  1  0.20660000  0.37600000  0.20790000  1.0 0.1179198709
H  H17  1  0.56550000  0.96870000  0.77320000  1.0 0.1290851608
H  H18  1  0.96870000  0.56550000  0.72680000  1.0 0.1290851608
H  H19  1  0.43450000  0.03130000  0.22680000  1.0 0.1290851608
H  H20  1  0.03130000  0.43450000  0.27320000  1.0 0.1290851608
H  H21  1  0.55420000  0.78420000  0.90100000  1.0 0.1290851608
H  H22  1  0.78420000  0.55420000  0.59900000  1.0 0.1290851608
H  H23  1  0.44580000  0.21580000  0.09900000  1.0 0.1290851608
H  H24  1  0.21580000  0.44580000  0.40100000  1.0 0.1290851608
H  H25  1  0.73370000  0.13150000  0.04110000  1.0 0.1290851608
H  H26  1  0.13150000  0.73370000  0.45890000  1.0 0.1290851608
H  H27  1  0.26630000  0.86850000  0.95890000  1.0 0.1290851608
H  H28  1  0.86850000  0.26630000  0.54110000  1.0 0.1290851608
H  H29  1  0.70710000  0.92510000  0.13910000  1.0 0.1290851608
H  H30  1  0.92510000  0.70710000  0.36090000  1.0 0.1290851608
H  H31  1  0.29290000  0.07490000  0.86090000  1.0 0.1290851608
H  H32  1  0.07490000  0.29290000  0.63910000  1.0 0.1290851608
H  H33  1  0.91490000  0.10310000  0.15080000  1.0 0.1290851608
H  H34  1  0.10310000  0.91490000  0.34920000  1.0 0.1290851608
H  H35  1  0.08510000  0.89690000  0.84920000  1.0 0.1290851608
H  H36  1  0.89690000  0.08510000  0.65080000  1.0 0.1290851608
C  C1  1  0.62430000  0.25870000  0.95690000  1.0 0.5559197106
C  C2  1  0.25870000  0.62430000  0.54310000  1.0 0.5559197106
C  C3  1  0.37570000  0.74130000  0.04310000  1.0 0.5559197106
C  C4  1  0.74130000  0.37570000  0.45690000  1.0 0.5559197106
C  C5  1  0.67480000  0.34220000  0.95340000  1.0 -0.0195587756
C  C6  1  0.34220000  0.67480000  0.54660000  1.0 -0.0195587756
C  C7  1  0.32520000  0.65780000  0.04660000  1.0 -0.0195587756
C  C8  1  0.65780000  0.32520000  0.45340000  1.0 -0.0195587756
C  C9  1  0.64530000  0.39850000  0.92260000  1.0 -0.1267994254
C  C10  1  0.39850000  0.64530000  0.57740000  1.0 -0.1267994254
C  C11  1  0.35470000  0.60150000  0.07740000  1.0 -0.1267994254
C  C12  1  0.60150000  0.35470000  0.42260000  1.0 -0.1267994254
C  C13  1  0.69050000  0.47570000  0.91920000  1.0 0.1076222807
C  C14  1  0.47570000  0.69050000  0.58080000  1.0 0.1076222807
C  C15  1  0.30950000  0.52430000  0.08080000  1.0 0.1076222807
C  C16  1  0.52430000  0.30950000  0.41920000  1.0 0.1076222807
C  C17  1  0.76810000  0.49770000  0.94700000  1.0 -0.1267994254
C  C18  1  0.49770000  0.76810000  0.55300000  1.0 -0.1267994254
C  C19  1  0.23190000  0.50230000  0.05300000  1.0 -0.1267994254
C  C20  1  0.50230000  0.23190000  0.44700000  1.0 -0.1267994254
C  C21  1  0.79720000  0.44340000  0.97610000  1.0 -0.0484321622
C  C22  1  0.44340000  0.79720000  0.52390000  1.0 -0.0484321622
C  C23  1  0.20280000  0.55660000  0.02390000  1.0 -0.0484321622
C  C24  1  0.55660000  0.20280000  0.47610000  1.0 -0.0484321622
C  C25  1  0.75060000  0.36620000  0.98170000  1.0 -0.0968311634
C  C26  1  0.36620000  0.75060000  0.51830000  1.0 -0.0968311634
C  C27  1  0.24940000  0.63380000  0.01830000  1.0 -0.0968311634
C  C28  1  0.63380000  0.24940000  0.48170000  1.0 -0.0968311634
C  C29  1  0.87940000  0.46860000  0.00500000  1.0 0.6714969315
C  C30  1  0.46860000  0.87940000  0.49500000  1.0 0.6714969315
C  C31  1  0.12060000  0.53140000  0.99500000  1.0 0.6714969315
C  C32  1  0.53140000  0.12060000  0.50500000  1.0 0.6714969315
C  C33  1  0.66230000  0.53430000  0.88870000  1.0 -0.0800229311
C  C34  1  0.53430000  0.66230000  0.61130000  1.0 -0.0800229311
C  C35  1  0.33770000  0.46570000  0.11130000  1.0 -0.0800229311
C  C36  1  0.46570000  0.33770000  0.38870000  1.0 -0.0800229311
C  C37  1  0.64130000  0.58710000  0.86690000  1.0 -0.0484321622
C  C38  1  0.58710000  0.64130000  0.63310000  1.0 -0.0484321622
C  C39  1  0.35870000  0.41290000  0.13310000  1.0 -0.0484321622
C  C40  1  0.41290000  0.35870000  0.36690000  1.0 -0.0484321622
C  C41  1  0.62070000  0.64890000  0.84140000  1.0 -0.0399676822
C  C42  1  0.64890000  0.62070000  0.65860000  1.0 -0.0399676822
C  C43  1  0.37930000  0.35110000  0.15860000  1.0 -0.0399676822
C  C44  1  0.35110000  0.37930000  0.34140000  1.0 -0.0399676822
C  C45  1  0.60580000  0.70600000  0.82320000  1.0 -0.0743709551
C  C46  1  0.70600000  0.60580000  0.67680000  1.0 -0.0743709551
C  C47  1  0.39420000  0.29400000  0.17680000  1.0 -0.0743709551
C  C48  1  0.29400000  0.39420000  0.32320000  1.0 -0.0743709551
C  C49  1  0.59190000  0.77890000  0.80770000  1.0 0.1179198709
C  C50  1  0.77890000  0.59190000  0.69230000  1.0 0.1179198709
C  C51  1  0.40810000  0.22110000  0.19230000  1.0 0.1179198709
C  C52  1  0.22110000  0.40810000  0.30770000  1.0 0.1179198709
C  C53  1  0.60710000  0.81610000  0.74260000  1.0 -0.1194130621
C  C54  1  0.81610000  0.60710000  0.75740000  1.0 -0.1194130621
C  C55  1  0.39290000  0.18390000  0.25740000  1.0 -0.1194130621
C  C56  1  0.18390000  0.39290000  0.24260000  1.0 -0.1194130621
C  C57  1  0.59640000  0.88760000  0.73070000  1.0 -0.0073435917
C  C58  1  0.88760000  0.59640000  0.76930000  1.0 -0.0073435917
C  C59  1  0.40360000  0.11240000  0.26930000  1.0 -0.0073435917
C  C60  1  0.11240000  0.40360000  0.23070000  1.0 -0.0073435917
C  C61  1  0.57000000  0.91980000  0.78180000  1.0 -0.0873672127
C  C62  1  0.91980000  0.57000000  0.71820000  1.0 -0.0873672127
C  C63  1  0.43000000  0.08020000  0.21820000  1.0 -0.0873672127
C  C64  1  0.08020000  0.43000000  0.28180000  1.0 -0.0873672127
C  C65  1  0.54930000  0.88210000  0.84700000  1.0 -0.0873672127
C  C66  1  0.88210000  0.54930000  0.65300000  1.0 -0.0873672127
C  C67  1  0.45070000  0.11790000  0.15300000  1.0 -0.0800229311
C  C68  1  0.11790000  0.45070000  0.34700000  1.0 -0.0800229311
C  C69  1  0.56390000  0.81030000  0.85820000  1.0 -0.1194130621
C  C70  1  0.81030000  0.56390000  0.64180000  1.0 -0.1194130621
C  C71  1  0.43610000  0.18970000  0.14180000  1.0 -0.1194130621
C  C72  1  0.18970000  0.43610000  0.35820000  1.0 -0.1194130621
C  C73  1  0.61360000  0.92940000  0.66160000  1.0 0.5752335228
C  C74  1  0.92940000  0.61360000  0.83840000  1.0 0.5694848436
C  C75  1  0.38640000  0.07060000  0.33840000  1.0 0.5752335228
C  C76  1  0.07060000  0.38640000  0.16160000  1.0 0.5694848436
C  C77  1  0.52280000  0.91960000  0.89980000  1.0 0.6481609382
C  C78  1  0.91960000  0.52280000  0.60020000  1.0 0.6481609382
C  C79  1  0.47720000  0.08040000  0.10020000  1.0 0.6481609382
C  C80  1  0.08040000  0.47720000  0.39980000  1.0 0.6481609382
C  C81  1  0.88250000  0.20870000  0.07470000  1.0 0.5694848436
C  C82  1  0.20870000  0.88250000  0.42530000  1.0 0.5694848436
C  C83  1  0.11750000  0.79130000  0.92530000  1.0 0.5694848436
C  C84  1  0.79130000  0.11750000  0.57470000  1.0 0.5694848436
C  C85  1  0.83320000  0.12800000  0.09280000  1.0 -0.0195587756
C  C86  1  0.12800000  0.83320000  0.40720000  1.0 -0.0195587756
C  C87  1  0.16680000  0.87200000  0.90720000  1.0 -0.0195587756
C  C88  1  0.87200000  0.16680000  0.59280000  1.0 -0.0195587756
C  C89  1  0.75460000  0.09960000  0.06870000  1.0 -0.0873672127
C  C90  1  0.09960000  0.75460000  0.43130000  1.0 -0.0873672127
C  C91  1  0.24540000  0.90040000  0.93130000  1.0 -0.0873672127
C  C92  1  0.90040000  0.24540000  0.56870000  1.0 -0.0873672127
C  C93  1  0.70840000  0.02340000  0.08670000  1.0 -0.0294060225
C  C94  1  0.02340000  0.70840000  0.41330000  1.0 -0.0294060225
C  C95  1  0.29160000  0.97660000  0.91330000  1.0 -0.0294060225
C  C96  1  0.97660000  0.29160000  0.58670000  1.0 -0.0294060225
C  C97  1  0.73820000  0.97560000  0.12740000  1.0 -0.1267994254
C  C98  1  0.97560000  0.73820000  0.37260000  1.0 -0.1267994254
C  C99  1  0.26180000  0.02440000  0.87260000  1.0 -0.1267994254
C  C100  1  0.02440000  0.26180000  0.62740000  1.0 -0.1267994254
C  C101  1  0.81630000  0.00390000  0.15140000  1.0 0.0983930174
C  C102  1  0.00390000  0.81630000  0.34860000  1.0 0.0983930174
C  C103  1  0.18370000  0.99610000  0.84860000  1.0 0.0983930174
C  C104  1  0.99610000  0.18370000  0.65140000  1.0 0.0983930174
C  C105  1  0.86370000  0.08330000  0.13380000  1.0 -0.1267994254
C  C106  1  0.08330000  0.86370000  0.36620000  1.0 -0.1194130621
C  C107  1  0.13630000  0.91670000  0.86620000  1.0 -0.1194130621
C  C108  1  0.91670000  0.13630000  0.63380000  1.0 -0.1267994254
C  C109  1  0.62440000  0.99240000  0.06260000  1.0 0.6395966746
C  C110  1  0.99240000  0.62440000  0.43740000  1.0 0.6395966746
C  C111  1  0.37560000  0.00760000  0.93740000  1.0 0.6395966746
C  C112  1  0.00760000  0.37560000  0.56260000  1.0 0.6395966746
C  C113  1  0.85040000  0.95800000  0.19680000  1.0 -0.0484321622
C  C114  1  0.95800000  0.85040000  0.30320000  1.0 -0.0562928381
C  C115  1  0.14960000  0.04200000  0.80320000  1.0 -0.0562928381
C  C116  1  0.04200000  0.14960000  0.69680000  1.0 -0.0562928381
C  C117  1  0.88220000  0.92180000  0.22790000  1.0 -0.0294060225
C  C118  1  0.92180000  0.88220000  0.27210000  1.0 -0.0294060225
C  C119  1  0.11780000  0.07820000  0.77210000  1.0 -0.0294060225
C  C120  1  0.07820000  0.11780000  0.72790000  1.0 -0.0294060225
O  O1  1  0.65120000  0.20940000  0.98320000  1.0 -0.616651278
O  O2  1  0.20940000  0.65120000  0.51680000  1.0 -0.616651278
O  O3  1  0.34880000  0.79060000  0.01680000  1.0 -0.616651278
O  O4  1  0.79060000  0.34880000  0.48320000  1.0 -0.616651278
O  O5  1  0.55770000  0.23710000  0.92920000  1.0 -0.6295259372
O  O6  1  0.23710000  0.55770000  0.57080000  1.0 -0.6295259372
O  O7  1  0.44230000  0.76290000  0.07080000  1.0 -0.6295259372
O  O8  1  0.76290000  0.44230000  0.42920000  1.0 -0.6295259372
O  O9  1  0.90180000  0.41820000  0.03380000  1.0 -0.6394815706
O  O10  1  0.41820000  0.90180000  0.46620000  1.0 -0.6394815706
O  O11  1  0.09820000  0.58180000  0.96620000  1.0 -0.6394815706
O  O12  1  0.58180000  0.09820000  0.53380000  1.0 -0.6394815706
O  O13  1  0.91920000  0.53740000  0.99770000  1.0 -0.6689079068
O  O14  1  0.53740000  0.91920000  0.50230000  1.0 -0.6689079068
O  O15  1  0.08080000  0.46260000  0.00230000  1.0 -0.6689079068
O  O16  1  0.46260000  0.08080000  0.49770000  1.0 -0.6689079068
O  O17  1  0.64847000  0.90553000  0.61840000  1.0 -0.6295259372
O  O18  1  0.90553000  0.64847000  0.88160000  1.0 -0.6295259372
O  O19  1  0.35153000  0.09447000  0.38160000  1.0 -0.6295259372
O  O20  1  0.09447000  0.35153000  0.11840000  1.0 -0.6295259372
O  O21  1  0.59337000  0.98743000  0.64820000  1.0 -0.6059743526
O  O22  1  0.98743000  0.59337000  0.85180000  1.0 -0.6059743526
O  O23  1  0.40663000  0.01257000  0.35180000  1.0 -0.6059743526
O  O24  1  0.01257000  0.40663000  0.14820000  1.0 -0.599586397
O  O25  1  0.50353000  0.88147000  0.95510000  1.0 -0.6295259372
O  O26  1  0.88147000  0.50353000  0.54490000  1.0 -0.6295259372
O  O27  1  0.49647000  0.11853000  0.04490000  1.0 -0.6295259372
O  O28  1  0.11853000  0.49647000  0.45510000  1.0 -0.6295259372
O  O29  1  0.52536000  0.98824000  0.88840000  1.0 -0.687655773
O  O30  1  0.98824000  0.52536000  0.61160000  1.0 -0.687655773
O  O31  1  0.47464000  0.01176000  0.11160000  1.0 -0.687655773
O  O32  1  0.01176000  0.47464000  0.38840000  1.0 -0.687655773
O  O33  1  0.94390000  0.23830000  0.10850000  1.0 -0.599586397
O  O34  1  0.23830000  0.94390000  0.39150000  1.0 -0.599586397
O  O35  1  0.05610000  0.76170000  0.89150000  1.0 -0.599586397
O  O36  1  0.76170000  0.05610000  0.60850000  1.0 -0.599586397
O  O37  1  0.86530000  0.24690000  0.02620000  1.0 -0.599586397
O  O38  1  0.24690000  0.86530000  0.47380000  1.0 -0.599586397
O  O39  1  0.13470000  0.75310000  0.97380000  1.0 -0.599586397
O  O40  1  0.75310000  0.13470000  0.52620000  1.0 -0.599586397
O  O41  1  0.59890000  0.03210000  0.01930000  1.0 -0.7304712198
O  O42  1  0.03210000  0.59890000  0.48070000  1.0 -0.7304712198
O  O43  1  0.40110000  0.96790000  0.98070000  1.0 -0.7304712198
O  O44  1  0.96790000  0.40110000  0.51930000  1.0 -0.7304712198
O  O45  1  0.58410000  0.92750000  0.08780000  1.0 -0.6295259372
O  O46  1  0.92750000  0.58410000  0.41220000  1.0 -0.6295259372
O  O47  1  0.41590000  0.07250000  0.91220000  1.0 -0.6295259372
O  O48  1  0.07250000  0.41590000  0.58780000  1.0 -0.6295259372
