# DDEC6 charges by PACMAN v1.1 (https://github.com/mtap-research/PACMAN-charge/)
data_EYUWAW_ASR_pacman
_symmetry_space_group_name_H-M   'P 1'
_cell_length_a   16.04600000
_cell_length_b   18.33400000
_cell_length_c   23.70600000
_cell_angle_alpha   90.00000000
_cell_angle_beta   90.00000000
_cell_angle_gamma   90.00000000
_symmetry_Int_Tables_number   1
_chemical_formula_structural   Mn16H95(C3O)64
_chemical_formula_sum   'Mn16 H95 C192 O64'
_cell_volume   6974.00565098
_cell_formula_units_Z   1
loop_
 _symmetry_equiv_pos_site_id
 _symmetry_equiv_pos_as_xyz
  1  'x, y, z'
loop_
 _atom_site_type_symbol
 _atom_site_label
 _atom_site_symmetry_multiplicity
 _atom_site_fract_x
 _atom_site_fract_y
 _atom_site_fract_z
 _atom_site_occupancy
 _atom_site_charge
Mn  Mn1  1  0.18540000  0.82300000  0.59810000  1.0 1.0101271187
Mn  Mn2  1  0.99870000  0.70510000  0.58100000  1.0 1.0794701044
Mn  Mn3  1  0.81460000  0.67700000  0.09810000  1.0 1.0101271187
Mn  Mn4  1  0.00130000  0.79490000  0.08100000  1.0 1.0794701044
Mn  Mn5  1  0.68540000  0.17700000  0.90190000  1.0 1.0101271187
Mn  Mn6  1  0.49870000  0.29490000  0.91900000  1.0 1.0794701044
Mn  Mn7  1  0.31460000  0.32300000  0.40190000  1.0 1.0101271187
Mn  Mn8  1  0.50130000  0.20510000  0.41900000  1.0 1.0794701044
Mn  Mn9  1  0.81460000  0.17700000  0.40190000  1.0 1.0101271187
Mn  Mn10  1  0.00130000  0.29490000  0.41900000  1.0 1.0794701044
Mn  Mn11  1  0.18540000  0.32300000  0.90190000  1.0 1.0101271187
Mn  Mn12  1  0.99870000  0.20510000  0.91900000  1.0 1.0794701044
Mn  Mn13  1  0.31460000  0.82300000  0.09810000  1.0 1.0101271187
Mn  Mn14  1  0.50130000  0.70510000  0.08100000  1.0 1.0794701044
Mn  Mn15  1  0.68540000  0.67700000  0.59810000  1.0 1.0101271187
Mn  Mn16  1  0.49870000  0.79490000  0.58100000  1.0 1.0794701044
H  H1  1  0.91625000  0.73000000  0.72694000  1.0 0.1081021119
H  H2  1  0.15201000  0.82576000  0.78256000  1.0 0.0908634966
H  H3  1  0.11177000  0.80676000  0.88345000  1.0 0.0908634966
H  H4  1  0.01312000  0.75939000  0.95399000  1.0 0.0908634966
H  H5  1  0.77462000  0.66751000  0.89987000  1.0 0.0985011215
H  H6  1  0.81537000  0.68381000  0.79894000  1.0 0.0908634966
H  H7  1  0.07685000  0.57476000  0.67629000  1.0 0.0985011215
H  H8  1  0.33993000  0.63617000  0.66592000  1.0 0.1081021119
H  H9  1  0.44391000  0.57019000  0.72631000  1.0 0.0908634966
H  H10  1  0.47549000  0.47582000  0.79936000  1.0 0.0908634966
H  H11  1  0.21222000  0.41625000  0.80794000  1.0 0.0908634966
H  H12  1  0.11023000  0.48002000  0.74865000  1.0 0.0908634966
H  H13  1  0.08375000  0.77000000  0.22694000  1.0 0.1081021119
H  H14  1  0.84799000  0.67424000  0.28256000  1.0 0.0908634966
H  H15  1  0.88823000  0.69324000  0.38345000  1.0 0.0908634966
H  H16  1  0.98688000  0.74061000  0.45399000  1.0 0.0908634966
H  H17  1  0.22538000  0.83249000  0.39987000  1.0 0.0985011215
H  H18  1  0.18463000  0.81619000  0.29894000  1.0 0.0908634966
H  H19  1  0.92315000  0.92524000  0.17629000  1.0 0.0985011215
H  H20  1  0.66007000  0.86383000  0.16592000  1.0 0.1081021119
H  H21  1  0.55609000  0.92981000  0.22631000  1.0 0.0908634966
H  H22  1  0.52451000  0.02418000  0.29936000  1.0 0.0908634966
H  H23  1  0.78778000  0.08375000  0.30794000  1.0 0.0908634966
H  H24  1  0.88977000  0.01998000  0.24865000  1.0 0.0908634966
H  H25  1  0.41625000  0.27000000  0.77306000  1.0 0.1081021119
H  H26  1  0.65201000  0.17424000  0.71744000  1.0 0.0985011215
H  H27  1  0.61177000  0.19324000  0.61655000  1.0 0.0908634966
H  H28  1  0.51312000  0.24061000  0.54601000  1.0 0.0908634966
H  H29  1  0.27462000  0.33249000  0.60013000  1.0 0.0985011215
H  H30  1  0.31537000  0.31619000  0.70106000  1.0 0.0908634966
H  H31  1  0.57685000  0.42524000  0.82371000  1.0 0.0985011215
H  H32  1  0.83993000  0.36383000  0.83408000  1.0 0.1081021119
H  H33  1  0.94391000  0.42981000  0.77369000  1.0 0.0908634966
H  H34  1  0.97549000  0.52418000  0.70064000  1.0 0.0908634966
H  H35  1  0.71222000  0.58375000  0.69206000  1.0 0.0908634966
H  H36  1  0.61023000  0.51998000  0.75135000  1.0 0.0908634966
H  H37  1  0.58375000  0.23000000  0.27306000  1.0 0.1081021119
H  H38  1  0.34799000  0.32576000  0.21744000  1.0 0.0908634966
H  H39  1  0.38823000  0.30676000  0.11655000  1.0 0.0908634966
H  H40  1  0.48688000  0.25939000  0.04601000  1.0 0.0908634966
H  H41  1  0.72538000  0.16751000  0.10013000  1.0 0.0985011215
H  H42  1  0.68463000  0.18381000  0.20106000  1.0 0.0908634966
H  H43  1  0.42315000  0.07476000  0.32371000  1.0 0.0985011215
H  H44  1  0.16007000  0.13617000  0.33408000  1.0 0.1081021119
H  H45  1  0.05609000  0.07019000  0.27369000  1.0 0.0908634966
H  H46  1  0.02451000  0.97582000  0.20064000  1.0 0.0908634966
H  H47  1  0.28778000  0.91625000  0.19206000  1.0 0.0908634966
H  H48  1  0.38977000  0.98002000  0.25135000  1.0 0.0908634966
H  H49  1  0.08375000  0.27000000  0.27306000  1.0 0.1081021119
H  H50  1  0.84799000  0.17424000  0.21744000  1.0 0.0908634966
H  H51  1  0.88823000  0.19324000  0.11655000  1.0 0.0908634966
H  H52  1  0.98688000  0.24061000  0.04601000  1.0 0.0908634966
H  H53  1  0.22538000  0.33249000  0.10013000  1.0 0.0985011215
H  H54  1  0.18463000  0.31619000  0.20106000  1.0 0.0908634966
H  H55  1  0.92315000  0.42524000  0.32371000  1.0 0.0985011215
H  H56  1  0.66007000  0.36383000  0.33408000  1.0 0.1081021119
H  H57  1  0.55609000  0.42981000  0.27369000  1.0 0.0908634966
H  H58  1  0.52451000  0.52418000  0.20064000  1.0 0.0908634966
H  H59  1  0.78778000  0.58375000  0.19206000  1.0 0.0908634966
H  H60  1  0.88977000  0.51998000  0.25135000  1.0 0.0908634966
H  H61  1  0.15201000  0.32576000  0.71744000  1.0 0.0908634966
H  H62  1  0.11177000  0.30676000  0.61655000  1.0 0.0908634966
H  H63  1  0.01312000  0.25939000  0.54601000  1.0 0.0908634966
H  H64  1  0.77462000  0.16751000  0.60013000  1.0 0.0985011215
H  H65  1  0.81537000  0.18381000  0.70106000  1.0 0.0908634966
H  H66  1  0.07685000  0.07476000  0.82371000  1.0 0.0985011215
H  H67  1  0.33993000  0.13617000  0.83408000  1.0 0.1081021119
H  H68  1  0.44391000  0.07019000  0.77369000  1.0 0.0908634966
H  H69  1  0.47549000  0.97582000  0.70064000  1.0 0.0908634966
H  H70  1  0.21222000  0.91625000  0.69206000  1.0 0.0908634966
H  H71  1  0.11023000  0.98002000  0.75135000  1.0 0.0908634966
H  H72  1  0.58375000  0.73000000  0.22694000  1.0 0.1081021119
H  H73  1  0.34799000  0.82576000  0.28256000  1.0 0.0908634966
H  H74  1  0.38823000  0.80676000  0.38345000  1.0 0.0908634966
H  H75  1  0.48688000  0.75939000  0.45399000  1.0 0.0908634966
H  H76  1  0.72538000  0.66751000  0.39987000  1.0 0.0985011215
H  H77  1  0.68463000  0.68381000  0.29894000  1.0 0.0908634966
H  H78  1  0.42315000  0.57476000  0.17629000  1.0 0.0985011215
H  H79  1  0.16007000  0.63617000  0.16592000  1.0 0.1081021119
H  H80  1  0.05609000  0.57019000  0.22631000  1.0 0.0908634966
H  H81  1  0.02451000  0.47582000  0.29936000  1.0 0.0908634966
H  H82  1  0.28778000  0.41625000  0.30794000  1.0 0.0908634966
H  H83  1  0.38977000  0.48002000  0.24865000  1.0 0.0908634966
H  H84  1  0.41625000  0.77000000  0.72694000  1.0 0.1081021119
H  H85  1  0.65201000  0.67424000  0.78256000  1.0 0.0908634966
H  H86  1  0.61177000  0.69324000  0.88345000  1.0 0.0908634966
H  H87  1  0.51312000  0.74061000  0.95399000  1.0 0.0908634966
H  H88  1  0.27462000  0.83249000  0.89987000  1.0 0.0985011215
H  H89  1  0.31537000  0.81619000  0.79894000  1.0 0.0908634966
H  H90  1  0.57685000  0.92524000  0.67629000  1.0 0.0985011215
H  H91  1  0.83993000  0.86383000  0.66592000  1.0 0.1081021119
H  H92  1  0.94391000  0.92981000  0.72631000  1.0 0.0908634966
H  H93  1  0.97549000  0.02418000  0.79936000  1.0 0.0908634966
H  H94  1  0.71222000  0.08375000  0.80794000  1.0 0.0908634966
H  H95  1  0.61023000  0.01998000  0.74865000  1.0 0.0908634966
C  C1  1  0.96030000  0.74700000  0.76230000  1.0 -0.1201217476
C  C2  1  0.03510000  0.77850000  0.74970000  1.0 -0.0287065979
C  C3  1  0.08950000  0.79960000  0.79320000  1.0 -0.086262361
C  C4  1  0.06780000  0.78890000  0.84830000  1.0 -0.1201217476
C  C5  1  0.96760000  0.74340000  0.91920000  1.0 -0.1201217476
C  C6  1  0.89280000  0.71320000  0.93270000  1.0 -0.0287065979
C  C7  1  0.83770000  0.69250000  0.88910000  1.0 -0.0798993609
C  C8  1  0.85940000  0.70220000  0.83390000  1.0 -0.1201217476
C  C9  1  0.93610000  0.73490000  0.81900000  1.0 0.0687090299
C  C10  1  0.99140000  0.75590000  0.86280000  1.0 0.0687090299
C  C11  1  0.06100000  0.78870000  0.68900000  1.0 0.5848995064
C  C12  1  0.86950000  0.70120000  0.99320000  1.0 0.5913404836
C  C13  1  0.14420000  0.56620000  0.69010000  1.0 -0.086262361
C  C14  1  0.20830000  0.60890000  0.66630000  1.0 -0.0227401137
C  C15  1  0.28850000  0.60020000  0.68400000  1.0 -0.1134664686
C  C16  1  0.39150000  0.53550000  0.74460000  1.0 -0.1134664686
C  C17  1  0.40860000  0.48450000  0.78460000  1.0 -0.086262361
C  C18  1  0.34430000  0.44170000  0.80840000  1.0 -0.0287065979
C  C19  1  0.26470000  0.45090000  0.78970000  1.0 -0.1201217476
C  C20  1  0.16230000  0.51450000  0.72970000  1.0 -0.1201217476
C  C21  1  0.30940000  0.54670000  0.72490000  1.0 0.0687090299
C  C22  1  0.24490000  0.50280000  0.74780000  1.0 0.0687090299
C  C23  1  0.18430000  0.66240000  0.62110000  1.0 0.597950856
C  C24  1  0.36340000  0.38880000  0.85560000  1.0 0.597950856
C  C25  1  0.03970000  0.75300000  0.26230000  1.0 -0.1201217476
C  C26  1  0.96490000  0.72150000  0.24970000  1.0 -0.0287065979
C  C27  1  0.91050000  0.70040000  0.29320000  1.0 -0.086262361
C  C28  1  0.93220000  0.71110000  0.34830000  1.0 -0.1201217476
C  C29  1  0.03240000  0.75660000  0.41920000  1.0 -0.1201217476
C  C30  1  0.10720000  0.78680000  0.43270000  1.0 -0.0287065979
C  C31  1  0.16230000  0.80750000  0.38910000  1.0 -0.0798993609
C  C32  1  0.14060000  0.79780000  0.33390000  1.0 -0.1201217476
C  C33  1  0.06390000  0.76510000  0.31900000  1.0 0.0687090299
C  C34  1  0.00860000  0.74410000  0.36280000  1.0 0.0687090299
C  C35  1  0.93900000  0.71130000  0.18900000  1.0 0.5848995064
C  C36  1  0.13050000  0.79880000  0.49320000  1.0 0.5913404836
C  C37  1  0.85580000  0.93380000  0.19010000  1.0 -0.086262361
C  C38  1  0.79170000  0.89110000  0.16630000  1.0 -0.0227401137
C  C39  1  0.71150000  0.89980000  0.18400000  1.0 -0.1134664686
C  C40  1  0.60850000  0.96450000  0.24460000  1.0 -0.1134664686
C  C41  1  0.59140000  0.01550000  0.28460000  1.0 -0.086262361
C  C42  1  0.65570000  0.05830000  0.30840000  1.0 -0.0287065979
C  C43  1  0.73530000  0.04910000  0.28970000  1.0 -0.1201217476
C  C44  1  0.83770000  0.98550000  0.22970000  1.0 -0.1201217476
C  C45  1  0.69060000  0.95330000  0.22490000  1.0 0.0687090299
C  C46  1  0.75510000  0.99720000  0.24780000  1.0 0.0687090299
C  C47  1  0.81570000  0.83760000  0.12110000  1.0 0.597950856
C  C48  1  0.63660000  0.11120000  0.35560000  1.0 0.597950856
C  C49  1  0.46030000  0.25300000  0.73770000  1.0 -0.1201217476
C  C50  1  0.53510000  0.22150000  0.75030000  1.0 -0.0287065979
C  C51  1  0.58950000  0.20040000  0.70680000  1.0 -0.0798993609
C  C52  1  0.56780000  0.21110000  0.65170000  1.0 -0.1201217476
C  C53  1  0.46760000  0.25660000  0.58080000  1.0 -0.1201217476
C  C54  1  0.39280000  0.28680000  0.56730000  1.0 -0.0287065979
C  C55  1  0.33770000  0.30750000  0.61090000  1.0 -0.0798993609
C  C56  1  0.35940000  0.29780000  0.66610000  1.0 -0.1201217476
C  C57  1  0.43610000  0.26510000  0.68100000  1.0 0.0687090299
C  C58  1  0.49140000  0.24410000  0.63720000  1.0 0.0687090299
C  C59  1  0.56100000  0.21130000  0.81100000  1.0 0.5848995064
C  C60  1  0.36950000  0.29880000  0.50680000  1.0 0.5913404836
C  C61  1  0.64420000  0.43380000  0.80990000  1.0 -0.086262361
C  C62  1  0.70830000  0.39110000  0.83370000  1.0 -0.0227401137
C  C63  1  0.78850000  0.39980000  0.81600000  1.0 -0.1134664686
C  C64  1  0.89150000  0.46450000  0.75540000  1.0 -0.1134664686
C  C65  1  0.90860000  0.51550000  0.71540000  1.0 -0.086262361
C  C66  1  0.84430000  0.55830000  0.69160000  1.0 -0.0287065979
C  C67  1  0.76470000  0.54910000  0.71030000  1.0 -0.1201217476
C  C68  1  0.66230000  0.48550000  0.77030000  1.0 -0.1201217476
C  C69  1  0.80940000  0.45330000  0.77510000  1.0 0.0687090299
C  C70  1  0.74490000  0.49720000  0.75220000  1.0 0.0687090299
C  C71  1  0.68430000  0.33760000  0.87890000  1.0 0.597950856
C  C72  1  0.86340000  0.61120000  0.64440000  1.0 0.597950856
C  C73  1  0.53970000  0.24700000  0.23770000  1.0 -0.1201217476
C  C74  1  0.46490000  0.27850000  0.25030000  1.0 -0.0287065979
C  C75  1  0.41050000  0.29960000  0.20680000  1.0 -0.086262361
C  C76  1  0.43220000  0.28890000  0.15170000  1.0 -0.1201217476
C  C77  1  0.53240000  0.24340000  0.08080000  1.0 -0.1201217476
C  C78  1  0.60720000  0.21320000  0.06730000  1.0 -0.0287065979
C  C79  1  0.66230000  0.19250000  0.11090000  1.0 -0.0798993609
C  C80  1  0.64060000  0.20220000  0.16610000  1.0 -0.1201217476
C  C81  1  0.56390000  0.23490000  0.18100000  1.0 0.0687090299
C  C82  1  0.50860000  0.25590000  0.13720000  1.0 0.0687090299
C  C83  1  0.43900000  0.28870000  0.31100000  1.0 0.5848995064
C  C84  1  0.63050000  0.20120000  0.00680000  1.0 0.5913404836
C  C85  1  0.35580000  0.06620000  0.30990000  1.0 -0.086262361
C  C86  1  0.29170000  0.10890000  0.33370000  1.0 -0.0227401137
C  C87  1  0.21150000  0.10020000  0.31600000  1.0 -0.1134664686
C  C88  1  0.10850000  0.03550000  0.25540000  1.0 -0.1134664686
C  C89  1  0.09140000  0.98450000  0.21540000  1.0 -0.086262361
C  C90  1  0.15570000  0.94170000  0.19160000  1.0 -0.0287065979
C  C91  1  0.23530000  0.95090000  0.21030000  1.0 -0.1201217476
C  C92  1  0.33770000  0.01450000  0.27030000  1.0 -0.1201217476
C  C93  1  0.19060000  0.04670000  0.27510000  1.0 0.0687090299
C  C94  1  0.25510000  0.00280000  0.25220000  1.0 0.0687090299
C  C95  1  0.31570000  0.16240000  0.37890000  1.0 0.597950856
C  C96  1  0.13660000  0.88880000  0.14440000  1.0 0.597950856
C  C97  1  0.03970000  0.25300000  0.23770000  1.0 -0.1201217476
C  C98  1  0.96490000  0.22150000  0.25030000  1.0 -0.0287065979
C  C99  1  0.91050000  0.20040000  0.20680000  1.0 -0.086262361
C  C100  1  0.93220000  0.21110000  0.15170000  1.0 -0.1201217476
C  C101  1  0.03240000  0.25660000  0.08080000  1.0 -0.1201217476
C  C102  1  0.10720000  0.28680000  0.06730000  1.0 -0.0287065979
C  C103  1  0.16230000  0.30750000  0.11090000  1.0 -0.0798993609
C  C104  1  0.14060000  0.29780000  0.16610000  1.0 -0.1201217476
C  C105  1  0.06390000  0.26510000  0.18100000  1.0 0.0687090299
C  C106  1  0.00860000  0.24410000  0.13720000  1.0 0.0687090299
C  C107  1  0.93900000  0.21130000  0.31100000  1.0 0.5848995064
C  C108  1  0.13050000  0.29880000  0.00680000  1.0 0.5913404836
C  C109  1  0.85580000  0.43380000  0.30990000  1.0 -0.086262361
C  C110  1  0.79170000  0.39110000  0.33370000  1.0 -0.0227401137
C  C111  1  0.71150000  0.39980000  0.31600000  1.0 -0.1134664686
C  C112  1  0.60850000  0.46450000  0.25540000  1.0 -0.1134664686
C  C113  1  0.59140000  0.51550000  0.21540000  1.0 -0.086262361
C  C114  1  0.65570000  0.55830000  0.19160000  1.0 -0.0287065979
C  C115  1  0.73530000  0.54910000  0.21030000  1.0 -0.1201217476
C  C116  1  0.83770000  0.48550000  0.27030000  1.0 -0.1201217476
C  C117  1  0.69060000  0.45330000  0.27510000  1.0 0.0687090299
C  C118  1  0.75510000  0.49720000  0.25220000  1.0 0.0687090299
C  C119  1  0.81570000  0.33760000  0.37890000  1.0 0.597950856
C  C120  1  0.63660000  0.61120000  0.14440000  1.0 0.597950856
C  C121  1  0.96030000  0.24700000  0.73770000  1.0 -0.0287065979
C  C122  1  0.03510000  0.27850000  0.75030000  1.0 -0.0536276486
C  C123  1  0.08950000  0.29960000  0.70680000  1.0 -0.0798993609
C  C124  1  0.06780000  0.28890000  0.65170000  1.0 -0.1201217476
C  C125  1  0.96760000  0.24340000  0.58080000  1.0 -0.1201217476
C  C126  1  0.89280000  0.21320000  0.56730000  1.0 -0.0287065979
C  C127  1  0.83770000  0.19250000  0.61090000  1.0 -0.0798993609
C  C128  1  0.85940000  0.20220000  0.66610000  1.0 -0.1134664686
C  C129  1  0.93610000  0.23490000  0.68100000  1.0 0.0583026175
C  C130  1  0.99140000  0.25590000  0.63720000  1.0 0.0782694731
C  C131  1  0.06100000  0.28870000  0.81100000  1.0 0.5913404836
C  C132  1  0.86950000  0.20120000  0.50680000  1.0 0.5913404836
C  C133  1  0.14420000  0.06620000  0.80990000  1.0 -0.0798993609
C  C134  1  0.20830000  0.10890000  0.83370000  1.0 -0.0227401137
C  C135  1  0.28850000  0.10020000  0.81600000  1.0 -0.1201217476
C  C136  1  0.39150000  0.03550000  0.75540000  1.0 -0.1134664686
C  C137  1  0.40860000  0.98450000  0.71540000  1.0 -0.086262361
C  C138  1  0.34430000  0.94170000  0.69160000  1.0 -0.0287065979
C  C139  1  0.26470000  0.95090000  0.71030000  1.0 -0.1201217476
C  C140  1  0.16230000  0.01450000  0.77030000  1.0 -0.1201217476
C  C141  1  0.30940000  0.04670000  0.77510000  1.0 0.0687090299
C  C142  1  0.24490000  0.00280000  0.75220000  1.0 0.0687090299
C  C143  1  0.18430000  0.16240000  0.87890000  1.0 0.597950856
C  C144  1  0.36340000  0.88880000  0.64440000  1.0 0.597950856
C  C145  1  0.53970000  0.74700000  0.26230000  1.0 -0.1201217476
C  C146  1  0.46490000  0.77850000  0.24970000  1.0 -0.0287065979
C  C147  1  0.41050000  0.79960000  0.29320000  1.0 -0.086262361
C  C148  1  0.43220000  0.78890000  0.34830000  1.0 -0.1201217476
C  C149  1  0.53240000  0.74340000  0.41920000  1.0 -0.1201217476
C  C150  1  0.60720000  0.71320000  0.43270000  1.0 -0.0287065979
C  C151  1  0.66230000  0.69250000  0.38910000  1.0 -0.0798993609
C  C152  1  0.64060000  0.70220000  0.33390000  1.0 -0.1201217476
C  C153  1  0.56390000  0.73490000  0.31900000  1.0 0.0687090299
C  C154  1  0.50860000  0.75590000  0.36280000  1.0 0.0687090299
C  C155  1  0.43900000  0.78870000  0.18900000  1.0 0.5848995064
C  C156  1  0.63050000  0.70120000  0.49320000  1.0 0.5913404836
C  C157  1  0.35580000  0.56620000  0.19010000  1.0 -0.086262361
C  C158  1  0.29170000  0.60890000  0.16630000  1.0 -0.0227401137
C  C159  1  0.21150000  0.60020000  0.18400000  1.0 -0.1134664686
C  C160  1  0.10850000  0.53550000  0.24460000  1.0 -0.1134664686
C  C161  1  0.09140000  0.48450000  0.28460000  1.0 -0.086262361
C  C162  1  0.15570000  0.44170000  0.30840000  1.0 -0.0287065979
C  C163  1  0.23530000  0.45090000  0.28970000  1.0 -0.1201217476
C  C164  1  0.33770000  0.51450000  0.22970000  1.0 -0.1201217476
C  C165  1  0.19060000  0.54670000  0.22490000  1.0 0.0687090299
C  C166  1  0.25510000  0.50280000  0.24780000  1.0 0.0687090299
C  C167  1  0.31570000  0.66240000  0.12110000  1.0 0.597950856
C  C168  1  0.13660000  0.38880000  0.35560000  1.0 0.597950856
C  C169  1  0.46030000  0.75300000  0.76230000  1.0 -0.1201217476
C  C170  1  0.53510000  0.72150000  0.74970000  1.0 -0.0287065979
C  C171  1  0.58950000  0.70040000  0.79320000  1.0 -0.086262361
C  C172  1  0.56780000  0.71110000  0.84830000  1.0 -0.1201217476
C  C173  1  0.46760000  0.75660000  0.91920000  1.0 -0.1201217476
C  C174  1  0.39280000  0.78680000  0.93270000  1.0 -0.0287065979
C  C175  1  0.33770000  0.80750000  0.88910000  1.0 -0.0798993609
C  C176  1  0.35940000  0.79780000  0.83390000  1.0 -0.1201217476
C  C177  1  0.43610000  0.76510000  0.81900000  1.0 0.0687090299
C  C178  1  0.49140000  0.74410000  0.86280000  1.0 0.0687090299
C  C179  1  0.56100000  0.71130000  0.68900000  1.0 0.5848995064
C  C180  1  0.36950000  0.79880000  0.99320000  1.0 0.5913404836
C  C181  1  0.64420000  0.93380000  0.69010000  1.0 -0.086262361
C  C182  1  0.70830000  0.89110000  0.66630000  1.0 -0.0227401137
C  C183  1  0.78850000  0.89980000  0.68400000  1.0 -0.1134664686
C  C184  1  0.89150000  0.96450000  0.74460000  1.0 -0.1201217476
C  C185  1  0.90860000  0.01550000  0.78460000  1.0 -0.086262361
C  C186  1  0.84430000  0.05830000  0.80840000  1.0 -0.0287065979
C  C187  1  0.76470000  0.04910000  0.78970000  1.0 -0.1201217476
C  C188  1  0.66230000  0.98550000  0.72970000  1.0 -0.1201217476
C  C189  1  0.80940000  0.95330000  0.72490000  1.0 0.0687090299
C  C190  1  0.74490000  0.99720000  0.74780000  1.0 0.0687090299
C  C191  1  0.68430000  0.83760000  0.62110000  1.0 0.597950856
C  C192  1  0.86340000  0.11120000  0.85560000  1.0 0.597950856
O  O1  1  0.00730000  0.77640000  0.65160000  1.0 -0.5735988777
O  O2  1  0.13390000  0.80930000  0.67980000  1.0 -0.5526914384
O  O3  1  0.23400000  0.71260000  0.60760000  1.0 -0.5364651383
O  O4  1  0.11440000  0.65260000  0.59890000  1.0 -0.5610692078
O  O5  1  0.79990000  0.67420000  0.00510000  1.0 -0.5202725764
O  O6  1  0.92090000  0.71810000  0.03150000  1.0 -0.620845155
O  O7  1  0.43850000  0.37530000  0.86530000  1.0 -0.5610692078
O  O8  1  0.30390000  0.36300000  0.88340000  1.0 -0.5526914384
O  O9  1  0.99270000  0.72360000  0.15160000  1.0 -0.5735988777
O  O10  1  0.86610000  0.69070000  0.17980000  1.0 -0.5526914384
O  O11  1  0.76600000  0.78740000  0.10760000  1.0 -0.5364651383
O  O12  1  0.88560000  0.84740000  0.09890000  1.0 -0.5610692078
O  O13  1  0.20010000  0.82580000  0.50510000  1.0 -0.5202725764
O  O14  1  0.07910000  0.78190000  0.53150000  1.0 -0.620845155
O  O15  1  0.56150000  0.12470000  0.36530000  1.0 -0.5610692078
O  O16  1  0.69610000  0.13700000  0.38340000  1.0 -0.5526914384
O  O17  1  0.50730000  0.22360000  0.84840000  1.0 -0.5735988777
O  O18  1  0.63390000  0.19070000  0.82020000  1.0 -0.5526914384
O  O19  1  0.73400000  0.28740000  0.89240000  1.0 -0.5343590762
O  O20  1  0.61440000  0.34740000  0.90110000  1.0 -0.5735988777
O  O21  1  0.29990000  0.32580000  0.49490000  1.0 -0.5202725764
O  O22  1  0.42090000  0.28190000  0.46850000  1.0 -0.620845155
O  O23  1  0.93850000  0.62470000  0.63470000  1.0 -0.5610692078
O  O24  1  0.80390000  0.63700000  0.61660000  1.0 -0.5526914384
O  O25  1  0.49270000  0.27640000  0.34840000  1.0 -0.5735988777
O  O26  1  0.36610000  0.30930000  0.32020000  1.0 -0.5526914384
O  O27  1  0.26600000  0.21260000  0.39240000  1.0 -0.5364651383
O  O28  1  0.38560000  0.15260000  0.40110000  1.0 -0.5610692078
O  O29  1  0.70010000  0.17420000  0.99490000  1.0 -0.5202725764
O  O30  1  0.57910000  0.21810000  0.96850000  1.0 -0.620845155
O  O31  1  0.06150000  0.87530000  0.13470000  1.0 -0.5610692078
O  O32  1  0.19610000  0.86300000  0.11660000  1.0 -0.5526914384
O  O33  1  0.99270000  0.22360000  0.34840000  1.0 -0.5735988777
O  O34  1  0.86610000  0.19070000  0.32020000  1.0 -0.5526914384
O  O35  1  0.76600000  0.28740000  0.39240000  1.0 -0.5364651383
O  O36  1  0.88560000  0.34740000  0.40110000  1.0 -0.5610692078
O  O37  1  0.20010000  0.32580000  0.99490000  1.0 -0.5202725764
O  O38  1  0.07910000  0.28190000  0.96850000  1.0 -0.620845155
O  O39  1  0.56150000  0.62470000  0.13470000  1.0 -0.5610692078
O  O40  1  0.69610000  0.63700000  0.11660000  1.0 -0.5526914384
O  O41  1  0.00730000  0.27640000  0.84840000  1.0 -0.5610692078
O  O42  1  0.13390000  0.30930000  0.82020000  1.0 -0.5526914384
O  O43  1  0.23400000  0.21260000  0.89240000  1.0 -0.5364651383
O  O44  1  0.11440000  0.15260000  0.90110000  1.0 -0.5610692078
O  O45  1  0.79990000  0.17420000  0.49490000  1.0 -0.5202725764
O  O46  1  0.92090000  0.21810000  0.46850000  1.0 -0.620845155
O  O47  1  0.43850000  0.87530000  0.63470000  1.0 -0.5610692078
O  O48  1  0.30390000  0.86300000  0.61660000  1.0 -0.5526914384
O  O49  1  0.49270000  0.77640000  0.15160000  1.0 -0.5735988777
O  O50  1  0.36610000  0.80930000  0.17980000  1.0 -0.5526914384
O  O51  1  0.26600000  0.71260000  0.10760000  1.0 -0.5364651383
O  O52  1  0.38560000  0.65260000  0.09890000  1.0 -0.5610692078
O  O53  1  0.70010000  0.67420000  0.50510000  1.0 -0.5202725764
O  O54  1  0.57910000  0.71810000  0.53150000  1.0 -0.620845155
O  O55  1  0.06150000  0.37530000  0.36530000  1.0 -0.5610692078
O  O56  1  0.19610000  0.36300000  0.38340000  1.0 -0.5526914384
O  O57  1  0.50730000  0.72360000  0.65160000  1.0 -0.5735988777
O  O58  1  0.63390000  0.69070000  0.67980000  1.0 -0.5526914384
O  O59  1  0.73400000  0.78740000  0.60760000  1.0 -0.5364651383
O  O60  1  0.61440000  0.84740000  0.59890000  1.0 -0.5610692078
O  O61  1  0.29990000  0.82580000  0.00510000  1.0 -0.5202725764
O  O62  1  0.42090000  0.78190000  0.03150000  1.0 -0.620845155
O  O63  1  0.93850000  0.12470000  0.86530000  1.0 -0.5610692078
O  O64  1  0.80390000  0.13700000  0.88340000  1.0 -0.5610692078
