# DDEC6 charges by PACMAN v1.1 (https://github.com/mtap-research/PACMAN-charge/)
data_EZEVOX_FSR_pacman
_symmetry_space_group_name_H-M   'P 1'
_cell_length_a   18.84950000
_cell_length_b   18.84950000
_cell_length_c   30.67900000
_cell_angle_alpha   79.68270000
_cell_angle_beta   100.31700000
_cell_angle_gamma   133.35100000
_symmetry_Int_Tables_number   1
_chemical_formula_structural   ZnH6C9I2N3
_chemical_formula_sum   'Zn16 H96 C144 I32 N48'
_cell_volume   7774.11232986
_cell_formula_units_Z   16
loop_
 _symmetry_equiv_pos_site_id
 _symmetry_equiv_pos_as_xyz
  1  'x, y, z'
loop_
 _atom_site_type_symbol
 _atom_site_label
 _atom_site_symmetry_multiplicity
 _atom_site_fract_x
 _atom_site_fract_y
 _atom_site_fract_z
 _atom_site_occupancy
 _atom_site_charge
Zn  Zn1  1  0.45410000  0.28730000  0.09180000  1.0 0.2545331171
Zn  Zn2  1  0.96381000  0.22155000  0.94229000  1.0 0.4588937139
Zn  Zn3  1  0.02625000  0.67903000  0.77154000  1.0 0.4333011633
Zn  Zn4  1  0.45850000  0.30770000  0.09890000  1.0 0.2648111185
Zn  Zn5  1  0.71270000  0.54590000  0.59180000  1.0 0.2545331171
Zn  Zn6  1  0.77845000  0.03619000  0.44229000  1.0 0.4588937139
Zn  Zn7  1  0.32097000  0.97375000  0.27154000  1.0 0.4333011633
Zn  Zn8  1  0.69230000  0.54150000  0.59890000  1.0 0.2687015733
Zn  Zn9  1  0.28730000  0.45410000  0.40820000  1.0 0.2545331171
Zn  Zn10  1  0.22155000  0.96381000  0.55771000  1.0 0.4588937139
Zn  Zn11  1  0.67903000  0.02625000  0.72846000  1.0 0.4333011633
Zn  Zn12  1  0.30770000  0.45850000  0.40110000  1.0 0.2687015733
Zn  Zn13  1  0.54590000  0.71270000  0.90820000  1.0 0.2545331171
Zn  Zn14  1  0.03619000  0.77845000  0.05771000  1.0 0.4588937139
Zn  Zn15  1  0.97375000  0.32097000  0.22846000  1.0 0.4333011633
Zn  Zn16  1  0.54150000  0.69230000  0.90110000  1.0 0.2687015733
H  H1  1  0.80778000  0.48694000  0.65871000  1.0 0.0882524762
H  H2  1  0.76935000  0.37463000  0.71725000  1.0 0.1204857364
H  H3  1  0.65097000  0.63683000  0.02430000  1.0 0.1312964997
H  H4  1  0.38455000  0.89931000  0.82842000  1.0 0.1312964997
H  H5  1  0.21748000  0.75376000  0.82411000  1.0 0.0982606462
H  H6  1  0.48438000  0.22916000  0.68450000  1.0 0.1312964997
H  H7  1  0.15797000  0.88295000  0.73191000  1.0 0.0882524762
H  H8  1  0.82336000  0.29070000  0.80411000  1.0 0.1204857364
H  H9  1  0.32178000  0.02732000  0.73175000  1.0 0.1312964997
H  H10  1  0.87083000  0.59315000  0.91214000  1.0 0.1312964997
H  H11  1  0.94547000  0.31593000  0.85347000  1.0 0.0982606462
H  H12  1  0.53531000  0.50089000  0.06804000  1.0 0.079916679
H  H13  1  0.84372000  0.89442000  0.00686000  1.0 0.1312964997
H  H14  1  0.88642000  0.04284000  0.00674000  1.0 0.0982606462
H  H15  1  0.62175000  0.05089000  0.88077000  1.0 0.1312964997
H  H16  1  0.69876000  0.48406000  0.98014000  1.0 0.1312964997
H  H17  1  0.53565000  0.36075000  0.63277000  1.0 0.079916679
H  H18  1  0.74920000  0.07100000  0.92282000  1.0 0.079916679
H  H19  1  0.95584000  0.84054000  0.84000000  1.0 0.1312964997
H  H20  1  0.93028000  0.57666000  0.85959000  1.0 0.0982606462
H  H21  1  0.56899000  0.34473000  0.02254000  1.0 0.0718176043
H  H22  1  0.93621000  0.97315000  0.88459000  1.0 0.1312964997
H  H23  1  0.00055000  0.80809000  0.78757000  1.0 0.0982606462
H  H24  1  0.96431000  0.11077000  0.88762000  1.0 0.1081540933
H  H25  1  0.51306000  0.19222000  0.15871000  1.0 0.0882524762
H  H26  1  0.62537000  0.23065000  0.21725000  1.0 0.1204857364
H  H27  1  0.36317000  0.34903000  0.52430000  1.0 0.1312964997
H  H28  1  0.10069000  0.61545000  0.32842000  1.0 0.1312964997
H  H29  1  0.24624000  0.78252000  0.32411000  1.0 0.0982606462
H  H30  1  0.77084000  0.51562000  0.18450000  1.0 0.1312964997
H  H31  1  0.11705000  0.84203000  0.23191000  1.0 0.0882524762
H  H32  1  0.70930000  0.17664000  0.30411000  1.0 0.1204857364
H  H33  1  0.97268000  0.67822000  0.23175000  1.0 0.1312964997
H  H34  1  0.40685000  0.12917000  0.41214000  1.0 0.1312964997
H  H35  1  0.68407000  0.05453000  0.35347000  1.0 0.0982606462
H  H36  1  0.49911000  0.46469000  0.56804000  1.0 0.079916679
H  H37  1  0.10558000  0.15628000  0.50686000  1.0 0.1312964997
H  H38  1  0.95716000  0.11358000  0.50674000  1.0 0.0982606462
H  H39  1  0.94911000  0.37825000  0.38077000  1.0 0.1204857364
H  H40  1  0.51594000  0.30124000  0.48014000  1.0 0.1352265528
H  H41  1  0.63925000  0.46435000  0.13277000  1.0 0.079916679
H  H42  1  0.92900000  0.25080000  0.42282000  1.0 0.079916679
H  H43  1  0.15946000  0.04416000  0.34000000  1.0 0.1312964997
H  H44  1  0.42334000  0.06972000  0.35959000  1.0 0.0982606462
H  H45  1  0.65527000  0.43101000  0.52254000  1.0 0.0718176043
H  H46  1  0.02685000  0.06379000  0.38459000  1.0 0.1312964997
H  H47  1  0.19191000  0.99945000  0.28757000  1.0 0.0982606462
H  H48  1  0.88923000  0.03569000  0.38762000  1.0 0.1081540933
H  H49  1  0.48694000  0.80778000  0.84129000  1.0 0.0882524762
H  H50  1  0.37463000  0.76935000  0.78275000  1.0 0.1204857364
H  H51  1  0.63683000  0.65097000  0.47570000  1.0 0.1312964997
H  H52  1  0.89931000  0.38455000  0.67158000  1.0 0.1312964997
H  H53  1  0.75376000  0.21748000  0.67589000  1.0 0.0982606462
H  H54  1  0.22916000  0.48438000  0.81550000  1.0 0.1312964997
H  H55  1  0.88295000  0.15797000  0.76809000  1.0 0.0882524762
H  H56  1  0.29070000  0.82336000  0.69589000  1.0 0.1204857364
H  H57  1  0.02732000  0.32178000  0.76825000  1.0 0.1312964997
H  H58  1  0.59315000  0.87083000  0.58786000  1.0 0.1312964997
H  H59  1  0.31593000  0.94547000  0.64653000  1.0 0.0982606462
H  H60  1  0.50089000  0.53531000  0.43196000  1.0 0.079916679
H  H61  1  0.89442000  0.84372000  0.49314000  1.0 0.1312964997
H  H62  1  0.04284000  0.88642000  0.49326000  1.0 0.0982606462
H  H63  1  0.05089000  0.62175000  0.61923000  1.0 0.1312964997
H  H64  1  0.48406000  0.69876000  0.51986000  1.0 0.1312964997
H  H65  1  0.36075000  0.53565000  0.86723000  1.0 0.079916679
H  H66  1  0.07100000  0.74920000  0.57718000  1.0 0.079916679
H  H67  1  0.84054000  0.95584000  0.66000000  1.0 0.1312964997
H  H68  1  0.57666000  0.93028000  0.64041000  1.0 0.0982606462
H  H69  1  0.34473000  0.56899000  0.47746000  1.0 0.0718176043
H  H70  1  0.97315000  0.93621000  0.61541000  1.0 0.1312964997
H  H71  1  0.80809000  0.00055000  0.71243000  1.0 0.0982606462
H  H72  1  0.11077000  0.96431000  0.61238000  1.0 0.1081540933
H  H73  1  0.19222000  0.51306000  0.34129000  1.0 0.0882524762
H  H74  1  0.23065000  0.62537000  0.28275000  1.0 0.1204857364
H  H75  1  0.34903000  0.36317000  0.97570000  1.0 0.1312964997
H  H76  1  0.61545000  0.10069000  0.17158000  1.0 0.1312964997
H  H77  1  0.78252000  0.24624000  0.17589000  1.0 0.0982606462
H  H78  1  0.51562000  0.77084000  0.31550000  1.0 0.1312964997
H  H79  1  0.84203000  0.11705000  0.26809000  1.0 0.0882524762
H  H80  1  0.17664000  0.70930000  0.19589000  1.0 0.1204857364
H  H81  1  0.67822000  0.97268000  0.26825000  1.0 0.1312964997
H  H82  1  0.12917000  0.40685000  0.08786000  1.0 0.1312964997
H  H83  1  0.05453000  0.68407000  0.14653000  1.0 0.0982606462
H  H84  1  0.46469000  0.49911000  0.93196000  1.0 0.079916679
H  H85  1  0.15628000  0.10558000  0.99314000  1.0 0.1312964997
H  H86  1  0.11358000  0.95716000  0.99326000  1.0 0.0982606462
H  H87  1  0.37825000  0.94911000  0.11923000  1.0 0.1312964997
H  H88  1  0.30124000  0.51594000  0.01986000  1.0 0.1312964997
H  H89  1  0.46435000  0.63925000  0.36723000  1.0 0.079916679
H  H90  1  0.25080000  0.92900000  0.07718000  1.0 0.079916679
H  H91  1  0.04416000  0.15946000  0.16000000  1.0 0.1312964997
H  H92  1  0.06972000  0.42334000  0.14041000  1.0 0.0982606462
H  H93  1  0.43101000  0.65527000  0.97746000  1.0 0.0718176043
H  H94  1  0.06379000  0.02685000  0.11541000  1.0 0.1312964997
H  H95  1  0.99945000  0.19191000  0.21243000  1.0 0.0982606462
H  H96  1  0.03569000  0.88923000  0.11238000  1.0 0.1081540933
C  C1  1  0.85700000  0.82240000  0.94500000  1.0 0.3596305033
C  C2  1  0.68590000  0.57450000  0.99720000  1.0 0.0718176043
C  C3  1  0.47480000  0.06900000  0.78090000  1.0 0.3596305033
C  C4  1  0.70930000  0.16970000  0.83660000  1.0 0.0486795568
C  C5  1  0.74140000  0.43660000  0.66560000  1.0 0.0584276962
C  C6  1  0.59340000  0.21600000  0.74630000  1.0 0.3596305033
C  C7  1  0.76510000  0.66230000  0.96810000  1.0 0.3596305033
C  C8  1  0.90250000  0.71590000  0.88190000  1.0 0.0584276962
C  C9  1  0.86310000  0.72730000  0.91420000  1.0 0.3360882303
C  C10  1  0.71880000  0.36940000  0.70010000  1.0 -0.1598157567
C  C11  1  0.62160000  0.29240000  0.71050000  1.0 0.0486795568
C  C12  1  0.37000000  0.97880000  0.78110000  1.0 0.0584276962
C  C13  1  0.63660000  0.57780000  0.02380000  1.0 -0.1488700334
C  C14  1  0.33900000  0.89740000  0.80800000  1.0 -0.1598157567
C  C15  1  0.63150000  0.15470000  0.80610000  1.0 0.3596305033
C  C16  1  0.23920000  0.81040000  0.80530000  1.0 0.0718176043
C  C17  1  0.55210000  0.28490000  0.68220000  1.0 -0.1425695976
C  C18  1  0.88460000  0.91660000  0.94760000  1.0 0.0486795568
C  C19  1  0.20490000  0.88550000  0.75130000  1.0 0.079916679
C  C20  1  0.80610000  0.24650000  0.82970000  1.0 -0.1425695976
C  C21  1  0.30230000  0.97270000  0.75160000  1.0 -0.1598157567
C  C22  1  0.89870000  0.63950000  0.88710000  1.0 -0.1425695976
C  C23  1  0.87890000  0.26150000  0.85900000  1.0 0.0379965775
C  C24  1  0.56730000  0.49690000  0.04930000  1.0 0.0295882159
C  C25  1  0.87110000  0.93990000  0.98150000  1.0 -0.1488700334
C  C26  1  0.89520000  0.02760000  0.98150000  1.0 0.0295882159
C  C27  1  0.68760000  0.10460000  0.87380000  1.0 -0.1728202575
C  C28  1  0.66440000  0.48840000  0.99700000  1.0 -0.1488700334
C  C29  1  0.58370000  0.36170000  0.64980000  1.0 0.0718176043
C  C30  1  0.76490000  0.12070000  0.90030000  1.0 0.0982606462
C  C31  1  0.94750000  0.78410000  0.84410000  1.0 -0.1488700334
C  C32  1  0.93530000  0.63110000  0.85590000  1.0 0.0718176043
C  C33  1  0.58790000  0.40590000  0.02350000  1.0 0.079916679
C  C34  1  0.92340000  0.98400000  0.91010000  1.0 -0.1728202575
C  C35  1  0.97790000  0.76690000  0.81440000  1.0 0.0584276962
C  C36  1  0.94120000  0.06620000  0.91340000  1.0 0.0882524762
C  C37  1  0.17760000  0.14300000  0.44500000  1.0 0.3596305033
C  C38  1  0.42550000  0.31410000  0.49720000  1.0 0.0718176043
C  C39  1  0.93100000  0.52520000  0.28090000  1.0 0.3596305033
C  C40  1  0.83030000  0.29070000  0.33660000  1.0 0.0486795568
C  C41  1  0.56340000  0.25860000  0.16560000  1.0 0.0584276962
C  C42  1  0.78400000  0.40660000  0.24630000  1.0 0.3596305033
C  C43  1  0.33770000  0.23490000  0.46810000  1.0 0.3596305033
C  C44  1  0.28410000  0.09750000  0.38190000  1.0 0.0584276962
C  C45  1  0.27270000  0.13690000  0.41420000  1.0 0.3360882303
C  C46  1  0.63060000  0.28120000  0.20010000  1.0 -0.1598157567
C  C47  1  0.70760000  0.37840000  0.21050000  1.0 0.0584276962
C  C48  1  0.02120000  0.63000000  0.28110000  1.0 0.0584276962
C  C49  1  0.42220000  0.36340000  0.52380000  1.0 -0.1488700334
C  C50  1  0.10260000  0.66100000  0.30800000  1.0 -0.1488700334
C  C51  1  0.84530000  0.36850000  0.30610000  1.0 0.3596305033
C  C52  1  0.18960000  0.76080000  0.30530000  1.0 0.0718176043
C  C53  1  0.71510000  0.44790000  0.18220000  1.0 -0.1425695976
C  C54  1  0.08340000  0.11540000  0.44760000  1.0 0.0486795568
C  C55  1  0.11450000  0.79510000  0.25130000  1.0 0.079916679
C  C56  1  0.75350000  0.19390000  0.32970000  1.0 -0.1425695976
C  C57  1  0.02730000  0.69770000  0.25160000  1.0 -0.1598157567
C  C58  1  0.36050000  0.10130000  0.38710000  1.0 -0.1425695976
C  C59  1  0.73850000  0.12110000  0.35900000  1.0 0.0379965775
C  C60  1  0.50310000  0.43270000  0.54930000  1.0 0.0295882159
C  C61  1  0.06010000  0.12890000  0.48150000  1.0 -0.1488700334
C  C62  1  0.97240000  0.10480000  0.48150000  1.0 0.0295882159
C  C63  1  0.89540000  0.31240000  0.37380000  1.0 -0.1728202575
C  C64  1  0.51160000  0.33560000  0.49700000  1.0 -0.1488700334
C  C65  1  0.63830000  0.41630000  0.14980000  1.0 0.0718176043
C  C66  1  0.87930000  0.23510000  0.40030000  1.0 0.0982606462
C  C67  1  0.21590000  0.05250000  0.34410000  1.0 -0.1488700334
C  C68  1  0.36890000  0.06470000  0.35590000  1.0 0.0718176043
C  C69  1  0.59410000  0.41210000  0.52350000  1.0 0.079916679
C  C70  1  0.01600000  0.07660000  0.41010000  1.0 -0.1728202575
C  C71  1  0.23310000  0.02210000  0.31440000  1.0 0.0584276962
C  C72  1  0.93380000  0.05880000  0.41340000  1.0 0.0882524762
C  C73  1  0.82240000  0.85700000  0.55500000  1.0 0.3596305033
C  C74  1  0.57450000  0.68590000  0.50280000  1.0 0.0718176043
C  C75  1  0.06900000  0.47480000  0.71910000  1.0 0.3596305033
C  C76  1  0.16970000  0.70930000  0.66340000  1.0 0.0486795568
C  C77  1  0.43660000  0.74140000  0.83440000  1.0 0.0584276962
C  C78  1  0.21600000  0.59340000  0.75370000  1.0 0.3596305033
C  C79  1  0.66230000  0.76510000  0.53190000  1.0 0.3596305033
C  C80  1  0.71590000  0.90250000  0.61810000  1.0 0.0584276962
C  C81  1  0.72730000  0.86310000  0.58580000  1.0 0.3360882303
C  C82  1  0.36940000  0.71880000  0.79990000  1.0 -0.1598157567
C  C83  1  0.29240000  0.62160000  0.78950000  1.0 0.0584276962
C  C84  1  0.97880000  0.37000000  0.71890000  1.0 0.0584276962
C  C85  1  0.57780000  0.63660000  0.47620000  1.0 -0.1488700334
C  C86  1  0.89740000  0.33900000  0.69200000  1.0 -0.1488700334
C  C87  1  0.15470000  0.63150000  0.69390000  1.0 0.3596305033
C  C88  1  0.81040000  0.23920000  0.69470000  1.0 0.0718176043
C  C89  1  0.28490000  0.55210000  0.81780000  1.0 -0.1425695976
C  C90  1  0.91660000  0.88460000  0.55240000  1.0 0.0486795568
C  C91  1  0.88550000  0.20490000  0.74870000  1.0 0.079916679
C  C92  1  0.24650000  0.80610000  0.67030000  1.0 -0.1425695976
C  C93  1  0.97270000  0.30230000  0.74840000  1.0 -0.1598157567
C  C94  1  0.63950000  0.89870000  0.61290000  1.0 -0.1425695976
C  C95  1  0.26150000  0.87890000  0.64100000  1.0 0.0379965775
C  C96  1  0.49690000  0.56730000  0.45070000  1.0 0.0295882159
C  C97  1  0.93990000  0.87110000  0.51850000  1.0 -0.1488700334
C  C98  1  0.02760000  0.89520000  0.51850000  1.0 0.0295882159
C  C99  1  0.10460000  0.68760000  0.62620000  1.0 -0.1728202575
C  C100  1  0.48840000  0.66440000  0.50300000  1.0 -0.1488700334
C  C101  1  0.36170000  0.58370000  0.85020000  1.0 0.0718176043
C  C102  1  0.12070000  0.76490000  0.59970000  1.0 0.0982606462
C  C103  1  0.78410000  0.94750000  0.65590000  1.0 -0.1488700334
C  C104  1  0.63110000  0.93530000  0.64410000  1.0 0.0718176043
C  C105  1  0.40590000  0.58790000  0.47650000  1.0 0.079916679
C  C106  1  0.98400000  0.92340000  0.58990000  1.0 -0.1728202575
C  C107  1  0.76690000  0.97790000  0.68560000  1.0 0.0584276962
C  C108  1  0.06620000  0.94120000  0.58660000  1.0 0.0882524762
C  C109  1  0.14300000  0.17760000  0.05500000  1.0 0.3596305033
C  C110  1  0.31410000  0.42550000  0.00280000  1.0 0.0718176043
C  C111  1  0.52520000  0.93100000  0.21910000  1.0 0.3596305033
C  C112  1  0.29070000  0.83030000  0.16340000  1.0 0.0486795568
C  C113  1  0.25860000  0.56340000  0.33440000  1.0 0.0584276962
C  C114  1  0.40660000  0.78400000  0.25370000  1.0 0.3596305033
C  C115  1  0.23490000  0.33770000  0.03190000  1.0 0.3596305033
C  C116  1  0.09750000  0.28410000  0.11810000  1.0 0.0584276962
C  C117  1  0.13690000  0.27270000  0.08580000  1.0 0.3360882303
C  C118  1  0.28120000  0.63060000  0.29990000  1.0 -0.1598157567
C  C119  1  0.37840000  0.70760000  0.28950000  1.0 0.0584276962
C  C120  1  0.63000000  0.02120000  0.21890000  1.0 0.0584276962
C  C121  1  0.36340000  0.42220000  0.97620000  1.0 -0.1425695976
C  C122  1  0.66100000  0.10260000  0.19200000  1.0 -0.1488700334
C  C123  1  0.36850000  0.84530000  0.19390000  1.0 0.3596305033
C  C124  1  0.76080000  0.18960000  0.19470000  1.0 0.0718176043
C  C125  1  0.44790000  0.71510000  0.31780000  1.0 -0.1425695976
C  C126  1  0.11540000  0.08340000  0.05240000  1.0 0.0486795568
C  C127  1  0.79510000  0.11450000  0.24870000  1.0 0.079916679
C  C128  1  0.19390000  0.75350000  0.17030000  1.0 -0.1425695976
C  C129  1  0.69770000  0.02730000  0.24840000  1.0 -0.1598157567
C  C130  1  0.10130000  0.36050000  0.11290000  1.0 -0.1425695976
C  C131  1  0.12110000  0.73850000  0.14100000  1.0 0.0379965775
C  C132  1  0.43270000  0.50310000  0.95070000  1.0 0.0295882159
C  C133  1  0.12890000  0.06010000  0.01850000  1.0 -0.1488700334
C  C134  1  0.10480000  0.97240000  0.01850000  1.0 0.0295882159
C  C135  1  0.31240000  0.89540000  0.12620000  1.0 -0.1728202575
C  C136  1  0.33560000  0.51160000  0.00300000  1.0 -0.1488700334
C  C137  1  0.41630000  0.63830000  0.35020000  1.0 0.0718176043
C  C138  1  0.23510000  0.87930000  0.09970000  1.0 0.0982606462
C  C139  1  0.05250000  0.21590000  0.15590000  1.0 -0.1488700334
C  C140  1  0.06470000  0.36890000  0.14410000  1.0 0.0718176043
C  C141  1  0.41210000  0.59410000  0.97650000  1.0 0.079916679
C  C142  1  0.07660000  0.01600000  0.08990000  1.0 -0.1728202575
C  C143  1  0.02210000  0.23310000  0.18560000  1.0 0.0584276962
C  C144  1  0.05880000  0.93380000  0.08660000  1.0 0.0882524762
I  I1  1  0.35985000  0.31075000  0.13270000  1.0 0.0040177009
I  I2  1  0.00141000  0.52819000  0.79793000  1.0 -0.4314218858
I  I3  1  0.37760000  0.14200000  0.05690000  1.0 -0.0469701529
I  I4  1  0.92575000  0.22709000  0.01593000  1.0 -0.4466829845
I  I5  1  0.12502000  0.35354000  0.90692000  1.0 -0.4607883566
I  I6  1  0.95686000  0.69954000  0.69657000  1.0 -0.4688171694
I  I7  1  0.37960000  0.32960000  0.12430000  1.0 -0.0167937894
I  I8  1  0.40500000  0.14480000  0.05290000  1.0 -0.0137886388
I  I9  1  0.68925000  0.64015000  0.63270000  1.0 0.0040177009
I  I10  1  0.47181000  0.99859000  0.29793000  1.0 -0.4314218858
I  I11  1  0.85800000  0.62240000  0.55690000  1.0 -0.0469701529
I  I12  1  0.77291000  0.07425000  0.51593000  1.0 -0.4466829845
I  I13  1  0.64646000  0.87498000  0.40692000  1.0 -0.4607883566
I  I14  1  0.30046000  0.04314000  0.19657000  1.0 -0.4688171694
I  I15  1  0.67040000  0.62040000  0.62430000  1.0 -0.0167937894
I  I16  1  0.85520000  0.59500000  0.55290000  1.0 -0.003496571
I  I17  1  0.31075000  0.35985000  0.36730000  1.0 0.0040177009
I  I18  1  0.52819000  0.00141000  0.70207000  1.0 -0.4314218858
I  I19  1  0.14200000  0.37760000  0.44310000  1.0 -0.0469701529
I  I20  1  0.22709000  0.92575000  0.48407000  1.0 -0.4466829845
I  I21  1  0.35354000  0.12502000  0.59308000  1.0 -0.4607883566
I  I22  1  0.69954000  0.95686000  0.80343000  1.0 -0.4688171694
I  I23  1  0.32960000  0.37960000  0.37570000  1.0 -0.0167937894
I  I24  1  0.14480000  0.40500000  0.44710000  1.0 -0.003496571
I  I25  1  0.64015000  0.68925000  0.86730000  1.0 0.0040177009
I  I26  1  0.99859000  0.47181000  0.20207000  1.0 -0.4314218858
I  I27  1  0.62240000  0.85800000  0.94310000  1.0 -0.0469701529
I  I28  1  0.07425000  0.77291000  0.98407000  1.0 -0.4466829845
I  I29  1  0.87498000  0.64646000  0.09308000  1.0 -0.4607883566
I  I30  1  0.04314000  0.30046000  0.30343000  1.0 -0.4688171694
I  I31  1  0.62040000  0.67040000  0.87570000  1.0 -0.0167937894
I  I32  1  0.59500000  0.85520000  0.94710000  1.0 -0.003496571
N  N1  1  0.79610000  0.64670000  0.94010000  1.0 -0.4109091671
N  N2  1  0.79510000  0.74990000  0.97410000  1.0 -0.4314218858
N  N3  1  0.49530000  0.13830000  0.74900000  1.0 -0.4025550906
N  N4  1  0.89420000  0.81640000  0.91510000  1.0 -0.4109091671
N  N5  1  0.53830000  0.07430000  0.81060000  1.0 -0.4025550906
N  N6  1  0.67510000  0.43490000  0.64130000  1.0 -0.1805118868
N  N7  1  0.66450000  0.22770000  0.77330000  1.0 -0.4025550906
N  N8  1  0.17490000  0.80730000  0.77620000  1.0 -0.1905716927
N  N9  1  0.85550000  0.19710000  0.89680000  1.0 -0.1905716927
N  N10  1  0.93180000  0.09200000  0.94480000  1.0 -0.1905716927
N  N11  1  0.54310000  0.41070000  0.04880000  1.0 -0.1905716927
N  N12  1  0.97770000  0.69410000  0.82080000  1.0 -0.1905716927
N  N13  1  0.35330000  0.20390000  0.44010000  1.0 -0.4109091671
N  N14  1  0.25010000  0.20490000  0.47410000  1.0 -0.4314218858
N  N15  1  0.86170000  0.50470000  0.24900000  1.0 -0.4025550906
N  N16  1  0.18360000  0.10580000  0.41510000  1.0 -0.4109091671
N  N17  1  0.92570000  0.46170000  0.31060000  1.0 -0.4025550906
N  N18  1  0.56510000  0.32490000  0.14130000  1.0 -0.1805118868
N  N19  1  0.77230000  0.33550000  0.27330000  1.0 -0.4025550906
N  N20  1  0.19270000  0.82510000  0.27620000  1.0 -0.1905716927
N  N21  1  0.80290000  0.14450000  0.39680000  1.0 -0.1905716927
N  N22  1  0.90800000  0.06820000  0.44480000  1.0 -0.1905716927
N  N23  1  0.58930000  0.45690000  0.54880000  1.0 -0.1905716927
N  N24  1  0.30590000  0.02230000  0.32080000  1.0 -0.1905716927
N  N25  1  0.64670000  0.79610000  0.55990000  1.0 -0.4109091671
N  N26  1  0.74990000  0.79510000  0.52590000  1.0 -0.4314218858
N  N27  1  0.13830000  0.49530000  0.75100000  1.0 -0.4025550906
N  N28  1  0.81640000  0.89420000  0.58490000  1.0 -0.4109091671
N  N29  1  0.07430000  0.53830000  0.68940000  1.0 -0.4025550906
N  N30  1  0.43490000  0.67510000  0.85870000  1.0 -0.1805118868
N  N31  1  0.22770000  0.66450000  0.72670000  1.0 -0.4025550906
N  N32  1  0.80730000  0.17490000  0.72380000  1.0 -0.1905716927
N  N33  1  0.19710000  0.85550000  0.60320000  1.0 -0.1905716927
N  N34  1  0.09200000  0.93180000  0.55520000  1.0 -0.1905716927
N  N35  1  0.41070000  0.54310000  0.45120000  1.0 -0.1905716927
N  N36  1  0.69410000  0.97770000  0.67920000  1.0 -0.1905716927
N  N37  1  0.20390000  0.35330000  0.05990000  1.0 -0.4109091671
N  N38  1  0.20490000  0.25010000  0.02590000  1.0 -0.4314218858
N  N39  1  0.50470000  0.86170000  0.25100000  1.0 -0.4025550906
N  N40  1  0.10580000  0.18360000  0.08490000  1.0 -0.4109091671
N  N41  1  0.46170000  0.92570000  0.18940000  1.0 -0.4025550906
N  N42  1  0.32490000  0.56510000  0.35870000  1.0 -0.1805118868
N  N43  1  0.33550000  0.77230000  0.22670000  1.0 -0.4025550906
N  N44  1  0.82510000  0.19270000  0.22380000  1.0 -0.1905716927
N  N45  1  0.14450000  0.80290000  0.10320000  1.0 -0.1905716927
N  N46  1  0.06820000  0.90800000  0.05520000  1.0 -0.1905716927
N  N47  1  0.45690000  0.58930000  0.95120000  1.0 -0.1905716927
N  N48  1  0.02230000  0.30590000  0.17920000  1.0 -0.1905716927
