# DDEC6 charges by PACMAN v1.1 (https://github.com/mtap-research/PACMAN-charge/)
data_EZEVUD_FSR_pacman
_symmetry_space_group_name_H-M   'P 1'
_cell_length_a   17.86260000
_cell_length_b   17.86260000
_cell_length_c   30.64640000
_cell_angle_alpha   79.77030000
_cell_angle_beta   100.23000000
_cell_angle_gamma   132.04000000
_symmetry_Int_Tables_number   1
_chemical_formula_structural   Zn5H24C36(N6Cl5)2
_chemical_formula_sum   'Zn20 H96 C144 N48 Cl40'
_cell_volume   7123.70538741
_cell_formula_units_Z   4
loop_
 _symmetry_equiv_pos_site_id
 _symmetry_equiv_pos_as_xyz
  1  'x, y, z'
loop_
 _atom_site_type_symbol
 _atom_site_label
 _atom_site_symmetry_multiplicity
 _atom_site_fract_x
 _atom_site_fract_y
 _atom_site_fract_z
 _atom_site_occupancy
 _atom_site_charge
Zn  Zn1  1  0.77281000  0.94351000  0.90867000  1.0 0.4009233226
Zn  Zn2  1  0.50618000  0.25006000  0.54165000  1.0 0.6065689062
Zn  Zn3  1  0.46043000  0.83851000  0.71946000  1.0 0.2603806164
Zn  Zn4  1  0.44533000  0.85209000  0.70206000  1.0 0.2538993393
Zn  Zn5  1  0.78820000  0.94260000  0.90190000  1.0 0.4009233226
Zn  Zn6  1  0.05649000  0.22719000  0.40867000  1.0 0.4009233226
Zn  Zn7  1  0.74994000  0.49382000  0.04165000  1.0 0.6065689062
Zn  Zn8  1  0.16149000  0.53957000  0.21946000  1.0 0.2603806164
Zn  Zn9  1  0.14791000  0.55467000  0.20206000  1.0 0.2603806164
Zn  Zn10  1  0.05740000  0.21180000  0.40190000  1.0 0.4009233226
Zn  Zn11  1  0.94351000  0.77281000  0.59133000  1.0 0.4009233226
Zn  Zn12  1  0.25006000  0.50618000  0.95835000  1.0 0.6065689062
Zn  Zn13  1  0.83851000  0.46043000  0.78054000  1.0 0.2603806164
Zn  Zn14  1  0.85209000  0.44533000  0.79794000  1.0 0.2603806164
Zn  Zn15  1  0.94260000  0.78820000  0.59810000  1.0 0.4009233226
Zn  Zn16  1  0.22719000  0.05649000  0.09133000  1.0 0.4009233226
Zn  Zn17  1  0.49382000  0.74994000  0.45835000  1.0 0.6065689062
Zn  Zn18  1  0.53957000  0.16149000  0.28054000  1.0 0.2603806164
Zn  Zn19  1  0.55467000  0.14791000  0.29794000  1.0 0.2603806164
Zn  Zn20  1  0.21180000  0.05740000  0.09810000  1.0 0.4009233226
H  H1  1  0.13740000  0.15642000  0.96692000  1.0 0.1225430454
H  H2  1  0.64763000  0.16609000  0.67703000  1.0 0.0993527898
H  H3  1  0.99315000  0.03545000  0.92417000  1.0 0.0605398687
H  H4  1  0.94458000  0.17674000  0.89017000  1.0 0.0908132354
H  H5  1  0.98983000  0.29743000  0.83158000  1.0 0.106989864
H  H6  1  0.82113000  0.02577000  0.99411000  1.0 0.0683478818
H  H7  1  0.52651000  0.14251000  0.62310000  1.0 0.0683478818
H  H8  1  0.96049000  0.14527000  0.03923000  1.0 0.1225430454
H  H9  1  0.38547000  0.31399000  0.99612000  1.0 0.106989864
H  H10  1  0.54627000  0.37599000  0.99007000  1.0 0.0908132354
H  H11  1  0.16772000  0.49994000  0.77273000  1.0 0.1225430454
H  H12  1  0.68272000  0.97238000  0.82647000  1.0 0.0403462888
H  H13  1  0.71769000  0.08827000  0.76730000  1.0 0.0993527898
H  H14  1  0.32396000  0.44108000  0.16334000  1.0 0.1225430454
H  H15  1  0.08165000  0.36767000  0.08243000  1.0 0.1253526991
H  H16  1  0.33079000  0.65685000  0.76889000  1.0 0.0605398687
H  H17  1  0.08925000  0.58765000  0.65616000  1.0 0.1225430454
H  H18  1  0.06336000  0.44408000  0.12771000  1.0 0.0605398687
H  H19  1  0.85670000  0.44294000  0.61565000  1.0 0.106989864
H  H20  1  0.49825000  0.48463000  0.09900000  1.0 0.1225430454
H  H21  1  0.72995000  0.41017000  0.56310000  1.0 0.0683478818
H  H22  1  0.25413000  0.74031000  0.65575000  1.0 0.0683478818
H  H23  1  0.29227000  0.50661000  0.20926000  1.0 0.0793053757
H  H24  1  0.65578000  0.53954000  0.09085000  1.0 0.0908132354
H  H25  1  0.84358000  0.86260000  0.46692000  1.0 0.1225430454
H  H26  1  0.83391000  0.35237000  0.17703000  1.0 0.0993527898
H  H27  1  0.96455000  0.00685000  0.42417000  1.0 0.0605398687
H  H28  1  0.82326000  0.05542000  0.39017000  1.0 0.0908132354
H  H29  1  0.70257000  0.01017000  0.33158000  1.0 0.106989864
H  H30  1  0.97423000  0.17887000  0.49411000  1.0 0.0683478818
H  H31  1  0.85749000  0.47349000  0.12310000  1.0 0.0683478818
H  H32  1  0.85473000  0.03951000  0.53923000  1.0 0.1225430454
H  H33  1  0.68601000  0.61453000  0.49612000  1.0 0.106989864
H  H34  1  0.62401000  0.45373000  0.49007000  1.0 0.0908132354
H  H35  1  0.50006000  0.83228000  0.27273000  1.0 0.1225430454
H  H36  1  0.02762000  0.31728000  0.32647000  1.0 0.0403462888
H  H37  1  0.91173000  0.28231000  0.26730000  1.0 0.0993527898
H  H38  1  0.55892000  0.67604000  0.66334000  1.0 0.1225430454
H  H39  1  0.63233000  0.91835000  0.58243000  1.0 0.1253526991
H  H40  1  0.34315000  0.66921000  0.26889000  1.0 0.0605398687
H  H41  1  0.41235000  0.91075000  0.15616000  1.0 0.1225430454
H  H42  1  0.55592000  0.93664000  0.62771000  1.0 0.0605398687
H  H43  1  0.55706000  0.14330000  0.11565000  1.0 0.106989864
H  H44  1  0.51537000  0.50175000  0.59900000  1.0 0.1225430454
H  H45  1  0.58983000  0.27005000  0.06310000  1.0 0.0683478818
H  H46  1  0.25969000  0.74587000  0.15576000  1.0 0.0683478818
H  H47  1  0.49339000  0.70773000  0.70926000  1.0 0.0793053757
H  H48  1  0.46046000  0.34422000  0.59085000  1.0 0.0908132354
H  H49  1  0.15642000  0.13740000  0.53308000  1.0 0.1225430454
H  H50  1  0.16609000  0.64763000  0.82297000  1.0 0.0993527898
H  H51  1  0.03545000  0.99315000  0.57583000  1.0 0.0605398687
H  H52  1  0.17674000  0.94458000  0.60983000  1.0 0.0908132354
H  H53  1  0.29743000  0.98983000  0.66842000  1.0 0.106989864
H  H54  1  0.02577000  0.82113000  0.50589000  1.0 0.0683478818
H  H55  1  0.14251000  0.52651000  0.87690000  1.0 0.0683478818
H  H56  1  0.14527000  0.96049000  0.46077000  1.0 0.1225430454
H  H57  1  0.31399000  0.38547000  0.50388000  1.0 0.106989864
H  H58  1  0.37599000  0.54627000  0.50993000  1.0 0.0908132354
H  H59  1  0.49994000  0.16772000  0.72727000  1.0 0.1225430454
H  H60  1  0.97238000  0.68272000  0.67353000  1.0 0.0403462888
H  H61  1  0.08827000  0.71769000  0.73270000  1.0 0.0993527898
H  H62  1  0.44108000  0.32396000  0.33666000  1.0 0.1225430454
H  H63  1  0.36767000  0.08165000  0.41757000  1.0 0.1253526991
H  H64  1  0.65685000  0.33079000  0.73111000  1.0 0.0605398687
H  H65  1  0.58765000  0.08925000  0.84384000  1.0 0.1225430454
H  H66  1  0.44408000  0.06336000  0.37229000  1.0 0.0605398687
H  H67  1  0.44294000  0.85670000  0.88435000  1.0 0.106989864
H  H68  1  0.48463000  0.49825000  0.40100000  1.0 0.1225430454
H  H69  1  0.41017000  0.72995000  0.93690000  1.0 0.0683478818
H  H70  1  0.74031000  0.25413000  0.84424000  1.0 0.0683478818
H  H71  1  0.50661000  0.29227000  0.29074000  1.0 0.0793053757
H  H72  1  0.53954000  0.65578000  0.40915000  1.0 0.0908132354
H  H73  1  0.86260000  0.84358000  0.03308000  1.0 0.1225430454
H  H74  1  0.35237000  0.83391000  0.32297000  1.0 0.0993527898
H  H75  1  0.00685000  0.96455000  0.07583000  1.0 0.0605398687
H  H76  1  0.05542000  0.82326000  0.10983000  1.0 0.0908132354
H  H77  1  0.01017000  0.70257000  0.16842000  1.0 0.106989864
H  H78  1  0.17887000  0.97423000  0.00589000  1.0 0.0683478818
H  H79  1  0.47349000  0.85749000  0.37690000  1.0 0.0683478818
H  H80  1  0.03951000  0.85473000  0.96077000  1.0 0.1225430454
H  H81  1  0.61453000  0.68601000  0.00388000  1.0 0.106989864
H  H82  1  0.45373000  0.62401000  0.00993000  1.0 0.0908132354
H  H83  1  0.83228000  0.50006000  0.22727000  1.0 0.1225430454
H  H84  1  0.31728000  0.02762000  0.17353000  1.0 0.0403462888
H  H85  1  0.28231000  0.91173000  0.23270000  1.0 0.0993527898
H  H86  1  0.67604000  0.55892000  0.83666000  1.0 0.1225430454
H  H87  1  0.91835000  0.63233000  0.91757000  1.0 0.1253526991
H  H88  1  0.66921000  0.34315000  0.23111000  1.0 0.0605398687
H  H89  1  0.91075000  0.41235000  0.34384000  1.0 0.1225430454
H  H90  1  0.93664000  0.55592000  0.87229000  1.0 0.0605398687
H  H91  1  0.14330000  0.55706000  0.38435000  1.0 0.106989864
H  H92  1  0.50175000  0.51537000  0.90100000  1.0 0.1225430454
H  H93  1  0.27005000  0.58983000  0.43690000  1.0 0.0683478818
H  H94  1  0.74587000  0.25969000  0.34425000  1.0 0.0683478818
H  H95  1  0.70773000  0.49339000  0.79074000  1.0 0.0793053757
H  H96  1  0.34422000  0.46046000  0.90915000  1.0 0.0908132354
C  C1  1  0.06471000  0.16655000  0.00654000  1.0 0.0605398687
C  C2  1  0.42362000  0.39098000  0.04832000  1.0 0.0502417855
C  C3  1  0.15494000  0.24846000  0.03350000  1.0 0.3402669936
C  C4  1  0.00577000  0.42793000  0.71576000  1.0 0.3402669936
C  C5  1  0.84440000  0.32744000  0.68745000  1.0 0.3402669936
C  C6  1  0.88845000  0.27983000  0.75275000  1.0 0.3466969391
C  C7  1  0.32141000  0.35259000  0.05352000  1.0 0.3293083941
C  C8  1  0.07324000  0.13142000  0.97269000  1.0 -0.1478451307
C  C9  1  0.86022000  0.20508000  0.79178000  1.0 0.0502417855
C  C10  1  0.22037000  0.35423000  0.08669000  1.0 0.3561054801
C  C11  1  0.11133000  0.52653000  0.71425000  1.0 0.0502417855
C  C12  1  0.66614000  0.21776000  0.65399000  1.0 -0.1904899766
C  C13  1  0.76592000  0.30806000  0.65243000  1.0 0.0502417855
C  C14  1  0.98723000  0.05957000  0.94744000  1.0 0.013800618
C  C15  1  0.89916000  0.15824000  0.86429000  1.0 0.0502417855
C  C16  1  0.92637000  0.23059000  0.82965000  1.0 -0.1690992331
C  C17  1  0.88639000  0.05361000  0.98841000  1.0 0.0308860045
C  C18  1  0.20537000  0.39683000  0.11773000  1.0 0.0605398687
C  C19  1  0.59460000  0.20426000  0.62174000  1.0 0.0605398687
C  C20  1  0.96887000  0.12493000  0.01522000  1.0 -0.1607375073
C  C21  1  0.43997000  0.36043000  0.01624000  1.0 -0.1904899766
C  C22  1  0.53595000  0.39705000  0.01301000  1.0 0.0502417855
C  C23  1  0.18378000  0.54802000  0.74819000  1.0 -0.1607375073
C  C24  1  0.74621000  0.03939000  0.82728000  1.0 -0.0094600447
C  C25  1  0.76683000  0.10757000  0.79172000  1.0 -0.1690992331
C  C26  1  0.26898000  0.43942000  0.15576000  1.0 -0.1607375073
C  C27  1  0.12720000  0.39760000  0.10800000  1.0 -0.1364918056
C  C28  1  0.28063000  0.64157000  0.74557000  1.0 0.0243181484
C  C29  1  0.13800000  0.59980000  0.67963000  1.0 -0.1690992331
C  C30  1  0.11577000  0.44183000  0.13535000  1.0 0.0308860045
C  C31  1  0.78929000  0.38051000  0.61788000  1.0 -0.1904899766
C  C32  1  0.50594000  0.46006000  0.07662000  1.0 -0.1844268257
C  C33  1  0.71331000  0.36049000  0.58691000  1.0 0.0502417855
C  C34  1  0.23613000  0.69047000  0.67968000  1.0 0.0403462888
C  C35  1  0.25033000  0.47967000  0.18255000  1.0 0.0502417855
C  C36  1  0.59961000  0.49239000  0.07147000  1.0 0.0683478818
C  C37  1  0.83345000  0.93529000  0.50654000  1.0 0.0605398687
C  C38  1  0.60902000  0.57638000  0.54832000  1.0 0.0502417855
C  C39  1  0.75154000  0.84506000  0.53350000  1.0 0.3402669936
C  C40  1  0.57207000  0.99423000  0.21576000  1.0 0.3402669936
C  C41  1  0.67256000  0.15560000  0.18745000  1.0 0.3402669936
C  C42  1  0.72017000  0.11155000  0.25275000  1.0 0.3466969391
C  C43  1  0.64741000  0.67859000  0.55352000  1.0 0.3293083941
C  C44  1  0.86858000  0.92676000  0.47269000  1.0 -0.1478451307
C  C45  1  0.79492000  0.13978000  0.29178000  1.0 0.0502417855
C  C46  1  0.64577000  0.77963000  0.58669000  1.0 0.3561054801
C  C47  1  0.47347000  0.88867000  0.21425000  1.0 0.0502417855
C  C48  1  0.78224000  0.33386000  0.15399000  1.0 -0.1904899766
C  C49  1  0.69194000  0.23408000  0.15243000  1.0 0.0502417855
C  C50  1  0.94043000  0.01277000  0.44744000  1.0 0.013800618
C  C51  1  0.84176000  0.10084000  0.36429000  1.0 0.0502417855
C  C52  1  0.76941000  0.07363000  0.32965000  1.0 -0.1690992331
C  C53  1  0.94639000  0.11361000  0.48841000  1.0 0.0308860045
C  C54  1  0.60317000  0.79463000  0.61773000  1.0 0.0605398687
C  C55  1  0.79574000  0.40540000  0.12174000  1.0 0.0605398687
C  C56  1  0.87507000  0.03113000  0.51522000  1.0 -0.1607375073
C  C57  1  0.63957000  0.56003000  0.51624000  1.0 -0.1904899766
C  C58  1  0.60295000  0.46405000  0.51301000  1.0 0.0502417855
C  C59  1  0.45198000  0.81622000  0.24819000  1.0 -0.1607375073
C  C60  1  0.96061000  0.25379000  0.32728000  1.0 -0.0094600447
C  C61  1  0.89243000  0.23317000  0.29172000  1.0 -0.1690992331
C  C62  1  0.56058000  0.73102000  0.65576000  1.0 -0.1607375073
C  C63  1  0.60240000  0.87280000  0.60800000  1.0 -0.1364918056
C  C64  1  0.35843000  0.71937000  0.24557000  1.0 0.0243181484
C  C65  1  0.40020000  0.86200000  0.17963000  1.0 -0.1690992331
C  C66  1  0.55817000  0.88423000  0.63535000  1.0 0.0308860045
C  C67  1  0.61949000  0.21071000  0.11788000  1.0 -0.1904899766
C  C68  1  0.53994000  0.49406000  0.57662000  1.0 -0.1844268257
C  C69  1  0.63951000  0.28669000  0.08691000  1.0 0.0502417855
C  C70  1  0.30953000  0.76387000  0.17968000  1.0 0.0403462888
C  C71  1  0.52033000  0.74967000  0.68255000  1.0 0.0502417855
C  C72  1  0.50761000  0.40039000  0.57147000  1.0 0.0683478818
C  C73  1  0.16655000  0.06471000  0.49346000  1.0 0.0605398687
C  C74  1  0.39098000  0.42362000  0.45168000  1.0 0.0502417855
C  C75  1  0.24846000  0.15494000  0.46650000  1.0 0.3402669936
C  C76  1  0.42793000  0.00577000  0.78424000  1.0 0.3402669936
C  C77  1  0.32744000  0.84440000  0.81255000  1.0 0.3402669936
C  C78  1  0.27983000  0.88845000  0.74725000  1.0 0.3466969391
C  C79  1  0.35259000  0.32141000  0.44648000  1.0 0.3293083941
C  C80  1  0.13142000  0.07324000  0.52731000  1.0 -0.1478451307
C  C81  1  0.20508000  0.86022000  0.70822000  1.0 0.0502417855
C  C82  1  0.35423000  0.22037000  0.41331000  1.0 0.3561054801
C  C83  1  0.52653000  0.11133000  0.78575000  1.0 0.0502417855
C  C84  1  0.21776000  0.66614000  0.84601000  1.0 -0.1904899766
C  C85  1  0.30806000  0.76592000  0.84757000  1.0 0.0502417855
C  C86  1  0.05957000  0.98723000  0.55256000  1.0 0.013800618
C  C87  1  0.15824000  0.89916000  0.63571000  1.0 0.0502417855
C  C88  1  0.23059000  0.92637000  0.67035000  1.0 -0.1690992331
C  C89  1  0.05361000  0.88639000  0.51159000  1.0 0.0308860045
C  C90  1  0.39683000  0.20537000  0.38227000  1.0 0.0605398687
C  C91  1  0.20426000  0.59460000  0.87826000  1.0 0.0605398687
C  C92  1  0.12493000  0.96887000  0.48478000  1.0 -0.1607375073
C  C93  1  0.36043000  0.43997000  0.48376000  1.0 -0.1904899766
C  C94  1  0.39705000  0.53595000  0.48699000  1.0 0.0502417855
C  C95  1  0.54802000  0.18378000  0.75181000  1.0 -0.1607375073
C  C96  1  0.03939000  0.74621000  0.67272000  1.0 -0.0094600447
C  C97  1  0.10757000  0.76683000  0.70828000  1.0 -0.1690992331
C  C98  1  0.43942000  0.26898000  0.34424000  1.0 -0.1607375073
C  C99  1  0.39760000  0.12720000  0.39200000  1.0 -0.1364918056
C  C100  1  0.64157000  0.28063000  0.75443000  1.0 0.0243181484
C  C101  1  0.59980000  0.13800000  0.82037000  1.0 -0.1690992331
C  C102  1  0.44183000  0.11577000  0.36465000  1.0 0.0308860045
C  C103  1  0.38051000  0.78929000  0.88212000  1.0 -0.1904899766
C  C104  1  0.46006000  0.50594000  0.42338000  1.0 -0.1844268257
C  C105  1  0.36049000  0.71331000  0.91309000  1.0 0.0502417855
C  C106  1  0.69047000  0.23613000  0.82032000  1.0 0.0403462888
C  C107  1  0.47967000  0.25033000  0.31745000  1.0 0.0502417855
C  C108  1  0.49239000  0.59961000  0.42853000  1.0 0.0683478818
C  C109  1  0.93529000  0.83345000  0.99346000  1.0 0.0605398687
C  C110  1  0.57638000  0.60902000  0.95168000  1.0 0.0502417855
C  C111  1  0.84506000  0.75154000  0.96650000  1.0 0.3402669936
C  C112  1  0.99423000  0.57207000  0.28424000  1.0 0.3402669936
C  C113  1  0.15560000  0.67256000  0.31255000  1.0 0.3402669936
C  C114  1  0.11155000  0.72017000  0.24725000  1.0 0.3466969391
C  C115  1  0.67859000  0.64741000  0.94648000  1.0 0.3293083941
C  C116  1  0.92676000  0.86858000  0.02731000  1.0 -0.1478451307
C  C117  1  0.13978000  0.79492000  0.20822000  1.0 0.0502417855
C  C118  1  0.77963000  0.64577000  0.91331000  1.0 0.3561054801
C  C119  1  0.88867000  0.47347000  0.28575000  1.0 0.0502417855
C  C120  1  0.33386000  0.78224000  0.34601000  1.0 -0.1904899766
C  C121  1  0.23408000  0.69194000  0.34757000  1.0 0.0502417855
C  C122  1  0.01277000  0.94043000  0.05256000  1.0 0.013800618
C  C123  1  0.10084000  0.84176000  0.13571000  1.0 0.0502417855
C  C124  1  0.07363000  0.76941000  0.17035000  1.0 -0.1690992331
C  C125  1  0.11361000  0.94639000  0.01159000  1.0 0.0308860045
C  C126  1  0.79463000  0.60317000  0.88227000  1.0 0.0605398687
C  C127  1  0.40540000  0.79574000  0.37826000  1.0 0.0605398687
C  C128  1  0.03113000  0.87507000  0.98478000  1.0 -0.1607375073
C  C129  1  0.56003000  0.63957000  0.98376000  1.0 -0.1904899766
C  C130  1  0.46405000  0.60295000  0.98699000  1.0 0.0502417855
C  C131  1  0.81622000  0.45198000  0.25181000  1.0 -0.1607375073
C  C132  1  0.25379000  0.96061000  0.17272000  1.0 -0.0094600447
C  C133  1  0.23317000  0.89243000  0.20828000  1.0 -0.1690992331
C  C134  1  0.73102000  0.56058000  0.84424000  1.0 -0.1607375073
C  C135  1  0.87280000  0.60240000  0.89200000  1.0 -0.1364918056
C  C136  1  0.71937000  0.35843000  0.25443000  1.0 0.0308860045
C  C137  1  0.86200000  0.40020000  0.32037000  1.0 -0.1690992331
C  C138  1  0.88423000  0.55817000  0.86465000  1.0 0.0308860045
C  C139  1  0.21071000  0.61949000  0.38212000  1.0 -0.1904899766
C  C140  1  0.49406000  0.53994000  0.92338000  1.0 -0.1844268257
C  C141  1  0.28669000  0.63951000  0.41309000  1.0 0.0502417855
C  C142  1  0.76387000  0.30953000  0.32032000  1.0 0.0403462888
C  C143  1  0.74967000  0.52033000  0.81745000  1.0 0.0502417855
C  C144  1  0.40039000  0.50761000  0.92853000  1.0 0.0683478818
N  N1  1  0.81416000  0.25870000  0.72239000  1.0 -0.4497909213
N  N2  1  0.89504000  0.02228000  0.95458000  1.0 -0.2569142545
N  N3  1  0.98554000  0.36270000  0.75098000  1.0 -0.4497909213
N  N4  1  0.61439000  0.46075000  0.04091000  1.0 -0.2204938134
N  N5  1  0.24507000  0.28231000  0.02652000  1.0 -0.4652280475
N  N6  1  0.13810000  0.28218000  0.06265000  1.0 -0.4393365646
N  N7  1  0.81127000  0.06271000  0.86307000  1.0 -0.2480782384
N  N8  1  0.93980000  0.41286000  0.68226000  1.0 -0.4497909213
N  N9  1  0.31420000  0.39074000  0.08419000  1.0 -0.4497909213
N  N10  1  0.61690000  0.27440000  0.58859000  1.0 -0.2086902689
N  N11  1  0.30616000  0.71080000  0.71170000  1.0 -0.2086902689
N  N12  1  0.17645000  0.48215000  0.17258000  1.0 -0.2204938134
N  N13  1  0.74130000  0.18584000  0.22239000  1.0 -0.4497909213
N  N14  1  0.97772000  0.10496000  0.45458000  1.0 -0.2569142545
N  N15  1  0.63730000  0.01446000  0.25098000  1.0 -0.4497909213
N  N16  1  0.53925000  0.38561000  0.54091000  1.0 -0.2204938134
N  N17  1  0.71769000  0.75493000  0.52652000  1.0 -0.4652280475
N  N18  1  0.71782000  0.86190000  0.56265000  1.0 -0.4393365646
N  N19  1  0.93729000  0.18873000  0.36307000  1.0 -0.2480782384
N  N20  1  0.58714000  0.06020000  0.18226000  1.0 -0.4497909213
N  N21  1  0.60926000  0.68580000  0.58419000  1.0 -0.4497909213
N  N22  1  0.72560000  0.38310000  0.08859000  1.0 -0.2086902689
N  N23  1  0.28920000  0.69384000  0.21170000  1.0 -0.2086902689
N  N24  1  0.51785000  0.82355000  0.67258000  1.0 -0.2204938134
N  N25  1  0.25870000  0.81416000  0.77761000  1.0 -0.4497909213
N  N26  1  0.02228000  0.89504000  0.54542000  1.0 -0.2569142545
N  N27  1  0.36270000  0.98554000  0.74902000  1.0 -0.4497909213
N  N28  1  0.46075000  0.61439000  0.45909000  1.0 -0.2204938134
N  N29  1  0.28231000  0.24507000  0.47348000  1.0 -0.4652280475
N  N30  1  0.28218000  0.13810000  0.43735000  1.0 -0.4393365646
N  N31  1  0.06271000  0.81127000  0.63693000  1.0 -0.2480782384
N  N32  1  0.41286000  0.93980000  0.81774000  1.0 -0.4497909213
N  N33  1  0.39074000  0.31420000  0.41581000  1.0 -0.4497909213
N  N34  1  0.27440000  0.61690000  0.91141000  1.0 -0.2086902689
N  N35  1  0.71080000  0.30616000  0.78830000  1.0 -0.2086902689
N  N36  1  0.48215000  0.17645000  0.32742000  1.0 -0.2204938134
N  N37  1  0.18584000  0.74130000  0.27761000  1.0 -0.4497909213
N  N38  1  0.10496000  0.97772000  0.04542000  1.0 -0.2569142545
N  N39  1  0.01446000  0.63730000  0.24902000  1.0 -0.4497909213
N  N40  1  0.38561000  0.53925000  0.95909000  1.0 -0.2204938134
N  N41  1  0.75493000  0.71769000  0.97348000  1.0 -0.4652280475
N  N42  1  0.86190000  0.71782000  0.93735000  1.0 -0.4393365646
N  N43  1  0.18873000  0.93729000  0.13693000  1.0 -0.2480782384
N  N44  1  0.06020000  0.58714000  0.31774000  1.0 -0.4497909213
N  N45  1  0.68580000  0.60926000  0.91581000  1.0 -0.4497909213
N  N46  1  0.38310000  0.72560000  0.41141000  1.0 -0.2086902689
N  N47  1  0.69384000  0.28920000  0.28830000  1.0 -0.2086902689
N  N48  1  0.82355000  0.51785000  0.82742000  1.0 -0.2086902689
Cl  Cl1  1  0.36065000  0.13075000  0.57214000  1.0 -0.5620309676
Cl  Cl2  1  0.63537000  0.87783000  0.93960000  1.0 0.0502417855
Cl  Cl3  1  0.78860000  0.85740000  0.87286000  1.0 0.0403462888
Cl  Cl4  1  0.54944000  0.25636000  0.47738000  1.0 -0.5207373465
Cl  Cl5  1  0.46786000  0.96314000  0.68600000  1.0 0.0014709586
Cl  Cl6  1  0.51950000  0.83270000  0.78839000  1.0 -0.0315786363
Cl  Cl7  1  0.43533000  0.95731000  0.65810000  1.0 0.0403462888
Cl  Cl8  1  0.51690000  0.88884000  0.77063000  1.0 -0.0094600447
Cl  Cl9  1  0.64130000  0.86030000  0.92610000  1.0 0.013800618
Cl  Cl10  1  0.82800000  0.87600000  0.86810000  1.0 0.0793053757
Cl  Cl11  1  0.86925000  0.63935000  0.07214000  1.0 -0.5620309676
Cl  Cl12  1  0.12217000  0.36463000  0.43960000  1.0 0.0502417855
Cl  Cl13  1  0.14260000  0.21140000  0.37286000  1.0 0.0403462888
Cl  Cl14  1  0.74364000  0.45056000  0.97738000  1.0 -0.5207373465
Cl  Cl15  1  0.03686000  0.53214000  0.18600000  1.0 0.0014709586
Cl  Cl16  1  0.16730000  0.48050000  0.28839000  1.0 -0.0315786363
Cl  Cl17  1  0.04269000  0.56467000  0.15810000  1.0 0.0403462888
Cl  Cl18  1  0.11116000  0.48310000  0.27063000  1.0 -0.0094600447
Cl  Cl19  1  0.13970000  0.35870000  0.42610000  1.0 0.013800618
Cl  Cl20  1  0.12400000  0.17200000  0.36810000  1.0 0.0793053757
Cl  Cl21  1  0.13075000  0.36065000  0.92786000  1.0 -0.5620309676
Cl  Cl22  1  0.87783000  0.63537000  0.56040000  1.0 0.0502417855
Cl  Cl23  1  0.85740000  0.78860000  0.62714000  1.0 0.0403462888
Cl  Cl24  1  0.25636000  0.54944000  0.02262000  1.0 -0.5207373465
Cl  Cl25  1  0.96314000  0.46786000  0.81400000  1.0 0.0014709586
Cl  Cl26  1  0.83270000  0.51950000  0.71161000  1.0 -0.0315786363
Cl  Cl27  1  0.95731000  0.43533000  0.84190000  1.0 0.0403462888
Cl  Cl28  1  0.88884000  0.51690000  0.72937000  1.0 -0.0094600447
Cl  Cl29  1  0.86030000  0.64130000  0.57390000  1.0 0.013800618
Cl  Cl30  1  0.87600000  0.82800000  0.63190000  1.0 0.0793053757
Cl  Cl31  1  0.63935000  0.86925000  0.42786000  1.0 -0.5620309676
Cl  Cl32  1  0.36463000  0.12217000  0.06040000  1.0 0.0502417855
Cl  Cl33  1  0.21140000  0.14260000  0.12714000  1.0 0.0403462888
Cl  Cl34  1  0.45056000  0.74364000  0.52262000  1.0 -0.5207373465
Cl  Cl35  1  0.53214000  0.03686000  0.31400000  1.0 0.0014709586
Cl  Cl36  1  0.48050000  0.16730000  0.21161000  1.0 -0.0315786363
Cl  Cl37  1  0.56467000  0.04269000  0.34190000  1.0 0.0403462888
Cl  Cl38  1  0.48310000  0.11116000  0.22937000  1.0 -0.0094600447
Cl  Cl39  1  0.35870000  0.13970000  0.07390000  1.0 0.013800618
Cl  Cl40  1  0.17200000  0.12400000  0.13190000  1.0 0.0793053757
