# DDEC6 charges by PACMAN v1.1 (https://github.com/mtap-research/PACMAN-charge/)
data_EZEVIR_FSR_pacman
_symmetry_space_group_name_H-M   'P 1'
_cell_length_a   18.49060000
_cell_length_b   18.49060000
_cell_length_c   31.67300000
_cell_angle_alpha   77.63790000
_cell_angle_beta   102.36200000
_cell_angle_gamma   134.23500000
_symmetry_Int_Tables_number   1
_chemical_formula_structural   Zn5H24C36(N6Cl5)2
_chemical_formula_sum   'Zn20 H96 C144 N48 Cl40'
_cell_volume   7546.47308361
_cell_formula_units_Z   4
loop_
 _symmetry_equiv_pos_site_id
 _symmetry_equiv_pos_as_xyz
  1  'x, y, z'
loop_
 _atom_site_type_symbol
 _atom_site_label
 _atom_site_symmetry_multiplicity
 _atom_site_fract_x
 _atom_site_fract_y
 _atom_site_fract_z
 _atom_site_occupancy
 _atom_site_charge
Zn  Zn1  1  0.76000000  0.99040000  0.44226000  1.0 0.6092854608
Zn  Zn2  1  0.34649000  0.94941000  0.29816000  1.0 0.3376997052
Zn  Zn3  1  0.44630000  0.27490000  0.08940000  1.0 0.2853512932
Zn  Zn4  1  0.33060000  0.96560000  0.27190000  1.0 0.2037581224
Zn  Zn5  1  0.44130000  0.30490000  0.10190000  1.0 0.2232043798
Zn  Zn6  1  0.00960000  0.24000000  0.94226000  1.0 0.6092854608
Zn  Zn7  1  0.05059000  0.65351000  0.79816000  1.0 0.3332869578
Zn  Zn8  1  0.72510000  0.55370000  0.58940000  1.0 0.2853512932
Zn  Zn9  1  0.03440000  0.66940000  0.77190000  1.0 0.2037581224
Zn  Zn10  1  0.69510000  0.55870000  0.60190000  1.0 0.2232043798
Zn  Zn11  1  0.99040000  0.76000000  0.05774000  1.0 0.6092854608
Zn  Zn12  1  0.94941000  0.34649000  0.20184000  1.0 0.3332869578
Zn  Zn13  1  0.27490000  0.44630000  0.41060000  1.0 0.2853512932
Zn  Zn14  1  0.96560000  0.33060000  0.22810000  1.0 0.2037581224
Zn  Zn15  1  0.30490000  0.44130000  0.39810000  1.0 0.2232043798
Zn  Zn16  1  0.24000000  0.00960000  0.55774000  1.0 0.6092854608
Zn  Zn17  1  0.65351000  0.05059000  0.70184000  1.0 0.3332869578
Zn  Zn18  1  0.55370000  0.72510000  0.91060000  1.0 0.2853512932
Zn  Zn19  1  0.66940000  0.03440000  0.72810000  1.0 0.2037581224
Zn  Zn20  1  0.55870000  0.69510000  0.89810000  1.0 0.2232043798
H  H1  1  0.36194000  0.34010000  0.51964000  1.0 0.1215012166
H  H2  1  0.12350000  0.17890000  0.48810000  1.0 0.1077889074
H  H3  1  0.66835000  0.13341000  0.31495000  1.0 0.1018725876
H  H4  1  0.49604000  0.45938000  0.56501000  1.0 0.0702236193
H  H5  1  0.96560000  0.11892000  0.49328000  1.0 0.0925274808
H  H6  1  0.58747000  0.21083000  0.22742000  1.0 0.1018725876
H  H7  1  0.64807000  0.01209000  0.36606000  1.0 0.0805499522
H  H8  1  0.00524000  0.99192000  0.39925000  1.0 0.1291888313
H  H9  1  0.46959000  0.18057000  0.17190000  1.0 0.0495996792
H  H10  1  0.92841000  0.21063000  0.41484000  1.0 0.0702236193
H  H11  1  0.99533000  0.66825000  0.23425000  1.0 0.1291888313
H  H12  1  0.95778000  0.33626000  0.36570000  1.0 0.1018725876
H  H13  1  0.09035000  0.57735000  0.33894000  1.0 0.1291888313
H  H14  1  0.79147000  0.49567000  0.17431000  1.0 0.1215012166
H  H15  1  0.14650000  0.83326000  0.24388000  1.0 0.0619143775
H  H16  1  0.23954000  0.74412000  0.34425000  1.0 0.0805499522
H  H17  1  0.67029000  0.45707000  0.11885000  1.0 0.0925274808
H  H18  1  0.19699000  0.06801000  0.33827000  1.0 0.1291888313
H  H19  1  0.22147000  0.99921000  0.29670000  1.0 0.0702236193
H  H20  1  0.42976000  0.03732000  0.38218000  1.0 0.0805499522
H  H21  1  0.40993000  0.10599000  0.42608000  1.0 0.1291888313
H  H22  1  0.85120000  0.93724000  0.40337000  1.0 0.1018725876
H  H23  1  0.54613000  0.33937000  0.47439000  1.0 0.1291888313
H  H24  1  0.67627000  0.46107000  0.52363000  1.0 0.0619143775
H  H25  1  0.65990000  0.63806000  0.01964000  1.0 0.1215012166
H  H26  1  0.82110000  0.87650000  0.98810000  1.0 0.1077889074
H  H27  1  0.86659000  0.33165000  0.81495000  1.0 0.1018725876
H  H28  1  0.54062000  0.50396000  0.06501000  1.0 0.0702236193
H  H29  1  0.88108000  0.03440000  0.99328000  1.0 0.0925274808
H  H30  1  0.78917000  0.41253000  0.72742000  1.0 0.1018725876
H  H31  1  0.98791000  0.35193000  0.86606000  1.0 0.0805499522
H  H32  1  0.00808000  0.99476000  0.89925000  1.0 0.1291888313
H  H33  1  0.81943000  0.53041000  0.67190000  1.0 0.0495996792
H  H34  1  0.78937000  0.07159000  0.91484000  1.0 0.0702236193
H  H35  1  0.33175000  0.00467000  0.73425000  1.0 0.1291888313
H  H36  1  0.66374000  0.04222000  0.86570000  1.0 0.1018725876
H  H37  1  0.42265000  0.90965000  0.83894000  1.0 0.1291888313
H  H38  1  0.50433000  0.20853000  0.67431000  1.0 0.1215012166
H  H39  1  0.16674000  0.85350000  0.74388000  1.0 0.0619143775
H  H40  1  0.25588000  0.76046000  0.84425000  1.0 0.0805499522
H  H41  1  0.54293000  0.32971000  0.61885000  1.0 0.0925274808
H  H42  1  0.93199000  0.80301000  0.83827000  1.0 0.1291888313
H  H43  1  0.00079000  0.77853000  0.79670000  1.0 0.0702236193
H  H44  1  0.96268000  0.57024000  0.88218000  1.0 0.0805499522
H  H45  1  0.89401000  0.59007000  0.92608000  1.0 0.1291888313
H  H46  1  0.06276000  0.14880000  0.90337000  1.0 0.1018725876
H  H47  1  0.66063000  0.45387000  0.97439000  1.0 0.1291888313
H  H48  1  0.53893000  0.32373000  0.02363000  1.0 0.0619143775
H  H49  1  0.34010000  0.36194000  0.98036000  1.0 0.1215012166
H  H50  1  0.17890000  0.12350000  0.01190000  1.0 0.1077889074
H  H51  1  0.13341000  0.66835000  0.18505000  1.0 0.1018725876
H  H52  1  0.45938000  0.49604000  0.93499000  1.0 0.0702236193
H  H53  1  0.11892000  0.96560000  0.00672000  1.0 0.0925274808
H  H54  1  0.21083000  0.58747000  0.27258000  1.0 0.1018725876
H  H55  1  0.01209000  0.64807000  0.13394000  1.0 0.0805499522
H  H56  1  0.99192000  0.00524000  0.10075000  1.0 0.1291888313
H  H57  1  0.18057000  0.46959000  0.32810000  1.0 0.0495996792
H  H58  1  0.21063000  0.92841000  0.08516000  1.0 0.0702236193
H  H59  1  0.66825000  0.99533000  0.26575000  1.0 0.1291888313
H  H60  1  0.33626000  0.95778000  0.13430000  1.0 0.1018725876
H  H61  1  0.57735000  0.09035000  0.16106000  1.0 0.1291888313
H  H62  1  0.49567000  0.79147000  0.32569000  1.0 0.1215012166
H  H63  1  0.83326000  0.14650000  0.25612000  1.0 0.0619143775
H  H64  1  0.74412000  0.23954000  0.15575000  1.0 0.0805499522
H  H65  1  0.45707000  0.67029000  0.38115000  1.0 0.0925274808
H  H66  1  0.06801000  0.19699000  0.16173000  1.0 0.1291888313
H  H67  1  0.99921000  0.22147000  0.20330000  1.0 0.0702236193
H  H68  1  0.03732000  0.42976000  0.11782000  1.0 0.0805499522
H  H69  1  0.10599000  0.40993000  0.07392000  1.0 0.1291888313
H  H70  1  0.93724000  0.85120000  0.09663000  1.0 0.1018725876
H  H71  1  0.33937000  0.54613000  0.02561000  1.0 0.1291888313
H  H72  1  0.46107000  0.67627000  0.97637000  1.0 0.0619143775
H  H73  1  0.63806000  0.65990000  0.48036000  1.0 0.1215012166
H  H74  1  0.87650000  0.82110000  0.51190000  1.0 0.1077889074
H  H75  1  0.33165000  0.86659000  0.68505000  1.0 0.1018725876
H  H76  1  0.50396000  0.54062000  0.43499000  1.0 0.0702236193
H  H77  1  0.03440000  0.88108000  0.50672000  1.0 0.0925274808
H  H78  1  0.41253000  0.78917000  0.77258000  1.0 0.1018725876
H  H79  1  0.35193000  0.98791000  0.63394000  1.0 0.0805499522
H  H80  1  0.99476000  0.00808000  0.60075000  1.0 0.1291888313
H  H81  1  0.53041000  0.81943000  0.82810000  1.0 0.0495996792
H  H82  1  0.07159000  0.78937000  0.58516000  1.0 0.0702236193
H  H83  1  0.00467000  0.33175000  0.76575000  1.0 0.1291888313
H  H84  1  0.04222000  0.66374000  0.63430000  1.0 0.1018725876
H  H85  1  0.90965000  0.42265000  0.66106000  1.0 0.1291888313
H  H86  1  0.20853000  0.50433000  0.82569000  1.0 0.1215012166
H  H87  1  0.85350000  0.16674000  0.75612000  1.0 0.0619143775
H  H88  1  0.76046000  0.25588000  0.65575000  1.0 0.0805499522
H  H89  1  0.32971000  0.54293000  0.88115000  1.0 0.0925274808
H  H90  1  0.80301000  0.93199000  0.66173000  1.0 0.1291888313
H  H91  1  0.77853000  0.00079000  0.70330000  1.0 0.0702236193
H  H92  1  0.57024000  0.96268000  0.61782000  1.0 0.0805499522
H  H93  1  0.59007000  0.89401000  0.57392000  1.0 0.1291888313
H  H94  1  0.14880000  0.06276000  0.59663000  1.0 0.1018725876
H  H95  1  0.45387000  0.66063000  0.52561000  1.0 0.1291888313
H  H96  1  0.32373000  0.53893000  0.47637000  1.0 0.0619143775
C  C1  1  0.08400000  0.09520000  0.44330000  1.0 0.0317283814
C  C2  1  0.18440000  0.13620000  0.44150000  1.0 0.3376997052
C  C3  1  0.42510000  0.36210000  0.51990000  1.0 -0.14956793
C  C4  1  0.06830000  0.12930000  0.47040000  1.0 -0.1712086021
C  C5  1  0.72190000  0.15090000  0.33510000  1.0 -0.1894664783
C  C6  1  0.81660000  0.25180000  0.33520000  1.0 0.0495996792
C  C7  1  0.70360000  0.35800000  0.20820000  1.0 0.0495996792
C  C8  1  0.28800000  0.13900000  0.41390000  1.0 0.3601221014
C  C9  1  0.50660000  0.43460000  0.54690000  1.0 0.0317283814
C  C10  1  0.97330000  0.09430000  0.47360000  1.0 0.0399092566
C  C11  1  0.60540000  0.26280000  0.20600000  1.0 -0.1807435285
C  C12  1  0.83210000  0.33230000  0.30310000  1.0 0.3376997052
C  C13  1  0.71060000  0.07860000  0.36590000  1.0 0.0702236193
C  C14  1  0.93030000  0.49610000  0.28000000  1.0 0.3332869578
C  C15  1  0.99950000  0.01990000  0.41790000  1.0 -0.1712086021
C  C16  1  0.53470000  0.24470000  0.17260000  1.0 4.89186e-05
C  C17  1  0.87580000  0.19540000  0.39460000  1.0 0.0619143775
C  C18  1  0.77970000  0.38050000  0.24390000  1.0 0.3376997052
C  C19  1  0.02570000  0.60350000  0.28540000  1.0 0.0619143775
C  C20  1  0.04380000  0.68160000  0.25670000  1.0 -0.1568856743
C  C21  1  0.30420000  0.09780000  0.38560000  1.0 0.0619143775
C  C22  1  0.89360000  0.27120000  0.36540000  1.0 -0.1894664783
C  C23  1  0.10070000  0.62790000  0.31880000  1.0 -0.1712086021
C  C24  1  0.72660000  0.43120000  0.17460000  1.0 -0.1568856743
C  C25  1  0.13560000  0.78020000  0.26210000  1.0 0.0317283814
C  C26  1  0.19050000  0.72790000  0.32150000  1.0 0.0619143775
C  C27  1  0.65270000  0.40770000  0.14170000  1.0 0.0619143775
C  C28  1  0.24510000  0.06350000  0.34750000  1.0 -0.14956793
C  C29  1  0.26010000  0.02170000  0.32320000  1.0 0.0245567578
C  C30  1  0.38280000  0.04340000  0.37320000  1.0 0.0619143775
C  C31  1  0.37190000  0.08570000  0.39930000  1.0 -0.14956793
C  C32  1  0.90680000  0.98720000  0.42080000  1.0 0.0702236193
C  C33  1  0.43860000  0.32360000  0.49400000  1.0 0.0495996792
C  C34  1  0.53310000  0.36090000  0.49310000  1.0 -0.14956793
C  C35  1  0.35160000  0.24080000  0.46570000  1.0 0.3703271616
C  C36  1  0.61150000  0.43590000  0.52280000  1.0 0.0619143775
C  C37  1  0.90480000  0.91600000  0.94330000  1.0 0.0317283814
C  C38  1  0.86380000  0.81560000  0.94150000  1.0 0.3376997052
C  C39  1  0.63790000  0.57490000  0.01990000  1.0 -0.14956793
C  C40  1  0.87070000  0.93170000  0.97040000  1.0 -0.1712086021
C  C41  1  0.84910000  0.27810000  0.83510000  1.0 -0.1894664783
C  C42  1  0.74820000  0.18340000  0.83520000  1.0 0.0495996792
C  C43  1  0.64200000  0.29640000  0.70820000  1.0 0.0495996792
C  C44  1  0.86100000  0.71200000  0.91390000  1.0 0.3601221014
C  C45  1  0.56540000  0.49340000  0.04690000  1.0 0.0317283814
C  C46  1  0.90570000  0.02670000  0.97360000  1.0 0.0399092566
C  C47  1  0.73720000  0.39460000  0.70600000  1.0 -0.1807435285
C  C48  1  0.66770000  0.16790000  0.80310000  1.0 0.3376997052
C  C49  1  0.92140000  0.28940000  0.86590000  1.0 0.0702236193
C  C50  1  0.50390000  0.06970000  0.78000000  1.0 0.3332869578
C  C51  1  0.98010000  0.00050000  0.91790000  1.0 -0.1712086021
C  C52  1  0.75530000  0.46530000  0.67260000  1.0 4.89186e-05
C  C53  1  0.80460000  0.12420000  0.89460000  1.0 0.0702236193
C  C54  1  0.61950000  0.22030000  0.74390000  1.0 0.3376997052
C  C55  1  0.39650000  0.97430000  0.78540000  1.0 0.0619143775
C  C56  1  0.31840000  0.95620000  0.75670000  1.0 -0.1568856743
C  C57  1  0.90220000  0.69580000  0.88560000  1.0 0.0619143775
C  C58  1  0.72880000  0.10640000  0.86540000  1.0 -0.1894664783
C  C59  1  0.37210000  0.89930000  0.81880000  1.0 -0.1712086021
C  C60  1  0.56880000  0.27340000  0.67460000  1.0 -0.1568856743
C  C61  1  0.21980000  0.86440000  0.76210000  1.0 0.0317283814
C  C62  1  0.27210000  0.80950000  0.82150000  1.0 0.0619143775
C  C63  1  0.59230000  0.34730000  0.64170000  1.0 0.0619143775
C  C64  1  0.93650000  0.75490000  0.84750000  1.0 -0.14956793
C  C65  1  0.97830000  0.73990000  0.82320000  1.0 0.0245567578
C  C66  1  0.95660000  0.61720000  0.87320000  1.0 0.0619143775
C  C67  1  0.91430000  0.62810000  0.89930000  1.0 -0.14956793
C  C68  1  0.01280000  0.09320000  0.92080000  1.0 0.0702236193
C  C69  1  0.67640000  0.56140000  0.99400000  1.0 0.0495996792
C  C70  1  0.63910000  0.46690000  0.99310000  1.0 -0.14956793
C  C71  1  0.75920000  0.64840000  0.96570000  1.0 0.3703271616
C  C72  1  0.56410000  0.38850000  0.02280000  1.0 0.0619143775
C  C73  1  0.09520000  0.08400000  0.05670000  1.0 0.0317283814
C  C74  1  0.13620000  0.18440000  0.05850000  1.0 0.3376997052
C  C75  1  0.36210000  0.42510000  0.98010000  1.0 -0.14956793
C  C76  1  0.12930000  0.06830000  0.02960000  1.0 -0.1712086021
C  C77  1  0.15090000  0.72190000  0.16490000  1.0 -0.1894664783
C  C78  1  0.25180000  0.81660000  0.16480000  1.0 0.0495996792
C  C79  1  0.35800000  0.70360000  0.29180000  1.0 0.0495996792
C  C80  1  0.13900000  0.28800000  0.08610000  1.0 0.3601221014
C  C81  1  0.43460000  0.50660000  0.95310000  1.0 0.0317283814
C  C82  1  0.09430000  0.97330000  0.02640000  1.0 0.0399092566
C  C83  1  0.26280000  0.60540000  0.29400000  1.0 -0.1807435285
C  C84  1  0.33230000  0.83210000  0.19690000  1.0 0.3376997052
C  C85  1  0.07860000  0.71060000  0.13410000  1.0 0.0702236193
C  C86  1  0.49610000  0.93030000  0.22000000  1.0 0.3332869578
C  C87  1  0.01990000  0.99950000  0.08210000  1.0 -0.1712086021
C  C88  1  0.24470000  0.53470000  0.32740000  1.0 4.89186e-05
C  C89  1  0.19540000  0.87580000  0.10540000  1.0 0.0619143775
C  C90  1  0.38050000  0.77970000  0.25610000  1.0 0.3376997052
C  C91  1  0.60350000  0.02570000  0.21460000  1.0 0.0619143775
C  C92  1  0.68160000  0.04380000  0.24330000  1.0 -0.1568856743
C  C93  1  0.09780000  0.30420000  0.11440000  1.0 0.0619143775
C  C94  1  0.27120000  0.89360000  0.13460000  1.0 -0.1894664783
C  C95  1  0.62790000  0.10070000  0.18120000  1.0 -0.1712086021
C  C96  1  0.43120000  0.72660000  0.32540000  1.0 -0.1568856743
C  C97  1  0.78020000  0.13560000  0.23790000  1.0 0.0317283814
C  C98  1  0.72790000  0.19050000  0.17850000  1.0 0.0619143775
C  C99  1  0.40770000  0.65270000  0.35830000  1.0 0.0619143775
C  C100  1  0.06350000  0.24510000  0.15250000  1.0 -0.14956793
C  C101  1  0.02170000  0.26010000  0.17680000  1.0 0.0245567578
C  C102  1  0.04340000  0.38280000  0.12680000  1.0 0.0619143775
C  C103  1  0.08570000  0.37190000  0.10070000  1.0 -0.14956793
C  C104  1  0.98720000  0.90680000  0.07920000  1.0 0.0702236193
C  C105  1  0.32360000  0.43860000  0.00600000  1.0 0.0495996792
C  C106  1  0.36090000  0.53310000  0.00690000  1.0 -0.14956793
C  C107  1  0.24080000  0.35160000  0.03430000  1.0 0.3703271616
C  C108  1  0.43590000  0.61150000  0.97720000  1.0 0.0619143775
C  C109  1  0.91600000  0.90480000  0.55670000  1.0 0.0317283814
C  C110  1  0.81560000  0.86380000  0.55850000  1.0 0.3376997052
C  C111  1  0.57490000  0.63790000  0.48010000  1.0 -0.14956793
C  C112  1  0.93170000  0.87070000  0.52960000  1.0 -0.1712086021
C  C113  1  0.27810000  0.84910000  0.66490000  1.0 -0.1894664783
C  C114  1  0.18340000  0.74820000  0.66480000  1.0 0.0495996792
C  C115  1  0.29640000  0.64200000  0.79180000  1.0 0.0495996792
C  C116  1  0.71200000  0.86100000  0.58610000  1.0 0.3601221014
C  C117  1  0.49340000  0.56540000  0.45310000  1.0 0.0317283814
C  C118  1  0.02670000  0.90570000  0.52640000  1.0 0.0399092566
C  C119  1  0.39460000  0.73720000  0.79400000  1.0 -0.1807435285
C  C120  1  0.16790000  0.66770000  0.69690000  1.0 0.3376997052
C  C121  1  0.28940000  0.92140000  0.63410000  1.0 0.0702236193
C  C122  1  0.06970000  0.50390000  0.72000000  1.0 0.3332869578
C  C123  1  0.00050000  0.98010000  0.58210000  1.0 -0.1712086021
C  C124  1  0.46530000  0.75530000  0.82740000  1.0 4.89186e-05
C  C125  1  0.12420000  0.80460000  0.60540000  1.0 0.0619143775
C  C126  1  0.22030000  0.61950000  0.75610000  1.0 0.3376997052
C  C127  1  0.97430000  0.39650000  0.71460000  1.0 0.0619143775
C  C128  1  0.95620000  0.31840000  0.74330000  1.0 -0.1568856743
C  C129  1  0.69580000  0.90220000  0.61440000  1.0 0.0619143775
C  C130  1  0.10640000  0.72880000  0.63460000  1.0 -0.1894664783
C  C131  1  0.89930000  0.37210000  0.68120000  1.0 -0.1712086021
C  C132  1  0.27340000  0.56880000  0.82540000  1.0 -0.1568856743
C  C133  1  0.86440000  0.21980000  0.73790000  1.0 0.0317283814
C  C134  1  0.80950000  0.27210000  0.67850000  1.0 0.0619143775
C  C135  1  0.34730000  0.59230000  0.85830000  1.0 0.0619143775
C  C136  1  0.75490000  0.93650000  0.65250000  1.0 -0.14956793
C  C137  1  0.73990000  0.97830000  0.67680000  1.0 0.0245567578
C  C138  1  0.61720000  0.95660000  0.62680000  1.0 0.0619143775
C  C139  1  0.62810000  0.91430000  0.60070000  1.0 -0.14956793
C  C140  1  0.09320000  0.01280000  0.57920000  1.0 0.0702236193
C  C141  1  0.56140000  0.67640000  0.50600000  1.0 0.0495996792
C  C142  1  0.46690000  0.63910000  0.50690000  1.0 -0.14956793
C  C143  1  0.64840000  0.75920000  0.53430000  1.0 0.3703271616
C  C144  1  0.38850000  0.56410000  0.47720000  1.0 0.0619143775
N  N1  1  0.89250000  0.02310000  0.44700000  1.0 -0.2297232691
N  N2  1  0.19560000  0.10200000  0.41310000  1.0 -0.4113744777
N  N3  1  0.91810000  0.42690000  0.31010000  1.0 -0.4377184939
N  N4  1  0.59740000  0.46980000  0.54810000  1.0 -0.1981865
N  N5  1  0.37000000  0.21000000  0.43870000  1.0 -0.4264595341
N  N6  1  0.78570000  0.10050000  0.39530000  1.0 -0.2129775267
N  N7  1  0.76130000  0.30510000  0.27080000  1.0 -0.4165497441
N  N8  1  0.86290000  0.47930000  0.24750000  1.0 -0.4165497441
N  N9  1  0.25950000  0.20410000  0.46920000  1.0 -0.4517253172
N  N10  1  0.55770000  0.31810000  0.14080000  1.0 -0.2129775267
N  N11  1  0.32760000  0.01160000  0.33560000  1.0 -0.2297232691
N  N12  1  0.20880000  0.80120000  0.29260000  1.0 -0.2167922612
N  N13  1  0.97690000  0.10750000  0.94700000  1.0 -0.2297232691
N  N14  1  0.89800000  0.80440000  0.91310000  1.0 -0.4113744777
N  N15  1  0.57310000  0.08190000  0.81010000  1.0 -0.4377184939
N  N16  1  0.53020000  0.40260000  0.04810000  1.0 -0.1981865
N  N17  1  0.79000000  0.63000000  0.93870000  1.0 -0.4264595341
N  N18  1  0.89950000  0.21430000  0.89530000  1.0 -0.2129775267
N  N19  1  0.69490000  0.23870000  0.77080000  1.0 -0.4165497441
N  N20  1  0.52070000  0.13710000  0.74750000  1.0 -0.4165497441
N  N21  1  0.79590000  0.74050000  0.96920000  1.0 -0.4517253172
N  N22  1  0.68190000  0.44230000  0.64080000  1.0 -0.2129775267
N  N23  1  0.98840000  0.67240000  0.83560000  1.0 -0.2297232691
N  N24  1  0.19880000  0.79120000  0.79260000  1.0 -0.2167922612
N  N25  1  0.02310000  0.89250000  0.05300000  1.0 -0.2297232691
N  N26  1  0.10200000  0.19560000  0.08690000  1.0 -0.4113744777
N  N27  1  0.42690000  0.91810000  0.18990000  1.0 -0.4377184939
N  N28  1  0.46980000  0.59740000  0.95190000  1.0 -0.1981865
N  N29  1  0.21000000  0.37000000  0.06130000  1.0 -0.4264595341
N  N30  1  0.10050000  0.78570000  0.10470000  1.0 -0.2129775267
N  N31  1  0.30510000  0.76130000  0.22920000  1.0 -0.4165497441
N  N32  1  0.47930000  0.86290000  0.25250000  1.0 -0.4165497441
N  N33  1  0.20410000  0.25950000  0.03080000  1.0 -0.4517253172
N  N34  1  0.31810000  0.55770000  0.35920000  1.0 -0.2129775267
N  N35  1  0.01160000  0.32760000  0.16440000  1.0 -0.2297232691
N  N36  1  0.80120000  0.20880000  0.20740000  1.0 -0.2167922612
N  N37  1  0.10750000  0.97690000  0.55300000  1.0 -0.2297232691
N  N38  1  0.80440000  0.89800000  0.58690000  1.0 -0.4113744777
N  N39  1  0.08190000  0.57310000  0.68990000  1.0 -0.4377184939
N  N40  1  0.40260000  0.53020000  0.45190000  1.0 -0.1981865
N  N41  1  0.63000000  0.79000000  0.56130000  1.0 -0.4264595341
N  N42  1  0.21430000  0.89950000  0.60470000  1.0 -0.2129775267
N  N43  1  0.23870000  0.69490000  0.72920000  1.0 -0.4165497441
N  N44  1  0.13710000  0.52070000  0.75250000  1.0 -0.4165497441
N  N45  1  0.74050000  0.79590000  0.53080000  1.0 -0.4517253172
N  N46  1  0.44230000  0.68190000  0.85920000  1.0 -0.2129775267
N  N47  1  0.67240000  0.98840000  0.66440000  1.0 -0.2297232691
N  N48  1  0.79120000  0.19880000  0.70740000  1.0 -0.2167922612
Cl  Cl1  1  0.63779000  0.84669000  0.41230000  1.0 -0.5357078444
Cl  Cl2  1  0.76139000  0.02829000  0.50387000  1.0 -0.5272320043
Cl  Cl3  1  0.45677000  0.94131000  0.33389000  1.0 -0.0926485006
Cl  Cl4  1  0.36251000  0.02281000  0.23169000  1.0 0.0317283814
Cl  Cl5  1  0.37030000  0.13190000  0.06560000  1.0 0.0317283814
Cl  Cl6  1  0.37140000  0.30500000  0.11480000  1.0 0.0317283814
Cl  Cl7  1  0.47030000  0.98250000  0.28910000  1.0 -0.0725565833
Cl  Cl8  1  0.31220000  0.02380000  0.20770000  1.0 -0.016358457
Cl  Cl9  1  0.34220000  0.14980000  0.08490000  1.0 -0.0059558202
Cl  Cl10  1  0.37540000  0.35240000  0.12640000  1.0 0.0399092566
Cl  Cl11  1  0.15331000  0.36221000  0.91230000  1.0 -0.5357078444
Cl  Cl12  1  0.97171000  0.23861000  0.00387000  1.0 -0.5272320043
Cl  Cl13  1  0.05869000  0.54323000  0.83389000  1.0 -0.0926485006
Cl  Cl14  1  0.97719000  0.63749000  0.73169000  1.0 0.0317283814
Cl  Cl15  1  0.86810000  0.62970000  0.56560000  1.0 0.0317283814
Cl  Cl16  1  0.69500000  0.62860000  0.61480000  1.0 0.0317283814
Cl  Cl17  1  0.01750000  0.52970000  0.78910000  1.0 -0.0725565833
Cl  Cl18  1  0.97620000  0.68780000  0.70770000  1.0 -0.016358457
Cl  Cl19  1  0.85020000  0.65780000  0.58490000  1.0 -0.0059558202
Cl  Cl20  1  0.64760000  0.62460000  0.62640000  1.0 0.0399092566
Cl  Cl21  1  0.84669000  0.63779000  0.08770000  1.0 -0.5357078444
Cl  Cl22  1  0.02829000  0.76139000  0.99613000  1.0 -0.5272320043
Cl  Cl23  1  0.94131000  0.45677000  0.16611000  1.0 -0.0926485006
Cl  Cl24  1  0.02281000  0.36251000  0.26831000  1.0 0.0317283814
Cl  Cl25  1  0.13190000  0.37030000  0.43440000  1.0 0.0317283814
Cl  Cl26  1  0.30500000  0.37140000  0.38520000  1.0 0.0317283814
Cl  Cl27  1  0.98250000  0.47030000  0.21090000  1.0 -0.0725565833
Cl  Cl28  1  0.02380000  0.31220000  0.29230000  1.0 -0.016358457
Cl  Cl29  1  0.14980000  0.34220000  0.41510000  1.0 -0.0059558202
Cl  Cl30  1  0.35240000  0.37540000  0.37360000  1.0 0.0399092566
Cl  Cl31  1  0.36221000  0.15331000  0.58770000  1.0 -0.5357078444
Cl  Cl32  1  0.23861000  0.97171000  0.49613000  1.0 -0.5272320043
Cl  Cl33  1  0.54323000  0.05869000  0.66611000  1.0 -0.0926485006
Cl  Cl34  1  0.63749000  0.97719000  0.76831000  1.0 0.0317283814
Cl  Cl35  1  0.62970000  0.86810000  0.93440000  1.0 0.0317283814
Cl  Cl36  1  0.62860000  0.69500000  0.88520000  1.0 0.0317283814
Cl  Cl37  1  0.52970000  0.01750000  0.71090000  1.0 -0.0725565833
Cl  Cl38  1  0.68780000  0.97620000  0.79230000  1.0 -0.016358457
Cl  Cl39  1  0.65780000  0.85020000  0.91510000  1.0 -0.0059558202
Cl  Cl40  1  0.62460000  0.64760000  0.87360000  1.0 0.0399092566
