# DDEC6 charges by PACMAN v1.1 (https://github.com/mtap-research/PACMAN-charge/)
data_EZEWAK_ASR_pacman
_symmetry_space_group_name_H-M   'P 1'
_cell_length_a   18.76400000
_cell_length_b   18.76400000
_cell_length_c   29.50170000
_cell_angle_alpha   80.64760000
_cell_angle_beta   99.35240000
_cell_angle_gamma   132.92200000
_symmetry_Int_Tables_number   1
_chemical_formula_structural   Zn5H24C36(IN)12
_chemical_formula_sum   'Zn20 H96 C144 I48 N48'
_cell_volume   7485.89530678
_cell_formula_units_Z   4
loop_
 _symmetry_equiv_pos_site_id
 _symmetry_equiv_pos_as_xyz
  1  'x, y, z'
loop_
 _atom_site_type_symbol
 _atom_site_label
 _atom_site_symmetry_multiplicity
 _atom_site_fract_x
 _atom_site_fract_y
 _atom_site_fract_z
 _atom_site_occupancy
 _atom_site_charge
Zn  Zn1  1  0.94999000  0.78189000  0.83952000  1.0 0.2856713181
Zn  Zn2  1  0.27830000  0.56170000  0.22130000  1.0 0.0100713895
Zn  Zn3  1  0.54780000  0.18700000  0.52160000  1.0 0.3003288602
Zn  Zn4  1  0.46370000  0.73390000  0.71430000  1.0 0.0886930136
Zn  Zn5  1  0.83000000  0.45660000  0.03060000  1.0 0.0775215405
Zn  Zn6  1  0.20142000  0.04988000  0.34646000  1.0 0.3469483351
Zn  Zn7  1  0.53969000  0.19791000  0.51930000  1.0 0.3288145607
Zn  Zn8  1  0.80383000  0.46057000  0.01892000  1.0 0.1289838256
Zn  Zn9  1  0.47210000  0.72510000  0.69740000  1.0 0.1951433217
Zn  Zn10  1  0.27269000  0.52631000  0.19720000  1.0 0.2204921042
Zn  Zn11  1  0.78189000  0.94999000  0.16048000  1.0 0.2856713181
Zn  Zn12  1  0.56170000  0.27830000  0.77870000  1.0 0.0201855466
Zn  Zn13  1  0.18700000  0.54780000  0.47840000  1.0 0.3003288602
Zn  Zn14  1  0.73390000  0.46370000  0.28570000  1.0 0.0886930136
Zn  Zn15  1  0.45660000  0.83000000  0.96940000  1.0 0.0775215405
Zn  Zn16  1  0.04988000  0.20142000  0.65354000  1.0 0.3469483351
Zn  Zn17  1  0.19791000  0.53969000  0.48070000  1.0 0.3288145607
Zn  Zn18  1  0.46057000  0.80383000  0.98108000  1.0 0.1289838256
Zn  Zn19  1  0.72510000  0.47210000  0.30260000  1.0 0.1951433217
Zn  Zn20  1  0.52631000  0.27269000  0.80280000  1.0 0.2204921042
H  H1  1  0.30948000  0.01230000  0.41731000  1.0 0.0593355722
H  H2  1  0.27621000  0.90489000  0.48079000  1.0 0.1109160056
H  H3  1  0.99327000  0.96807000  0.32397000  1.0 0.0775215405
H  H4  1  0.85351000  0.84843000  0.27965000  1.0 0.1182025885
H  H5  1  0.04109000  0.84065000  0.75257000  1.0 0.0593355722
H  H6  1  0.36207000  0.09793000  0.65699000  1.0 0.1289838256
H  H7  1  0.15100000  0.13480000  0.78278000  1.0 0.1289838256
H  H8  1  0.38807000  0.56565000  0.13661000  1.0 0.0687804257
H  H9  1  0.25947000  0.58783000  0.68612000  1.0 0.0775215405
H  H10  1  0.67319000  0.40381000  0.48950000  1.0 0.0687804257
H  H11  1  0.01654000  0.83342000  0.21671000  1.0 0.1289838256
H  H12  1  0.73161000  0.26229000  0.57256000  1.0 0.0775215405
H  H13  1  0.57990000  0.11288000  0.08983000  1.0 0.1289838256
H  H14  1  0.58721000  0.62337000  0.26765000  1.0 0.1289838256
H  H15  1  0.45921000  0.16533000  0.98286000  1.0 0.1182025885
H  H16  1  0.16482000  0.98106000  0.70991000  1.0 0.1289838256
H  H17  1  0.44196000  0.58718000  0.27308000  1.0 0.0775215405
H  H18  1  0.03417000  0.99207000  0.82584000  1.0 0.0775215405
H  H19  1  0.39560000  0.54630000  0.76860000  1.0 0.0886930136
H  H20  1  0.35415000  0.40199000  0.76724000  1.0 0.1289838256
H  H21  1  0.99088000  0.72604000  0.43607000  1.0 0.1109160056
H  H22  1  0.53557000  0.61307000  0.12958000  1.0 0.1109160056
H  H23  1  0.60593000  0.32617000  0.97651000  1.0 0.0687804257
H  H24  1  0.12981000  0.55761000  0.63826000  1.0 0.1182025885
H  H25  1  0.16354000  0.94682000  0.86140000  1.0 0.0687804257
H  H26  1  0.44472000  0.87554000  0.13235000  1.0 0.1182025885
H  H27  1  0.14702000  0.93880000  0.26637000  1.0 0.0775215405
H  H28  1  0.46087000  0.35339000  0.58923000  1.0 0.1289838256
H  H29  1  0.83243000  0.54587000  0.49493000  1.0 0.1289838256
H  H30  1  0.33508000  0.81748000  0.57085000  1.0 0.0989660864
H  H31  1  0.19032000  0.66338000  0.06389000  1.0 0.0989660864
H  H32  1  0.89414000  0.39990000  0.57756000  1.0 0.1352485662
H  H33  1  0.72782000  0.27378000  0.08040000  1.0 0.0687804257
H  H34  1  0.45175000  0.82901000  0.61519000  1.0 0.0687804257
H  H35  1  0.52058000  0.32778000  0.53598000  1.0 0.0687804257
H  H36  1  0.40434000  0.46554000  0.63114000  1.0 0.1182025885
H  H37  1  0.65444000  0.46022000  0.04523000  1.0 0.0886930136
H  H38  1  0.16927000  0.54919000  0.12111000  1.0 0.0593355722
H  H39  1  0.27761000  0.99597000  0.92295000  1.0 0.1109160056
H  H40  1  0.03188000  0.84230000  0.37745000  1.0 0.0775215405
H  H41  1  0.41751000  0.75475000  0.18842000  1.0 0.0687804257
H  H42  1  0.44538000  0.61418000  0.64180000  1.0 0.0687804257
H  H43  1  0.98918000  0.68056000  0.91553000  1.0 0.0593355722
H  H44  1  0.92133000  0.59007000  0.09583000  1.0 0.0593355722
H  H45  1  0.91446000  0.66336000  0.14853000  1.0 0.1289838256
H  H46  1  0.43199000  0.08455000  0.60480000  1.0 0.0687804257
H  H47  1  0.10515000  0.71823000  0.97505000  1.0 0.1109160056
H  H48  1  0.64506000  0.53776000  0.09154000  1.0 0.1289838256
H  H49  1  0.01230000  0.30948000  0.58269000  1.0 0.0593355722
H  H50  1  0.90489000  0.27621000  0.51921000  1.0 0.1109160056
H  H51  1  0.96807000  0.99327000  0.67603000  1.0 0.0775215405
H  H52  1  0.84843000  0.85351000  0.72035000  1.0 0.1182025885
H  H53  1  0.84065000  0.04109000  0.24743000  1.0 0.0593355722
H  H54  1  0.09793000  0.36207000  0.34301000  1.0 0.1289838256
H  H55  1  0.13480000  0.15100000  0.21722000  1.0 0.1289838256
H  H56  1  0.56565000  0.38807000  0.86339000  1.0 0.0687804257
H  H57  1  0.58783000  0.25947000  0.31388000  1.0 0.0775215405
H  H58  1  0.40381000  0.67319000  0.51050000  1.0 0.0687804257
H  H59  1  0.83342000  0.01654000  0.78329000  1.0 0.1289838256
H  H60  1  0.26229000  0.73161000  0.42744000  1.0 0.0775215405
H  H61  1  0.11288000  0.57990000  0.91017000  1.0 0.1289838256
H  H62  1  0.62337000  0.58721000  0.73235000  1.0 0.1289838256
H  H63  1  0.16533000  0.45921000  0.01714000  1.0 0.1182025885
H  H64  1  0.98106000  0.16482000  0.29009000  1.0 0.1289838256
H  H65  1  0.58718000  0.44196000  0.72692000  1.0 0.0775215405
H  H66  1  0.99207000  0.03417000  0.17416000  1.0 0.0775215405
H  H67  1  0.54630000  0.39560000  0.23140000  1.0 0.0886930136
H  H68  1  0.40199000  0.35415000  0.23276000  1.0 0.1289838256
H  H69  1  0.72604000  0.99088000  0.56393000  1.0 0.1109160056
H  H70  1  0.61307000  0.53557000  0.87042000  1.0 0.1109160056
H  H71  1  0.32617000  0.60593000  0.02349000  1.0 0.0687804257
H  H72  1  0.55761000  0.12981000  0.36174000  1.0 0.1182025885
H  H73  1  0.94682000  0.16354000  0.13860000  1.0 0.0687804257
H  H74  1  0.87554000  0.44472000  0.86765000  1.0 0.1182025885
H  H75  1  0.93880000  0.14702000  0.73363000  1.0 0.0775215405
H  H76  1  0.35339000  0.46087000  0.41077000  1.0 0.1289838256
H  H77  1  0.54587000  0.83243000  0.50507000  1.0 0.1289838256
H  H78  1  0.81748000  0.33508000  0.42915000  1.0 0.0989660864
H  H79  1  0.66338000  0.19032000  0.93611000  1.0 0.0989660864
H  H80  1  0.39990000  0.89414000  0.42244000  1.0 0.1352485662
H  H81  1  0.27378000  0.72782000  0.91960000  1.0 0.0687804257
H  H82  1  0.82901000  0.45175000  0.38481000  1.0 0.0687804257
H  H83  1  0.32778000  0.52058000  0.46402000  1.0 0.0687804257
H  H84  1  0.46554000  0.40434000  0.36886000  1.0 0.1182025885
H  H85  1  0.46022000  0.65444000  0.95477000  1.0 0.0886930136
H  H86  1  0.54919000  0.16927000  0.87889000  1.0 0.0593355722
H  H87  1  0.99597000  0.27761000  0.07705000  1.0 0.1109160056
H  H88  1  0.84230000  0.03188000  0.62255000  1.0 0.0775215405
H  H89  1  0.75475000  0.41751000  0.81158000  1.0 0.0687804257
H  H90  1  0.61418000  0.44538000  0.35820000  1.0 0.0687804257
H  H91  1  0.68056000  0.98918000  0.08447000  1.0 0.0593355722
H  H92  1  0.59007000  0.92133000  0.90417000  1.0 0.0593355722
H  H93  1  0.66336000  0.91446000  0.85147000  1.0 0.1289838256
H  H94  1  0.08455000  0.43199000  0.39520000  1.0 0.0687804257
H  H95  1  0.71823000  0.10515000  0.02495000  1.0 0.1109160056
H  H96  1  0.53776000  0.64506000  0.90846000  1.0 0.1289838256
C  C1  1  0.12860000  0.80200000  0.46550000  1.0 0.0593355722
C  C2  1  0.14470000  0.67290000  0.56410000  1.0 0.3427743931
C  C3  1  0.24370000  0.95470000  0.42230000  1.0 0.0481624251
C  C4  1  0.22450000  0.88990000  0.45950000  1.0 -0.1820415551
C  C5  1  0.83270000  0.74650000  0.21710000  1.0 0.3469483351
C  C6  1  0.10190000  0.72770000  0.50400000  1.0 0.3427743931
C  C7  1  0.92070000  0.82570000  0.24540000  1.0 0.0295483065
C  C8  1  0.41880000  0.01420000  0.03290000  1.0 0.3288145607
C  C9  1  0.99750000  0.93790000  0.30300000  1.0 0.0481624251
C  C10  1  0.34650000  0.32350000  0.69550000  1.0 0.3288145607
C  C11  1  0.21930000  0.68370000  0.59690000  1.0 0.040277739
C  C12  1  0.91410000  0.86730000  0.27630000  1.0 -0.1708083565
C  C13  1  0.87980000  0.48780000  0.53830000  1.0 0.0593355722
C  C14  1  0.06690000  0.90230000  0.76000000  1.0 0.0775215405
C  C15  1  0.39500000  0.14680000  0.63250000  1.0 -0.1425437982
C  C16  1  0.17420000  0.07540000  0.74310000  1.0 0.0481624251
C  C17  1  0.13200000  0.07540000  0.77680000  1.0 -0.1708083565
C  C18  1  0.76460000  0.64580000  0.16070000  1.0 0.3427743931
C  C19  1  0.42990000  0.57910000  0.16350000  1.0 0.0481624251
C  C20  1  0.27430000  0.63450000  0.66140000  1.0 0.0593355722
C  C21  1  0.71910000  0.40310000  0.50810000  1.0 -0.0020293747
C  C22  1  0.00940000  0.85700000  0.24010000  1.0 -0.1605469416
C  C23  1  0.35800000  0.23580000  0.66110000  1.0 0.314554142
C  C24  1  0.37290000  0.41750000  0.69980000  1.0 0.0593355722
C  C25  1  0.25310000  0.16530000  0.71590000  1.0 0.314554142
C  C26  1  0.75230000  0.32070000  0.55570000  1.0 0.0593355722
C  C27  1  0.58530000  0.15390000  0.06420000  1.0 -0.1605469416
C  C28  1  0.54720000  0.61280000  0.24040000  1.0 -0.1605469416
C  C29  1  0.27690000  0.89470000  0.99530000  1.0 0.3556252216
C  C30  1  0.51500000  0.18500000  0.00210000  1.0 -0.1605469416
C  C31  1  0.50840000  0.11680000  0.03310000  1.0 0.040277739
C  C32  1  0.98580000  0.58120000  0.53850000  1.0 0.3427743931
C  C33  1  0.13950000  0.98550000  0.73370000  1.0 -0.1820415551
C  C34  1  0.46040000  0.59000000  0.24420000  1.0 0.0037061592
C  C35  1  0.06200000  0.99040000  0.80230000  1.0 0.0295483065
C  C36  1  0.39870000  0.53030000  0.74050000  1.0 0.0100713895
C  C37  1  0.37270000  0.44410000  0.74000000  1.0 -0.1708083565
C  C38  1  0.05700000  0.78520000  0.43380000  1.0 -0.1605469416
C  C39  1  0.51610000  0.60510000  0.15910000  1.0 -0.1904238741
C  C40  1  0.77450000  0.60410000  0.12610000  1.0 0.0481624251
C  C41  1  0.57710000  0.62050000  0.19980000  1.0 0.0481624251
C  C42  1  0.60230000  0.28150000  0.99890000  1.0 0.0481624251
C  C43  1  0.19560000  0.61480000  0.63300000  1.0 -0.1708083565
C  C44  1  0.67020000  0.65120000  0.19490000  1.0 0.3188771104
C  C45  1  0.40060000  0.22600000  0.62830000  1.0 0.0593355722
C  C46  1  0.14890000  0.90030000  0.88620000  1.0 0.0687804257
C  C47  1  0.38650000  0.80890000  0.13020000  1.0 -0.1605469416
C  C48  1  0.08700000  0.92200000  0.26850000  1.0 0.040277739
C  C49  1  0.45160000  0.29640000  0.59260000  1.0 -0.1605469416
C  C50  1  0.81300000  0.48760000  0.51120000  1.0 -0.1425437982
C  C51  1  0.31680000  0.76620000  0.59340000  1.0 -0.1605469416
C  C52  1  0.23620000  0.68360000  0.08970000  1.0 -0.1708083565
C  C53  1  0.33350000  0.85970000  0.06110000  1.0 0.3710557317
C  C54  1  0.84890000  0.40270000  0.55980000  1.0 -0.1708083565
C  C55  1  0.67290000  0.25130000  0.05960000  1.0 0.040277739
C  C56  1  0.38530000  0.77490000  0.62090000  1.0 -0.0020293747
C  C57  1  0.48960000  0.28200000  0.56170000  1.0 0.0775215405
C  C58  1  0.31690000  0.78230000  0.09590000  1.0 0.0481624251
C  C59  1  0.40180000  0.47980000  0.66000000  1.0 -0.1820415551
C  C60  1  0.70860000  0.50340000  0.06600000  1.0 0.0481624251
C  C61  1  0.22620000  0.61640000  0.12300000  1.0 0.0593355722
C  C62  1  0.21840000  0.92960000  0.92220000  1.0 -0.1708083565
C  C63  1  0.20190000  0.86290000  0.95690000  1.0 0.0593355722
C  C64  1  0.08210000  0.85470000  0.39900000  1.0 0.0593355722
C  C65  1  0.37200000  0.73700000  0.16270000  1.0 0.0100713895
C  C66  1  0.42740000  0.56980000  0.66810000  1.0 0.0775215405
C  C67  1  0.04940000  0.74620000  0.91710000  1.0 0.0295483065
C  C68  1  0.86340000  0.57800000  0.09620000  1.0 0.0295483065
C  C69  1  0.86060000  0.62220000  0.12720000  1.0 -0.1708083565
C  C70  1  0.43640000  0.13860000  0.60180000  1.0 0.0201855466
C  C71  1  0.11730000  0.76810000  0.95330000  1.0 -0.1605469416
C  C72  1  0.70200000  0.54700000  0.09410000  1.0 -0.1708083565
C  C73  1  0.80200000  0.12860000  0.53450000  1.0 0.0687804257
C  C74  1  0.67290000  0.14470000  0.43590000  1.0 0.3427743931
C  C75  1  0.95470000  0.24370000  0.57770000  1.0 0.0593355722
C  C76  1  0.88990000  0.22450000  0.54050000  1.0 -0.1820415551
C  C77  1  0.74650000  0.83270000  0.78290000  1.0 0.3469483351
C  C78  1  0.72770000  0.10190000  0.49600000  1.0 0.3427743931
C  C79  1  0.82570000  0.92070000  0.75460000  1.0 0.0295483065
C  C80  1  0.01420000  0.41880000  0.96710000  1.0 0.3288145607
C  C81  1  0.93790000  0.99750000  0.69700000  1.0 0.0481624251
C  C82  1  0.32350000  0.34650000  0.30450000  1.0 0.3288145607
C  C83  1  0.68370000  0.21930000  0.40310000  1.0 0.040277739
C  C84  1  0.86730000  0.91410000  0.72370000  1.0 -0.1708083565
C  C85  1  0.48780000  0.87980000  0.46170000  1.0 0.0593355722
C  C86  1  0.90230000  0.06690000  0.24000000  1.0 0.0775215405
C  C87  1  0.14680000  0.39500000  0.36750000  1.0 -0.1425437982
C  C88  1  0.07540000  0.17420000  0.25690000  1.0 0.0481624251
C  C89  1  0.07540000  0.13200000  0.22320000  1.0 -0.1605469416
C  C90  1  0.64580000  0.76460000  0.83930000  1.0 0.3427743931
C  C91  1  0.57910000  0.42990000  0.83650000  1.0 0.0481624251
C  C92  1  0.63450000  0.27430000  0.33860000  1.0 0.0593355722
C  C93  1  0.40310000  0.71910000  0.49190000  1.0 -0.0020293747
C  C94  1  0.85700000  0.00940000  0.75990000  1.0 -0.1605469416
C  C95  1  0.23580000  0.35800000  0.33890000  1.0 0.314554142
C  C96  1  0.41750000  0.37290000  0.30020000  1.0 0.0593355722
C  C97  1  0.16530000  0.25310000  0.28410000  1.0 0.314554142
C  C98  1  0.32070000  0.75230000  0.44430000  1.0 0.0593355722
C  C99  1  0.15390000  0.58530000  0.93580000  1.0 -0.1605469416
C  C100  1  0.61280000  0.54720000  0.75960000  1.0 -0.1605469416
C  C101  1  0.89470000  0.27690000  0.00470000  1.0 0.3556252216
C  C102  1  0.18500000  0.51500000  0.99790000  1.0 -0.1708083565
C  C103  1  0.11680000  0.50840000  0.96690000  1.0 0.040277739
C  C104  1  0.58120000  0.98580000  0.46150000  1.0 0.3427743931
C  C105  1  0.98550000  0.13950000  0.26630000  1.0 -0.1820415551
C  C106  1  0.59000000  0.46040000  0.75580000  1.0 0.0037061592
C  C107  1  0.99040000  0.06200000  0.19770000  1.0 0.0295483065
C  C108  1  0.53030000  0.39870000  0.25950000  1.0 0.0100713895
C  C109  1  0.44410000  0.37270000  0.26000000  1.0 -0.1708083565
C  C110  1  0.78520000  0.05700000  0.56620000  1.0 -0.1605469416
C  C111  1  0.60510000  0.51610000  0.84090000  1.0 -0.1904238741
C  C112  1  0.60410000  0.77450000  0.87390000  1.0 0.0481624251
C  C113  1  0.62050000  0.57710000  0.80020000  1.0 0.0481624251
C  C114  1  0.28150000  0.60230000  0.00110000  1.0 0.0481624251
C  C115  1  0.61480000  0.19560000  0.36700000  1.0 -0.1708083565
C  C116  1  0.65120000  0.67020000  0.80510000  1.0 0.3188771104
C  C117  1  0.22600000  0.40060000  0.37170000  1.0 0.0593355722
C  C118  1  0.90030000  0.14890000  0.11380000  1.0 0.0687804257
C  C119  1  0.80890000  0.38650000  0.86980000  1.0 -0.1605469416
C  C120  1  0.92200000  0.08700000  0.73150000  1.0 0.040277739
C  C121  1  0.29640000  0.45160000  0.40740000  1.0 -0.1605469416
C  C122  1  0.48760000  0.81300000  0.48880000  1.0 -0.1425437982
C  C123  1  0.76620000  0.31680000  0.40660000  1.0 -0.1605469416
C  C124  1  0.68360000  0.23620000  0.91030000  1.0 -0.1708083565
C  C125  1  0.85970000  0.33350000  0.93890000  1.0 0.3710557317
C  C126  1  0.40270000  0.84890000  0.44020000  1.0 -0.1708083565
C  C127  1  0.25130000  0.67290000  0.94040000  1.0 0.040277739
C  C128  1  0.77490000  0.38530000  0.37910000  1.0 -0.0020293747
C  C129  1  0.28200000  0.48960000  0.43830000  1.0 0.0775215405
C  C130  1  0.78230000  0.31690000  0.90410000  1.0 0.0481624251
C  C131  1  0.47980000  0.40180000  0.34000000  1.0 -0.1820415551
C  C132  1  0.50340000  0.70860000  0.93400000  1.0 0.0481624251
C  C133  1  0.61640000  0.22620000  0.87700000  1.0 0.0593355722
C  C134  1  0.92960000  0.21840000  0.07780000  1.0 -0.1708083565
C  C135  1  0.86290000  0.20190000  0.04310000  1.0 0.0593355722
C  C136  1  0.85470000  0.08210000  0.60100000  1.0 0.0593355722
C  C137  1  0.73700000  0.37200000  0.83730000  1.0 0.0100713895
C  C138  1  0.56980000  0.42740000  0.33190000  1.0 0.0775215405
C  C139  1  0.74620000  0.04940000  0.08290000  1.0 0.0295483065
C  C140  1  0.57800000  0.86340000  0.90380000  1.0 0.0295483065
C  C141  1  0.62220000  0.86060000  0.87280000  1.0 -0.1708083565
C  C142  1  0.13860000  0.43640000  0.39820000  1.0 0.0201855466
C  C143  1  0.76810000  0.11730000  0.04670000  1.0 -0.1605469416
C  C144  1  0.54700000  0.70200000  0.90590000  1.0 -0.1708083565
I  I1  1  0.33680000  0.12000000  0.30100000  1.0 -0.2339265252
I  I2  1  0.86766000  0.79386000  0.88531000  1.0 0.0201855466
I  I3  1  0.19850000  0.14350000  0.39330000  1.0 0.0201855466
I  I4  1  0.87437000  0.63265000  0.78924000  1.0 0.0687804257
I  I5  1  0.12620000  0.39280000  0.19890000  1.0 -0.0474674165
I  I6  1  0.31631000  0.64069000  0.29760000  1.0 -0.0261519191
I  I7  1  0.48020000  0.21420000  0.44930000  1.0 -0.0606226687
I  I8  1  0.53020000  0.04320000  0.55090000  1.0 0.0100713895
I  I9  1  0.62420000  0.86340000  0.67810000  1.0 -0.0232467019
I  I10  1  0.41640000  0.73660000  0.78890000  1.0 0.0100713895
I  I11  1  0.81990000  0.52230000  0.94610000  1.0 -0.0020293747
I  I12  1  0.96280000  0.46700000  0.06350000  1.0 0.0481624251
I  I13  1  0.50677000  0.04167000  0.54404000  1.0 -0.0390241089
I  I14  1  0.48636000  0.22946000  0.43848000  1.0 -0.0474674165
I  I15  1  0.77982000  0.51870000  0.93924000  1.0 0.0481624251
I  I16  1  0.95444000  0.48856000  0.04881000  1.0 -0.0102131118
I  I17  1  0.62926000  0.83754000  0.65492000  1.0 0.0295483065
I  I18  1  0.44226000  0.73754000  0.77481000  1.0 -0.0939659829
I  I19  1  0.15410000  0.36720000  0.15900000  1.0 -0.0606226687
I  I20  1  0.26535000  0.56265000  0.27450000  1.0 -0.1230742501
I  I21  1  0.35253000  0.12567000  0.30705000  1.0 -0.2661036457
I  I22  1  0.16237000  0.12263000  0.39258000  1.0 0.040277739
I  I23  1  0.86937000  0.81585000  0.89230000  1.0 0.0886930136
I  I24  1  0.86437000  0.64135000  0.79809000  1.0 0.0201855466
I  I25  1  0.12000000  0.33680000  0.69900000  1.0 -0.2339265252
I  I26  1  0.79386000  0.86766000  0.11469000  1.0 0.0201855466
I  I27  1  0.14350000  0.19850000  0.60670000  1.0 0.0201855466
I  I28  1  0.63265000  0.87437000  0.21076000  1.0 0.0687804257
I  I29  1  0.39280000  0.12620000  0.80110000  1.0 -0.0474674165
I  I30  1  0.64069000  0.31631000  0.70240000  1.0 -0.0261519191
I  I31  1  0.21420000  0.48020000  0.55070000  1.0 -0.0606226687
I  I32  1  0.04320000  0.53020000  0.44910000  1.0 0.0100713895
I  I33  1  0.86340000  0.62420000  0.32190000  1.0 -0.0232467019
I  I34  1  0.73660000  0.41640000  0.21110000  1.0 0.0100713895
I  I35  1  0.52230000  0.81990000  0.05390000  1.0 -0.0020293747
I  I36  1  0.46700000  0.96280000  0.93650000  1.0 0.0481624251
I  I37  1  0.04167000  0.50677000  0.45596000  1.0 -0.0390241089
I  I38  1  0.22946000  0.48636000  0.56152000  1.0 -0.0474674165
I  I39  1  0.51870000  0.77982000  0.06076000  1.0 0.0481624251
I  I40  1  0.48856000  0.95444000  0.95119000  1.0 -0.0102131118
I  I41  1  0.83754000  0.62926000  0.34508000  1.0 0.0295483065
I  I42  1  0.73754000  0.44226000  0.22519000  1.0 -0.0939659829
I  I43  1  0.36720000  0.15410000  0.84100000  1.0 -0.0606226687
I  I44  1  0.56265000  0.26535000  0.72550000  1.0 -0.1230742501
I  I45  1  0.12567000  0.35253000  0.69295000  1.0 -0.2661036457
I  I46  1  0.12263000  0.16237000  0.60742000  1.0 0.040277739
I  I47  1  0.81585000  0.86937000  0.10770000  1.0 0.0886930136
I  I48  1  0.64135000  0.86437000  0.20191000  1.0 0.0201855466
N  N1  1  0.68650000  0.31730000  0.53020000  1.0 -0.2091595715
N  N2  1  0.00830000  0.65050000  0.50510000  1.0 -0.4370310262
N  N3  1  0.74640000  0.71840000  0.22520000  1.0 -0.51062279
N  N4  1  0.38670000  0.32130000  0.66420000  1.0 -0.4217230136
N  N5  1  0.17280000  0.93860000  0.39350000  1.0 -0.1820415551
N  N6  1  0.41390000  0.95210000  0.06560000  1.0 -0.4309346134
N  N7  1  0.03300000  0.90460000  0.79400000  1.0 -0.2091595715
N  N8  1  0.84430000  0.71310000  0.18600000  1.0 -0.4217230136
N  N9  1  0.08280000  0.96440000  0.30010000  1.0 -0.2007516031
N  N10  1  0.26190000  0.82490000  0.02620000  1.0 -0.4370310262
N  N11  1  0.28980000  0.15260000  0.68610000  1.0 -0.449127456
N  N12  1  0.48390000  0.20910000  0.56690000  1.0 -0.2007516031
N  N13  1  0.42930000  0.59670000  0.70400000  1.0 -0.2091595715
N  N14  1  0.35370000  0.99110000  0.99960000  1.0 -0.4217230136
N  N15  1  0.36490000  0.71050000  0.65660000  1.0 -0.1904238741
N  N16  1  0.17460000  0.74160000  0.53120000  1.0 -0.4217230136
N  N17  1  0.04980000  0.58780000  0.56900000  1.0 -0.4370310262
N  N18  1  0.06440000  0.81240000  0.88450000  1.0 -0.1904238741
N  N19  1  0.28060000  0.24840000  0.72430000  1.0 -0.4309346134
N  N20  1  0.40170000  0.57150000  0.20350000  1.0 -0.2091595715
N  N21  1  0.67810000  0.61550000  0.16230000  1.0 -0.4309346134
N  N22  1  0.78840000  0.51840000  0.06610000  1.0 -0.1820415551
N  N23  1  0.68030000  0.31270000  0.02630000  1.0 -0.2007516031
N  N24  1  0.29160000  0.64180000  0.15660000  1.0 -0.1708083565
N  N25  1  0.31730000  0.68650000  0.46980000  1.0 -0.2091595715
N  N26  1  0.65050000  0.00830000  0.49490000  1.0 -0.4370310262
N  N27  1  0.71840000  0.74640000  0.77480000  1.0 -0.51062279
N  N28  1  0.32130000  0.38670000  0.33580000  1.0 -0.4217230136
N  N29  1  0.93860000  0.17280000  0.60650000  1.0 -0.1820415551
N  N30  1  0.95210000  0.41390000  0.93440000  1.0 -0.4309346134
N  N31  1  0.90460000  0.03300000  0.20600000  1.0 -0.2091595715
N  N32  1  0.71310000  0.84430000  0.81400000  1.0 -0.4217230136
N  N33  1  0.96440000  0.08280000  0.69990000  1.0 -0.2007516031
N  N34  1  0.82490000  0.26190000  0.97380000  1.0 -0.4370310262
N  N35  1  0.15260000  0.28980000  0.31390000  1.0 -0.449127456
N  N36  1  0.20910000  0.48390000  0.43310000  1.0 -0.2007516031
N  N37  1  0.59670000  0.42930000  0.29600000  1.0 -0.2091595715
N  N38  1  0.99110000  0.35370000  0.00040000  1.0 -0.4217230136
N  N39  1  0.71050000  0.36490000  0.34340000  1.0 -0.1904238741
N  N40  1  0.74160000  0.17460000  0.46880000  1.0 -0.4217230136
N  N41  1  0.58780000  0.04980000  0.43100000  1.0 -0.4370310262
N  N42  1  0.81240000  0.06440000  0.11550000  1.0 -0.1904238741
N  N43  1  0.24840000  0.28060000  0.27570000  1.0 -0.4309346134
N  N44  1  0.57150000  0.40170000  0.79650000  1.0 -0.2091595715
N  N45  1  0.61550000  0.67810000  0.83770000  1.0 -0.4309346134
N  N46  1  0.51840000  0.78840000  0.93390000  1.0 -0.1820415551
N  N47  1  0.31270000  0.68030000  0.97370000  1.0 -0.2007516031
N  N48  1  0.64180000  0.29160000  0.84340000  1.0 -0.1708083565
