# DDEC6 charges by PACMAN v1.1 (https://github.com/mtap-research/PACMAN-charge/)
data_EZEXIT_FSR_pacman
_symmetry_space_group_name_H-M   'P 1'
_cell_length_a   17.84220000
_cell_length_b   17.84220000
_cell_length_c   30.84620000
_cell_angle_alpha   80.95430000
_cell_angle_beta   99.04570000
_cell_angle_gamma   132.38800000
_symmetry_Int_Tables_number   1
_chemical_formula_structural   ZnH6C9N3Cl2
_chemical_formula_sum   'Zn16 H96 C144 N48 Cl32'
_cell_volume   7144.91061369
_cell_formula_units_Z   16
loop_
 _symmetry_equiv_pos_site_id
 _symmetry_equiv_pos_as_xyz
  1  'x, y, z'
loop_
 _atom_site_type_symbol
 _atom_site_label
 _atom_site_symmetry_multiplicity
 _atom_site_fract_x
 _atom_site_fract_y
 _atom_site_fract_z
 _atom_site_occupancy
 _atom_site_charge
Zn  Zn1  1  0.24994000  0.01166000  0.05631000  1.0 0.6185519488
Zn  Zn2  1  0.28876000  0.42876000  0.89392000  1.0 0.6143447997
Zn  Zn3  1  0.64828000  0.05112000  0.20611000  1.0 0.4970359595
Zn  Zn4  1  0.65650000  0.04950000  0.21030000  1.0 0.4970359595
Zn  Zn5  1  0.98834000  0.75006000  0.55631000  1.0 0.6185519488
Zn  Zn6  1  0.57124000  0.71124000  0.39392000  1.0 0.6143447997
Zn  Zn7  1  0.94888000  0.35172000  0.70611000  1.0 0.4970359595
Zn  Zn8  1  0.95050000  0.34350000  0.71030000  1.0 0.4970359595
Zn  Zn9  1  0.01166000  0.24994000  0.44369000  1.0 0.6185519488
Zn  Zn10  1  0.42876000  0.28876000  0.60608000  1.0 0.6143447997
Zn  Zn11  1  0.05112000  0.64828000  0.29389000  1.0 0.4970359595
Zn  Zn12  1  0.04950000  0.65650000  0.28970000  1.0 0.4970359595
Zn  Zn13  1  0.75006000  0.98834000  0.94369000  1.0 0.6185519488
Zn  Zn14  1  0.71124000  0.57124000  0.10608000  1.0 0.6143447997
Zn  Zn15  1  0.35172000  0.94888000  0.79389000  1.0 0.4970359595
Zn  Zn16  1  0.34350000  0.95050000  0.78970000  1.0 0.4970359595
H  H1  1  0.63956000  0.64680000  0.96719000  1.0 0.130152699
H  H2  1  0.50391000  0.52295000  0.92158000  1.0 0.1067935232
H  H3  1  0.88801000  0.81577000  0.99801000  1.0 0.130152699
H  H4  1  0.54061000  0.81211000  0.31845000  1.0 0.0790523932
H  H5  1  0.33960000  0.86308000  0.18069000  1.0 0.1067935232
H  H6  1  0.44453000  0.64269000  0.02158000  1.0 0.130152699
H  H7  1  0.05333000  0.88377000  0.99806000  1.0 0.1067935232
H  H8  1  0.07672000  0.79044000  0.08359000  1.0 0.1067935232
H  H9  1  0.42233000  0.78249000  0.26244000  1.0 0.1067935232
H  H10  1  0.36030000  0.98628000  0.13054000  1.0 0.0870345391
H  H11  1  0.31580000  0.52136000  0.97360000  1.0 0.1037929074
H  H12  1  0.04767000  0.66017000  0.12994000  1.0 0.1213608177
H  H13  1  0.55947000  0.86279000  0.07605000  1.0 0.130152699
H  H14  1  0.97658000  0.98836000  0.09708000  1.0 0.130152699
H  H15  1  0.21951000  0.49503000  0.31611000  1.0 0.130152699
H  H16  1  0.34230000  0.53588000  0.37181000  1.0 0.1037929074
H  H17  1  0.75294000  0.25704000  0.16012000  1.0 0.0870345391
H  H18  1  0.13826000  0.04970000  0.09626000  1.0 0.1067935232
H  H19  1  0.90718000  0.42232000  0.16155000  1.0 0.1391470014
H  H20  1  0.54523000  0.94155000  0.12284000  1.0 0.0870345391
H  H21  1  0.01273000  0.32763000  0.25755000  1.0 0.1391470014
H  H22  1  0.85429000  0.16581000  0.25438000  1.0 0.0790523932
H  H23  1  0.79349000  0.92203000  0.15685000  1.0 0.1391470014
H  H24  1  0.76878000  0.99258000  0.20263000  1.0 0.0790523932
H  H25  1  0.35320000  0.36044000  0.46719000  1.0 0.130152699
H  H26  1  0.47705000  0.49609000  0.42158000  1.0 0.1067935232
H  H27  1  0.18423000  0.11199000  0.49801000  1.0 0.130152699
H  H28  1  0.18789000  0.45939000  0.81845000  1.0 0.0790523932
H  H29  1  0.13692000  0.66040000  0.68069000  1.0 0.1067935232
H  H30  1  0.35731000  0.55547000  0.52158000  1.0 0.130152699
H  H31  1  0.11623000  0.94667000  0.49806000  1.0 0.1067935232
H  H32  1  0.20956000  0.92328000  0.58359000  1.0 0.1067935232
H  H33  1  0.21751000  0.57767000  0.76244000  1.0 0.1067935232
H  H34  1  0.01372000  0.63970000  0.63054000  1.0 0.0870345391
H  H35  1  0.47864000  0.68420000  0.47360000  1.0 0.1037929074
H  H36  1  0.33983000  0.95233000  0.62994000  1.0 0.1213608177
H  H37  1  0.13721000  0.44053000  0.57605000  1.0 0.130152699
H  H38  1  0.01164000  0.02342000  0.59708000  1.0 0.130152699
H  H39  1  0.50497000  0.78049000  0.81611000  1.0 0.130152699
H  H40  1  0.46412000  0.65770000  0.87181000  1.0 0.1037929074
H  H41  1  0.74296000  0.24706000  0.66012000  1.0 0.0870345391
H  H42  1  0.95030000  0.86174000  0.59626000  1.0 0.1067935232
H  H43  1  0.57768000  0.09282000  0.66155000  1.0 0.1391470014
H  H44  1  0.05845000  0.45477000  0.62284000  1.0 0.0790523932
H  H45  1  0.67237000  0.98727000  0.75755000  1.0 0.1391470014
H  H46  1  0.83419000  0.14571000  0.75438000  1.0 0.0790523932
H  H47  1  0.07797000  0.20651000  0.65685000  1.0 0.1391470014
H  H48  1  0.00742000  0.23122000  0.70263000  1.0 0.0790523932
H  H49  1  0.64680000  0.63956000  0.53281000  1.0 0.130152699
H  H50  1  0.52295000  0.50391000  0.57842000  1.0 0.1067935232
H  H51  1  0.81577000  0.88801000  0.50199000  1.0 0.130152699
H  H52  1  0.81211000  0.54061000  0.18155000  1.0 0.0790523932
H  H53  1  0.86308000  0.33960000  0.31931000  1.0 0.1067935232
H  H54  1  0.64269000  0.44453000  0.47842000  1.0 0.130152699
H  H55  1  0.88377000  0.05333000  0.50194000  1.0 0.1067935232
H  H56  1  0.79044000  0.07672000  0.41641000  1.0 0.1067935232
H  H57  1  0.78249000  0.42233000  0.23756000  1.0 0.1067935232
H  H58  1  0.98628000  0.36030000  0.36946000  1.0 0.0870345391
H  H59  1  0.52136000  0.31580000  0.52640000  1.0 0.1037929074
H  H60  1  0.66017000  0.04767000  0.37006000  1.0 0.1213608177
H  H61  1  0.86279000  0.55947000  0.42395000  1.0 0.130152699
H  H62  1  0.98836000  0.97658000  0.40292000  1.0 0.130152699
H  H63  1  0.49503000  0.21951000  0.18389000  1.0 0.130152699
H  H64  1  0.53588000  0.34230000  0.12819000  1.0 0.1037929074
H  H65  1  0.25704000  0.75294000  0.33988000  1.0 0.0870345391
H  H66  1  0.04970000  0.13826000  0.40374000  1.0 0.1067935232
H  H67  1  0.42232000  0.90718000  0.33845000  1.0 0.1391470014
H  H68  1  0.94155000  0.54523000  0.37716000  1.0 0.0870345391
H  H69  1  0.32763000  0.01273000  0.24245000  1.0 0.1391470014
H  H70  1  0.16581000  0.85429000  0.24562000  1.0 0.0790523932
H  H71  1  0.92203000  0.79349000  0.34315000  1.0 0.1391470014
H  H72  1  0.99258000  0.76878000  0.29737000  1.0 0.0790523932
H  H73  1  0.36044000  0.35320000  0.03281000  1.0 0.130152699
H  H74  1  0.49609000  0.47705000  0.07842000  1.0 0.1067935232
H  H75  1  0.11199000  0.18423000  0.00199000  1.0 0.130152699
H  H76  1  0.45939000  0.18789000  0.68155000  1.0 0.0790523932
H  H77  1  0.66040000  0.13692000  0.81931000  1.0 0.1067935232
H  H78  1  0.55547000  0.35731000  0.97842000  1.0 0.130152699
H  H79  1  0.94667000  0.11623000  0.00194000  1.0 0.1067935232
H  H80  1  0.92328000  0.20956000  0.91641000  1.0 0.1067935232
H  H81  1  0.57767000  0.21751000  0.73756000  1.0 0.1067935232
H  H82  1  0.63970000  0.01372000  0.86946000  1.0 0.0870345391
H  H83  1  0.68420000  0.47864000  0.02640000  1.0 0.1037929074
H  H84  1  0.95233000  0.33983000  0.87006000  1.0 0.1213608177
H  H85  1  0.44053000  0.13721000  0.92395000  1.0 0.130152699
H  H86  1  0.02342000  0.01164000  0.90292000  1.0 0.130152699
H  H87  1  0.78049000  0.50497000  0.68389000  1.0 0.130152699
H  H88  1  0.65770000  0.46412000  0.62819000  1.0 0.1037929074
H  H89  1  0.24706000  0.74296000  0.83988000  1.0 0.0870345391
H  H90  1  0.86174000  0.95030000  0.90374000  1.0 0.1067935232
H  H91  1  0.09282000  0.57768000  0.83845000  1.0 0.1391470014
H  H92  1  0.45477000  0.05845000  0.87716000  1.0 0.0870345391
H  H93  1  0.98727000  0.67237000  0.74245000  1.0 0.1391470014
H  H94  1  0.14571000  0.83419000  0.74562000  1.0 0.0790523932
H  H95  1  0.20651000  0.07797000  0.84315000  1.0 0.1391470014
H  H96  1  0.23122000  0.00742000  0.79737000  1.0 0.0790523932
C  C1  1  0.55631000  0.65929000  0.99857000  1.0 0.0687046924
C  C2  1  0.57339000  0.62221000  0.96889000  1.0 -0.1397516636
C  C3  1  0.91343000  0.89237000  0.04818000  1.0 0.0585808033
C  C4  1  0.97786000  0.39214000  0.20948000  1.0 0.0687046924
C  C5  1  0.07681000  0.49839000  0.21226000  1.0 0.349243491
C  C6  1  0.80826000  0.84934000  0.04994000  1.0 0.3672101688
C  C7  1  0.64236000  0.74224000  0.02735000  1.0 0.3672101688
C  C8  1  0.19108000  0.74692000  0.16012000  1.0 0.0523455125
C  C9  1  0.49274000  0.54906000  0.94182000  1.0 0.0523455125
C  C10  1  0.30748000  0.63472000  0.28294000  1.0 0.0585808033
C  C11  1  0.93859000  0.86361000  0.01869000  1.0 -0.1397516636
C  C12  1  0.23022000  0.61218000  0.24739000  1.0 0.349243491
C  C13  1  0.17536000  0.66404000  0.19020000  1.0 0.349243491
C  C14  1  0.69869000  0.84711000  0.07917000  1.0 0.3672101688
C  C15  1  0.47428000  0.74652000  0.31765000  1.0 0.0687046924
C  C16  1  0.28477000  0.84603000  0.16054000  1.0 -0.1840177683
C  C17  1  0.45890000  0.62030000  0.00089000  1.0 -0.158426976
C  C18  1  0.03691000  0.90389000  0.01892000  1.0 0.0585808033
C  C19  1  0.13083000  0.80457000  0.10333000  1.0 0.0790523932
C  C20  1  0.40431000  0.72969000  0.28423000  1.0 -0.1935138164
C  C21  1  0.29590000  0.91890000  0.13090000  1.0 0.0790523932
C  C22  1  0.68126000  0.88774000  0.11042000  1.0 0.0870345391
C  C23  1  0.38281000  0.54779000  0.97225000  1.0 0.0870345391
C  C24  1  0.11274000  0.72686000  0.13081000  1.0 -0.1726532338
C  C25  1  0.60515000  0.89165000  0.10145000  1.0 -0.1323717145
C  C26  1  0.99049000  0.96451000  0.07694000  1.0 -0.1539119031
C  C27  1  0.28512000  0.56128000  0.31594000  1.0 -0.1539119031
C  C28  1  0.35933000  0.58567000  0.34848000  1.0 0.0870345391
C  C29  1  0.80673000  0.27167000  0.18031000  1.0 0.0585808033
C  C30  1  0.08638000  0.00102000  0.07610000  1.0 0.0687046924
C  C31  1  0.89847000  0.37013000  0.18074000  1.0 -0.1539119031
C  C32  1  0.59627000  0.93753000  0.12970000  1.0 0.0523455125
C  C33  1  0.96038000  0.31522000  0.23700000  1.0 -0.1397516636
C  C34  1  0.86573000  0.21887000  0.23477000  1.0 0.0046534322
C  C35  1  0.74220000  0.92560000  0.14910000  1.0 -0.1397516636
C  C36  1  0.72740000  0.96800000  0.17590000  1.0 0.0187531233
C  C37  1  0.34071000  0.44369000  0.49857000  1.0 0.0687046924
C  C38  1  0.37779000  0.42661000  0.46889000  1.0 -0.1397516636
C  C39  1  0.10763000  0.08657000  0.54818000  1.0 0.0585808033
C  C40  1  0.60786000  0.02214000  0.70948000  1.0 0.0687046924
C  C41  1  0.50161000  0.92319000  0.71226000  1.0 0.349243491
C  C42  1  0.15066000  0.19174000  0.54994000  1.0 0.3672101688
C  C43  1  0.25776000  0.35764000  0.52735000  1.0 0.3672101688
C  C44  1  0.25308000  0.80892000  0.66012000  1.0 0.0523455125
C  C45  1  0.45094000  0.50726000  0.44182000  1.0 0.0523455125
C  C46  1  0.36528000  0.69252000  0.78294000  1.0 0.0585808033
C  C47  1  0.13639000  0.06141000  0.51869000  1.0 -0.1397516636
C  C48  1  0.38782000  0.76978000  0.74739000  1.0 0.349243491
C  C49  1  0.33596000  0.82464000  0.69020000  1.0 0.349243491
C  C50  1  0.15289000  0.30131000  0.57917000  1.0 0.3672101688
C  C51  1  0.25348000  0.52572000  0.81765000  1.0 0.0687046924
C  C52  1  0.15397000  0.71523000  0.66054000  1.0 -0.1840177683
C  C53  1  0.37970000  0.54110000  0.50089000  1.0 -0.158426976
C  C54  1  0.09611000  0.96309000  0.51892000  1.0 0.0585808033
C  C55  1  0.19543000  0.86917000  0.60333000  1.0 0.0790523932
C  C56  1  0.27031000  0.59569000  0.78423000  1.0 -0.1935138164
C  C57  1  0.08110000  0.70410000  0.63090000  1.0 0.0790523932
C  C58  1  0.11226000  0.31874000  0.61042000  1.0 0.0870345391
C  C59  1  0.45221000  0.61719000  0.47225000  1.0 0.0870345391
C  C60  1  0.27314000  0.88726000  0.63081000  1.0 -0.1726532338
C  C61  1  0.10835000  0.39485000  0.60145000  1.0 -0.1323717145
C  C62  1  0.03549000  0.00951000  0.57694000  1.0 -0.1539119031
C  C63  1  0.43872000  0.71488000  0.81594000  1.0 -0.1539119031
C  C64  1  0.41433000  0.64067000  0.84848000  1.0 0.0870345391
C  C65  1  0.72833000  0.19327000  0.68031000  1.0 0.0585808033
C  C66  1  0.99898000  0.91362000  0.57610000  1.0 0.0687046924
C  C67  1  0.62987000  0.10153000  0.68074000  1.0 -0.1539119031
C  C68  1  0.06247000  0.40373000  0.62970000  1.0 0.0523455125
C  C69  1  0.68478000  0.03962000  0.73700000  1.0 -0.1397516636
C  C70  1  0.78113000  0.13427000  0.73477000  1.0 0.0046534322
C  C71  1  0.07440000  0.25780000  0.64910000  1.0 -0.1397516636
C  C72  1  0.03200000  0.27260000  0.67590000  1.0 0.0187531233
C  C73  1  0.65929000  0.55631000  0.50143000  1.0 0.0687046924
C  C74  1  0.62221000  0.57339000  0.53111000  1.0 -0.1397516636
C  C75  1  0.89237000  0.91343000  0.45182000  1.0 0.0585808033
C  C76  1  0.39214000  0.97786000  0.29052000  1.0 0.0687046924
C  C77  1  0.49839000  0.07681000  0.28774000  1.0 0.349243491
C  C78  1  0.84934000  0.80826000  0.45006000  1.0 0.3672101688
C  C79  1  0.74224000  0.64236000  0.47265000  1.0 0.3672101688
C  C80  1  0.74692000  0.19108000  0.33988000  1.0 0.0523455125
C  C81  1  0.54906000  0.49274000  0.55818000  1.0 0.0523455125
C  C82  1  0.63472000  0.30748000  0.21706000  1.0 0.0585808033
C  C83  1  0.86361000  0.93859000  0.48131000  1.0 -0.1397516636
C  C84  1  0.61218000  0.23022000  0.25261000  1.0 0.349243491
C  C85  1  0.66404000  0.17536000  0.30980000  1.0 0.349243491
C  C86  1  0.84711000  0.69869000  0.42083000  1.0 0.3672101688
C  C87  1  0.74652000  0.47428000  0.18235000  1.0 0.0687046924
C  C88  1  0.84603000  0.28477000  0.33946000  1.0 -0.1840177683
C  C89  1  0.62030000  0.45890000  0.49911000  1.0 -0.158426976
C  C90  1  0.90389000  0.03691000  0.48108000  1.0 0.0585808033
C  C91  1  0.80457000  0.13083000  0.39667000  1.0 0.0790523932
C  C92  1  0.72969000  0.40431000  0.21577000  1.0 -0.1935138164
C  C93  1  0.91890000  0.29590000  0.36910000  1.0 0.0790523932
C  C94  1  0.88774000  0.68126000  0.38958000  1.0 0.0870345391
C  C95  1  0.54779000  0.38281000  0.52775000  1.0 0.0870345391
C  C96  1  0.72686000  0.11274000  0.36919000  1.0 -0.1726532338
C  C97  1  0.89165000  0.60515000  0.39855000  1.0 -0.1323717145
C  C98  1  0.96451000  0.99049000  0.42306000  1.0 -0.1539119031
C  C99  1  0.56128000  0.28512000  0.18406000  1.0 -0.1539119031
C  C100  1  0.58567000  0.35933000  0.15152000  1.0 0.0870345391
C  C101  1  0.27167000  0.80673000  0.31969000  1.0 0.0585808033
C  C102  1  0.00102000  0.08638000  0.42390000  1.0 0.0687046924
C  C103  1  0.37013000  0.89847000  0.31926000  1.0 -0.1539119031
C  C104  1  0.93753000  0.59627000  0.37030000  1.0 0.0523455125
C  C105  1  0.31522000  0.96038000  0.26300000  1.0 -0.1397516636
C  C106  1  0.21887000  0.86573000  0.26523000  1.0 0.0046534322
C  C107  1  0.92560000  0.74220000  0.35090000  1.0 -0.1397516636
C  C108  1  0.96800000  0.72740000  0.32410000  1.0 0.0187531233
C  C109  1  0.44369000  0.34071000  0.00143000  1.0 0.0687046924
C  C110  1  0.42661000  0.37779000  0.03111000  1.0 -0.1397516636
C  C111  1  0.08657000  0.10763000  0.95182000  1.0 0.0585808033
C  C112  1  0.02214000  0.60786000  0.79052000  1.0 0.0687046924
C  C113  1  0.92319000  0.50161000  0.78774000  1.0 0.349243491
C  C114  1  0.19174000  0.15066000  0.95006000  1.0 0.3672101688
C  C115  1  0.35764000  0.25776000  0.97265000  1.0 0.3672101688
C  C116  1  0.80892000  0.25308000  0.83988000  1.0 0.0523455125
C  C117  1  0.50726000  0.45094000  0.05818000  1.0 0.0523455125
C  C118  1  0.69252000  0.36528000  0.71706000  1.0 0.0585808033
C  C119  1  0.06141000  0.13639000  0.98131000  1.0 -0.1397516636
C  C120  1  0.76978000  0.38782000  0.75261000  1.0 0.349243491
C  C121  1  0.82464000  0.33596000  0.80980000  1.0 0.349243491
C  C122  1  0.30131000  0.15289000  0.92083000  1.0 0.3672101688
C  C123  1  0.52572000  0.25348000  0.68235000  1.0 0.0687046924
C  C124  1  0.71523000  0.15397000  0.83946000  1.0 -0.1840177683
C  C125  1  0.54110000  0.37970000  0.99911000  1.0 -0.158426976
C  C126  1  0.96309000  0.09611000  0.98108000  1.0 0.0585808033
C  C127  1  0.86917000  0.19543000  0.89667000  1.0 0.0790523932
C  C128  1  0.59569000  0.27031000  0.71577000  1.0 -0.1935138164
C  C129  1  0.70410000  0.08110000  0.86910000  1.0 0.0790523932
C  C130  1  0.31874000  0.11226000  0.88958000  1.0 0.0870345391
C  C131  1  0.61719000  0.45221000  0.02775000  1.0 0.0870345391
C  C132  1  0.88726000  0.27314000  0.86919000  1.0 -0.1726532338
C  C133  1  0.39485000  0.10835000  0.89855000  1.0 -0.1323717145
C  C134  1  0.00951000  0.03549000  0.92306000  1.0 -0.1539119031
C  C135  1  0.71488000  0.43872000  0.68406000  1.0 -0.1539119031
C  C136  1  0.64067000  0.41433000  0.65152000  1.0 0.0870345391
C  C137  1  0.19327000  0.72833000  0.81969000  1.0 0.0585808033
C  C138  1  0.91362000  0.99898000  0.92390000  1.0 0.0687046924
C  C139  1  0.10153000  0.62987000  0.81926000  1.0 -0.1539119031
C  C140  1  0.40373000  0.06247000  0.87030000  1.0 0.0523455125
C  C141  1  0.03962000  0.68478000  0.76300000  1.0 -0.1397516636
C  C142  1  0.13427000  0.78113000  0.76523000  1.0 0.0046534322
C  C143  1  0.25780000  0.07440000  0.85090000  1.0 -0.1397516636
C  C144  1  0.27260000  0.03200000  0.82410000  1.0 0.0187531233
N  N1  1  0.22074000  0.89946000  0.10275000  1.0 -0.1997693164
N  N2  1  0.24856000  0.69024000  0.22176000  1.0 -0.451137176
N  N3  1  0.14591000  0.51409000  0.24347000  1.0 -0.4435594587
N  N4  1  0.08755000  0.56865000  0.18383000  1.0 -0.4556364326
N  N5  1  0.39812000  0.51368000  0.94346000  1.0 -0.2159451379
N  N6  1  0.11033000  0.97107000  0.04803000  1.0 -0.2106887607
N  N7  1  0.79009000  0.19671000  0.20665000  1.0 -0.2577901093
N  N8  1  0.73508000  0.77732000  0.02301000  1.0 -0.4060575796
N  N9  1  0.79418000  0.88622000  0.07872000  1.0 -0.4002863078
N  N10  1  0.61991000  0.77429000  0.05408000  1.0 -0.3931485994
N  N11  1  0.45343000  0.67537000  0.34880000  1.0 -0.1997693164
N  N12  1  0.65727000  0.97693000  0.16656000  1.0 -0.282170823
N  N13  1  0.10054000  0.77926000  0.60275000  1.0 -0.1997693164
N  N14  1  0.30976000  0.75144000  0.72176000  1.0 -0.451137176
N  N15  1  0.48591000  0.85409000  0.74347000  1.0 -0.4435594587
N  N16  1  0.43135000  0.91245000  0.68383000  1.0 -0.4556364326
N  N17  1  0.48632000  0.60188000  0.44346000  1.0 -0.2159451379
N  N18  1  0.02893000  0.88967000  0.54803000  1.0 -0.2106887607
N  N19  1  0.80329000  0.20991000  0.70665000  1.0 -0.2577901093
N  N20  1  0.22268000  0.26492000  0.52301000  1.0 -0.4060575796
N  N21  1  0.11378000  0.20582000  0.57872000  1.0 -0.4002863078
N  N22  1  0.22571000  0.38009000  0.55408000  1.0 -0.3931485994
N  N23  1  0.32463000  0.54657000  0.84880000  1.0 -0.1997693164
N  N24  1  0.02307000  0.34273000  0.66656000  1.0 -0.2859471945
N  N25  1  0.89946000  0.22074000  0.39725000  1.0 -0.1997693164
N  N26  1  0.69024000  0.24856000  0.27824000  1.0 -0.451137176
N  N27  1  0.51409000  0.14591000  0.25653000  1.0 -0.4435594587
N  N28  1  0.56865000  0.08755000  0.31617000  1.0 -0.4556364326
N  N29  1  0.51368000  0.39812000  0.55654000  1.0 -0.2159451379
N  N30  1  0.97107000  0.11033000  0.45197000  1.0 -0.2106887607
N  N31  1  0.19671000  0.79009000  0.29335000  1.0 -0.2577901093
N  N32  1  0.77732000  0.73508000  0.47699000  1.0 -0.4060575796
N  N33  1  0.88622000  0.79418000  0.42128000  1.0 -0.4002863078
N  N34  1  0.77429000  0.61991000  0.44592000  1.0 -0.3931485994
N  N35  1  0.67537000  0.45343000  0.15120000  1.0 -0.1997693164
N  N36  1  0.97693000  0.65727000  0.33344000  1.0 -0.2859471945
N  N37  1  0.77926000  0.10054000  0.89725000  1.0 -0.1997693164
N  N38  1  0.75144000  0.30976000  0.77824000  1.0 -0.451137176
N  N39  1  0.85409000  0.48591000  0.75653000  1.0 -0.4435594587
N  N40  1  0.91245000  0.43135000  0.81617000  1.0 -0.4556364326
N  N41  1  0.60188000  0.48632000  0.05654000  1.0 -0.2159451379
N  N42  1  0.88967000  0.02893000  0.95197000  1.0 -0.2106887607
N  N43  1  0.20991000  0.80329000  0.79335000  1.0 -0.2577901093
N  N44  1  0.26492000  0.22268000  0.97699000  1.0 -0.4060575796
N  N45  1  0.20582000  0.11378000  0.92128000  1.0 -0.4002863078
N  N46  1  0.38009000  0.22571000  0.94592000  1.0 -0.3931485994
N  N47  1  0.54657000  0.32463000  0.65120000  1.0 -0.1997693164
N  N48  1  0.34273000  0.02307000  0.83344000  1.0 -0.2859471945
Cl  Cl1  1  0.35753000  0.15501000  0.09024000  1.0 -0.5477053134
Cl  Cl2  1  0.13885000  0.35357000  0.91615000  1.0 -0.5477053134
Cl  Cl3  1  0.26889000  0.98017000  0.99458000  1.0 -0.527465245
Cl  Cl4  1  0.32582000  0.35094000  0.86633000  1.0 -0.527465245
Cl  Cl5  1  0.53750000  0.06530000  0.17360000  1.0 -0.1726532338
Cl  Cl6  1  0.63940000  0.98560000  0.27420000  1.0 0.0523455125
Cl  Cl7  1  0.54550000  0.05690000  0.18230000  1.0 -0.158426976
Cl  Cl8  1  0.66940000  0.98580000  0.27340000  1.0 0.0585808033
Cl  Cl9  1  0.84499000  0.64247000  0.59024000  1.0 -0.5477053134
Cl  Cl10  1  0.64643000  0.86115000  0.41615000  1.0 -0.5477053134
Cl  Cl11  1  0.01983000  0.73111000  0.49458000  1.0 -0.527465245
Cl  Cl12  1  0.64906000  0.67418000  0.36633000  1.0 -0.527465245
Cl  Cl13  1  0.93470000  0.46250000  0.67360000  1.0 -0.1726532338
Cl  Cl14  1  0.01440000  0.36060000  0.77420000  1.0 0.0523455125
Cl  Cl15  1  0.94310000  0.45450000  0.68230000  1.0 -0.158426976
Cl  Cl16  1  0.01420000  0.33060000  0.77340000  1.0 0.0585808033
Cl  Cl17  1  0.15501000  0.35753000  0.40976000  1.0 -0.5477053134
Cl  Cl18  1  0.35357000  0.13885000  0.58385000  1.0 -0.5477053134
Cl  Cl19  1  0.98017000  0.26889000  0.50542000  1.0 -0.527465245
Cl  Cl20  1  0.35094000  0.32582000  0.63367000  1.0 -0.527465245
Cl  Cl21  1  0.06530000  0.53750000  0.32640000  1.0 -0.1726532338
Cl  Cl22  1  0.98560000  0.63940000  0.22580000  1.0 0.0585808033
Cl  Cl23  1  0.05690000  0.54550000  0.31770000  1.0 -0.158426976
Cl  Cl24  1  0.98580000  0.66940000  0.22660000  1.0 0.0585808033
Cl  Cl25  1  0.64247000  0.84499000  0.90976000  1.0 -0.5477053134
Cl  Cl26  1  0.86115000  0.64643000  0.08385000  1.0 -0.5477053134
Cl  Cl27  1  0.73111000  0.01983000  0.00542000  1.0 -0.527465245
Cl  Cl28  1  0.67418000  0.64906000  0.13367000  1.0 -0.527465245
Cl  Cl29  1  0.46250000  0.93470000  0.82640000  1.0 -0.1726532338
Cl  Cl30  1  0.36060000  0.01440000  0.72580000  1.0 0.0523455125
Cl  Cl31  1  0.45450000  0.94310000  0.81770000  1.0 -0.158426976
Cl  Cl32  1  0.33060000  0.01420000  0.72660000  1.0 0.0585808033
