# DDEC6 charges by PACMAN v1.1 (https://github.com/mtap-research/PACMAN-charge/)
data_EZOFUV_FSR_pacman
_symmetry_space_group_name_H-M   'P 1'
_cell_length_a   14.20570000
_cell_length_b   14.20570000
_cell_length_c   14.20570000
_cell_angle_alpha   115.55300000
_cell_angle_beta   115.55300000
_cell_angle_gamma   97.89210000
_symmetry_Int_Tables_number   1
_chemical_formula_structural   NiC16NO4
_chemical_formula_sum   'Ni4 C64 N4 O16'
_cell_volume   2141.30749970
_cell_formula_units_Z   4
loop_
 _symmetry_equiv_pos_site_id
 _symmetry_equiv_pos_as_xyz
  1  'x, y, z'
loop_
 _atom_site_type_symbol
 _atom_site_label
 _atom_site_symmetry_multiplicity
 _atom_site_fract_x
 _atom_site_fract_y
 _atom_site_fract_z
 _atom_site_occupancy
 _atom_site_charge
Ni  Ni1  1  0.57190000  0.57190000  0.00000000  1.0 0.7390421818
Ni  Ni2  1  0.92810000  0.92810000  0.00000000  1.0 0.7390421818
Ni  Ni3  1  0.42810000  0.42810000  0.00000000  1.0 0.7390421818
Ni  Ni4  1  0.07190000  0.07190000  0.00000000  1.0 0.7390421818
C  C1  1  0.58970000  0.63470000  0.22440000  1.0 0.5891096335
C  C2  1  0.63470000  0.41030000  0.04500000  1.0 0.5891096335
C  C3  1  0.36530000  0.58970000  0.95500000  1.0 0.5891096335
C  C4  1  0.13470000  0.08970000  0.22440000  1.0 0.5891096335
C  C5  1  0.41030000  0.36530000  0.77560000  1.0 0.5891096335
C  C6  1  0.91030000  0.13470000  0.04500000  1.0 0.5891096335
C  C7  1  0.08970000  0.86530000  0.95500000  1.0 0.5891096335
C  C8  1  0.86530000  0.91030000  0.77560000  1.0 0.5891096335
C  C9  1  0.65290000  0.71460000  0.36750000  1.0 -0.0208880025
C  C10  1  0.71460000  0.34710000  0.06170000  1.0 -0.0208880025
C  C11  1  0.28540000  0.65290000  0.93830000  1.0 -0.0208880025
C  C12  1  0.21460000  0.15290000  0.36750000  1.0 -0.0208880025
C  C13  1  0.34710000  0.28540000  0.63250000  1.0 -0.0208880025
C  C14  1  0.84710000  0.21460000  0.06170000  1.0 -0.0208880025
C  C15  1  0.15290000  0.78540000  0.93830000  1.0 -0.0208880025
C  C16  1  0.78540000  0.84710000  0.63250000  1.0 -0.0208880025
C  C17  1  0.74980000  0.81260000  0.43340000  1.0 0.0153791907
C  C18  1  0.81260000  0.37920000  0.06280000  1.0 0.0129306091
C  C19  1  0.31640000  0.74980000  0.93720000  1.0 0.0129306091
C  C20  1  0.18360000  0.12080000  0.43340000  1.0 0.0129306091
C  C21  1  0.37920000  0.31640000  0.56660000  1.0 0.0153791907
C  C22  1  0.75020000  0.18360000  0.06280000  1.0 0.0129306091
C  C23  1  0.12080000  0.68740000  0.93720000  1.0 0.0129306091
C  C24  1  0.68740000  0.75020000  0.56660000  1.0 0.0129306091
C  C25  1  0.25020000  0.18740000  0.56660000  1.0 0.0129306091
C  C26  1  0.18740000  0.62080000  0.93720000  1.0 0.0129306091
C  C27  1  0.68360000  0.25020000  0.06280000  1.0 0.0129306091
C  C28  1  0.81640000  0.87920000  0.56660000  1.0 0.0129306091
C  C29  1  0.62080000  0.68360000  0.43340000  1.0 0.0129306091
C  C30  1  0.24980000  0.81640000  0.93720000  1.0 0.0153791907
C  C31  1  0.87920000  0.31260000  0.06280000  1.0 0.0129306091
C  C32  1  0.31260000  0.24980000  0.43340000  1.0 0.0153791907
C  C33  1  0.62470000  0.74200000  0.94510000  1.0 0.0291301327
C  C34  1  0.74200000  0.79690000  0.11730000  1.0 0.0291301327
C  C35  1  0.67960000  0.62470000  0.88270000  1.0 0.0291301327
C  C36  1  0.82040000  0.70310000  0.94510000  1.0 0.0291301327
C  C37  1  0.79690000  0.67960000  0.05490000  1.0 0.0291301327
C  C38  1  0.87530000  0.82040000  0.11730000  1.0 0.0291301327
C  C39  1  0.70310000  0.75800000  0.88270000  1.0 0.0291301327
C  C40  1  0.75800000  0.87530000  0.05490000  1.0 0.0291301327
C  C41  1  0.37530000  0.25800000  0.05490000  1.0 0.0291301327
C  C42  1  0.25800000  0.20310000  0.88270000  1.0 0.0291301327
C  C43  1  0.32040000  0.37530000  0.11730000  1.0 0.0291301327
C  C44  1  0.17960000  0.29690000  0.05490000  1.0 0.0291301327
C  C45  1  0.20310000  0.32040000  0.94510000  1.0 0.0291301327
C  C46  1  0.12470000  0.17960000  0.88270000  1.0 0.0291301327
C  C47  1  0.29690000  0.24200000  0.11730000  1.0 0.0291301327
C  C48  1  0.24200000  0.12470000  0.94510000  1.0 0.0291301327
C  C49  1  0.65760000  0.78670000  0.03650000  1.0 0.0129306091
C  C50  1  0.78670000  0.75020000  0.12910000  1.0 0.0023381788
C  C51  1  0.62110000  0.65760000  0.87090000  1.0 0.0023381788
C  C52  1  0.87890000  0.74980000  0.03650000  1.0 0.0023381788
C  C53  1  0.75020000  0.62110000  0.96350000  1.0 0.0023381788
C  C54  1  0.84240000  0.87890000  0.12910000  1.0 -3.57942e-05
C  C55  1  0.74980000  0.71330000  0.87090000  1.0 0.0023381788
C  C56  1  0.71330000  0.84240000  0.96350000  1.0 -3.57942e-05
C  C57  1  0.34240000  0.21330000  0.96350000  1.0 0.0023381788
C  C58  1  0.21330000  0.24980000  0.87090000  1.0 0.0023381788
C  C59  1  0.37890000  0.34240000  0.12910000  1.0 0.0023381788
C  C60  1  0.12110000  0.25020000  0.96350000  1.0 0.0023381788
C  C61  1  0.24980000  0.37890000  0.03650000  1.0 0.0023381788
C  C62  1  0.15760000  0.12110000  0.87090000  1.0 0.0129306091
C  C63  1  0.25020000  0.28670000  0.12910000  1.0 0.0023381788
C  C64  1  0.28670000  0.15760000  0.03650000  1.0 0.0129306091
N  N1  1  0.68190000  0.68190000  0.00000000  1.0 0.0801851119
N  N2  1  0.81810000  0.81810000  0.00000000  1.0 0.0861484598
N  N3  1  0.31810000  0.31810000  0.00000000  1.0 0.0801851119
N  N4  1  0.18190000  0.18190000  0.00000000  1.0 0.074749824
O  O1  1  0.63070000  0.67440000  0.17770000  1.0 -0.5358963951
O  O2  1  0.67440000  0.49670000  0.04370000  1.0 -0.5358963951
O  O3  1  0.45300000  0.63070000  0.95630000  1.0 -0.5358963951
O  O4  1  0.04700000  0.00330000  0.17770000  1.0 -0.5358963951
O  O5  1  0.49670000  0.45300000  0.82230000  1.0 -0.5358963951
O  O6  1  0.86930000  0.04700000  0.04370000  1.0 -0.5339335759
O  O7  1  0.00330000  0.82560000  0.95630000  1.0 -0.5358963951
O  O8  1  0.82560000  0.86930000  0.82230000  1.0 -0.5358963951
O  O9  1  0.36930000  0.32560000  0.82230000  1.0 -0.5358963951
O  O10  1  0.32560000  0.50330000  0.95630000  1.0 -0.5358963951
O  O11  1  0.54700000  0.36930000  0.04370000  1.0 -0.5358963951
O  O12  1  0.95300000  0.99670000  0.82230000  1.0 -0.5358963951
O  O13  1  0.50330000  0.54700000  0.17770000  1.0 -0.5358963951
O  O14  1  0.13070000  0.95300000  0.95630000  1.0 -0.5358963951
O  O15  1  0.99670000  0.17440000  0.04370000  1.0 -0.5339335759
O  O16  1  0.17440000  0.13070000  0.17770000  1.0 -0.5358963951
