# DDEC6 charges by PACMAN v1.1 (https://github.com/mtap-research/PACMAN-charge/)
data_EZUCOS_FSR_pacman
_symmetry_space_group_name_H-M   'P 1'
_cell_length_a   13.65740000
_cell_length_b   13.65740000
_cell_length_c   20.23180000
_cell_angle_alpha   58.60560000
_cell_angle_beta   121.39400000
_cell_angle_gamma   137.55900000
_symmetry_Int_Tables_number   1
_chemical_formula_structural   CdH11C15(NO)4
_chemical_formula_sum   'Cd4 H44 C60 N16 O16'
_cell_volume   2111.90023416
_cell_formula_units_Z   4
loop_
 _symmetry_equiv_pos_site_id
 _symmetry_equiv_pos_as_xyz
  1  'x, y, z'
loop_
 _atom_site_type_symbol
 _atom_site_label
 _atom_site_symmetry_multiplicity
 _atom_site_fract_x
 _atom_site_fract_y
 _atom_site_fract_z
 _atom_site_occupancy
 _atom_site_charge
Cd  Cd1  1  0.25973000  0.41899000  0.93836000  1.0 0.8635745703
Cd  Cd2  1  0.41899000  0.25973000  0.56164000  1.0 0.8635745703
Cd  Cd3  1  0.74027000  0.58101000  0.06164000  1.0 0.8635745703
Cd  Cd4  1  0.58101000  0.74027000  0.43836000  1.0 0.8635745703
H  H1  1  0.21060000  0.63900000  0.77380000  1.0 0.1194132532
H  H2  1  0.63900000  0.21060000  0.72620000  1.0 0.1194132532
H  H3  1  0.78940000  0.36100000  0.22620000  1.0 0.1194132532
H  H4  1  0.36100000  0.78940000  0.27380000  1.0 0.1194132532
H  H5  1  0.06500000  0.70660000  0.69990000  1.0 0.1498168021
H  H6  1  0.70660000  0.06500000  0.80010000  1.0 0.1498168021
H  H7  1  0.93500000  0.29340000  0.30010000  1.0 0.1498168021
H  H8  1  0.29340000  0.93500000  0.19990000  1.0 0.1498168021
H  H9  1  0.81030000  0.39150000  0.85960000  1.0 0.1416699324
H  H10  1  0.39150000  0.81030000  0.64040000  1.0 0.1416699324
H  H11  1  0.18970000  0.60850000  0.14040000  1.0 0.1416699324
H  H12  1  0.60850000  0.18970000  0.35960000  1.0 0.1416699324
H  H13  1  0.95700000  0.32820000  0.92440000  1.0 0.1091074344
H  H14  1  0.32820000  0.95700000  0.57560000  1.0 0.1091074344
H  H15  1  0.04300000  0.67180000  0.07560000  1.0 0.1091074344
H  H16  1  0.67180000  0.04300000  0.42440000  1.0 0.1091074344
H  H17  1  0.49880000  0.36960000  0.82080000  1.0 0.1498168021
H  H18  1  0.36960000  0.49880000  0.67920000  1.0 0.1498168021
H  H19  1  0.50120000  0.63040000  0.17920000  1.0 0.1498168021
H  H20  1  0.63040000  0.50120000  0.32080000  1.0 0.1498168021
H  H21  1  0.51590000  0.40110000  0.92840000  1.0 0.1194132532
H  H22  1  0.40110000  0.51590000  0.57160000  1.0 0.1194132532
H  H23  1  0.48410000  0.59890000  0.07160000  1.0 0.1194132532
H  H24  1  0.59890000  0.48410000  0.42840000  1.0 0.1194132532
H  H25  1  0.93610000  0.74690000  0.94390000  1.0 0.1091074344
H  H26  1  0.74690000  0.93610000  0.55610000  1.0 0.1091074344
H  H27  1  0.06390000  0.25310000  0.05610000  1.0 0.1091074344
H  H28  1  0.25310000  0.06390000  0.44390000  1.0 0.1091074344
H  H29  1  0.93670000  0.73130000  0.83760000  1.0 0.1416699324
H  H30  1  0.73130000  0.93670000  0.66240000  1.0 0.1416699324
H  H31  1  0.06330000  0.26870000  0.16240000  1.0 0.1416699324
H  H32  1  0.26870000  0.06330000  0.33760000  1.0 0.1416699324
H  H33  1  0.02030000  0.99030000  0.66140000  1.0 0.1416699324
H  H34  1  0.99030000  0.02030000  0.83860000  1.0 0.1416699324
H  H35  1  0.97970000  0.00970000  0.33860000  1.0 0.1416699324
H  H36  1  0.00970000  0.97970000  0.16140000  1.0 0.1416699324
H  H37  1  0.07100000  0.89420000  0.71750000  1.0 0.1297637729
H  H38  1  0.89420000  0.07100000  0.78250000  1.0 0.1297637729
H  H39  1  0.92900000  0.10580000  0.28250000  1.0 0.1297637729
H  H40  1  0.10580000  0.92900000  0.21750000  1.0 0.1297637729
H  H41  1  0.88800000  0.85200000  0.55900000  1.0 0.1297637729
H  H42  1  0.85200000  0.88800000  0.94100000  1.0 0.1297637729
H  H43  1  0.11200000  0.14800000  0.44100000  1.0 0.1297637729
H  H44  1  0.14800000  0.11200000  0.05900000  1.0 0.1297637729
C  C1  1  0.12900000  0.58880000  0.79110000  1.0 0.1034800879
C  C2  1  0.58880000  0.12900000  0.70890000  1.0 0.1034800879
C  C3  1  0.87100000  0.41120000  0.20890000  1.0 0.1034800879
C  C4  1  0.41120000  0.87100000  0.29110000  1.0 0.1034800879
C  C5  1  0.04230000  0.63090000  0.74630000  1.0 -0.2205504865
C  C6  1  0.63090000  0.04230000  0.75370000  1.0 -0.2205504865
C  C7  1  0.95770000  0.36910000  0.25370000  1.0 -0.2205504865
C  C8  1  0.36910000  0.95770000  0.24630000  1.0 -0.2205504865
C  C9  1  0.91920000  0.55820000  0.77140000  1.0 0.1881600826
C  C10  1  0.55820000  0.91920000  0.72860000  1.0 0.1881600826
C  C11  1  0.08080000  0.44180000  0.22860000  1.0 0.1881600826
C  C12  1  0.44180000  0.08080000  0.27140000  1.0 0.1881600826
C  C13  1  0.89060000  0.44340000  0.84050000  1.0 -0.2275992573
C  C14  1  0.44340000  0.89060000  0.65950000  1.0 -0.2275992573
C  C15  1  0.10940000  0.55660000  0.15950000  1.0 -0.2275992573
C  C16  1  0.55660000  0.10940000  0.34050000  1.0 -0.2275992573
C  C17  1  0.98090000  0.40770000  0.87970000  1.0 0.0843732081
C  C18  1  0.40770000  0.98090000  0.62030000  1.0 0.0843732081
C  C19  1  0.01910000  0.59230000  0.12030000  1.0 0.0843732081
C  C20  1  0.59230000  0.01910000  0.37970000  1.0 0.0843732081
C  C21  1  0.71840000  0.54380000  0.81780000  1.0 0.2317176371
C  C22  1  0.54380000  0.71840000  0.68220000  1.0 0.2317176371
C  C23  1  0.28160000  0.45620000  0.18220000  1.0 0.2317176371
C  C24  1  0.45620000  0.28160000  0.31780000  1.0 0.2317176371
C  C25  1  0.58980000  0.44600000  0.84540000  1.0 -0.2275992573
C  C26  1  0.44600000  0.58980000  0.65460000  1.0 -0.2275992573
C  C27  1  0.41020000  0.55400000  0.15460000  1.0 -0.2275992573
C  C28  1  0.55400000  0.41020000  0.34540000  1.0 -0.2275992573
C  C29  1  0.60190000  0.46650000  0.91060000  1.0 0.1194132532
C  C30  1  0.46650000  0.60190000  0.58940000  1.0 0.1194132532
C  C31  1  0.39810000  0.53350000  0.08940000  1.0 0.1194132532
C  C32  1  0.53350000  0.39810000  0.41060000  1.0 0.1194132532
C  C33  1  0.84800000  0.66900000  0.91930000  1.0 0.0616607893
C  C34  1  0.66900000  0.84800000  0.58070000  1.0 0.0616607893
C  C35  1  0.15200000  0.33100000  0.08070000  1.0 0.0616607893
C  C36  1  0.33100000  0.15200000  0.41930000  1.0 0.0616607893
C  C37  1  0.84990000  0.66070000  0.85560000  1.0 -0.2374963851
C  C38  1  0.66070000  0.84990000  0.64440000  1.0 -0.2374963851
C  C39  1  0.15010000  0.33930000  0.14440000  1.0 -0.2374963851
C  C40  1  0.33930000  0.15010000  0.35560000  1.0 -0.2374963851
C  C41  1  0.69940000  0.56460000  0.59510000  1.0 0.5587182253
C  C42  1  0.56460000  0.69940000  0.90490000  1.0 0.5587182253
C  C43  1  0.30060000  0.43540000  0.40490000  1.0 0.5587182253
C  C44  1  0.43540000  0.30060000  0.09510000  1.0 0.5587182253
C  C45  1  0.82380000  0.67320000  0.64790000  1.0 -0.0187091098
C  C46  1  0.67320000  0.82380000  0.85210000  1.0 -0.0187091098
C  C47  1  0.17620000  0.32680000  0.35210000  1.0 -0.0187091098
C  C48  1  0.32680000  0.17620000  0.14790000  1.0 -0.0187091098
C  C49  1  0.91200000  0.81860000  0.61860000  1.0 -0.085527783
C  C50  1  0.81860000  0.91200000  0.88140000  1.0 -0.085527783
C  C51  1  0.08800000  0.18140000  0.38140000  1.0 -0.085527783
C  C52  1  0.18140000  0.08800000  0.11860000  1.0 -0.085527783
C  C53  1  0.04500000  0.93880000  0.66230000  1.0 -0.3332686068
C  C54  1  0.93880000  0.04500000  0.83770000  1.0 -0.3332686068
C  C55  1  0.95500000  0.06120000  0.33770000  1.0 -0.3332686068
C  C56  1  0.06120000  0.95500000  0.16230000  1.0 -0.3332686068
C  C57  1  0.17870000  0.05090000  0.62650000  1.0 0.6167042463
C  C58  1  0.05090000  0.17870000  0.87350000  1.0 0.6167042463
C  C59  1  0.82130000  0.94910000  0.37350000  1.0 0.6167042463
C  C60  1  0.94910000  0.82130000  0.12650000  1.0 0.6167042463
N  N1  1  0.10300000  0.48040000  0.85790000  1.0 -0.2519342394
N  N2  1  0.48040000  0.10300000  0.64210000  1.0 -0.2519342394
N  N3  1  0.89700000  0.51960000  0.14210000  1.0 -0.2519342394
N  N4  1  0.51960000  0.89700000  0.35790000  1.0 -0.2519342394
N  N5  1  0.83780000  0.60720000  0.73170000  1.0 0.1091074344
N  N6  1  0.60720000  0.83780000  0.76830000  1.0 0.1091074344
N  N7  1  0.16220000  0.39280000  0.26830000  1.0 0.1091074344
N  N8  1  0.39280000  0.16220000  0.23170000  1.0 0.1091074344
N  N9  1  0.70730000  0.51910000  0.75560000  1.0 -0.2904059605
N  N10  1  0.51910000  0.70730000  0.74440000  1.0 -0.2904059605
N  N11  1  0.29270000  0.48090000  0.24440000  1.0 -0.2904059605
N  N12  1  0.48090000  0.29270000  0.25560000  1.0 -0.2904059605
N  N13  1  0.72610000  0.57150000  0.94900000  1.0 -0.2618753404
N  N14  1  0.57150000  0.72610000  0.55100000  1.0 -0.2618753404
N  N15  1  0.27390000  0.42850000  0.05100000  1.0 -0.2618753404
N  N16  1  0.42850000  0.27390000  0.44900000  1.0 -0.2618753404
O  O1  1  0.62506000  0.42874000  0.63080000  1.0 -0.5225865037
O  O2  1  0.42874000  0.62506000  0.86920000  1.0 -0.5225865037
O  O3  1  0.37494000  0.57126000  0.36920000  1.0 -0.5225865037
O  O4  1  0.57126000  0.37494000  0.13080000  1.0 -0.5225865037
O  O5  1  0.67807000  0.61313000  0.52040000  1.0 -0.5653230936
O  O6  1  0.61313000  0.67807000  0.97960000  1.0 -0.5653230936
O  O7  1  0.32193000  0.38687000  0.47960000  1.0 -0.5653230936
O  O8  1  0.38687000  0.32193000  0.02040000  1.0 -0.5653230936
O  O9  1  0.29390000  0.16570000  0.65280000  1.0 -0.55502508
O  O10  1  0.16570000  0.29390000  0.84720000  1.0 -0.5544597299
O  O11  1  0.70610000  0.83430000  0.34720000  1.0 -0.55502508
O  O12  1  0.83430000  0.70610000  0.15280000  1.0 -0.55502508
O  O13  1  0.16992000  0.02648000  0.57050000  1.0 -0.5803620906
O  O14  1  0.02648000  0.16992000  0.92950000  1.0 -0.5803620906
O  O15  1  0.83008000  0.97352000  0.42950000  1.0 -0.5803620906
O  O16  1  0.97352000  0.83008000  0.07050000  1.0 -0.5803620906
