# DDEC6 charges by PACMAN v1.1 (https://github.com/mtap-research/PACMAN-charge/)
data_EZUMIX_FSR_pacman
_symmetry_space_group_name_H-M   'P 1'
_cell_length_a   9.73480000
_cell_length_b   22.48600000
_cell_length_c   12.99660000
_cell_angle_alpha   90.00000000
_cell_angle_beta   103.61500000
_cell_angle_gamma   90.00000000
_symmetry_Int_Tables_number   1
_chemical_formula_structural   HoH17C25N4O9
_chemical_formula_sum   'Ho4 H68 C100 N16 O36'
_cell_volume   2764.96927534
_cell_formula_units_Z   4
loop_
 _symmetry_equiv_pos_site_id
 _symmetry_equiv_pos_as_xyz
  1  'x, y, z'
loop_
 _atom_site_type_symbol
 _atom_site_label
 _atom_site_symmetry_multiplicity
 _atom_site_fract_x
 _atom_site_fract_y
 _atom_site_fract_z
 _atom_site_occupancy
 _atom_site_charge
Ho  Ho1  1  0.34411000  0.83884000  0.11956000  1.0 1.7352389232
Ho  Ho2  1  0.34411000  0.66116000  0.61956000  1.0 1.7352389232
Ho  Ho3  1  0.65589000  0.33884000  0.38044000  1.0 1.7352389232
Ho  Ho4  1  0.65589000  0.16116000  0.88044000  1.0 1.7352389232
H  H1  1  0.72360000  0.61020000  0.92280000  1.0 0.1308571772
H  H2  1  0.87670000  0.61920000  0.09010000  1.0 0.1308571772
H  H3  1  0.69580000  0.77480000  0.12910000  1.0 0.1387636201
H  H4  1  0.07280000  0.69950000  0.17260000  1.0 0.1387636201
H  H5  1  0.22810000  0.70760000  0.32740000  1.0 0.1647291021
H  H6  1  0.90150000  0.72860000  0.46660000  1.0 0.1387636201
H  H7  1  0.75150000  0.71770000  0.30280000  1.0 0.1308571772
H  H8  1  0.34540000  0.91760000  0.89820000  1.0 0.1207851831
H  H9  1  0.19850000  0.96480000  0.75640000  1.0 0.1308571772
H  H10  1  0.96410000  0.97460000  0.74990000  1.0 0.1207851831
H  H11  1  0.76390000  0.96380000  0.83640000  1.0 0.1207851831
H  H12  1  0.68830000  0.93670000  0.98490000  1.0 0.1387636201
H  H13  1  0.74480000  0.89310000  0.17130000  1.0 0.1387636201
H  H14  1  0.90770000  0.85690000  0.31090000  1.0 0.1308571772
H  H15  1  0.13650000  0.84370000  0.29650000  1.0 0.1207851831
H  H16  1  0.35450000  0.76920000  0.18790000  1.0 0.2631023661
H  H17  1  0.40990000  0.71380000  0.20540000  1.0 0.3646574602
H  H18  1  0.72360000  0.88980000  0.42280000  1.0 0.1308571772
H  H19  1  0.87670000  0.88080000  0.59010000  1.0 0.1308571772
H  H20  1  0.69580000  0.72520000  0.62910000  1.0 0.1387636201
H  H21  1  0.07280000  0.80050000  0.67260000  1.0 0.1387636201
H  H22  1  0.22810000  0.79240000  0.82740000  1.0 0.1647291021
H  H23  1  0.90150000  0.77140000  0.96660000  1.0 0.1387636201
H  H24  1  0.75150000  0.78230000  0.80280000  1.0 0.1308571772
H  H25  1  0.34540000  0.58240000  0.39820000  1.0 0.1207851831
H  H26  1  0.19850000  0.53520000  0.25640000  1.0 0.1308571772
H  H27  1  0.96410000  0.52540000  0.24990000  1.0 0.1207851831
H  H28  1  0.76390000  0.53620000  0.33640000  1.0 0.1207851831
H  H29  1  0.68830000  0.56330000  0.48490000  1.0 0.1387636201
H  H30  1  0.74480000  0.60690000  0.67130000  1.0 0.1387636201
H  H31  1  0.90770000  0.64310000  0.81090000  1.0 0.1308571772
H  H32  1  0.13650000  0.65630000  0.79650000  1.0 0.1207851831
H  H33  1  0.35450000  0.73080000  0.68790000  1.0 0.2631023661
H  H34  1  0.40990000  0.78620000  0.70540000  1.0 0.3646574602
H  H35  1  0.27640000  0.11020000  0.57720000  1.0 0.1308571772
H  H36  1  0.12330000  0.11920000  0.40990000  1.0 0.1308571772
H  H37  1  0.30420000  0.27480000  0.37090000  1.0 0.1387636201
H  H38  1  0.92720000  0.19950000  0.32740000  1.0 0.1387636201
H  H39  1  0.77190000  0.20760000  0.17260000  1.0 0.1647291021
H  H40  1  0.09850000  0.22860000  0.03340000  1.0 0.1387636201
H  H41  1  0.24850000  0.21770000  0.19720000  1.0 0.1308571772
H  H42  1  0.65460000  0.41760000  0.60180000  1.0 0.1207851831
H  H43  1  0.80150000  0.46480000  0.74360000  1.0 0.1308571772
H  H44  1  0.03590000  0.47460000  0.75010000  1.0 0.1207851831
H  H45  1  0.23610000  0.46380000  0.66360000  1.0 0.1207851831
H  H46  1  0.31170000  0.43670000  0.51510000  1.0 0.1387636201
H  H47  1  0.25520000  0.39310000  0.32870000  1.0 0.1387636201
H  H48  1  0.09230000  0.35690000  0.18910000  1.0 0.1308571772
H  H49  1  0.86350000  0.34370000  0.20350000  1.0 0.1207851831
H  H50  1  0.64550000  0.26920000  0.31210000  1.0 0.2631023661
H  H51  1  0.59010000  0.21380000  0.29460000  1.0 0.3646574602
H  H52  1  0.27640000  0.38980000  0.07720000  1.0 0.1308571772
H  H53  1  0.12330000  0.38080000  0.90990000  1.0 0.1308571772
H  H54  1  0.30420000  0.22520000  0.87090000  1.0 0.1387636201
H  H55  1  0.92720000  0.30050000  0.82740000  1.0 0.1387636201
H  H56  1  0.77190000  0.29240000  0.67260000  1.0 0.1647291021
H  H57  1  0.09850000  0.27140000  0.53340000  1.0 0.1387636201
H  H58  1  0.24850000  0.28230000  0.69720000  1.0 0.1308571772
H  H59  1  0.65460000  0.08240000  0.10180000  1.0 0.1207851831
H  H60  1  0.80150000  0.03520000  0.24360000  1.0 0.1308571772
H  H61  1  0.03590000  0.02540000  0.25010000  1.0 0.1207851831
H  H62  1  0.23610000  0.03620000  0.16360000  1.0 0.1207851831
H  H63  1  0.31170000  0.06330000  0.01510000  1.0 0.1387636201
H  H64  1  0.25520000  0.10690000  0.82870000  1.0 0.1387636201
H  H65  1  0.09230000  0.14310000  0.68910000  1.0 0.1308571772
H  H66  1  0.86350000  0.15630000  0.70350000  1.0 0.1207851831
H  H67  1  0.64550000  0.23080000  0.81210000  1.0 0.2631023661
H  H68  1  0.59010000  0.28620000  0.79460000  1.0 0.3646574602
C  C1  1  0.52210000  0.79080000  0.93930000  1.0 0.5925585166
C  C2  1  0.61310000  0.73760000  0.98350000  1.0 -0.0046854307
C  C3  1  0.62130000  0.68680000  0.92430000  1.0 -0.0405025273
C  C4  1  0.71870000  0.64370000  0.96360000  1.0 -0.0910468451
C  C5  1  0.81100000  0.64870000  0.06340000  1.0 -0.1881800978
C  C6  1  0.80000000  0.70000000  0.12070000  1.0 0.1387636201
C  C7  1  0.70340000  0.74250000  0.08620000  1.0 -0.1881800978
C  C8  1  0.52090000  0.67700000  0.81910000  1.0 0.5677307383
C  C9  1  0.03910000  0.70450000  0.23330000  1.0 -0.0125179896
C  C10  1  0.13180000  0.70910000  0.32460000  1.0 -0.2425894863
C  C11  1  0.08340000  0.71620000  0.41890000  1.0 0.3958272175
C  C12  1  0.93790000  0.72130000  0.40770000  1.0 -0.2894185945
C  C13  1  0.84860000  0.71550000  0.30930000  1.0 0.0227822843
C  C14  1  0.06650000  0.91540000  0.98020000  1.0 0.1207851831
C  C15  1  0.25130000  0.92410000  0.89890000  1.0 0.1207851831
C  C16  1  0.16250000  0.95130000  0.81250000  1.0 -0.1367915286
C  C17  1  0.02420000  0.95840000  0.80960000  1.0 -0.0910468451
C  C18  1  0.97230000  0.94190000  0.89310000  1.0 0.03953761
C  C19  1  0.82800000  0.94830000  0.89490000  1.0 -0.1367915286
C  C20  1  0.78270000  0.93150000  0.98350000  1.0 -0.1332667559
C  C21  1  0.87820000  0.90640000  0.07300000  1.0 0.051190997
C  C22  1  0.83830000  0.88900000  0.16700000  1.0 -0.081511037
C  C23  1  0.93310000  0.86700000  0.24860000  1.0 -0.1367915286
C  C24  1  0.07090000  0.85940000  0.23900000  1.0 0.0923368265
C  C25  1  0.02150000  0.89640000  0.07140000  1.0 0.1387636201
C  C26  1  0.52210000  0.70920000  0.43930000  1.0 0.5925585166
C  C27  1  0.61310000  0.76240000  0.48350000  1.0 -0.0046854307
C  C28  1  0.62130000  0.81320000  0.42430000  1.0 -0.0405025273
C  C29  1  0.71870000  0.85630000  0.46360000  1.0 -0.0910468451
C  C30  1  0.81100000  0.85130000  0.56340000  1.0 -0.1881800978
C  C31  1  0.80000000  0.80000000  0.62070000  1.0 0.1387636201
C  C32  1  0.70340000  0.75750000  0.58620000  1.0 -0.1881800978
C  C33  1  0.52090000  0.82300000  0.31910000  1.0 0.5677307383
C  C34  1  0.03910000  0.79550000  0.73330000  1.0 -0.0125179896
C  C35  1  0.13180000  0.79090000  0.82460000  1.0 -0.2425894863
C  C36  1  0.08340000  0.78380000  0.91890000  1.0 0.3958272175
C  C37  1  0.93790000  0.77870000  0.90770000  1.0 -0.2894185945
C  C38  1  0.84860000  0.78450000  0.80930000  1.0 0.0227822843
C  C39  1  0.06650000  0.58460000  0.48020000  1.0 0.1207851831
C  C40  1  0.25130000  0.57590000  0.39890000  1.0 0.1207851831
C  C41  1  0.16250000  0.54870000  0.31250000  1.0 -0.1367915286
C  C42  1  0.02420000  0.54160000  0.30960000  1.0 -0.0910468451
C  C43  1  0.97230000  0.55810000  0.39310000  1.0 0.03953761
C  C44  1  0.82800000  0.55170000  0.39490000  1.0 -0.1367915286
C  C45  1  0.78270000  0.56850000  0.48350000  1.0 -0.1332667559
C  C46  1  0.87820000  0.59360000  0.57300000  1.0 0.051190997
C  C47  1  0.83830000  0.61100000  0.66700000  1.0 -0.081511037
C  C48  1  0.93310000  0.63300000  0.74860000  1.0 -0.1367915286
C  C49  1  0.07090000  0.64060000  0.73900000  1.0 0.0923368265
C  C50  1  0.02150000  0.60360000  0.57140000  1.0 0.1387636201
C  C51  1  0.47790000  0.29080000  0.56070000  1.0 0.5925585166
C  C52  1  0.38690000  0.23760000  0.51650000  1.0 -0.0046854307
C  C53  1  0.37870000  0.18680000  0.57570000  1.0 -0.0405025273
C  C54  1  0.28130000  0.14370000  0.53640000  1.0 -0.0910468451
C  C55  1  0.18900000  0.14870000  0.43660000  1.0 -0.1881800978
C  C56  1  0.20000000  0.20000000  0.37930000  1.0 0.1387636201
C  C57  1  0.29660000  0.24250000  0.41380000  1.0 -0.1881800978
C  C58  1  0.47910000  0.17700000  0.68090000  1.0 0.5677307383
C  C59  1  0.96090000  0.20450000  0.26670000  1.0 -0.0125179896
C  C60  1  0.86820000  0.20910000  0.17540000  1.0 -0.2425894863
C  C61  1  0.91660000  0.21620000  0.08110000  1.0 0.3958272175
C  C62  1  0.06210000  0.22130000  0.09230000  1.0 -0.2894185945
C  C63  1  0.15140000  0.21550000  0.19070000  1.0 0.0227822843
C  C64  1  0.93350000  0.41540000  0.51980000  1.0 0.1207851831
C  C65  1  0.74870000  0.42410000  0.60110000  1.0 0.1207851831
C  C66  1  0.83750000  0.45130000  0.68750000  1.0 -0.1367915286
C  C67  1  0.97580000  0.45840000  0.69040000  1.0 -0.0910468451
C  C68  1  0.02770000  0.44190000  0.60690000  1.0 0.03953761
C  C69  1  0.17200000  0.44830000  0.60510000  1.0 -0.1367915286
C  C70  1  0.21730000  0.43150000  0.51650000  1.0 -0.1332667559
C  C71  1  0.12180000  0.40640000  0.42700000  1.0 0.051190997
C  C72  1  0.16170000  0.38900000  0.33300000  1.0 -0.081511037
C  C73  1  0.06690000  0.36700000  0.25140000  1.0 -0.1367915286
C  C74  1  0.92910000  0.35940000  0.26100000  1.0 0.0923368265
C  C75  1  0.97850000  0.39640000  0.42860000  1.0 0.1387636201
C  C76  1  0.47790000  0.20920000  0.06070000  1.0 0.5925585166
C  C77  1  0.38690000  0.26240000  0.01650000  1.0 -0.0046854307
C  C78  1  0.37870000  0.31320000  0.07570000  1.0 -0.0405025273
C  C79  1  0.28130000  0.35630000  0.03640000  1.0 -0.0910468451
C  C80  1  0.18900000  0.35130000  0.93660000  1.0 -0.1881800978
C  C81  1  0.20000000  0.30000000  0.87930000  1.0 0.1387636201
C  C82  1  0.29660000  0.25750000  0.91380000  1.0 -0.1881800978
C  C83  1  0.47910000  0.32300000  0.18090000  1.0 0.5677307383
C  C84  1  0.96090000  0.29550000  0.76670000  1.0 -0.0125179896
C  C85  1  0.86820000  0.29090000  0.67540000  1.0 -0.2425894863
C  C86  1  0.91660000  0.28380000  0.58110000  1.0 0.3958272175
C  C87  1  0.06210000  0.27870000  0.59230000  1.0 -0.2894185945
C  C88  1  0.15140000  0.28450000  0.69070000  1.0 0.0227822843
C  C89  1  0.93350000  0.08460000  0.01980000  1.0 0.1207851831
C  C90  1  0.74870000  0.07590000  0.10110000  1.0 0.1207851831
C  C91  1  0.83750000  0.04870000  0.18750000  1.0 -0.1367915286
C  C92  1  0.97580000  0.04160000  0.19040000  1.0 -0.0910468451
C  C93  1  0.02770000  0.05810000  0.10690000  1.0 0.03953761
C  C94  1  0.17200000  0.05170000  0.10510000  1.0 -0.1367915286
C  C95  1  0.21730000  0.06850000  0.01650000  1.0 -0.1332667559
C  C96  1  0.12180000  0.09360000  0.92700000  1.0 0.051190997
C  C97  1  0.16170000  0.11100000  0.83300000  1.0 -0.081511037
C  C98  1  0.06690000  0.13300000  0.75140000  1.0 -0.1367915286
C  C99  1  0.92910000  0.14060000  0.76100000  1.0 0.0923368265
C  C100  1  0.97850000  0.10360000  0.92860000  1.0 0.1387636201
N  N1  1  0.89760000  0.70680000  0.22250000  1.0 0.0306336307
N  N2  1  0.20580000  0.90740000  0.98140000  1.0 -0.3752778335
N  N3  1  0.11470000  0.87290000  0.15300000  1.0 -0.3412786885
N  N4  1  0.46520000  0.95630000  0.16840000  1.0 0.6713477359
N  N5  1  0.89760000  0.79320000  0.72250000  1.0 0.0306336307
N  N6  1  0.20580000  0.59260000  0.48140000  1.0 -0.3752778335
N  N7  1  0.11470000  0.62710000  0.65300000  1.0 -0.3412786885
N  N8  1  0.46520000  0.54370000  0.66840000  1.0 0.6713477359
N  N9  1  0.10240000  0.20680000  0.27750000  1.0 0.0306336307
N  N10  1  0.79420000  0.40740000  0.51860000  1.0 -0.3752778335
N  N11  1  0.88530000  0.37290000  0.34700000  1.0 -0.3412786885
N  N12  1  0.53480000  0.45630000  0.33160000  1.0 0.6713477359
N  N13  1  0.10240000  0.29320000  0.77750000  1.0 0.0306336307
N  N14  1  0.79420000  0.09260000  0.01860000  1.0 -0.3739437326
N  N15  1  0.88530000  0.12710000  0.84700000  1.0 -0.3412786885
N  N16  1  0.53480000  0.04370000  0.83160000  1.0 0.6713477359
O  O1  1  0.46530000  0.81800000  0.99830000  1.0 -0.5905966226
O  O2  1  0.51280000  0.80280000  0.84590000  1.0 -0.5135903968
O  O3  1  0.39010000  0.67560000  0.81270000  1.0 -0.5905966226
O  O4  1  0.57040000  0.66960000  0.74140000  1.0 -0.5905966226
O  O5  1  0.16970000  0.71720000  0.51300000  1.0 -0.6242575511
O  O6  1  0.49350000  0.92850000  0.09430000  1.0 -0.4283890552
O  O7  1  0.38030000  0.93490000  0.21560000  1.0 -0.4283890552
O  O8  1  0.51810000  0.00450000  0.19370000  1.0 -0.3491547122
O  O9  1  0.36230000  0.73640000  0.15900000  1.0 -0.7369018062
O  O10  1  0.46530000  0.68200000  0.49830000  1.0 -0.5905966226
O  O11  1  0.51280000  0.69720000  0.34590000  1.0 -0.5135903968
O  O12  1  0.39010000  0.82440000  0.31270000  1.0 -0.5905966226
O  O13  1  0.57040000  0.83040000  0.24140000  1.0 -0.5905966226
O  O14  1  0.16970000  0.78280000  0.01300000  1.0 -0.6242575511
O  O15  1  0.49350000  0.57150000  0.59430000  1.0 -0.4283890552
O  O16  1  0.38030000  0.56510000  0.71560000  1.0 -0.4283890552
O  O17  1  0.51810000  0.49550000  0.69370000  1.0 -0.3491547122
O  O18  1  0.36230000  0.76360000  0.65900000  1.0 -0.7369018062
O  O19  1  0.53470000  0.31800000  0.50170000  1.0 -0.5905966226
O  O20  1  0.48720000  0.30280000  0.65410000  1.0 -0.5135903968
O  O21  1  0.60990000  0.17560000  0.68730000  1.0 -0.5905966226
O  O22  1  0.42960000  0.16960000  0.75860000  1.0 -0.5905966226
O  O23  1  0.83030000  0.21720000  0.98700000  1.0 -0.6242575511
O  O24  1  0.50650000  0.42850000  0.40570000  1.0 -0.4283890552
O  O25  1  0.61970000  0.43490000  0.28440000  1.0 -0.4283890552
O  O26  1  0.48190000  0.50450000  0.30630000  1.0 -0.3491547122
O  O27  1  0.63770000  0.23640000  0.34100000  1.0 -0.7369018062
O  O28  1  0.53470000  0.18200000  0.00170000  1.0 -0.5905966226
O  O29  1  0.48720000  0.19720000  0.15410000  1.0 -0.5135903968
O  O30  1  0.60990000  0.32440000  0.18730000  1.0 -0.5905966226
O  O31  1  0.42960000  0.33040000  0.25860000  1.0 -0.5905966226
O  O32  1  0.83030000  0.28280000  0.48700000  1.0 -0.6242575511
O  O33  1  0.50650000  0.07150000  0.90570000  1.0 -0.4283890552
O  O34  1  0.61970000  0.06510000  0.78440000  1.0 -0.4283890552
O  O35  1  0.48190000  0.99550000  0.80630000  1.0 -0.3491547122
O  O36  1  0.63770000  0.26360000  0.84100000  1.0 -0.7369018062
