# DDEC6 charges by PACMAN v1.1 (https://github.com/mtap-research/PACMAN-charge/)
data_FABGOG_ASR_pacman
_symmetry_space_group_name_H-M   'P 1'
_cell_length_a   12.72310000
_cell_length_b   12.72310000
_cell_length_c   16.48120000
_cell_angle_alpha   90.00000000
_cell_angle_beta   90.00000000
_cell_angle_gamma   120.00000000
_symmetry_Int_Tables_number   1
_chemical_formula_structural   Cu2H15C18(NO)6
_chemical_formula_sum   'Cu8 H60 C72 N24 O24'
_cell_volume   2310.49664666
_cell_formula_units_Z   4
loop_
 _symmetry_equiv_pos_site_id
 _symmetry_equiv_pos_as_xyz
  1  'x, y, z'
loop_
 _atom_site_type_symbol
 _atom_site_label
 _atom_site_symmetry_multiplicity
 _atom_site_fract_x
 _atom_site_fract_y
 _atom_site_fract_z
 _atom_site_occupancy
 _atom_site_charge
Cu  Cu1  1  0.48886000  0.97771000  0.25000000  1.0 0.7426718766
Cu  Cu2  1  0.51114000  0.48885000  0.75000000  1.0 0.7426718766
Cu  Cu3  1  0.02229000  0.51114000  0.25000000  1.0 0.7426718766
Cu  Cu4  1  0.51114000  0.02229000  0.75000000  1.0 0.7426718766
Cu  Cu5  1  0.48886000  0.51114000  0.25000000  1.0 0.7426718766
Cu  Cu6  1  0.97771000  0.48885000  0.75000000  1.0 0.7426718766
Cu  Cu7  1  0.66666667  0.33333333  0.25000000  1.0 1.0279507036
Cu  Cu8  1  0.33333333  0.66666667  0.75000000  1.0 1.0279507036
H  H1  1  0.24700000  0.14500000  0.92870000  1.0 0.2762500191
H  H2  1  0.10200000  0.24700000  0.42870000  1.0 0.2762500191
H  H3  1  0.85500000  0.10200000  0.92870000  1.0 0.2762500191
H  H4  1  0.75300000  0.85500000  0.42870000  1.0 0.2762500191
H  H5  1  0.89800000  0.75300000  0.92870000  1.0 0.2762500191
H  H6  1  0.14500000  0.89800000  0.42870000  1.0 0.2762500191
H  H7  1  0.10200000  0.85500000  0.07130000  1.0 0.2762500191
H  H8  1  0.75300000  0.89800000  0.07130000  1.0 0.2762500191
H  H9  1  0.14500000  0.24700000  0.07130000  1.0 0.2762500191
H  H10  1  0.85500000  0.75300000  0.57130000  1.0 0.2762500191
H  H11  1  0.89800000  0.14500000  0.57130000  1.0 0.2762500191
H  H12  1  0.24700000  0.10200000  0.57130000  1.0 0.2762500191
H  H13  1  0.26500000  0.24920000  0.80430000  1.0 0.1082916403
H  H14  1  0.01580000  0.26500000  0.30430000  1.0 0.1082916403
H  H15  1  0.75080000  0.01580000  0.80430000  1.0 0.1082916403
H  H16  1  0.73500000  0.75080000  0.30430000  1.0 0.1082916403
H  H17  1  0.98420000  0.73500000  0.80430000  1.0 0.1082916403
H  H18  1  0.24920000  0.98420000  0.30430000  1.0 0.1082916403
H  H19  1  0.01580000  0.75080000  0.19570000  1.0 0.1082916403
H  H20  1  0.73500000  0.98420000  0.19570000  1.0 0.1082916403
H  H21  1  0.24920000  0.26500000  0.19570000  1.0 0.1082916403
H  H22  1  0.75080000  0.73500000  0.69570000  1.0 0.1082916403
H  H23  1  0.98420000  0.24920000  0.69570000  1.0 0.1082916403
H  H24  1  0.26500000  0.01580000  0.69570000  1.0 0.1082916403
H  H25  1  0.57450000  0.43160000  0.92510000  1.0 0.1306927851
H  H26  1  0.14290000  0.57450000  0.42510000  1.0 0.1306927851
H  H27  1  0.56840000  0.14290000  0.92510000  1.0 0.1306927851
H  H28  1  0.42550000  0.56840000  0.42510000  1.0 0.1306927851
H  H29  1  0.85710000  0.42550000  0.92510000  1.0 0.1306927851
H  H30  1  0.43160000  0.85710000  0.42510000  1.0 0.1306927851
H  H31  1  0.14290000  0.56840000  0.07490000  1.0 0.1306927851
H  H32  1  0.42550000  0.85710000  0.07490000  1.0 0.1306927851
H  H33  1  0.43160000  0.57450000  0.07490000  1.0 0.1306927851
H  H34  1  0.56840000  0.42550000  0.57490000  1.0 0.1306927851
H  H35  1  0.85710000  0.43160000  0.57490000  1.0 0.1306927851
H  H36  1  0.57450000  0.14290000  0.57490000  1.0 0.1306927851
H  H37  1  0.52320000  0.29200000  0.05730000  1.0 0.1306927851
H  H38  1  0.23120000  0.52320000  0.55730000  1.0 0.1306927851
H  H39  1  0.70800000  0.23120000  0.05730000  1.0 0.1306927851
H  H40  1  0.47680000  0.70800000  0.55730000  1.0 0.1306927851
H  H41  1  0.76880000  0.47680000  0.05730000  1.0 0.1306927851
H  H42  1  0.29200000  0.76880000  0.55730000  1.0 0.1306927851
H  H43  1  0.23120000  0.70800000  0.94270000  1.0 0.1306927851
H  H44  1  0.47680000  0.76880000  0.94270000  1.0 0.1306927851
H  H45  1  0.29200000  0.52320000  0.94270000  1.0 0.1306927851
H  H46  1  0.70800000  0.47680000  0.44270000  1.0 0.1306927851
H  H47  1  0.76880000  0.29200000  0.44270000  1.0 0.1306927851
H  H48  1  0.52320000  0.23120000  0.44270000  1.0 0.1306927851
H  H49  1  0.30270000  0.07280000  0.05400000  1.0 0.1082916403
H  H50  1  0.22990000  0.30270000  0.55400000  1.0 0.1082916403
H  H51  1  0.92720000  0.22990000  0.05400000  1.0 0.1082916403
H  H52  1  0.69730000  0.92720000  0.55400000  1.0 0.1082916403
H  H53  1  0.77010000  0.69730000  0.05400000  1.0 0.1082916403
H  H54  1  0.07280000  0.77010000  0.55400000  1.0 0.1082916403
H  H55  1  0.22990000  0.92720000  0.94600000  1.0 0.1082916403
H  H56  1  0.69730000  0.77010000  0.94600000  1.0 0.1082916403
H  H57  1  0.07280000  0.30270000  0.94600000  1.0 0.1082916403
H  H58  1  0.92720000  0.69730000  0.44600000  1.0 0.1082916403
H  H59  1  0.77010000  0.07280000  0.44600000  1.0 0.1082916403
H  H60  1  0.30270000  0.22990000  0.44600000  1.0 0.1082916403
C  C1  1  0.32590000  0.27310000  0.84480000  1.0 0.1561384196
C  C2  1  0.05280000  0.32590000  0.34480000  1.0 0.1561384196
C  C3  1  0.72690000  0.05280000  0.84480000  1.0 0.1561384196
C  C4  1  0.67410000  0.72690000  0.34480000  1.0 0.1561384196
C  C5  1  0.94720000  0.67410000  0.84480000  1.0 0.1561384196
C  C6  1  0.27310000  0.94720000  0.34480000  1.0 0.1561384196
C  C7  1  0.05280000  0.72690000  0.15520000  1.0 0.1561384196
C  C8  1  0.67410000  0.94720000  0.15520000  1.0 0.1561384196
C  C9  1  0.27310000  0.32590000  0.15520000  1.0 0.1561384196
C  C10  1  0.72690000  0.67410000  0.65520000  1.0 0.1561384196
C  C11  1  0.94720000  0.27310000  0.65520000  1.0 0.1561384196
C  C12  1  0.32590000  0.05280000  0.65520000  1.0 0.1561384196
C  C13  1  0.49410000  0.37160000  0.91090000  1.0 -0.1106656757
C  C14  1  0.12250000  0.49410000  0.41090000  1.0 -0.1106656757
C  C15  1  0.62840000  0.12250000  0.91090000  1.0 -0.1106656757
C  C16  1  0.50590000  0.62840000  0.41090000  1.0 -0.1106656757
C  C17  1  0.87750000  0.50590000  0.91090000  1.0 -0.1106656757
C  C18  1  0.37160000  0.87750000  0.41090000  1.0 -0.1106656757
C  C19  1  0.12250000  0.62840000  0.08910000  1.0 -0.1106656757
C  C20  1  0.50590000  0.87750000  0.08910000  1.0 -0.1106656757
C  C21  1  0.37160000  0.49410000  0.08910000  1.0 -0.1106656757
C  C22  1  0.62840000  0.50590000  0.58910000  1.0 -0.1106656757
C  C23  1  0.87750000  0.37160000  0.58910000  1.0 -0.1106656757
C  C24  1  0.49410000  0.12250000  0.58910000  1.0 -0.1106656757
C  C25  1  0.41980000  0.27420000  0.95670000  1.0 0.1428548937
C  C26  1  0.14560000  0.41980000  0.45670000  1.0 0.1428548937
C  C27  1  0.72580000  0.14560000  0.95670000  1.0 0.1428548937
C  C28  1  0.58020000  0.72580000  0.45670000  1.0 0.1428548937
C  C29  1  0.85440000  0.58020000  0.95670000  1.0 0.1428548937
C  C30  1  0.27420000  0.85440000  0.45670000  1.0 0.1428548937
C  C31  1  0.14560000  0.72580000  0.04330000  1.0 0.1428548937
C  C32  1  0.58020000  0.85440000  0.04330000  1.0 0.1428548937
C  C33  1  0.27420000  0.41980000  0.04330000  1.0 0.1428548937
C  C34  1  0.72580000  0.58020000  0.54330000  1.0 0.1428548937
C  C35  1  0.85440000  0.27420000  0.54330000  1.0 0.1428548937
C  C36  1  0.41980000  0.14560000  0.54330000  1.0 0.1428548937
C  C37  1  0.44860000  0.23550000  0.03250000  1.0 -0.1320430362
C  C38  1  0.21310000  0.44860000  0.53250000  1.0 -0.1320430362
C  C39  1  0.76450000  0.21310000  0.03250000  1.0 -0.1320430362
C  C40  1  0.55140000  0.76450000  0.53250000  1.0 -0.1320430362
C  C41  1  0.78690000  0.55140000  0.03250000  1.0 -0.1320430362
C  C42  1  0.23550000  0.78690000  0.53250000  1.0 -0.1320430362
C  C43  1  0.21310000  0.76450000  0.96750000  1.0 -0.1320430362
C  C44  1  0.55140000  0.78690000  0.96750000  1.0 -0.1320430362
C  C45  1  0.23550000  0.44860000  0.96750000  1.0 -0.1320430362
C  C46  1  0.76450000  0.55140000  0.46750000  1.0 -0.1320430362
C  C47  1  0.78690000  0.23550000  0.46750000  1.0 -0.1320430362
C  C48  1  0.44860000  0.21310000  0.46750000  1.0 -0.1320430362
C  C49  1  0.38240000  0.12910000  0.07210000  1.0 -0.2773620641
C  C50  1  0.25330000  0.38240000  0.57210000  1.0 -0.2773620641
C  C51  1  0.87090000  0.25330000  0.07210000  1.0 -0.2773620641
C  C52  1  0.61760000  0.87090000  0.57210000  1.0 -0.2773620641
C  C53  1  0.74670000  0.61760000  0.07210000  1.0 -0.2773620641
C  C54  1  0.12910000  0.74670000  0.57210000  1.0 -0.2773620641
C  C55  1  0.25330000  0.87090000  0.92790000  1.0 -0.2773620641
C  C56  1  0.61760000  0.74670000  0.92790000  1.0 -0.2773620641
C  C57  1  0.12910000  0.38240000  0.92790000  1.0 -0.2773620641
C  C58  1  0.87090000  0.61760000  0.42790000  1.0 -0.2773620641
C  C59  1  0.74670000  0.12910000  0.42790000  1.0 -0.2773620641
C  C60  1  0.38240000  0.25330000  0.42790000  1.0 -0.2773620641
C  C61  1  0.43410000  0.10020000  0.14370000  1.0 0.5990385408
C  C62  1  0.33390000  0.43410000  0.64370000  1.0 0.5990385408
C  C63  1  0.89980000  0.33390000  0.14370000  1.0 0.5990385408
C  C64  1  0.56590000  0.89980000  0.64370000  1.0 0.5990385408
C  C65  1  0.66610000  0.56590000  0.14370000  1.0 0.5990385408
C  C66  1  0.10020000  0.66610000  0.64370000  1.0 0.5990385408
C  C67  1  0.33390000  0.89980000  0.85630000  1.0 0.5990385408
C  C68  1  0.56590000  0.66610000  0.85630000  1.0 0.5990385408
C  C69  1  0.10020000  0.43410000  0.85630000  1.0 0.5990385408
C  C70  1  0.89980000  0.56590000  0.35630000  1.0 0.5990385408
C  C71  1  0.66610000  0.10020000  0.35630000  1.0 0.5990385408
C  C72  1  0.43410000  0.33390000  0.35630000  1.0 0.5990385408
N  N1  1  0.43480000  0.37070000  0.84000000  1.0 -0.2883414185
N  N2  1  0.06410000  0.43480000  0.34000000  1.0 -0.2883414185
N  N3  1  0.62930000  0.06410000  0.84000000  1.0 -0.2883414185
N  N4  1  0.56520000  0.62930000  0.34000000  1.0 -0.2883414185
N  N5  1  0.93590000  0.56520000  0.84000000  1.0 -0.2883414185
N  N6  1  0.37070000  0.93590000  0.34000000  1.0 -0.2883414185
N  N7  1  0.06410000  0.62930000  0.16000000  1.0 -0.2883414185
N  N8  1  0.56520000  0.93590000  0.16000000  1.0 -0.2883414185
N  N9  1  0.37070000  0.43480000  0.16000000  1.0 -0.2883414185
N  N10  1  0.62930000  0.56520000  0.66000000  1.0 -0.2883414185
N  N11  1  0.93590000  0.37070000  0.66000000  1.0 -0.2883414185
N  N12  1  0.43480000  0.06410000  0.66000000  1.0 -0.2883414185
N  N13  1  0.31240000  0.21230000  0.91350000  1.0 -0.2423612928
N  N14  1  0.10010000  0.31240000  0.41350000  1.0 -0.2423612928
N  N15  1  0.78770000  0.10010000  0.91350000  1.0 -0.2423612928
N  N16  1  0.68760000  0.78770000  0.41350000  1.0 -0.2423612928
N  N17  1  0.89990000  0.68760000  0.91350000  1.0 -0.2423612928
N  N18  1  0.21230000  0.89990000  0.41350000  1.0 -0.2423612928
N  N19  1  0.10010000  0.78770000  0.08650000  1.0 -0.2423612928
N  N20  1  0.68760000  0.89990000  0.08650000  1.0 -0.2423612928
N  N21  1  0.21230000  0.31240000  0.08650000  1.0 -0.2423612928
N  N22  1  0.78770000  0.68760000  0.58650000  1.0 -0.2423612928
N  N23  1  0.89990000  0.21230000  0.58650000  1.0 -0.2423612928
N  N24  1  0.31240000  0.10010000  0.58650000  1.0 -0.2423612928
O  O1  1  0.37700000  0.99320000  0.17220000  1.0 -0.5466508125
O  O2  1  0.38380000  0.37700000  0.67220000  1.0 -0.5466508125
O  O3  1  0.00680000  0.38380000  0.17220000  1.0 -0.5466508125
O  O4  1  0.62300000  0.00680000  0.67220000  1.0 -0.5466508125
O  O5  1  0.61620000  0.62300000  0.17220000  1.0 -0.5466508125
O  O6  1  0.99320000  0.61620000  0.67220000  1.0 -0.5466508125
O  O7  1  0.38380000  0.00680000  0.82780000  1.0 -0.5466508125
O  O8  1  0.62300000  0.61620000  0.82780000  1.0 -0.5466508125
O  O9  1  0.99320000  0.37700000  0.82780000  1.0 -0.5466508125
O  O10  1  0.00680000  0.62300000  0.32780000  1.0 -0.5466508125
O  O11  1  0.61620000  0.99320000  0.32780000  1.0 -0.5466508125
O  O12  1  0.37700000  0.38380000  0.32780000  1.0 -0.5466508125
O  O13  1  0.53360000  0.17950000  0.17050000  1.0 -0.59748748
O  O14  1  0.35410000  0.53360000  0.67050000  1.0 -0.59748748
O  O15  1  0.82050000  0.35410000  0.17050000  1.0 -0.59748748
O  O16  1  0.46640000  0.82050000  0.67050000  1.0 -0.59748748
O  O17  1  0.64590000  0.46640000  0.17050000  1.0 -0.59748748
O  O18  1  0.17950000  0.64590000  0.67050000  1.0 -0.59748748
O  O19  1  0.35410000  0.82050000  0.82950000  1.0 -0.59748748
O  O20  1  0.46640000  0.64590000  0.82950000  1.0 -0.59748748
O  O21  1  0.17950000  0.53360000  0.82950000  1.0 -0.59748748
O  O22  1  0.82050000  0.46640000  0.32950000  1.0 -0.59748748
O  O23  1  0.64590000  0.17950000  0.32950000  1.0 -0.59748748
O  O24  1  0.53360000  0.35410000  0.32950000  1.0 -0.59748748
