# DDEC6 charges by PACMAN v1.1 (https://github.com/mtap-research/PACMAN-charge/)
data_FAHTUE_FSR_pacman
_symmetry_space_group_name_H-M   'P 1'
_cell_length_a   15.28800000
_cell_length_b   15.28800000
_cell_length_c   15.66300000
_cell_angle_alpha   90.00000000
_cell_angle_beta   90.00000000
_cell_angle_gamma   120.00000000
_symmetry_Int_Tables_number   1
_chemical_formula_structural   Eu2Mn3H18C42(NO5)6
_chemical_formula_sum   'Eu4 Mn6 H36 C84 N12 O60'
_cell_volume   3170.34793888
_cell_formula_units_Z   2
loop_
 _symmetry_equiv_pos_site_id
 _symmetry_equiv_pos_as_xyz
  1  'x, y, z'
loop_
 _atom_site_type_symbol
 _atom_site_label
 _atom_site_symmetry_multiplicity
 _atom_site_fract_x
 _atom_site_fract_y
 _atom_site_fract_z
 _atom_site_occupancy
 _atom_site_charge
Eu  Eu1  1  0.33333333  0.66666667  0.25000000  1.0 1.8175302385
Eu  Eu2  1  0.66666667  0.33333333  0.25000000  1.0 1.8175302385
Eu  Eu3  1  0.66666667  0.33333333  0.75000000  1.0 1.8175302385
Eu  Eu4  1  0.33333333  0.66666667  0.75000000  1.0 1.8175302385
Mn  Mn1  1  0.50000000  0.00000000  0.00000000  1.0 1.1130369742
Mn  Mn2  1  0.00000000  0.50000000  0.00000000  1.0 1.1130369742
Mn  Mn3  1  0.50000000  0.50000000  0.00000000  1.0 1.1130369742
Mn  Mn4  1  0.00000000  0.50000000  0.50000000  1.0 1.1130369742
Mn  Mn5  1  0.50000000  0.00000000  0.50000000  1.0 1.1130369742
Mn  Mn6  1  0.50000000  0.50000000  0.50000000  1.0 1.1130369742
H  H1  1  0.71147000  0.76750000  0.15710000  1.0 0.1320913224
H  H2  1  0.23250000  0.94397000  0.15710000  1.0 0.1320913224
H  H3  1  0.05603000  0.28853000  0.15710000  1.0 0.1320913224
H  H4  1  0.76750000  0.05603000  0.15710000  1.0 0.1320913224
H  H5  1  0.94397000  0.71147000  0.15710000  1.0 0.1320913224
H  H6  1  0.76750000  0.71147000  0.34290000  1.0 0.1320913224
H  H7  1  0.05603000  0.76750000  0.34290000  1.0 0.1320913224
H  H8  1  0.71147000  0.94397000  0.34290000  1.0 0.1320913224
H  H9  1  0.28853000  0.23250000  0.15710000  1.0 0.1320913224
H  H10  1  0.94397000  0.23250000  0.34290000  1.0 0.1320913224
H  H11  1  0.28853000  0.05603000  0.34290000  1.0 0.1320913224
H  H12  1  0.23250000  0.28853000  0.34290000  1.0 0.1320913224
H  H13  1  0.28853000  0.23250000  0.84290000  1.0 0.1320913224
H  H14  1  0.76750000  0.05603000  0.84290000  1.0 0.1320913224
H  H15  1  0.94397000  0.71147000  0.84290000  1.0 0.1320913224
H  H16  1  0.23250000  0.94397000  0.84290000  1.0 0.1320913224
H  H17  1  0.05603000  0.28853000  0.84290000  1.0 0.1320913224
H  H18  1  0.23250000  0.28853000  0.65710000  1.0 0.1320913224
H  H19  1  0.94397000  0.23250000  0.65710000  1.0 0.1320913224
H  H20  1  0.28853000  0.05603000  0.65710000  1.0 0.1320913224
H  H21  1  0.71147000  0.76750000  0.84290000  1.0 0.1320913224
H  H22  1  0.05603000  0.76750000  0.65710000  1.0 0.1320913224
H  H23  1  0.71147000  0.94397000  0.65710000  1.0 0.1320913224
H  H24  1  0.76750000  0.71147000  0.65710000  1.0 0.1320913224
H  H25  1  0.79907000  0.89953000  0.25000000  1.0 0.1083598821
H  H26  1  0.10047000  0.89953000  0.25000000  1.0 0.1083598821
H  H27  1  0.10047000  0.20093000  0.25000000  1.0 0.1083598821
H  H28  1  0.89953000  0.10047000  0.25000000  1.0 0.1083598821
H  H29  1  0.89953000  0.79907000  0.25000000  1.0 0.1083598821
H  H30  1  0.20093000  0.10047000  0.25000000  1.0 0.1083598821
H  H31  1  0.20093000  0.10047000  0.75000000  1.0 0.1083598821
H  H32  1  0.89953000  0.10047000  0.75000000  1.0 0.1083598821
H  H33  1  0.89953000  0.79907000  0.75000000  1.0 0.1083598821
H  H34  1  0.10047000  0.89953000  0.75000000  1.0 0.1083598821
H  H35  1  0.10047000  0.20093000  0.75000000  1.0 0.1083598821
H  H36  1  0.79907000  0.89953000  0.75000000  1.0 0.1083598821
C  C1  1  0.57397000  0.73620000  0.19670000  1.0 0.0981787233
C  C2  1  0.26380000  0.83777000  0.19670000  1.0 0.0981787233
C  C3  1  0.16223000  0.42603000  0.19670000  1.0 0.0981787233
C  C4  1  0.73620000  0.16223000  0.19670000  1.0 0.0981787233
C  C5  1  0.83777000  0.57397000  0.19670000  1.0 0.0981787233
C  C6  1  0.73620000  0.57397000  0.30330000  1.0 0.0981787233
C  C7  1  0.16223000  0.73620000  0.30330000  1.0 0.0981787233
C  C8  1  0.57397000  0.83777000  0.30330000  1.0 0.0981787233
C  C9  1  0.42603000  0.26380000  0.19670000  1.0 0.0981787233
C  C10  1  0.83777000  0.26380000  0.30330000  1.0 0.0981787233
C  C11  1  0.42603000  0.16223000  0.30330000  1.0 0.0981787233
C  C12  1  0.26380000  0.42603000  0.30330000  1.0 0.0981787233
C  C13  1  0.42603000  0.26380000  0.80330000  1.0 0.0981787233
C  C14  1  0.73620000  0.16223000  0.80330000  1.0 0.0981787233
C  C15  1  0.83777000  0.57397000  0.80330000  1.0 0.0981787233
C  C16  1  0.26380000  0.83777000  0.80330000  1.0 0.0981787233
C  C17  1  0.16223000  0.42603000  0.80330000  1.0 0.0981787233
C  C18  1  0.26380000  0.42603000  0.69670000  1.0 0.0981787233
C  C19  1  0.83777000  0.26380000  0.69670000  1.0 0.0981787233
C  C20  1  0.42603000  0.16223000  0.69670000  1.0 0.0981787233
C  C21  1  0.57397000  0.73620000  0.80330000  1.0 0.0981787233
C  C22  1  0.16223000  0.73620000  0.69670000  1.0 0.0981787233
C  C23  1  0.57397000  0.83777000  0.69670000  1.0 0.0981787233
C  C24  1  0.73620000  0.57397000  0.69670000  1.0 0.0981787233
C  C25  1  0.67717000  0.78640000  0.19510000  1.0 -0.1529612006
C  C26  1  0.21360000  0.89077000  0.19510000  1.0 -0.1529612006
C  C27  1  0.10923000  0.32283000  0.19510000  1.0 -0.1529612006
C  C28  1  0.78640000  0.10923000  0.19510000  1.0 -0.1529612006
C  C29  1  0.89077000  0.67717000  0.19510000  1.0 -0.1529612006
C  C30  1  0.78640000  0.67717000  0.30490000  1.0 -0.1529612006
C  C31  1  0.10923000  0.78640000  0.30490000  1.0 -0.1529612006
C  C32  1  0.67717000  0.89077000  0.30490000  1.0 -0.1529612006
C  C33  1  0.32283000  0.21360000  0.19510000  1.0 -0.1529612006
C  C34  1  0.89077000  0.21360000  0.30490000  1.0 -0.1529612006
C  C35  1  0.32283000  0.10923000  0.30490000  1.0 -0.1529612006
C  C36  1  0.21360000  0.32283000  0.30490000  1.0 -0.1529612006
C  C37  1  0.32283000  0.21360000  0.80490000  1.0 -0.1529612006
C  C38  1  0.78640000  0.10923000  0.80490000  1.0 -0.1529612006
C  C39  1  0.89077000  0.67717000  0.80490000  1.0 -0.1529612006
C  C40  1  0.21360000  0.89077000  0.80490000  1.0 -0.1529612006
C  C41  1  0.10923000  0.32283000  0.80490000  1.0 -0.1529612006
C  C42  1  0.21360000  0.32283000  0.69510000  1.0 -0.1529612006
C  C43  1  0.89077000  0.21360000  0.69510000  1.0 -0.1529612006
C  C44  1  0.32283000  0.10923000  0.69510000  1.0 -0.1529612006
C  C45  1  0.67717000  0.78640000  0.80490000  1.0 -0.1529612006
C  C46  1  0.10923000  0.78640000  0.69510000  1.0 -0.1529612006
C  C47  1  0.67717000  0.89077000  0.69510000  1.0 -0.1529612006
C  C48  1  0.78640000  0.67717000  0.69510000  1.0 -0.1529612006
C  C49  1  0.72887000  0.86443000  0.25000000  1.0 -0.0640066951
C  C50  1  0.13557000  0.86443000  0.25000000  1.0 -0.0640066951
C  C51  1  0.13557000  0.27113000  0.25000000  1.0 -0.0640066951
C  C52  1  0.86443000  0.13557000  0.25000000  1.0 -0.0640066951
C  C53  1  0.86443000  0.72887000  0.25000000  1.0 -0.0640066951
C  C54  1  0.27113000  0.13557000  0.25000000  1.0 -0.0640066951
C  C55  1  0.27113000  0.13557000  0.75000000  1.0 -0.0640066951
C  C56  1  0.86443000  0.13557000  0.75000000  1.0 -0.0640066951
C  C57  1  0.86443000  0.72887000  0.75000000  1.0 -0.0640066951
C  C58  1  0.13557000  0.86443000  0.75000000  1.0 -0.0640066951
C  C59  1  0.13557000  0.27113000  0.75000000  1.0 -0.0640066951
C  C60  1  0.72887000  0.86443000  0.75000000  1.0 -0.0640066951
C  C61  1  0.50957000  0.86120000  0.36000000  1.0 0.5300125716
C  C62  1  0.13880000  0.64837000  0.36000000  1.0 0.5300125716
C  C63  1  0.35163000  0.49043000  0.36000000  1.0 0.5300125716
C  C64  1  0.86120000  0.35163000  0.36000000  1.0 0.5300125716
C  C65  1  0.64837000  0.50957000  0.36000000  1.0 0.5300125716
C  C66  1  0.86120000  0.50957000  0.14000000  1.0 0.5300125716
C  C67  1  0.35163000  0.86120000  0.14000000  1.0 0.5300125716
C  C68  1  0.50957000  0.64837000  0.14000000  1.0 0.5300125716
C  C69  1  0.49043000  0.13880000  0.36000000  1.0 0.5300125716
C  C70  1  0.64837000  0.13880000  0.14000000  1.0 0.5300125716
C  C71  1  0.49043000  0.35163000  0.14000000  1.0 0.5300125716
C  C72  1  0.13880000  0.49043000  0.14000000  1.0 0.5300125716
C  C73  1  0.49043000  0.13880000  0.64000000  1.0 0.5300125716
C  C74  1  0.86120000  0.35163000  0.64000000  1.0 0.5300125716
C  C75  1  0.64837000  0.50957000  0.64000000  1.0 0.5300125716
C  C76  1  0.13880000  0.64837000  0.64000000  1.0 0.5300125716
C  C77  1  0.35163000  0.49043000  0.64000000  1.0 0.5300125716
C  C78  1  0.13880000  0.49043000  0.86000000  1.0 0.5300125716
C  C79  1  0.64837000  0.13880000  0.86000000  1.0 0.5300125716
C  C80  1  0.49043000  0.35163000  0.86000000  1.0 0.5300125716
C  C81  1  0.50957000  0.86120000  0.64000000  1.0 0.5300125716
C  C82  1  0.35163000  0.86120000  0.86000000  1.0 0.5300125716
C  C83  1  0.50957000  0.64837000  0.86000000  1.0 0.5300125716
C  C84  1  0.86120000  0.50957000  0.86000000  1.0 0.5300125716
N  N1  1  0.52251000  0.76125000  0.25000000  1.0 -0.3384327353
N  N2  1  0.23875000  0.76125000  0.25000000  1.0 -0.3384327353
N  N3  1  0.23875000  0.47749000  0.25000000  1.0 -0.3384327353
N  N4  1  0.76125000  0.23875000  0.25000000  1.0 -0.3384327353
N  N5  1  0.76125000  0.52251000  0.25000000  1.0 -0.3384327353
N  N6  1  0.47749000  0.23875000  0.25000000  1.0 -0.3384327353
N  N7  1  0.47749000  0.23875000  0.75000000  1.0 -0.3384327353
N  N8  1  0.76125000  0.23875000  0.75000000  1.0 -0.3384327353
N  N9  1  0.76125000  0.52251000  0.75000000  1.0 -0.3384327353
N  N10  1  0.23875000  0.76125000  0.75000000  1.0 -0.3384327353
N  N11  1  0.23875000  0.47749000  0.75000000  1.0 -0.3384327353
N  N12  1  0.52251000  0.76125000  0.75000000  1.0 -0.3384327353
O  O1  1  0.41467000  0.80120000  0.35635000  1.0 -0.5736624362
O  O2  1  0.19880000  0.61347000  0.35635000  1.0 -0.5736624362
O  O3  1  0.38653000  0.58533000  0.35635000  1.0 -0.5736624362
O  O4  1  0.80120000  0.38653000  0.35635000  1.0 -0.5736624362
O  O5  1  0.61347000  0.41467000  0.35635000  1.0 -0.5736624362
O  O6  1  0.80120000  0.41467000  0.14365000  1.0 -0.5736624362
O  O7  1  0.38653000  0.80120000  0.14365000  1.0 -0.5736624362
O  O8  1  0.41467000  0.61347000  0.14365000  1.0 -0.5736624362
O  O9  1  0.58533000  0.19880000  0.35635000  1.0 -0.5736624362
O  O10  1  0.61347000  0.19880000  0.14365000  1.0 -0.5736624362
O  O11  1  0.58533000  0.38653000  0.14365000  1.0 -0.5736624362
O  O12  1  0.19880000  0.58533000  0.14365000  1.0 -0.5736624362
O  O13  1  0.58533000  0.19880000  0.64365000  1.0 -0.5736624362
O  O14  1  0.80120000  0.38653000  0.64365000  1.0 -0.5736624362
O  O15  1  0.61347000  0.41467000  0.64365000  1.0 -0.5736624362
O  O16  1  0.19880000  0.61347000  0.64365000  1.0 -0.5736624362
O  O17  1  0.38653000  0.58533000  0.64365000  1.0 -0.5736624362
O  O18  1  0.19880000  0.58533000  0.85635000  1.0 -0.5736624362
O  O19  1  0.61347000  0.19880000  0.85635000  1.0 -0.5736624362
O  O20  1  0.58533000  0.38653000  0.85635000  1.0 -0.5736624362
O  O21  1  0.41467000  0.80120000  0.64365000  1.0 -0.5736624362
O  O22  1  0.38653000  0.80120000  0.85635000  1.0 -0.5736624362
O  O23  1  0.41467000  0.61347000  0.85635000  1.0 -0.5736624362
O  O24  1  0.80120000  0.41467000  0.85635000  1.0 -0.5736624362
O  O25  1  0.38437000  0.93670000  0.90620000  1.0 -0.5462343232
O  O26  1  0.06330000  0.44767000  0.90620000  1.0 -0.5462343232
O  O27  1  0.55233000  0.61563000  0.90620000  1.0 -0.5462343232
O  O28  1  0.93670000  0.55233000  0.90620000  1.0 -0.5462343232
O  O29  1  0.44767000  0.38437000  0.90620000  1.0 -0.5462343232
O  O30  1  0.93670000  0.38437000  0.59380000  1.0 -0.5462343232
O  O31  1  0.55233000  0.93670000  0.59380000  1.0 -0.5462343232
O  O32  1  0.38437000  0.44767000  0.59380000  1.0 -0.5462343232
O  O33  1  0.61563000  0.06330000  0.90620000  1.0 -0.5462343232
O  O34  1  0.44767000  0.06330000  0.59380000  1.0 -0.5462343232
O  O35  1  0.61563000  0.55233000  0.59380000  1.0 -0.5462343232
O  O36  1  0.06330000  0.61563000  0.59380000  1.0 -0.5462343232
O  O37  1  0.61563000  0.06330000  0.09380000  1.0 -0.5462343232
O  O38  1  0.93670000  0.55233000  0.09380000  1.0 -0.5462343232
O  O39  1  0.44767000  0.38437000  0.09380000  1.0 -0.5462343232
O  O40  1  0.06330000  0.44767000  0.09380000  1.0 -0.5462343232
O  O41  1  0.55233000  0.61563000  0.09380000  1.0 -0.5462343232
O  O42  1  0.06330000  0.61563000  0.40620000  1.0 -0.5462343232
O  O43  1  0.44767000  0.06330000  0.40620000  1.0 -0.5462343232
O  O44  1  0.61563000  0.55233000  0.40620000  1.0 -0.5462343232
O  O45  1  0.38437000  0.93670000  0.09380000  1.0 -0.5462343232
O  O46  1  0.55233000  0.93670000  0.40620000  1.0 -0.5462343232
O  O47  1  0.38437000  0.44767000  0.40620000  1.0 -0.5462343232
O  O48  1  0.93670000  0.38437000  0.40620000  1.0 -0.5462343232
O  O49  1  0.49137000  0.14340000  0.00000000  1.0 0.1568683337
O  O50  1  0.85660000  0.34797000  0.00000000  1.0 0.1568683337
O  O51  1  0.65203000  0.50863000  0.00000000  1.0 0.1568683337
O  O52  1  0.14340000  0.65203000  0.00000000  1.0 0.1568683337
O  O53  1  0.34797000  0.49137000  0.00000000  1.0 0.1568683337
O  O54  1  0.14340000  0.49137000  0.50000000  1.0 0.1568683337
O  O55  1  0.65203000  0.14340000  0.50000000  1.0 0.1568683337
O  O56  1  0.49137000  0.34797000  0.50000000  1.0 0.1568683337
O  O57  1  0.50863000  0.85660000  0.00000000  1.0 0.1568683337
O  O58  1  0.34797000  0.85660000  0.50000000  1.0 0.1568683337
O  O59  1  0.50863000  0.65203000  0.50000000  1.0 0.1568683337
O  O60  1  0.85660000  0.50863000  0.50000000  1.0 0.1568683337
