# DDEC6 charges by PACMAN v1.1 (https://github.com/mtap-research/PACMAN-charge/)
data_FAHVAM_FSR_pacman
_symmetry_space_group_name_H-M   'P 1'
_cell_length_a   15.35100000
_cell_length_b   15.35100000
_cell_length_c   15.81200000
_cell_angle_alpha   90.00000000
_cell_angle_beta   90.00000000
_cell_angle_gamma   120.00000000
_symmetry_Int_Tables_number   1
_chemical_formula_structural   Tb2Mn3H18C42(NO5)6
_chemical_formula_sum   'Tb4 Mn6 H36 C84 N12 O60'
_cell_volume   3226.93918498
_cell_formula_units_Z   2
loop_
 _symmetry_equiv_pos_site_id
 _symmetry_equiv_pos_as_xyz
  1  'x, y, z'
loop_
 _atom_site_type_symbol
 _atom_site_label
 _atom_site_symmetry_multiplicity
 _atom_site_fract_x
 _atom_site_fract_y
 _atom_site_fract_z
 _atom_site_occupancy
 _atom_site_charge
Tb  Tb1  1  0.66666667  0.33333333  0.25000000  1.0 1.7848309032
Tb  Tb2  1  0.33333333  0.66666667  0.25000000  1.0 1.7848309032
Tb  Tb3  1  0.33333333  0.66666667  0.75000000  1.0 1.7848309032
Tb  Tb4  1  0.66666667  0.33333333  0.75000000  1.0 1.7848309032
Mn  Mn1  1  0.50000000  0.50000000  0.00000000  1.0 1.1201750886
Mn  Mn2  1  0.50000000  0.00000000  0.00000000  1.0 1.1201750886
Mn  Mn3  1  0.00000000  0.50000000  0.00000000  1.0 1.1201750886
Mn  Mn4  1  0.50000000  0.50000000  0.50000000  1.0 1.1201750886
Mn  Mn5  1  0.00000000  0.50000000  0.50000000  1.0 1.1201750886
Mn  Mn6  1  0.50000000  0.00000000  0.50000000  1.0 1.1201750886
H  H1  1  0.29130000  0.23350000  0.15620000  1.0 0.1297379635
H  H2  1  0.76650000  0.05780000  0.15620000  1.0 0.1297379635
H  H3  1  0.94220000  0.70870000  0.15620000  1.0 0.1297379635
H  H4  1  0.23350000  0.94220000  0.15620000  1.0 0.1297379635
H  H5  1  0.05780000  0.29130000  0.15620000  1.0 0.1297379635
H  H6  1  0.23350000  0.29130000  0.34380000  1.0 0.1297379635
H  H7  1  0.94220000  0.23350000  0.34380000  1.0 0.1297379635
H  H8  1  0.29130000  0.05780000  0.34380000  1.0 0.1297379635
H  H9  1  0.70870000  0.76650000  0.15620000  1.0 0.1297379635
H  H10  1  0.05780000  0.76650000  0.34380000  1.0 0.1297379635
H  H11  1  0.70870000  0.94220000  0.34380000  1.0 0.1297379635
H  H12  1  0.76650000  0.70870000  0.34380000  1.0 0.1297379635
H  H13  1  0.70870000  0.76650000  0.84380000  1.0 0.1297379635
H  H14  1  0.23350000  0.94220000  0.84380000  1.0 0.1297379635
H  H15  1  0.05780000  0.29130000  0.84380000  1.0 0.1297379635
H  H16  1  0.76650000  0.05780000  0.84380000  1.0 0.1297379635
H  H17  1  0.94220000  0.70870000  0.84380000  1.0 0.1297379635
H  H18  1  0.76650000  0.70870000  0.65620000  1.0 0.1297379635
H  H19  1  0.05780000  0.76650000  0.65620000  1.0 0.1297379635
H  H20  1  0.70870000  0.94220000  0.65620000  1.0 0.1297379635
H  H21  1  0.29130000  0.23350000  0.84380000  1.0 0.1297379635
H  H22  1  0.94220000  0.23350000  0.65620000  1.0 0.1297379635
H  H23  1  0.29130000  0.05780000  0.65620000  1.0 0.1297379635
H  H24  1  0.23350000  0.29130000  0.65620000  1.0 0.1297379635
H  H25  1  0.20250000  0.10125000  0.25000000  1.0 0.1029031576
H  H26  1  0.89875000  0.10125000  0.25000000  1.0 0.1029031576
H  H27  1  0.89875000  0.79750000  0.25000000  1.0 0.1029031576
H  H28  1  0.10125000  0.89875000  0.25000000  1.0 0.1029031576
H  H29  1  0.10125000  0.20250000  0.25000000  1.0 0.1029031576
H  H30  1  0.79750000  0.89875000  0.25000000  1.0 0.1029031576
H  H31  1  0.79750000  0.89875000  0.75000000  1.0 0.1029031576
H  H32  1  0.10125000  0.89875000  0.75000000  1.0 0.1029031576
H  H33  1  0.10125000  0.20250000  0.75000000  1.0 0.1029031576
H  H34  1  0.89875000  0.10125000  0.75000000  1.0 0.1029031576
H  H35  1  0.89875000  0.79750000  0.75000000  1.0 0.1029031576
H  H36  1  0.20250000  0.10125000  0.75000000  1.0 0.1029031576
C  C1  1  0.49385000  0.35265000  0.13999000  1.0 0.530615931
C  C2  1  0.64735000  0.14120000  0.13999000  1.0 0.530615931
C  C3  1  0.85880000  0.50615000  0.13999000  1.0 0.530615931
C  C4  1  0.35265000  0.85880000  0.13999000  1.0 0.530615931
C  C5  1  0.14120000  0.49385000  0.13999000  1.0 0.530615931
C  C6  1  0.35265000  0.49385000  0.36001000  1.0 0.530615931
C  C7  1  0.85880000  0.35265000  0.36001000  1.0 0.530615931
C  C8  1  0.49385000  0.14120000  0.36001000  1.0 0.530615931
C  C9  1  0.50615000  0.64735000  0.13999000  1.0 0.530615931
C  C10  1  0.14120000  0.64735000  0.36001000  1.0 0.530615931
C  C11  1  0.50615000  0.85880000  0.36001000  1.0 0.530615931
C  C12  1  0.64735000  0.50615000  0.36001000  1.0 0.530615931
C  C13  1  0.50615000  0.64735000  0.86001000  1.0 0.530615931
C  C14  1  0.35265000  0.85880000  0.86001000  1.0 0.530615931
C  C15  1  0.14120000  0.49385000  0.86001000  1.0 0.530615931
C  C16  1  0.64735000  0.14120000  0.86001000  1.0 0.530615931
C  C17  1  0.85880000  0.50615000  0.86001000  1.0 0.530615931
C  C18  1  0.64735000  0.50615000  0.63999000  1.0 0.530615931
C  C19  1  0.14120000  0.64735000  0.63999000  1.0 0.530615931
C  C20  1  0.50615000  0.85880000  0.63999000  1.0 0.530615931
C  C21  1  0.49385000  0.35265000  0.86001000  1.0 0.530615931
C  C22  1  0.85880000  0.35265000  0.63999000  1.0 0.530615931
C  C23  1  0.49385000  0.14120000  0.63999000  1.0 0.530615931
C  C24  1  0.35265000  0.49385000  0.63999000  1.0 0.530615931
C  C25  1  0.42750000  0.26544000  0.19739000  1.0 0.1029031576
C  C26  1  0.73456000  0.16206000  0.19739000  1.0 0.1029031576
C  C27  1  0.83794000  0.57250000  0.19739000  1.0 0.1029031576
C  C28  1  0.26544000  0.83794000  0.19739000  1.0 0.1029031576
C  C29  1  0.16206000  0.42750000  0.19739000  1.0 0.1029031576
C  C30  1  0.26544000  0.42750000  0.30261000  1.0 0.1029031576
C  C31  1  0.83794000  0.26544000  0.30261000  1.0 0.1029031576
C  C32  1  0.42750000  0.16206000  0.30261000  1.0 0.1029031576
C  C33  1  0.57250000  0.73456000  0.19739000  1.0 0.1029031576
C  C34  1  0.16206000  0.73456000  0.30261000  1.0 0.1029031576
C  C35  1  0.57250000  0.83794000  0.30261000  1.0 0.1029031576
C  C36  1  0.73456000  0.57250000  0.30261000  1.0 0.1029031576
C  C37  1  0.57250000  0.73456000  0.80261000  1.0 0.1029031576
C  C38  1  0.26544000  0.83794000  0.80261000  1.0 0.1029031576
C  C39  1  0.16206000  0.42750000  0.80261000  1.0 0.1029031576
C  C40  1  0.73456000  0.16206000  0.80261000  1.0 0.1029031576
C  C41  1  0.83794000  0.57250000  0.80261000  1.0 0.1029031576
C  C42  1  0.73456000  0.57250000  0.69739000  1.0 0.1029031576
C  C43  1  0.16206000  0.73456000  0.69739000  1.0 0.1029031576
C  C44  1  0.57250000  0.83794000  0.69739000  1.0 0.1029031576
C  C45  1  0.42750000  0.26544000  0.80261000  1.0 0.1029031576
C  C46  1  0.83794000  0.26544000  0.69739000  1.0 0.1029031576
C  C47  1  0.42750000  0.16206000  0.69739000  1.0 0.1029031576
C  C48  1  0.26544000  0.42750000  0.69739000  1.0 0.1029031576
C  C49  1  0.32513000  0.21513000  0.19464000  1.0 -0.1474966802
C  C50  1  0.78487000  0.11000000  0.19464000  1.0 -0.1474966802
C  C51  1  0.89000000  0.67487000  0.19464000  1.0 -0.1474966802
C  C52  1  0.21513000  0.89000000  0.19464000  1.0 -0.1474966802
C  C53  1  0.11000000  0.32513000  0.19464000  1.0 -0.1474966802
C  C54  1  0.21513000  0.32513000  0.30536000  1.0 -0.1474966802
C  C55  1  0.89000000  0.21513000  0.30536000  1.0 -0.1474966802
C  C56  1  0.32513000  0.11000000  0.30536000  1.0 -0.1474966802
C  C57  1  0.67487000  0.78487000  0.19464000  1.0 -0.1474966802
C  C58  1  0.11000000  0.78487000  0.30536000  1.0 -0.1474966802
C  C59  1  0.67487000  0.89000000  0.30536000  1.0 -0.1474966802
C  C60  1  0.78487000  0.67487000  0.30536000  1.0 -0.1474966802
C  C61  1  0.67487000  0.78487000  0.80536000  1.0 -0.1474966802
C  C62  1  0.21513000  0.89000000  0.80536000  1.0 -0.1474966802
C  C63  1  0.11000000  0.32513000  0.80536000  1.0 -0.1474966802
C  C64  1  0.78487000  0.11000000  0.80536000  1.0 -0.1474966802
C  C65  1  0.89000000  0.67487000  0.80536000  1.0 -0.1474966802
C  C66  1  0.78487000  0.67487000  0.69464000  1.0 -0.1474966802
C  C67  1  0.11000000  0.78487000  0.69464000  1.0 -0.1474966802
C  C68  1  0.67487000  0.89000000  0.69464000  1.0 -0.1474966802
C  C69  1  0.32513000  0.21513000  0.80536000  1.0 -0.1474966802
C  C70  1  0.89000000  0.21513000  0.69464000  1.0 -0.1474966802
C  C71  1  0.32513000  0.11000000  0.69464000  1.0 -0.1474966802
C  C72  1  0.21513000  0.32513000  0.69464000  1.0 -0.1474966802
C  C73  1  0.27244000  0.13622000  0.25000000  1.0 -0.0680273981
C  C74  1  0.86378000  0.13622000  0.25000000  1.0 -0.0680273981
C  C75  1  0.86378000  0.72756000  0.25000000  1.0 -0.0680273981
C  C76  1  0.13622000  0.86378000  0.25000000  1.0 -0.0680273981
C  C77  1  0.13622000  0.27244000  0.25000000  1.0 -0.0680273981
C  C78  1  0.72756000  0.86378000  0.25000000  1.0 -0.0680273981
C  C79  1  0.72756000  0.86378000  0.75000000  1.0 -0.0680273981
C  C80  1  0.13622000  0.86378000  0.75000000  1.0 -0.0680273981
C  C81  1  0.13622000  0.27244000  0.75000000  1.0 -0.0680273981
C  C82  1  0.86378000  0.13622000  0.75000000  1.0 -0.0680273981
C  C83  1  0.86378000  0.72756000  0.75000000  1.0 -0.0680273981
C  C84  1  0.27244000  0.13622000  0.75000000  1.0 -0.0680273981
N  N1  1  0.47923000  0.23961000  0.25000000  1.0 -0.3495506593
N  N2  1  0.76038000  0.23961000  0.25000000  1.0 -0.3495506593
N  N3  1  0.76038000  0.52077000  0.25000000  1.0 -0.3495506593
N  N4  1  0.23961000  0.76038000  0.25000000  1.0 -0.3495506593
N  N5  1  0.23961000  0.47923000  0.25000000  1.0 -0.3495506593
N  N6  1  0.52077000  0.76038000  0.25000000  1.0 -0.3495506593
N  N7  1  0.52077000  0.76038000  0.75000000  1.0 -0.3495506593
N  N8  1  0.23961000  0.76038000  0.75000000  1.0 -0.3495506593
N  N9  1  0.23961000  0.47923000  0.75000000  1.0 -0.3495506593
N  N10  1  0.76038000  0.23961000  0.75000000  1.0 -0.3495506593
N  N11  1  0.76038000  0.52077000  0.75000000  1.0 -0.3495506593
N  N12  1  0.47923000  0.23961000  0.75000000  1.0 -0.3495506593
O  O1  1  0.44922000  0.38422000  0.09331000  1.0 -0.5604834977
O  O2  1  0.61578000  0.06500000  0.09331000  1.0 -0.5604834977
O  O3  1  0.93500000  0.55078000  0.09331000  1.0 -0.5604834977
O  O4  1  0.38422000  0.93500000  0.09331000  1.0 -0.5604834977
O  O5  1  0.06500000  0.44922000  0.09331000  1.0 -0.5604834977
O  O6  1  0.38422000  0.44922000  0.40669000  1.0 -0.5604834977
O  O7  1  0.93500000  0.38422000  0.40669000  1.0 -0.5604834977
O  O8  1  0.44922000  0.06500000  0.40669000  1.0 -0.5604834977
O  O9  1  0.55078000  0.61578000  0.09331000  1.0 -0.5604834977
O  O10  1  0.06500000  0.61578000  0.40669000  1.0 -0.5604834977
O  O11  1  0.55078000  0.93500000  0.40669000  1.0 -0.5604834977
O  O12  1  0.61578000  0.55078000  0.40669000  1.0 -0.5604834977
O  O13  1  0.55078000  0.61578000  0.90669000  1.0 -0.5604834977
O  O14  1  0.38422000  0.93500000  0.90669000  1.0 -0.5604834977
O  O15  1  0.06500000  0.44922000  0.90669000  1.0 -0.5604834977
O  O16  1  0.61578000  0.06500000  0.90669000  1.0 -0.5604834977
O  O17  1  0.93500000  0.55078000  0.90669000  1.0 -0.5604834977
O  O18  1  0.61578000  0.55078000  0.59331000  1.0 -0.5604834977
O  O19  1  0.06500000  0.61578000  0.59331000  1.0 -0.5604834977
O  O20  1  0.55078000  0.93500000  0.59331000  1.0 -0.5604834977
O  O21  1  0.44922000  0.38422000  0.90669000  1.0 -0.5604834977
O  O22  1  0.93500000  0.38422000  0.59331000  1.0 -0.5604834977
O  O23  1  0.44922000  0.06500000  0.59331000  1.0 -0.5604834977
O  O24  1  0.38422000  0.44922000  0.59331000  1.0 -0.5604834977
O  O25  1  0.58720000  0.38758000  0.14458000  1.0 -0.5604834977
O  O26  1  0.61242000  0.19962000  0.14458000  1.0 -0.5604834977
O  O27  1  0.80038000  0.41280000  0.14458000  1.0 -0.5604834977
O  O28  1  0.38758000  0.80038000  0.14458000  1.0 -0.5604834977
O  O29  1  0.19962000  0.58720000  0.14458000  1.0 -0.5604834977
O  O30  1  0.38758000  0.58720000  0.35542000  1.0 -0.5604834977
O  O31  1  0.80038000  0.38758000  0.35542000  1.0 -0.5604834977
O  O32  1  0.58720000  0.19962000  0.35542000  1.0 -0.5604834977
O  O33  1  0.41280000  0.61242000  0.14458000  1.0 -0.5604834977
O  O34  1  0.19962000  0.61242000  0.35542000  1.0 -0.5604834977
O  O35  1  0.41280000  0.80038000  0.35542000  1.0 -0.5604834977
O  O36  1  0.61242000  0.41280000  0.35542000  1.0 -0.5604834977
O  O37  1  0.41280000  0.61242000  0.85542000  1.0 -0.5604834977
O  O38  1  0.38758000  0.80038000  0.85542000  1.0 -0.5604834977
O  O39  1  0.19962000  0.58720000  0.85542000  1.0 -0.5604834977
O  O40  1  0.61242000  0.19962000  0.85542000  1.0 -0.5604834977
O  O41  1  0.80038000  0.41280000  0.85542000  1.0 -0.5604834977
O  O42  1  0.61242000  0.41280000  0.64458000  1.0 -0.5604834977
O  O43  1  0.19962000  0.61242000  0.64458000  1.0 -0.5604834977
O  O44  1  0.41280000  0.80038000  0.64458000  1.0 -0.5604834977
O  O45  1  0.58720000  0.38758000  0.85542000  1.0 -0.5604834977
O  O46  1  0.80038000  0.38758000  0.64458000  1.0 -0.5604834977
O  O47  1  0.58720000  0.19962000  0.64458000  1.0 -0.5604834977
O  O48  1  0.38758000  0.58720000  0.64458000  1.0 -0.5604834977
O  O49  1  0.65349000  0.50911000  0.00000000  1.0 0.1700569679
O  O50  1  0.49089000  0.14438000  0.00000000  1.0 0.1700569679
O  O51  1  0.85562000  0.34651000  0.00000000  1.0 0.1700569679
O  O52  1  0.50911000  0.85562000  0.00000000  1.0 0.1700569679
O  O53  1  0.14438000  0.65349000  0.00000000  1.0 0.1700569679
O  O54  1  0.50911000  0.65349000  0.50000000  1.0 0.1700569679
O  O55  1  0.85562000  0.50911000  0.50000000  1.0 0.1700569679
O  O56  1  0.65349000  0.14438000  0.50000000  1.0 0.1700569679
O  O57  1  0.34651000  0.49089000  0.00000000  1.0 0.1700569679
O  O58  1  0.14438000  0.49089000  0.50000000  1.0 0.1700569679
O  O59  1  0.34651000  0.85562000  0.50000000  1.0 0.1700569679
O  O60  1  0.49089000  0.34651000  0.50000000  1.0 0.1700569679
