# DDEC6 charges by PACMAN v1.1 (https://github.com/mtap-research/PACMAN-charge/)
data_FAKLIO_ASR_pacman
_symmetry_space_group_name_H-M   'P 1'
_cell_length_a   13.01580000
_cell_length_b   13.01580000
_cell_length_c   10.85320000
_cell_angle_alpha   90.00000000
_cell_angle_beta   90.00000000
_cell_angle_gamma   120.00000000
_symmetry_Int_Tables_number   1
_chemical_formula_structural   MnH6(C3N)6
_chemical_formula_sum   'Mn2 H12 C36 N12'
_cell_volume   1592.31934414
_cell_formula_units_Z   2
loop_
 _symmetry_equiv_pos_site_id
 _symmetry_equiv_pos_as_xyz
  1  'x, y, z'
loop_
 _atom_site_type_symbol
 _atom_site_label
 _atom_site_symmetry_multiplicity
 _atom_site_fract_x
 _atom_site_fract_y
 _atom_site_fract_z
 _atom_site_occupancy
 _atom_site_charge
Mn  Mn1  1  0.66666667  0.33333333  0.00000000  1.0 0.9548440631
Mn  Mn2  1  0.33333333  0.66666667  0.00000000  1.0 0.956808513
H  H1  1  0.39000000  0.57020000  0.39540000  1.0 0.1207951884
H  H2  1  0.42980000  0.81980000  0.39540000  1.0 0.1207951884
H  H3  1  0.18020000  0.61000000  0.39540000  1.0 0.1207951884
H  H4  1  0.42980000  0.61000000  0.60460000  1.0 0.1207951884
H  H5  1  0.39000000  0.81980000  0.60460000  1.0 0.1207951884
H  H6  1  0.18020000  0.57020000  0.60460000  1.0 0.1207951884
H  H7  1  0.61000000  0.42980000  0.60460000  1.0 0.1207951884
H  H8  1  0.57020000  0.18020000  0.60460000  1.0 0.1207951884
H  H9  1  0.81980000  0.39000000  0.60460000  1.0 0.1207951884
H  H10  1  0.57020000  0.39000000  0.39540000  1.0 0.1207951884
H  H11  1  0.61000000  0.18020000  0.39540000  1.0 0.1207951884
H  H12  1  0.81980000  0.42980000  0.39540000  1.0 0.1207951884
C  C1  1  0.49650000  0.39150000  0.17420000  1.0 0.30959867
C  C2  1  0.60850000  0.10500000  0.17420000  1.0 0.30959867
C  C3  1  0.89500000  0.50350000  0.17420000  1.0 0.30959867
C  C4  1  0.60850000  0.50350000  0.82580000  1.0 0.30959867
C  C5  1  0.49650000  0.10500000  0.82580000  1.0 0.30959867
C  C6  1  0.89500000  0.39150000  0.82580000  1.0 0.30959867
C  C7  1  0.50350000  0.60850000  0.82580000  1.0 0.30959867
C  C8  1  0.39150000  0.89500000  0.82580000  1.0 0.30959867
C  C9  1  0.10500000  0.49650000  0.82580000  1.0 0.30959867
C  C10  1  0.39150000  0.49650000  0.17420000  1.0 0.30959867
C  C11  1  0.50350000  0.89500000  0.17420000  1.0 0.30959867
C  C12  1  0.10500000  0.60850000  0.17420000  1.0 0.30959867
C  C13  1  0.45400000  0.45400000  0.23950000  1.0 -0.1990798781
C  C14  1  0.54600000  0.00000000  0.23950000  1.0 -0.1990798781
C  C15  1  0.00000000  0.54600000  0.23950000  1.0 -0.1990798781
C  C16  1  0.54600000  0.54600000  0.76050000  1.0 -0.1990798781
C  C17  1  0.45400000  0.00000000  0.76050000  1.0 -0.1990798781
C  C18  1  0.00000000  0.45400000  0.76050000  1.0 -0.1990798781
C  C19  1  0.47770000  0.47770000  0.37360000  1.0 0.1250911733
C  C20  1  0.52230000  0.00000000  0.37360000  1.0 0.1250911733
C  C21  1  0.00000000  0.52230000  0.37360000  1.0 0.1250911733
C  C22  1  0.52230000  0.52230000  0.62640000  1.0 0.1250911733
C  C23  1  0.47770000  0.00000000  0.62640000  1.0 0.1250911733
C  C24  1  0.00000000  0.47770000  0.62640000  1.0 0.1250911733
C  C25  1  0.43500000  0.54200000  0.43770000  1.0 -0.1496212017
C  C26  1  0.45800000  0.89300000  0.43770000  1.0 -0.1496212017
C  C27  1  0.10700000  0.56500000  0.43770000  1.0 -0.1496212017
C  C28  1  0.45800000  0.56500000  0.56230000  1.0 -0.1496212017
C  C29  1  0.43500000  0.89300000  0.56230000  1.0 -0.1496212017
C  C30  1  0.10700000  0.54200000  0.56230000  1.0 -0.1496212017
C  C31  1  0.56500000  0.45800000  0.56230000  1.0 -0.1496212017
C  C32  1  0.54200000  0.10700000  0.56230000  1.0 -0.1496212017
C  C33  1  0.89300000  0.43500000  0.56230000  1.0 -0.1496212017
C  C34  1  0.54200000  0.43500000  0.43770000  1.0 -0.1496212017
C  C35  1  0.56500000  0.10700000  0.43770000  1.0 -0.1496212017
C  C36  1  0.89300000  0.45800000  0.43770000  1.0 -0.1496212017
N  N1  1  0.53240000  0.33940000  0.12000000  1.0 -0.4030826856
N  N2  1  0.66060000  0.19300000  0.12000000  1.0 -0.4030826856
N  N3  1  0.80700000  0.46760000  0.12000000  1.0 -0.4030826856
N  N4  1  0.66060000  0.46760000  0.88000000  1.0 -0.4030826856
N  N5  1  0.53240000  0.19300000  0.88000000  1.0 -0.4030826856
N  N6  1  0.80700000  0.33940000  0.88000000  1.0 -0.4030826856
N  N7  1  0.46760000  0.66060000  0.88000000  1.0 -0.4030826856
N  N8  1  0.33940000  0.80700000  0.88000000  1.0 -0.4030826856
N  N9  1  0.19300000  0.53240000  0.88000000  1.0 -0.4030826856
N  N10  1  0.33940000  0.53240000  0.12000000  1.0 -0.4030826856
N  N11  1  0.46760000  0.80700000  0.12000000  1.0 -0.4030826856
N  N12  1  0.19300000  0.66060000  0.12000000  1.0 -0.4030826856
