# DDEC6 charges by PACMAN v1.1 (https://github.com/mtap-research/PACMAN-charge/)
data_FAKLOU_ASR_pacman
_symmetry_space_group_name_H-M   'P 1'
_cell_length_a   12.95150000
_cell_length_b   12.95150000
_cell_length_c   10.88180000
_cell_angle_alpha   90.00000000
_cell_angle_beta   90.00000000
_cell_angle_gamma   120.00000000
_symmetry_Int_Tables_number   1
_chemical_formula_structural   CdH6(C3N)6
_chemical_formula_sum   'Cd2 H12 C36 N12'
_cell_volume   1580.78028566
_cell_formula_units_Z   2
loop_
 _symmetry_equiv_pos_site_id
 _symmetry_equiv_pos_as_xyz
  1  'x, y, z'
loop_
 _atom_site_type_symbol
 _atom_site_label
 _atom_site_symmetry_multiplicity
 _atom_site_fract_x
 _atom_site_fract_y
 _atom_site_fract_z
 _atom_site_occupancy
 _atom_site_charge
Cd  Cd1  1  0.33333333  0.66666667  0.50000000  1.0 0.9519957895
Cd  Cd2  1  0.66666667  0.33333333  0.50000000  1.0 0.9519957895
H  H1  1  0.43340000  0.61230000  0.10270000  1.0 0.1204809351
H  H2  1  0.38770000  0.82110000  0.10270000  1.0 0.1204809351
H  H3  1  0.38770000  0.56660000  0.89730000  1.0 0.1204809351
H  H4  1  0.17890000  0.56660000  0.10270000  1.0 0.1204809351
H  H5  1  0.43340000  0.82110000  0.89730000  1.0 0.1204809351
H  H6  1  0.17890000  0.61230000  0.89730000  1.0 0.1204809351
H  H7  1  0.56660000  0.38770000  0.89730000  1.0 0.1204809351
H  H8  1  0.61230000  0.17890000  0.89730000  1.0 0.1204809351
H  H9  1  0.61230000  0.43340000  0.10270000  1.0 0.1204809351
H  H10  1  0.82110000  0.43340000  0.89730000  1.0 0.1204809351
H  H11  1  0.56660000  0.17890000  0.10270000  1.0 0.1204809351
H  H12  1  0.82110000  0.38770000  0.10270000  1.0 0.1204809351
C  C1  1  0.55810000  0.55810000  0.25640000  1.0 -0.2160995905
C  C2  1  0.44190000  0.00000000  0.25640000  1.0 -0.2160995905
C  C3  1  0.44190000  0.44190000  0.74360000  1.0 -0.2160995905
C  C4  1  0.00000000  0.44190000  0.25640000  1.0 -0.2160995905
C  C5  1  0.55810000  0.00000000  0.74360000  1.0 -0.2160995905
C  C6  1  0.00000000  0.55810000  0.74360000  1.0 -0.2160995905
C  C7  1  0.52870000  0.52870000  0.12580000  1.0 0.1204809351
C  C8  1  0.47130000  0.00000000  0.12580000  1.0 0.1204809351
C  C9  1  0.47130000  0.47130000  0.87420000  1.0 0.1204809351
C  C10  1  0.00000000  0.47130000  0.12580000  1.0 0.1204809351
C  C11  1  0.52870000  0.00000000  0.87420000  1.0 0.1204809351
C  C12  1  0.00000000  0.52870000  0.87420000  1.0 0.1204809351
C  C13  1  0.46140000  0.56630000  0.06150000  1.0 -0.1474987931
C  C14  1  0.43370000  0.89510000  0.06150000  1.0 -0.1474987931
C  C15  1  0.43370000  0.53860000  0.93850000  1.0 -0.1474987931
C  C16  1  0.10490000  0.53860000  0.06150000  1.0 -0.1474987931
C  C17  1  0.46140000  0.89510000  0.93850000  1.0 -0.1474987931
C  C18  1  0.10490000  0.56630000  0.93850000  1.0 -0.1474987931
C  C19  1  0.53860000  0.43370000  0.93850000  1.0 -0.1474987931
C  C20  1  0.56630000  0.10490000  0.93850000  1.0 -0.1474987931
C  C21  1  0.56630000  0.46140000  0.06150000  1.0 -0.1474987931
C  C22  1  0.89510000  0.46140000  0.93850000  1.0 -0.1474987931
C  C23  1  0.53860000  0.10490000  0.06150000  1.0 -0.1474987931
C  C24  1  0.89510000  0.43370000  0.06150000  1.0 -0.1474987931
C  C25  1  0.51560000  0.62170000  0.32200000  1.0 0.3185446158
C  C26  1  0.37830000  0.89390000  0.32200000  1.0 0.3185446158
C  C27  1  0.37830000  0.48440000  0.67800000  1.0 0.3185446158
C  C28  1  0.10610000  0.48440000  0.32200000  1.0 0.3185446158
C  C29  1  0.51560000  0.89390000  0.67800000  1.0 0.3185446158
C  C30  1  0.10610000  0.62170000  0.67800000  1.0 0.3185446158
C  C31  1  0.48440000  0.37830000  0.67800000  1.0 0.3185446158
C  C32  1  0.62170000  0.10610000  0.67800000  1.0 0.3185446158
C  C33  1  0.62170000  0.51560000  0.32200000  1.0 0.3185446158
C  C34  1  0.89390000  0.51560000  0.67800000  1.0 0.3185446158
C  C35  1  0.48440000  0.10610000  0.32200000  1.0 0.3185446158
C  C36  1  0.89390000  0.37830000  0.32200000  1.0 0.3185446158
N  N1  1  0.48200000  0.67400000  0.37580000  1.0 -0.402383395
N  N2  1  0.32600000  0.80800000  0.37580000  1.0 -0.402383395
N  N3  1  0.32600000  0.51800000  0.62420000  1.0 -0.402383395
N  N4  1  0.19200000  0.51800000  0.37580000  1.0 -0.402383395
N  N5  1  0.48200000  0.80800000  0.62420000  1.0 -0.402383395
N  N6  1  0.19200000  0.67400000  0.62420000  1.0 -0.402383395
N  N7  1  0.51800000  0.32600000  0.62420000  1.0 -0.402383395
N  N8  1  0.67400000  0.19200000  0.62420000  1.0 -0.402383395
N  N9  1  0.67400000  0.48200000  0.37580000  1.0 -0.402383395
N  N10  1  0.80800000  0.48200000  0.62420000  1.0 -0.402383395
N  N11  1  0.51800000  0.19200000  0.37580000  1.0 -0.402383395
N  N12  1  0.80800000  0.32600000  0.37580000  1.0 -0.402383395
