# DDEC6 charges by PACMAN v1.1 (https://github.com/mtap-research/PACMAN-charge/)
data_FAKLUA_ASR_pacman
_symmetry_space_group_name_H-M   'P 1'
_cell_length_a   12.74470000
_cell_length_b   12.74470000
_cell_length_c   10.71070000
_cell_angle_alpha   90.00000000
_cell_angle_beta   90.00000000
_cell_angle_gamma   120.00000000
_symmetry_Int_Tables_number   1
_chemical_formula_structural   ZnH6(C3N)6
_chemical_formula_sum   'Zn2 H12 C36 N12'
_cell_volume   1506.63385067
_cell_formula_units_Z   2
loop_
 _symmetry_equiv_pos_site_id
 _symmetry_equiv_pos_as_xyz
  1  'x, y, z'
loop_
 _atom_site_type_symbol
 _atom_site_label
 _atom_site_symmetry_multiplicity
 _atom_site_fract_x
 _atom_site_fract_y
 _atom_site_fract_z
 _atom_site_occupancy
 _atom_site_charge
Zn  Zn1  1  0.33333333  0.66666667  0.00000000  1.0 0.9184441979
Zn  Zn2  1  0.66666667  0.33333333  0.00000000  1.0 0.9184441979
H  H1  1  0.42960000  0.61200000  0.39300000  1.0 0.1201845261
H  H2  1  0.38800000  0.81760000  0.39300000  1.0 0.1201845261
H  H3  1  0.38800000  0.57040000  0.60700000  1.0 0.1201845261
H  H4  1  0.18240000  0.57040000  0.39300000  1.0 0.1201845261
H  H5  1  0.42960000  0.81760000  0.60700000  1.0 0.1201845261
H  H6  1  0.18240000  0.61200000  0.60700000  1.0 0.1201845261
H  H7  1  0.57040000  0.38800000  0.60700000  1.0 0.1201845261
H  H8  1  0.61200000  0.18240000  0.60700000  1.0 0.1201845261
H  H9  1  0.61200000  0.42960000  0.39300000  1.0 0.1201845261
H  H10  1  0.81760000  0.42960000  0.60700000  1.0 0.1201845261
H  H11  1  0.57040000  0.18240000  0.39300000  1.0 0.1201845261
H  H12  1  0.81760000  0.38800000  0.39300000  1.0 0.1201845261
C  C1  1  0.55260000  0.55260000  0.23740000  1.0 -0.2008554325
C  C2  1  0.44740000  0.00000000  0.23740000  1.0 -0.2008554325
C  C3  1  0.44740000  0.44740000  0.76260000  1.0 -0.2008554325
C  C4  1  0.00000000  0.44740000  0.23740000  1.0 -0.2008554325
C  C5  1  0.55260000  0.00000000  0.76260000  1.0 -0.2008554325
C  C6  1  0.00000000  0.55260000  0.76260000  1.0 -0.2008554325
C  C7  1  0.52550000  0.52550000  0.37180000  1.0 0.1201845261
C  C8  1  0.47450000  0.00000000  0.37180000  1.0 0.1201845261
C  C9  1  0.47450000  0.47450000  0.62820000  1.0 0.1201845261
C  C10  1  0.00000000  0.47450000  0.37180000  1.0 0.1201845261
C  C11  1  0.52550000  0.00000000  0.62820000  1.0 0.1201845261
C  C12  1  0.00000000  0.52550000  0.62820000  1.0 0.1201845261
C  C13  1  0.45880000  0.56640000  0.43580000  1.0 -0.1433931177
C  C14  1  0.43360000  0.89240000  0.43580000  1.0 -0.1433931177
C  C15  1  0.43360000  0.54120000  0.56420000  1.0 -0.1433931177
C  C16  1  0.10760000  0.54120000  0.43580000  1.0 -0.1433931177
C  C17  1  0.45880000  0.89240000  0.56420000  1.0 -0.1433931177
C  C18  1  0.10760000  0.56640000  0.56420000  1.0 -0.1433931177
C  C19  1  0.54120000  0.43360000  0.56420000  1.0 -0.1433931177
C  C20  1  0.56640000  0.10760000  0.56420000  1.0 -0.1433931177
C  C21  1  0.56640000  0.45880000  0.43580000  1.0 -0.1433931177
C  C22  1  0.89240000  0.45880000  0.56420000  1.0 -0.1433931177
C  C23  1  0.54120000  0.10760000  0.43580000  1.0 -0.1433931177
C  C24  1  0.89240000  0.43360000  0.43580000  1.0 -0.1433931177
C  C25  1  0.50710000  0.61430000  0.16990000  1.0 0.3118970955
C  C26  1  0.38570000  0.89280000  0.16990000  1.0 0.3118970955
C  C27  1  0.38570000  0.49290000  0.83010000  1.0 0.3118970955
C  C28  1  0.10720000  0.49290000  0.16990000  1.0 0.3118970955
C  C29  1  0.50710000  0.89280000  0.83010000  1.0 0.3118970955
C  C30  1  0.10720000  0.61430000  0.83010000  1.0 0.3118970955
C  C31  1  0.49290000  0.38570000  0.83010000  1.0 0.3118970955
C  C32  1  0.61430000  0.10720000  0.83010000  1.0 0.3118970955
C  C33  1  0.61430000  0.50710000  0.16990000  1.0 0.3118970955
C  C34  1  0.89280000  0.50710000  0.83010000  1.0 0.3118970955
C  C35  1  0.49290000  0.10720000  0.16990000  1.0 0.3118970955
C  C36  1  0.89280000  0.38570000  0.16990000  1.0 0.3118970955
N  N1  1  0.46840000  0.66480000  0.11550000  1.0 -0.4014270838
N  N2  1  0.33520000  0.80360000  0.11550000  1.0 -0.4014270838
N  N3  1  0.33520000  0.53160000  0.88450000  1.0 -0.4014270838
N  N4  1  0.19640000  0.53160000  0.11550000  1.0 -0.4014270838
N  N5  1  0.46840000  0.80360000  0.88450000  1.0 -0.4014270838
N  N6  1  0.19640000  0.66480000  0.88450000  1.0 -0.4014270838
N  N7  1  0.53160000  0.33520000  0.88450000  1.0 -0.4014270838
N  N8  1  0.66480000  0.19640000  0.88450000  1.0 -0.4014270838
N  N9  1  0.66480000  0.46840000  0.11550000  1.0 -0.4014270838
N  N10  1  0.80360000  0.46840000  0.88450000  1.0 -0.4014270838
N  N11  1  0.53160000  0.19640000  0.11550000  1.0 -0.4014270838
N  N12  1  0.80360000  0.33520000  0.11550000  1.0 -0.4014270838
