# DDEC6 charges by PACMAN v1.1 (https://github.com/mtap-research/PACMAN-charge/)
data_FAKXOI_FSR_pacman
_symmetry_space_group_name_H-M   'P 1'
_cell_length_a   14.13900000
_cell_length_b   35.22500000
_cell_length_c   15.60000000
_cell_angle_alpha   90.00000000
_cell_angle_beta   111.94000000
_cell_angle_gamma   90.00000000
_symmetry_Int_Tables_number   1
_chemical_formula_structural   H7PbC16N3O4
_chemical_formula_sum   'H84 Pb12 C192 N36 O48'
_cell_volume   7206.81918691
_cell_formula_units_Z   12
loop_
 _symmetry_equiv_pos_site_id
 _symmetry_equiv_pos_as_xyz
  1  'x, y, z'
loop_
 _atom_site_type_symbol
 _atom_site_label
 _atom_site_symmetry_multiplicity
 _atom_site_fract_x
 _atom_site_fract_y
 _atom_site_fract_z
 _atom_site_occupancy
 _atom_site_charge
H  H1  1  0.18250000  0.24800000  0.88130000  1.0 0.0978453037
H  H2  1  0.11770000  0.19870000  0.57960000  1.0 0.1302627828
H  H3  1  0.06520000  0.32940000  0.62000000  1.0 0.1386840879
H  H4  1  0.09660000  0.33140000  0.29210000  1.0 0.1386840879
H  H5  1  0.04310000  0.34610000  0.14110000  1.0 0.1302627828
H  H6  1  0.85660000  0.25650000  0.07250000  1.0 0.1218239468
H  H7  1  0.90040000  0.24380000  0.23280000  1.0 0.1302627828
H  H8  1  0.41810000  0.24590000  0.83330000  1.0 0.0978453037
H  H9  1  0.35810000  0.28770000  0.52290000  1.0 0.1386840879
H  H10  1  0.29520000  0.15770000  0.57850000  1.0 0.1386840879
H  H11  1  0.12470000  0.24520000  0.18860000  1.0 0.1218239468
H  H12  1  0.06540000  0.23280000  0.03100000  1.0 0.1111222682
H  H13  1  0.24170000  0.14160000  0.07390000  1.0 0.1218239468
H  H14  1  0.30420000  0.15130000  0.23460000  1.0 0.1386840879
H  H15  1  0.33020000  0.32530000  0.86980000  1.0 0.1111222682
H  H16  1  0.41600000  0.42000000  0.69160000  1.0 0.1302627828
H  H17  1  0.11720000  0.43400000  0.75680000  1.0 0.1386840879
H  H18  1  0.22390000  0.50430000  0.42210000  1.0 0.1302627828
H  H19  1  0.18000000  0.55050000  0.31450000  1.0 0.1218239468
H  H20  1  0.04700000  0.61140000  0.46000000  1.0 0.1218239468
H  H21  1  0.10310000  0.56570000  0.57510000  1.0 0.1302627828
H  H22  1  0.31750000  0.74800000  0.11870000  1.0 0.0978453037
H  H23  1  0.38230000  0.69870000  0.42040000  1.0 0.1302627828
H  H24  1  0.43480000  0.82940000  0.38000000  1.0 0.1386840879
H  H25  1  0.40340000  0.83140000  0.70790000  1.0 0.1386840879
H  H26  1  0.45690000  0.84610000  0.85890000  1.0 0.1302627828
H  H27  1  0.64340000  0.75650000  0.92750000  1.0 0.1218239468
H  H28  1  0.59960000  0.74380000  0.76720000  1.0 0.1302627828
H  H29  1  0.08190000  0.74590000  0.16670000  1.0 0.0978453037
H  H30  1  0.14190000  0.78770000  0.47710000  1.0 0.1386840879
H  H31  1  0.20480000  0.65770000  0.42150000  1.0 0.1386840879
H  H32  1  0.37530000  0.74520000  0.81140000  1.0 0.1218239468
H  H33  1  0.43460000  0.73280000  0.96900000  1.0 0.1111222682
H  H34  1  0.25830000  0.64160000  0.92610000  1.0 0.1218239468
H  H35  1  0.19580000  0.65130000  0.76540000  1.0 0.1386840879
H  H36  1  0.16980000  0.82530000  0.13020000  1.0 0.1111222682
H  H37  1  0.08400000  0.92000000  0.30840000  1.0 0.1302627828
H  H38  1  0.38280000  0.93400000  0.24320000  1.0 0.1386840879
H  H39  1  0.27610000  0.00430000  0.57790000  1.0 0.1302627828
H  H40  1  0.32000000  0.05050000  0.68550000  1.0 0.1218239468
H  H41  1  0.45300000  0.11140000  0.54000000  1.0 0.1218239468
H  H42  1  0.39690000  0.06570000  0.42490000  1.0 0.1302627828
H  H43  1  0.81750000  0.75200000  0.11870000  1.0 0.0978453037
H  H44  1  0.88230000  0.80130000  0.42040000  1.0 0.1302627828
H  H45  1  0.93480000  0.67060000  0.38000000  1.0 0.1386840879
H  H46  1  0.90340000  0.66860000  0.70790000  1.0 0.1386840879
H  H47  1  0.95690000  0.65390000  0.85890000  1.0 0.1302627828
H  H48  1  0.14340000  0.74350000  0.92750000  1.0 0.1218239468
H  H49  1  0.09960000  0.75620000  0.76720000  1.0 0.1302627828
H  H50  1  0.58190000  0.75410000  0.16670000  1.0 0.0978453037
H  H51  1  0.64190000  0.71230000  0.47710000  1.0 0.1386840879
H  H52  1  0.70480000  0.84230000  0.42150000  1.0 0.1386840879
H  H53  1  0.87530000  0.75480000  0.81140000  1.0 0.1218239468
H  H54  1  0.93460000  0.76720000  0.96900000  1.0 0.1111222682
H  H55  1  0.75830000  0.85840000  0.92610000  1.0 0.1218239468
H  H56  1  0.69580000  0.84870000  0.76540000  1.0 0.1386840879
H  H57  1  0.66980000  0.67470000  0.13020000  1.0 0.1111222682
H  H58  1  0.58400000  0.58000000  0.30840000  1.0 0.1302627828
H  H59  1  0.88280000  0.56600000  0.24320000  1.0 0.1386840879
H  H60  1  0.77610000  0.49570000  0.57790000  1.0 0.1302627828
H  H61  1  0.82000000  0.44950000  0.68550000  1.0 0.1218239468
H  H62  1  0.95300000  0.38860000  0.54000000  1.0 0.1218239468
H  H63  1  0.89690000  0.43430000  0.42490000  1.0 0.1302627828
H  H64  1  0.68250000  0.25200000  0.88130000  1.0 0.0978453037
H  H65  1  0.61770000  0.30130000  0.57960000  1.0 0.1302627828
H  H66  1  0.56520000  0.17060000  0.62000000  1.0 0.1386840879
H  H67  1  0.59660000  0.16860000  0.29210000  1.0 0.1386840879
H  H68  1  0.54310000  0.15390000  0.14110000  1.0 0.1302627828
H  H69  1  0.35660000  0.24350000  0.07250000  1.0 0.1218239468
H  H70  1  0.40040000  0.25620000  0.23280000  1.0 0.1302627828
H  H71  1  0.91810000  0.25410000  0.83330000  1.0 0.0978453037
H  H72  1  0.85810000  0.21230000  0.52290000  1.0 0.1386840879
H  H73  1  0.79520000  0.34230000  0.57850000  1.0 0.1386840879
H  H74  1  0.62470000  0.25480000  0.18860000  1.0 0.1218239468
H  H75  1  0.56540000  0.26720000  0.03100000  1.0 0.1111222682
H  H76  1  0.74170000  0.35840000  0.07390000  1.0 0.1218239468
H  H77  1  0.80420000  0.34870000  0.23460000  1.0 0.1386840879
H  H78  1  0.83020000  0.17470000  0.86980000  1.0 0.1111222682
H  H79  1  0.91600000  0.08000000  0.69160000  1.0 0.1302627828
H  H80  1  0.61720000  0.06600000  0.75680000  1.0 0.1386840879
H  H81  1  0.72390000  0.99570000  0.42210000  1.0 0.1302627828
H  H82  1  0.68000000  0.94950000  0.31450000  1.0 0.1218239468
H  H83  1  0.54700000  0.88860000  0.46000000  1.0 0.1218239468
H  H84  1  0.60310000  0.93430000  0.57510000  1.0 0.1302627828
Pb  Pb1  1  0.09446000  0.34129000  0.86003000  1.0 0.8644135267
Pb  Pb2  1  0.28190000  0.16489000  0.80749000  1.0 0.9083098591
Pb  Pb3  1  0.48866000  0.32750000  0.73617000  1.0 0.8023069025
Pb  Pb4  1  0.40554000  0.84129000  0.13997000  1.0 0.8644135267
Pb  Pb5  1  0.21810000  0.66489000  0.19251000  1.0 0.9083098591
Pb  Pb6  1  0.01134000  0.82750000  0.26383000  1.0 0.8023069025
Pb  Pb7  1  0.90554000  0.65871000  0.13997000  1.0 0.8644135267
Pb  Pb8  1  0.71810000  0.83511000  0.19251000  1.0 0.9083098591
Pb  Pb9  1  0.51134000  0.67250000  0.26383000  1.0 0.8023069025
Pb  Pb10  1  0.59446000  0.15871000  0.86003000  1.0 0.8644135267
Pb  Pb11  1  0.78190000  0.33511000  0.80749000  1.0 0.9083098591
Pb  Pb12  1  0.98866000  0.17250000  0.73617000  1.0 0.8023069025
C  C1  1  0.16270000  0.25210000  0.81810000  1.0 0.1788101391
C  C2  1  0.12740000  0.24020000  0.67530000  1.0 0.1302627828
C  C3  1  0.11530000  0.27880000  0.68820000  1.0 0.1386840879
C  C4  1  0.10930000  0.22450000  0.58730000  1.0 -0.1907391465
C  C5  1  0.07880000  0.30400000  0.61270000  1.0 -0.1258552345
C  C6  1  0.07870000  0.24920000  0.51340000  1.0 -0.0992439819
C  C7  1  0.06450000  0.28880000  0.52790000  1.0 -0.0992439819
C  C8  1  0.05390000  0.24330000  0.41660000  1.0 0.4184982301
C  C9  1  0.02970000  0.30780000  0.44070000  1.0 0.4184982301
C  C10  1  0.00160000  0.28600000  0.27710000  1.0 0.2020547584
C  C11  1  0.04670000  0.31680000  0.24880000  1.0 -0.1548881858
C  C12  1  0.01660000  0.32450000  0.15840000  1.0 -0.0606634546
C  C13  1  0.95030000  0.30320000  0.09130000  1.0 -0.0703547891
C  C14  1  0.90370000  0.27170000  0.11720000  1.0 -0.0703547891
C  C15  1  0.93080000  0.26380000  0.21380000  1.0 -0.1794411072
C  C16  1  0.91810000  0.31420000  0.99430000  1.0 0.528816861
C  C17  1  0.39860000  0.24090000  0.77060000  1.0 0.1788101391
C  C18  1  0.36590000  0.24910000  0.62620000  1.0 0.1483962581
C  C19  1  0.34550000  0.21060000  0.63770000  1.0 0.1218239468
C  C20  1  0.34780000  0.26250000  0.53490000  1.0 -0.1676556143
C  C21  1  0.30920000  0.18280000  0.56840000  1.0 -0.1581805961
C  C22  1  0.31440000  0.23590000  0.46620000  1.0 -0.0606634546
C  C23  1  0.29720000  0.19800000  0.48310000  1.0 -0.0772095053
C  C24  1  0.28540000  0.24150000  0.36390000  1.0 0.4490714976
C  C25  1  0.25010000  0.17610000  0.39600000  1.0 0.4711560131
C  C26  1  0.21940000  0.19890000  0.22910000  1.0 0.2249726773
C  C27  1  0.14770000  0.22400000  0.16660000  1.0 -0.1794411072
C  C28  1  0.11220000  0.21650000  0.07250000  1.0 -0.0772095053
C  C29  1  0.14750000  0.18420000  0.04030000  1.0 -0.0606634546
C  C30  1  0.21710000  0.16190000  0.09770000  1.0 -0.0606634546
C  C31  1  0.25600000  0.16770000  0.19490000  1.0 -0.1794411072
C  C32  1  0.31400000  0.34720000  0.83400000  1.0 0.1483962581
C  C33  1  0.32850000  0.39570000  0.75380000  1.0 0.1111222682
C  C34  1  0.23730000  0.39900000  0.77230000  1.0 0.1599181117
C  C35  1  0.35660000  0.42240000  0.70350000  1.0 -0.1581805961
C  C36  1  0.17400000  0.43020000  0.74140000  1.0 -0.1676556143
C  C37  1  0.29120000  0.45330000  0.67140000  1.0 -0.0606634546
C  C38  1  0.20070000  0.45560000  0.68590000  1.0 -0.0325497637
C  C39  1  0.29580000  0.48340000  0.60840000  1.0 0.4275414766
C  C40  1  0.14090000  0.49010000  0.63140000  1.0 0.4490714976
C  C41  1  0.16980000  0.53210000  0.51330000  1.0 0.2020547584
C  C42  1  0.19090000  0.52610000  0.43000000  1.0 -0.1350075333
C  C43  1  0.16120000  0.55300000  0.36540000  1.0 -0.0703547891
C  C44  1  0.10310000  0.58490000  0.36940000  1.0 -0.0606634546
C  C45  1  0.08240000  0.59020000  0.45270000  1.0 -0.0703547891
C  C46  1  0.11690000  0.56280000  0.52170000  1.0 -0.1581805961
C  C47  1  0.06420000  0.61140000  0.29150000  1.0 0.5239354492
C  C48  1  0.11460000  0.17770000  0.94180000  1.0 0.528816861
C  C49  1  0.33730000  0.75210000  0.18190000  1.0 0.1788101391
C  C50  1  0.37260000  0.74020000  0.32470000  1.0 0.1302627828
C  C51  1  0.38470000  0.77880000  0.31180000  1.0 0.1386840879
C  C52  1  0.39070000  0.72450000  0.41270000  1.0 -0.1907391465
C  C53  1  0.42120000  0.80400000  0.38730000  1.0 -0.1258552345
C  C54  1  0.42130000  0.74920000  0.48660000  1.0 -0.0992439819
C  C55  1  0.43550000  0.78880000  0.47210000  1.0 -0.0992439819
C  C56  1  0.44610000  0.74330000  0.58340000  1.0 0.4184982301
C  C57  1  0.47030000  0.80780000  0.55930000  1.0 0.4184982301
C  C58  1  0.49840000  0.78600000  0.72290000  1.0 0.2020547584
C  C59  1  0.45330000  0.81680000  0.75120000  1.0 -0.1548881858
C  C60  1  0.48340000  0.82450000  0.84160000  1.0 -0.0606634546
C  C61  1  0.54970000  0.80320000  0.90870000  1.0 -0.0703547891
C  C62  1  0.59630000  0.77170000  0.88280000  1.0 -0.0703547891
C  C63  1  0.56920000  0.76380000  0.78620000  1.0 -0.1794411072
C  C64  1  0.58190000  0.81420000  0.00570000  1.0 0.528816861
C  C65  1  0.10140000  0.74090000  0.22940000  1.0 0.1788101391
C  C66  1  0.13410000  0.74910000  0.37380000  1.0 0.1483962581
C  C67  1  0.15450000  0.71060000  0.36230000  1.0 0.1218239468
C  C68  1  0.15220000  0.76250000  0.46510000  1.0 -0.1676556143
C  C69  1  0.19080000  0.68280000  0.43160000  1.0 -0.1581805961
C  C70  1  0.18560000  0.73590000  0.53380000  1.0 -0.0606634546
C  C71  1  0.20280000  0.69800000  0.51690000  1.0 -0.0772095053
C  C72  1  0.21460000  0.74150000  0.63610000  1.0 0.4490714976
C  C73  1  0.24990000  0.67610000  0.60400000  1.0 0.4711560131
C  C74  1  0.28060000  0.69890000  0.77090000  1.0 0.2249726773
C  C75  1  0.35230000  0.72400000  0.83340000  1.0 -0.1794411072
C  C76  1  0.38780000  0.71650000  0.92750000  1.0 -0.0772095053
C  C77  1  0.35250000  0.68420000  0.95970000  1.0 -0.0606634546
C  C78  1  0.28290000  0.66190000  0.90230000  1.0 -0.0606634546
C  C79  1  0.24400000  0.66770000  0.80510000  1.0 -0.1794411072
C  C80  1  0.18600000  0.84720000  0.16600000  1.0 0.1483962581
C  C81  1  0.17150000  0.89570000  0.24620000  1.0 0.1111222682
C  C82  1  0.26270000  0.89900000  0.22770000  1.0 0.1599181117
C  C83  1  0.14340000  0.92240000  0.29650000  1.0 -0.1581805961
C  C84  1  0.32600000  0.93020000  0.25860000  1.0 -0.1676556143
C  C85  1  0.20880000  0.95330000  0.32860000  1.0 -0.0606634546
C  C86  1  0.29930000  0.95560000  0.31410000  1.0 -0.0325497637
C  C87  1  0.20420000  0.98340000  0.39160000  1.0 0.4275414766
C  C88  1  0.35910000  0.99010000  0.36860000  1.0 0.4490714976
C  C89  1  0.33020000  0.03210000  0.48670000  1.0 0.2020547584
C  C90  1  0.30910000  0.02610000  0.57000000  1.0 -0.1350075333
C  C91  1  0.33880000  0.05300000  0.63460000  1.0 -0.0703547891
C  C92  1  0.39690000  0.08490000  0.63060000  1.0 -0.0606634546
C  C93  1  0.41760000  0.09020000  0.54730000  1.0 -0.0703547891
C  C94  1  0.38310000  0.06280000  0.47830000  1.0 -0.1581805961
C  C95  1  0.43580000  0.11140000  0.70850000  1.0 0.5239354492
C  C96  1  0.38540000  0.67770000  0.05820000  1.0 0.528816861
C  C97  1  0.83730000  0.74790000  0.18190000  1.0 0.1788101391
C  C98  1  0.87260000  0.75980000  0.32470000  1.0 0.1302627828
C  C99  1  0.88470000  0.72120000  0.31180000  1.0 0.1386840879
C  C100  1  0.89070000  0.77550000  0.41270000  1.0 -0.1907391465
C  C101  1  0.92120000  0.69600000  0.38730000  1.0 -0.1258552345
C  C102  1  0.92130000  0.75080000  0.48660000  1.0 -0.0992439819
C  C103  1  0.93550000  0.71120000  0.47210000  1.0 -0.0992439819
C  C104  1  0.94610000  0.75670000  0.58340000  1.0 0.4184982301
C  C105  1  0.97030000  0.69220000  0.55930000  1.0 0.4184982301
C  C106  1  0.99840000  0.71400000  0.72290000  1.0 0.2020547584
C  C107  1  0.95330000  0.68320000  0.75120000  1.0 -0.1548881858
C  C108  1  0.98340000  0.67550000  0.84160000  1.0 -0.0606634546
C  C109  1  0.04970000  0.69680000  0.90870000  1.0 -0.0703547891
C  C110  1  0.09630000  0.72830000  0.88280000  1.0 -0.0703547891
C  C111  1  0.06920000  0.73620000  0.78620000  1.0 -0.1794411072
C  C112  1  0.08190000  0.68580000  0.00570000  1.0 0.528816861
C  C113  1  0.60140000  0.75910000  0.22940000  1.0 0.1788101391
C  C114  1  0.63410000  0.75090000  0.37380000  1.0 0.1483962581
C  C115  1  0.65450000  0.78940000  0.36230000  1.0 0.1218239468
C  C116  1  0.65220000  0.73750000  0.46510000  1.0 -0.1676556143
C  C117  1  0.69080000  0.81720000  0.43160000  1.0 -0.1581805961
C  C118  1  0.68560000  0.76410000  0.53380000  1.0 -0.0606634546
C  C119  1  0.70280000  0.80200000  0.51690000  1.0 -0.0772095053
C  C120  1  0.71460000  0.75850000  0.63610000  1.0 0.4490714976
C  C121  1  0.74990000  0.82390000  0.60400000  1.0 0.4711560131
C  C122  1  0.78060000  0.80110000  0.77090000  1.0 0.2249726773
C  C123  1  0.85230000  0.77600000  0.83340000  1.0 -0.1794411072
C  C124  1  0.88780000  0.78350000  0.92750000  1.0 -0.0772095053
C  C125  1  0.85250000  0.81580000  0.95970000  1.0 -0.0606634546
C  C126  1  0.78290000  0.83810000  0.90230000  1.0 -0.0606634546
C  C127  1  0.74400000  0.83230000  0.80510000  1.0 -0.1794411072
C  C128  1  0.68600000  0.65280000  0.16600000  1.0 0.1483962581
C  C129  1  0.67150000  0.60430000  0.24620000  1.0 0.1111222682
C  C130  1  0.76270000  0.60100000  0.22770000  1.0 0.1599181117
C  C131  1  0.64340000  0.57760000  0.29650000  1.0 -0.1581805961
C  C132  1  0.82600000  0.56980000  0.25860000  1.0 -0.1676556143
C  C133  1  0.70880000  0.54670000  0.32860000  1.0 -0.0606634546
C  C134  1  0.79930000  0.54440000  0.31410000  1.0 -0.0325497637
C  C135  1  0.70420000  0.51660000  0.39160000  1.0 0.4275414766
C  C136  1  0.85910000  0.50990000  0.36860000  1.0 0.4490714976
C  C137  1  0.83020000  0.46790000  0.48670000  1.0 0.2020547584
C  C138  1  0.80910000  0.47390000  0.57000000  1.0 -0.1350075333
C  C139  1  0.83880000  0.44700000  0.63460000  1.0 -0.0703547891
C  C140  1  0.89690000  0.41510000  0.63060000  1.0 -0.0606634546
C  C141  1  0.91760000  0.40980000  0.54730000  1.0 -0.0703547891
C  C142  1  0.88310000  0.43720000  0.47830000  1.0 -0.1581805961
C  C143  1  0.93580000  0.38860000  0.70850000  1.0 0.5239354492
C  C144  1  0.88540000  0.82230000  0.05820000  1.0 0.528816861
C  C145  1  0.66270000  0.24790000  0.81810000  1.0 0.1788101391
C  C146  1  0.62740000  0.25980000  0.67530000  1.0 0.1302627828
C  C147  1  0.61530000  0.22120000  0.68820000  1.0 0.1386840879
C  C148  1  0.60930000  0.27550000  0.58730000  1.0 -0.1907391465
C  C149  1  0.57880000  0.19600000  0.61270000  1.0 -0.1258552345
C  C150  1  0.57870000  0.25080000  0.51340000  1.0 -0.0992439819
C  C151  1  0.56450000  0.21120000  0.52790000  1.0 -0.0992439819
C  C152  1  0.55390000  0.25670000  0.41660000  1.0 0.4184982301
C  C153  1  0.52970000  0.19220000  0.44070000  1.0 0.4184982301
C  C154  1  0.50160000  0.21400000  0.27710000  1.0 0.2020547584
C  C155  1  0.54670000  0.18320000  0.24880000  1.0 -0.1548881858
C  C156  1  0.51660000  0.17550000  0.15840000  1.0 -0.0606634546
C  C157  1  0.45030000  0.19680000  0.09130000  1.0 -0.0703547891
C  C158  1  0.40370000  0.22830000  0.11720000  1.0 -0.0703547891
C  C159  1  0.43080000  0.23620000  0.21380000  1.0 -0.1794411072
C  C160  1  0.41810000  0.18580000  0.99430000  1.0 0.528816861
C  C161  1  0.89860000  0.25910000  0.77060000  1.0 0.1788101391
C  C162  1  0.86590000  0.25090000  0.62620000  1.0 0.1483962581
C  C163  1  0.84550000  0.28940000  0.63770000  1.0 0.1218239468
C  C164  1  0.84780000  0.23750000  0.53490000  1.0 -0.1676556143
C  C165  1  0.80920000  0.31720000  0.56840000  1.0 -0.1581805961
C  C166  1  0.81440000  0.26410000  0.46620000  1.0 -0.0606634546
C  C167  1  0.79720000  0.30200000  0.48310000  1.0 -0.0772095053
C  C168  1  0.78540000  0.25850000  0.36390000  1.0 0.4490714976
C  C169  1  0.75010000  0.32390000  0.39600000  1.0 0.4711560131
C  C170  1  0.71940000  0.30110000  0.22910000  1.0 0.2249726773
C  C171  1  0.64770000  0.27600000  0.16660000  1.0 -0.1794411072
C  C172  1  0.61220000  0.28350000  0.07250000  1.0 -0.0772095053
C  C173  1  0.64750000  0.31580000  0.04030000  1.0 -0.0606634546
C  C174  1  0.71710000  0.33810000  0.09770000  1.0 -0.0606634546
C  C175  1  0.75600000  0.33230000  0.19490000  1.0 -0.1794411072
C  C176  1  0.81400000  0.15280000  0.83400000  1.0 0.1483962581
C  C177  1  0.82850000  0.10430000  0.75380000  1.0 0.1111222682
C  C178  1  0.73730000  0.10100000  0.77230000  1.0 0.1599181117
C  C179  1  0.85660000  0.07760000  0.70350000  1.0 -0.1581805961
C  C180  1  0.67400000  0.06980000  0.74140000  1.0 -0.1676556143
C  C181  1  0.79120000  0.04670000  0.67140000  1.0 -0.0606634546
C  C182  1  0.70070000  0.04440000  0.68590000  1.0 -0.0325497637
C  C183  1  0.79580000  0.01660000  0.60840000  1.0 0.4275414766
C  C184  1  0.64090000  0.00990000  0.63140000  1.0 0.4490714976
C  C185  1  0.66980000  0.96790000  0.51330000  1.0 0.2020547584
C  C186  1  0.69090000  0.97390000  0.43000000  1.0 -0.1350075333
C  C187  1  0.66120000  0.94700000  0.36540000  1.0 -0.0703547891
C  C188  1  0.60310000  0.91510000  0.36940000  1.0 -0.0606634546
C  C189  1  0.58240000  0.90980000  0.45270000  1.0 -0.0703547891
C  C190  1  0.61690000  0.93720000  0.52170000  1.0 -0.1581805961
C  C191  1  0.56420000  0.88860000  0.29150000  1.0 0.5239354492
C  C192  1  0.61460000  0.32230000  0.94180000  1.0 0.528816861
N  N1  1  0.13460000  0.28570000  0.78160000  1.0 -0.3624071542
N  N2  1  0.16160000  0.22430000  0.76090000  1.0 -0.4004287078
N  N3  1  0.02430000  0.27870000  0.37230000  1.0 -0.2570717513
N  N4  1  0.39880000  0.26840000  0.70800000  1.0 -0.3624071542
N  N5  1  0.36960000  0.20730000  0.73630000  1.0 -0.3799194797
N  N6  1  0.25730000  0.20590000  0.32560000  1.0 -0.2454859494
N  N7  1  0.37470000  0.36090000  0.79010000  1.0 -0.3402681678
N  N8  1  0.22800000  0.36790000  0.82150000  1.0 -0.3402681678
N  N9  1  0.20100000  0.50390000  0.58470000  1.0 -0.2318634346
N  N10  1  0.36540000  0.78570000  0.21840000  1.0 -0.3624071542
N  N11  1  0.33840000  0.72430000  0.23910000  1.0 -0.4004287078
N  N12  1  0.47570000  0.77870000  0.62770000  1.0 -0.2570717513
N  N13  1  0.10120000  0.76840000  0.29200000  1.0 -0.3624071542
N  N14  1  0.13040000  0.70730000  0.26370000  1.0 -0.3799194797
N  N15  1  0.24270000  0.70590000  0.67440000  1.0 -0.2454859494
N  N16  1  0.12530000  0.86090000  0.20990000  1.0 -0.3402681678
N  N17  1  0.27200000  0.86790000  0.17850000  1.0 -0.3402681678
N  N18  1  0.29900000  0.00390000  0.41530000  1.0 -0.2318634346
N  N19  1  0.86540000  0.71430000  0.21840000  1.0 -0.3624071542
N  N20  1  0.83840000  0.77570000  0.23910000  1.0 -0.4004287078
N  N21  1  0.97570000  0.72130000  0.62770000  1.0 -0.2570717513
N  N22  1  0.60120000  0.73160000  0.29200000  1.0 -0.3624071542
N  N23  1  0.63040000  0.79270000  0.26370000  1.0 -0.3799194797
N  N24  1  0.74270000  0.79410000  0.67440000  1.0 -0.2454859494
N  N25  1  0.62530000  0.63910000  0.20990000  1.0 -0.3402681678
N  N26  1  0.77200000  0.63210000  0.17850000  1.0 -0.3402681678
N  N27  1  0.79900000  0.49610000  0.41530000  1.0 -0.2318634346
N  N28  1  0.63460000  0.21430000  0.78160000  1.0 -0.3624071542
N  N29  1  0.66160000  0.27570000  0.76090000  1.0 -0.4004287078
N  N30  1  0.52430000  0.22130000  0.37230000  1.0 -0.2570717513
N  N31  1  0.89880000  0.23160000  0.70800000  1.0 -0.3624071542
N  N32  1  0.86960000  0.29270000  0.73630000  1.0 -0.3799194797
N  N33  1  0.75730000  0.29410000  0.32560000  1.0 -0.2444598406
N  N34  1  0.87470000  0.13910000  0.79010000  1.0 -0.3402681678
N  N35  1  0.72800000  0.13210000  0.82150000  1.0 -0.3402681678
N  N36  1  0.70100000  0.99610000  0.58470000  1.0 -0.2318634346
O  O1  1  0.05930000  0.21450000  0.37730000  1.0 -0.3799194797
O  O2  1  0.00240000  0.34060000  0.41970000  1.0 -0.4182782053
O  O3  1  0.93990000  0.34460000  0.97500000  1.0 -0.4932424455
O  O4  1  0.85420000  0.29170000  0.93420000  1.0 -0.5485651671
O  O5  1  0.23310000  0.14500000  0.37600000  1.0 -0.3111038982
O  O6  1  0.28670000  0.27070000  0.32420000  1.0 -0.4004287078
O  O7  1  0.14460000  0.15180000  0.90320000  1.0 -0.5485651671
O  O8  1  0.02790000  0.19710000  0.88560000  1.0 -0.5620521783
O  O9  1  0.36360000  0.48980000  0.58020000  1.0 -0.3624071542
O  O10  1  0.06490000  0.50230000  0.63330000  1.0 -0.3665358503
O  O11  1  0.98900000  0.63320000  0.29010000  1.0 -0.5405130564
O  O12  1  0.09990000  0.61140000  0.23210000  1.0 -0.5405130564
O  O13  1  0.44070000  0.71450000  0.62270000  1.0 -0.3799194797
O  O14  1  0.49760000  0.84060000  0.58030000  1.0 -0.4182782053
O  O15  1  0.56010000  0.84460000  0.02500000  1.0 -0.4932424455
O  O16  1  0.64580000  0.79170000  0.06580000  1.0 -0.5485651671
O  O17  1  0.26690000  0.64500000  0.62400000  1.0 -0.3111038982
O  O18  1  0.21330000  0.77070000  0.67580000  1.0 -0.4004287078
O  O19  1  0.35540000  0.65180000  0.09680000  1.0 -0.5485651671
O  O20  1  0.47210000  0.69710000  0.11440000  1.0 -0.5620521783
O  O21  1  0.13640000  0.98980000  0.41980000  1.0 -0.3624071542
O  O22  1  0.43510000  0.00230000  0.36670000  1.0 -0.3624071542
O  O23  1  0.51100000  0.13320000  0.70990000  1.0 -0.5405130564
O  O24  1  0.40010000  0.11140000  0.76790000  1.0 -0.5405130564
O  O25  1  0.94070000  0.78550000  0.62270000  1.0 -0.3799194797
O  O26  1  0.99760000  0.65940000  0.58030000  1.0 -0.4182782053
O  O27  1  0.06010000  0.65540000  0.02500000  1.0 -0.4932424455
O  O28  1  0.14580000  0.70830000  0.06580000  1.0 -0.5485651671
O  O29  1  0.76690000  0.85500000  0.62400000  1.0 -0.3111038982
O  O30  1  0.71330000  0.72930000  0.67580000  1.0 -0.4004287078
O  O31  1  0.85540000  0.84820000  0.09680000  1.0 -0.5485651671
O  O32  1  0.97210000  0.80290000  0.11440000  1.0 -0.5620521783
O  O33  1  0.63640000  0.51020000  0.41980000  1.0 -0.3624071542
O  O34  1  0.93510000  0.49770000  0.36670000  1.0 -0.3665358503
O  O35  1  0.01100000  0.36680000  0.70990000  1.0 -0.5405130564
O  O36  1  0.90010000  0.38860000  0.76790000  1.0 -0.5405130564
O  O37  1  0.55930000  0.28550000  0.37730000  1.0 -0.3799194797
O  O38  1  0.50240000  0.15940000  0.41970000  1.0 -0.4182782053
O  O39  1  0.43990000  0.15540000  0.97500000  1.0 -0.4932424455
O  O40  1  0.35420000  0.20830000  0.93420000  1.0 -0.5485651671
O  O41  1  0.73310000  0.35500000  0.37600000  1.0 -0.3111038982
O  O42  1  0.78670000  0.22930000  0.32420000  1.0 -0.4004287078
O  O43  1  0.64460000  0.34820000  0.90320000  1.0 -0.5485651671
O  O44  1  0.52790000  0.30290000  0.88560000  1.0 -0.5620521783
O  O45  1  0.86360000  0.01020000  0.58020000  1.0 -0.3624071542
O  O46  1  0.56490000  0.99770000  0.63330000  1.0 -0.3665358503
O  O47  1  0.48900000  0.86680000  0.29010000  1.0 -0.5405130564
O  O48  1  0.59990000  0.88860000  0.23210000  1.0 -0.5405130564
