# DDEC6 charges by PACMAN v1.1 (https://github.com/mtap-research/PACMAN-charge/)
data_FALLOT_FSR_pacman
_symmetry_space_group_name_H-M   'P 1'
_cell_length_a   12.12600000
_cell_length_b   15.24100000
_cell_length_c   15.59100000
_cell_angle_alpha   90.00000000
_cell_angle_beta   90.00000000
_cell_angle_gamma   90.00000000
_symmetry_Int_Tables_number   1
_chemical_formula_structural   Cu4WC4(S2N)4
_chemical_formula_sum   'Cu16 W4 C16 S32 N16'
_cell_volume   2881.40959831
_cell_formula_units_Z   4
loop_
 _symmetry_equiv_pos_site_id
 _symmetry_equiv_pos_as_xyz
  1  'x, y, z'
loop_
 _atom_site_type_symbol
 _atom_site_label
 _atom_site_symmetry_multiplicity
 _atom_site_fract_x
 _atom_site_fract_y
 _atom_site_fract_z
 _atom_site_occupancy
 _atom_site_charge
Cu  Cu1  1  0.51300000  0.76250000  0.60340000  1.0 0.3673928255
Cu  Cu2  1  0.98700000  0.23750000  0.10340000  1.0 0.3673928255
Cu  Cu3  1  0.48700000  0.26250000  0.89660000  1.0 0.3673928255
Cu  Cu4  1  0.01300000  0.73750000  0.39660000  1.0 0.3673928255
Cu  Cu5  1  0.72480000  0.59740000  0.64060000  1.0 0.363490279
Cu  Cu6  1  0.77520000  0.40260000  0.14060000  1.0 0.363490279
Cu  Cu7  1  0.27520000  0.09740000  0.85940000  1.0 0.3673928255
Cu  Cu8  1  0.22480000  0.90260000  0.35940000  1.0 0.363490279
Cu  Cu9  1  0.78300000  0.67910000  0.86800000  1.0 0.2673085287
Cu  Cu10  1  0.71700000  0.32090000  0.36800000  1.0 0.2643688375
Cu  Cu11  1  0.21700000  0.17910000  0.63200000  1.0 0.2673085287
Cu  Cu12  1  0.28300000  0.82090000  0.13200000  1.0 0.2673085287
Cu  Cu13  1  0.57800000  0.86160000  0.83860000  1.0 0.5258991773
Cu  Cu14  1  0.92200000  0.13840000  0.33860000  1.0 0.5209578032
Cu  Cu15  1  0.42200000  0.36160000  0.66140000  1.0 0.5209578032
Cu  Cu16  1  0.07800000  0.63840000  0.16140000  1.0 0.5258991773
W  W1  1  0.65158000  0.73190000  0.73476000  1.0 0.6764925475
W  W2  1  0.84842000  0.26810000  0.23476000  1.0 0.6764925475
W  W3  1  0.34842000  0.23190000  0.76524000  1.0 0.6669320816
W  W4  1  0.15158000  0.76810000  0.26524000  1.0 0.6669320816
C  C1  1  0.45700000  0.87200000  0.44710000  1.0 0.2018537618
C  C2  1  0.04300000  0.12800000  0.94710000  1.0 0.2018537618
C  C3  1  0.54300000  0.37200000  0.05290000  1.0 0.2018537618
C  C4  1  0.95700000  0.62800000  0.55290000  1.0 0.2018537618
C  C5  1  0.74400000  0.42580000  0.54150000  1.0 0.2018537618
C  C6  1  0.75600000  0.57420000  0.04150000  1.0 0.2018537618
C  C7  1  0.25600000  0.92580000  0.95850000  1.0 0.2065539265
C  C8  1  0.24400000  0.07420000  0.45850000  1.0 0.2018537618
C  C9  1  0.41800000  0.55680000  0.61400000  1.0 0.1900849471
C  C10  1  0.08200000  0.44320000  0.11400000  1.0 0.1900849471
C  C11  1  0.58200000  0.05680000  0.88600000  1.0 0.1900849471
C  C12  1  0.91800000  0.94320000  0.38600000  1.0 0.1900849471
C  C13  1  0.00100000  0.65700000  0.96860000  1.0 0.1900849471
C  C14  1  0.49900000  0.34300000  0.46860000  1.0 0.1900849471
C  C15  1  0.99900000  0.15700000  0.53140000  1.0 0.1900849471
C  C16  1  0.50100000  0.84300000  0.03140000  1.0 0.1900849471
S  S1  1  0.67110000  0.59360000  0.78020000  1.0 -0.409354425
S  S2  1  0.82890000  0.40640000  0.28020000  1.0 -0.409354425
S  S3  1  0.32890000  0.09360000  0.71980000  1.0 -0.400559703
S  S4  1  0.17110000  0.90640000  0.21980000  1.0 -0.400559703
S  S5  1  0.70080000  0.73880000  0.59710000  1.0 -0.409354425
S  S6  1  0.79920000  0.26120000  0.09710000  1.0 -0.4206154948
S  S7  1  0.29920000  0.23880000  0.90290000  1.0 -0.409354425
S  S8  1  0.20080000  0.76120000  0.40290000  1.0 -0.409354425
S  S9  1  0.47630000  0.77550000  0.74790000  1.0 -0.4462540989
S  S10  1  0.02370000  0.22450000  0.24790000  1.0 -0.4462540989
S  S11  1  0.52370000  0.27550000  0.75210000  1.0 -0.4419589584
S  S12  1  0.97630000  0.72450000  0.25210000  1.0 -0.4419589584
S  S13  1  0.75870000  0.81940000  0.81300000  1.0 -0.4206154948
S  S14  1  0.74130000  0.18060000  0.31300000  1.0 -0.4206154948
S  S15  1  0.24130000  0.31940000  0.68700000  1.0 -0.4206154948
S  S16  1  0.25870000  0.68060000  0.18700000  1.0 -0.4206154948
S  S17  1  0.79110000  0.33370000  0.50610000  1.0 -0.0507665834
S  S18  1  0.70890000  0.66630000  0.00610000  1.0 -0.0507665834
S  S19  1  0.20890000  0.83370000  0.99390000  1.0 -0.0507665834
S  S20  1  0.29110000  0.16630000  0.49390000  1.0 -0.0507665834
S  S21  1  0.97090000  0.64630000  0.86580000  1.0 -0.1112015193
S  S22  1  0.52910000  0.35370000  0.36580000  1.0 -0.1042886844
S  S23  1  0.02910000  0.14630000  0.63420000  1.0 -0.120999748
S  S24  1  0.47090000  0.85370000  0.13420000  1.0 -0.1112015193
S  S25  1  0.39860000  0.64140000  0.55530000  1.0 -0.0507665834
S  S26  1  0.10140000  0.35860000  0.05530000  1.0 -0.0507665834
S  S27  1  0.60140000  0.14140000  0.94470000  1.0 -0.0642362034
S  S28  1  0.89860000  0.85860000  0.44470000  1.0 -0.0507665834
S  S29  1  0.44370000  0.91270000  0.35000000  1.0 0.0012370426
S  S30  1  0.05630000  0.08730000  0.85000000  1.0 -0.0067750669
S  S31  1  0.55630000  0.41270000  0.15000000  1.0 0.0012370426
S  S32  1  0.94370000  0.58730000  0.65000000  1.0 0.006254779
N  N1  1  0.46600000  0.84290000  0.51520000  1.0 -0.2591555916
N  N2  1  0.03400000  0.15710000  0.01520000  1.0 -0.2536835914
N  N3  1  0.53400000  0.34290000  0.98480000  1.0 -0.2591555916
N  N4  1  0.96600000  0.65710000  0.48480000  1.0 -0.2591555916
N  N5  1  0.71700000  0.49300000  0.57130000  1.0 -0.2917322388
N  N6  1  0.78300000  0.50700000  0.07130000  1.0 -0.2917322388
N  N7  1  0.28300000  0.99300000  0.92870000  1.0 -0.2917322388
N  N8  1  0.21700000  0.00700000  0.42870000  1.0 -0.2917322388
N  N9  1  0.43100000  0.49400000  0.65600000  1.0 -0.2591555916
N  N10  1  0.06900000  0.50600000  0.15600000  1.0 -0.2591555916
N  N11  1  0.56900000  0.99400000  0.84400000  1.0 -0.2591555916
N  N12  1  0.93100000  0.00600000  0.34400000  1.0 -0.2591555916
N  N13  1  0.02900000  0.66200000  0.03870000  1.0 -0.2717664187
N  N14  1  0.47100000  0.33800000  0.53870000  1.0 -0.2717664187
N  N15  1  0.97100000  0.16200000  0.46130000  1.0 -0.2717664187
N  N16  1  0.52900000  0.83800000  0.96130000  1.0 -0.2717664187
