# DDEC6 charges by PACMAN v1.1 (https://github.com/mtap-research/PACMAN-charge/)
data_FALPOY_ion_pacman
_symmetry_space_group_name_H-M   'P 1'
_cell_length_a   13.22900000
_cell_length_b   15.39600000
_cell_length_c   14.80000000
_cell_angle_alpha   90.00000000
_cell_angle_beta   95.10000000
_cell_angle_gamma   90.00000000
_symmetry_Int_Tables_number   1
_chemical_formula_structural   Ga10P10H48C18N6(O15F)3
_chemical_formula_sum   'Ga20 P20 H96 C36 N12 O90 F6'
_cell_volume   3002.43682747
_cell_formula_units_Z   2
loop_
 _symmetry_equiv_pos_site_id
 _symmetry_equiv_pos_as_xyz
  1  'x, y, z'
loop_
 _atom_site_type_symbol
 _atom_site_label
 _atom_site_symmetry_multiplicity
 _atom_site_fract_x
 _atom_site_fract_y
 _atom_site_fract_z
 _atom_site_occupancy
 _atom_site_charge
Ga  Ga1  1  0.38620000  0.46020000  0.82090000  1.0 1.4310868646
Ga  Ga2  1  0.61380000  0.96020000  0.17910000  1.0 1.4310868646
Ga  Ga3  1  0.43520000  0.39510000  0.49910000  1.0 1.4894292363
Ga  Ga4  1  0.56480000  0.89510000  0.50090000  1.0 1.4894292363
Ga  Ga5  1  0.43120000  0.64850000  0.50340000  1.0 1.5093547625
Ga  Ga6  1  0.56880000  0.14850000  0.49660000  1.0 1.5093547625
Ga  Ga7  1  0.67520000  0.52600000  0.52800000  1.0 1.5277030732
Ga  Ga8  1  0.32480000  0.02600000  0.47200000  1.0 1.5277030732
Ga  Ga9  1  0.74660000  0.62500000  0.75210000  1.0 1.5166276599
Ga  Ga10  1  0.25340000  0.12500000  0.24790000  1.0 1.5166276599
Ga  Ga11  1  0.10660000  0.56940000  0.68750000  1.0 1.4894292363
Ga  Ga12  1  0.89340000  0.06940000  0.31250000  1.0 1.4963804151
Ga  Ga13  1  0.05510000  0.64980000  0.00000000  1.0 1.5166276599
Ga  Ga14  1  0.94490000  0.14980000  0.00000000  1.0 1.5166276599
Ga  Ga15  1  0.08170000  0.39260000  0.99920000  1.0 1.5277030732
Ga  Ga16  1  0.91830000  0.89260000  0.00080000  1.0 1.5277030732
Ga  Ga17  1  0.82200000  0.52280000  0.97100000  1.0 1.5093547625
Ga  Ga18  1  0.17800000  0.02280000  0.02900000  1.0 1.5093547625
Ga  Ga19  1  0.75930000  0.42030000  0.74760000  1.0 1.5093547625
Ga  Ga20  1  0.24070000  0.92030000  0.25240000  1.0 1.5093547625
P  P1  1  0.32020000  0.52020000  0.62140000  1.0 1.5366094575
P  P2  1  0.67980000  0.02020000  0.37860000  1.0 1.5366094575
P  P3  1  0.52090000  0.52420000  0.36150000  1.0 1.4894292363
P  P4  1  0.47910000  0.02420000  0.63850000  1.0 1.4894292363
P  P5  1  0.63120000  0.72010000  0.58630000  1.0 1.5516432192
P  P6  1  0.36880000  0.22010000  0.41370000  1.0 1.5516432192
P  P7  1  0.36460000  0.82920000  0.41790000  1.0 1.5516432192
P  P8  1  0.63540000  0.32920000  0.58210000  1.0 1.5516432192
P  P9  1  0.61410000  0.51720000  0.87330000  1.0 1.5166276599
P  P10  1  0.38590000  0.01720000  0.12670000  1.0 1.5093547625
P  P11  1  0.18270000  0.53430000  0.88380000  1.0 1.5366094575
P  P12  1  0.81730000  0.03430000  0.11620000  1.0 1.5366094575
P  P13  1  0.97650000  0.51570000  0.13670000  1.0 1.4894292363
P  P14  1  0.02350000  0.01570000  0.86330000  1.0 1.4894292363
P  P15  1  0.88060000  0.33040000  0.91070000  1.0 1.5516432192
P  P16  1  0.11940000  0.83040000  0.08930000  1.0 1.5516432192
P  P17  1  0.85130000  0.71920000  0.92410000  1.0 1.5656205083
P  P18  1  0.14870000  0.21920000  0.07590000  1.0 1.5646840001
P  P19  1  0.88490000  0.53170000  0.62370000  1.0 1.5366094575
P  P20  1  0.11510000  0.03170000  0.37630000  1.0 1.5366094575
H  H1  1  0.72560000  0.77540000  0.21140000  1.0 0.3451514508
H  H2  1  0.92140000  0.69470000  0.37330000  1.0 0.2684551741
H  H3  1  0.85960000  0.72380000  0.14610000  1.0 0.1506259541
H  H4  1  0.87420000  0.65290000  0.22220000  1.0 0.1298756192
H  H5  1  0.98850000  0.76250000  0.25180000  1.0 0.1398592921
H  H6  1  0.89990000  0.83070000  0.25100000  1.0 0.1506259541
H  H7  1  0.80520000  0.75550000  0.45090000  1.0 0.1398592921
H  H8  1  0.79150000  0.82830000  0.37620000  1.0 0.1398592921
H  H9  1  0.66390000  0.72010000  0.33900000  1.0 0.1506259541
H  H10  1  0.74650000  0.64660000  0.34300000  1.0 0.1298756192
H  H11  1  0.60930000  0.67640000  0.19630000  1.0 0.1398592921
H  H12  1  0.67770000  0.67340000  0.11510000  1.0 0.1573407672
H  H13  1  0.69410000  0.60550000  0.19400000  1.0 0.1506259541
H  H14  1  0.05480000  0.79630000  0.41280000  1.0 0.1687097068
H  H15  1  0.97220000  0.86810000  0.42170000  1.0 0.1687097068
H  H16  1  0.98210000  0.79060000  0.49060000  1.0 0.1573407672
H  H17  1  0.27440000  0.27540000  0.78860000  1.0 0.3451514508
H  H18  1  0.07860000  0.19470000  0.62670000  1.0 0.2684551741
H  H19  1  0.14040000  0.22380000  0.85390000  1.0 0.1506259541
H  H20  1  0.12580000  0.15290000  0.77780000  1.0 0.1298756192
H  H21  1  0.01150000  0.26250000  0.74820000  1.0 0.1398592921
H  H22  1  0.10010000  0.33070000  0.74900000  1.0 0.1506259541
H  H23  1  0.19480000  0.25550000  0.54910000  1.0 0.1398592921
H  H24  1  0.20850000  0.32830000  0.62380000  1.0 0.1398592921
H  H25  1  0.33610000  0.22010000  0.66100000  1.0 0.1506259541
H  H26  1  0.25350000  0.14660000  0.65700000  1.0 0.1298756192
H  H27  1  0.39070000  0.17640000  0.80370000  1.0 0.1398592921
H  H28  1  0.32230000  0.17340000  0.88490000  1.0 0.1506259541
H  H29  1  0.30590000  0.10550000  0.80600000  1.0 0.1506259541
H  H30  1  0.94520000  0.29630000  0.58720000  1.0 0.1687097068
H  H31  1  0.02780000  0.36810000  0.57830000  1.0 0.1687097068
H  H32  1  0.01790000  0.29060000  0.50940000  1.0 0.1573407672
H  H33  1  0.89580000  0.00300000  0.70860000  1.0 0.2796045805
H  H34  1  0.64510000  0.08910000  0.73550000  1.0 0.2684551741
H  H35  1  0.86460000  0.11070000  0.61770000  1.0 0.1298756192
H  H36  1  0.75210000  0.07940000  0.59710000  1.0 0.1298756192
H  H37  1  0.74820000  0.19300000  0.69850000  1.0 0.1398592921
H  H38  1  0.83620000  0.15240000  0.76290000  1.0 0.1398592921
H  H39  1  0.67380000  0.97820000  0.82630000  1.0 0.1398592921
H  H40  1  0.78610000  0.00810000  0.84680000  1.0 0.1398592921
H  H41  1  0.79090000  0.89770000  0.75620000  1.0 0.1506259541
H  H42  1  0.70040000  0.93290000  0.69050000  1.0 0.1398592921
H  H43  1  0.61530000  0.11920000  0.87670000  1.0 0.1506259541
H  H44  1  0.71940000  0.16860000  0.88610000  1.0 0.1573407672
H  H45  1  0.63140000  0.20080000  0.81620000  1.0 0.1573407672
H  H46  1  0.88600000  0.88720000  0.61010000  1.0 0.1506259541
H  H47  1  0.80680000  0.93990000  0.54690000  1.0 0.1573407672
H  H48  1  0.91930000  0.97240000  0.56290000  1.0 0.1506259541
H  H49  1  0.10420000  0.50300000  0.29140000  1.0 0.2796045805
H  H50  1  0.35490000  0.58910000  0.26450000  1.0 0.2684551741
H  H51  1  0.13540000  0.61070000  0.38230000  1.0 0.1298756192
H  H52  1  0.24790000  0.57940000  0.40290000  1.0 0.1298756192
H  H53  1  0.25180000  0.69300000  0.30150000  1.0 0.1398592921
H  H54  1  0.16380000  0.65240000  0.23710000  1.0 0.1398592921
H  H55  1  0.32620000  0.47820000  0.17370000  1.0 0.1398592921
H  H56  1  0.21390000  0.50810000  0.15320000  1.0 0.1398592921
H  H57  1  0.20910000  0.39770000  0.24380000  1.0 0.1506259541
H  H58  1  0.29960000  0.43290000  0.30950000  1.0 0.1398592921
H  H59  1  0.38470000  0.61920000  0.12330000  1.0 0.1506259541
H  H60  1  0.28060000  0.66860000  0.11390000  1.0 0.1573407672
H  H61  1  0.36860000  0.70080000  0.18380000  1.0 0.1573407672
H  H62  1  0.11400000  0.38720000  0.38990000  1.0 0.1506259541
H  H63  1  0.19320000  0.43990000  0.45310000  1.0 0.1573407672
H  H64  1  0.08070000  0.47240000  0.43710000  1.0 0.1506259541
H  H65  1  0.54950000  0.32160000  0.12700000  1.0 0.2796045805
H  H66  1  0.78660000  0.26450000  0.26620000  1.0 0.2887084748
H  H67  1  0.64170000  0.18070000  0.22000000  1.0 0.1398592921
H  H68  1  0.53340000  0.21450000  0.23780000  1.0 0.1573407672
H  H69  1  0.64790000  0.26800000  0.35040000  1.0 0.1506259541
H  H70  1  0.60610000  0.34670000  0.29060000  1.0 0.1398592921
H  H71  1  0.70760000  0.41020000  0.18370000  1.0 0.1398592921
H  H72  1  0.81580000  0.37320000  0.16930000  1.0 0.1573407672
H  H73  1  0.70290000  0.32630000  0.05230000  1.0 0.1573407672
H  H74  1  0.74240000  0.24590000  0.11010000  1.0 0.1398592921
H  H75  1  0.80700000  0.34900000  0.40220000  1.0 0.1687097068
H  H76  1  0.87600000  0.38500000  0.33000000  1.0 0.1573407672
H  H77  1  0.77280000  0.43080000  0.34430000  1.0 0.1687097068
H  H78  1  0.54100000  0.24730000  0.00630000  1.0 0.1398592921
H  H79  1  0.58810000  0.16820000  0.06190000  1.0 0.1573407672
H  H80  1  0.48020000  0.20270000  0.07980000  1.0 0.1573407672
H  H81  1  0.45050000  0.82160000  0.87300000  1.0 0.2796045805
H  H82  1  0.21340000  0.76450000  0.73380000  1.0 0.2887084748
H  H83  1  0.35830000  0.68070000  0.78000000  1.0 0.1398592921
H  H84  1  0.46660000  0.71450000  0.76220000  1.0 0.1573407672
H  H85  1  0.35210000  0.76800000  0.64960000  1.0 0.1506259541
H  H86  1  0.39390000  0.84670000  0.70940000  1.0 0.1398592921
H  H87  1  0.29240000  0.91020000  0.81630000  1.0 0.1398592921
H  H88  1  0.18420000  0.87320000  0.83070000  1.0 0.1573407672
H  H89  1  0.29710000  0.82630000  0.94770000  1.0 0.1573407672
H  H90  1  0.25760000  0.74590000  0.88990000  1.0 0.1398592921
H  H91  1  0.19300000  0.84900000  0.59780000  1.0 0.1687097068
H  H92  1  0.12400000  0.88500000  0.67000000  1.0 0.1573407672
H  H93  1  0.22720000  0.93080000  0.65570000  1.0 0.1687097068
H  H94  1  0.45900000  0.74730000  0.99370000  1.0 0.1506259541
H  H95  1  0.41190000  0.66820000  0.93810000  1.0 0.1573407672
H  H96  1  0.51980000  0.70270000  0.92020000  1.0 0.1573407672
C  C1  1  0.85240000  0.71220000  0.20970000  1.0 -0.0991057292
C  C2  1  0.91860000  0.77090000  0.26480000  1.0 -0.1165381816
C  C3  1  0.80930000  0.76780000  0.38700000  1.0 -0.0923589688
C  C4  1  0.73310000  0.70680000  0.32690000  1.0 -0.0991057292
C  C5  1  0.67630000  0.66460000  0.17920000  1.0 -0.2731864933
C  C6  1  0.98720000  0.80730000  0.42870000  1.0 -0.3683888499
C  C7  1  0.14760000  0.21220000  0.79030000  1.0 -0.0991057292
C  C8  1  0.08140000  0.27090000  0.73520000  1.0 -0.1165381816
C  C9  1  0.19070000  0.26780000  0.61300000  1.0 -0.0923589688
C  C10  1  0.26690000  0.20680000  0.67310000  1.0 -0.0991057292
C  C11  1  0.32370000  0.16460000  0.82080000  1.0 -0.2731864933
C  C12  1  0.01280000  0.30730000  0.57130000  1.0 -0.3683888499
C  C13  1  0.80820000  0.08280000  0.64380000  1.0 -0.1104602078
C  C14  1  0.77630000  0.13870000  0.72270000  1.0 -0.1104602078
C  C15  1  0.73020000  0.00560000  0.79990000  1.0 -0.1104602078
C  C16  1  0.75990000  0.94990000  0.72950000  1.0 -0.1277532239
C  C17  1  0.66350000  0.15060000  0.84440000  1.0 -0.3166298007
C  C18  1  0.86490000  0.94430000  0.59040000  1.0 -0.3295463805
C  C19  1  0.19180000  0.58280000  0.35620000  1.0 -0.1104602078
C  C20  1  0.22370000  0.63870000  0.27730000  1.0 -0.1104602078
C  C21  1  0.26980000  0.50560000  0.20010000  1.0 -0.1104602078
C  C22  1  0.24010000  0.44990000  0.27050000  1.0 -0.1277532239
C  C23  1  0.33650000  0.65060000  0.15560000  1.0 -0.3166298007
C  C24  1  0.13510000  0.44430000  0.40960000  1.0 -0.3295463805
C  C25  1  0.59960000  0.23220000  0.22100000  1.0 -0.1277532239
C  C26  1  0.64630000  0.29400000  0.29060000  1.0 -0.1165381816
C  C27  1  0.74760000  0.35750000  0.18240000  1.0 -0.0991057292
C  C28  1  0.70180000  0.29830000  0.11090000  1.0 -0.1560271417
C  C29  1  0.80730000  0.37590000  0.34380000  1.0 -0.3295463805
C  C30  1  0.54650000  0.21910000  0.06440000  1.0 -0.2369452451
C  C31  1  0.40040000  0.73220000  0.77900000  1.0 -0.1277532239
C  C32  1  0.35370000  0.79400000  0.70940000  1.0 -0.1165381816
C  C33  1  0.25240000  0.85750000  0.81760000  1.0 -0.0991057292
C  C34  1  0.29820000  0.79830000  0.88910000  1.0 -0.1560271417
C  C35  1  0.19270000  0.87590000  0.65620000  1.0 -0.3295463805
C  C36  1  0.45350000  0.71910000  0.93560000  1.0 -0.2369452451
N  N1  1  0.74520000  0.72010000  0.22580000  1.0 0.0404345676
N  N2  1  0.90760000  0.75200000  0.36350000  1.0 0.052548718
N  N3  1  0.25480000  0.22010000  0.77420000  1.0 0.0404345676
N  N4  1  0.09240000  0.25200000  0.63650000  1.0 0.052548718
N  N5  1  0.83740000  0.99720000  0.67170000  1.0 0.052548718
N  N6  1  0.70010000  0.09570000  0.77640000  1.0 0.0579597692
N  N7  1  0.16260000  0.49720000  0.32830000  1.0 0.052548718
N  N8  1  0.29990000  0.59570000  0.22360000  1.0 0.0579597692
N  N9  1  0.58790000  0.27260000  0.12600000  1.0 0.0794565792
N  N10  1  0.75100000  0.31480000  0.26900000  1.0 0.052548718
N  N11  1  0.41210000  0.77260000  0.87400000  1.0 0.0794565792
N  N12  1  0.24900000  0.81480000  0.73100000  1.0 0.052548718
O  O1  1  0.39240000  0.51300000  0.70310000  1.0 -0.7245364522
O  O2  1  0.60760000  0.01300000  0.29690000  1.0 -0.7284401987
O  O3  1  0.33640000  0.44360000  0.55800000  1.0 -0.7613935141
O  O4  1  0.66360000  0.94360000  0.44200000  1.0 -0.7613935141
O  O5  1  0.33530000  0.60610000  0.57150000  1.0 -0.7899974321
O  O6  1  0.66470000  0.10610000  0.42850000  1.0 -0.7899974321
O  O7  1  0.29170000  0.54260000  0.85890000  1.0 -0.7613935141
O  O8  1  0.70830000  0.04260000  0.14110000  1.0 -0.7613935141
O  O9  1  0.47500000  0.44160000  0.39330000  1.0 -0.7899974321
O  O10  1  0.52500000  0.94160000  0.60670000  1.0 -0.7899974321
O  O11  1  0.45630000  0.60130000  0.39560000  1.0 -0.8002750993
O  O12  1  0.54370000  0.10130000  0.60440000  1.0 -0.8002750993
O  O13  1  0.51130000  0.52350000  0.26010000  1.0 -0.8002750993
O  O14  1  0.48870000  0.02350000  0.73990000  1.0 -0.8002750993
O  O15  1  0.63470000  0.53190000  0.40230000  1.0 -0.7899974321
O  O16  1  0.36530000  0.03190000  0.59770000  1.0 -0.7899974321
O  O17  1  0.34730000  0.74040000  0.45670000  1.0 -0.7899974321
O  O18  1  0.65270000  0.24040000  0.54330000  1.0 -0.7899974321
O  O19  1  0.52020000  0.34330000  0.58740000  1.0 -0.7483986182
O  O20  1  0.47980000  0.84330000  0.41260000  1.0 -0.7483986182
O  O21  1  0.51730000  0.71270000  0.58140000  1.0 -0.8002750993
O  O22  1  0.48270000  0.21270000  0.41860000  1.0 -0.8002750993
O  O23  1  0.67540000  0.71500000  0.68430000  1.0 -0.7402943543
O  O24  1  0.32460000  0.21500000  0.31570000  1.0 -0.7483986182
O  O25  1  0.86140000  0.60930000  0.68040000  1.0 -0.7402943543
O  O26  1  0.13860000  0.10930000  0.31960000  1.0 -0.7402943543
O  O27  1  0.81100000  0.71660000  0.82340000  1.0 -0.7402943543
O  O28  1  0.18900000  0.21660000  0.17660000  1.0 -0.7402943543
O  O29  1  0.63390000  0.60010000  0.82420000  1.0 -0.7483986182
O  O30  1  0.36610000  0.10010000  0.17580000  1.0 -0.7483986182
O  O31  1  0.67430000  0.51520000  0.96730000  1.0 -0.7613935141
O  O32  1  0.32570000  0.01520000  0.03270000  1.0 -0.7613935141
O  O33  1  0.50120000  0.50680000  0.88360000  1.0 -0.6972663288
O  O34  1  0.49880000  0.00680000  0.11640000  1.0 -0.6972663288
O  O35  1  0.37820000  0.39110000  0.94540000  1.0 -0.4468043183
O  O36  1  0.62180000  0.89110000  0.05460000  1.0 -0.4468043183
O  O37  1  0.67420000  0.39760000  0.52210000  1.0 -0.8002750993
O  O38  1  0.32580000  0.89760000  0.47790000  1.0 -0.8002750993
O  O39  1  0.34480000  0.31230000  0.45020000  1.0 -0.7715137933
O  O40  1  0.65520000  0.81230000  0.54980000  1.0 -0.7715137933
O  O41  1  0.67580000  0.65190000  0.52940000  1.0 -0.7899974321
O  O42  1  0.32420000  0.15190000  0.47060000  1.0 -0.7899974321
O  O43  1  0.47520000  0.35910000  0.77560000  1.0 -0.3532157873
O  O44  1  0.52480000  0.85910000  0.22440000  1.0 -0.3558909629
O  O45  1  0.10460000  0.51790000  0.79760000  1.0 -0.7613935141
O  O46  1  0.89540000  0.01790000  0.20240000  1.0 -0.7613935141
O  O47  1  0.15920000  0.61720000  0.93200000  1.0 -0.7828935717
O  O48  1  0.84080000  0.11720000  0.06800000  1.0 -0.7828935717
O  O49  1  0.17970000  0.45940000  0.94960000  1.0 -0.7284401987
O  O50  1  0.82030000  0.95940000  0.05040000  1.0 -0.7284401987
O  O51  1  0.21130000  0.51410000  0.64030000  1.0 -0.7715137933
O  O52  1  0.78870000  0.01410000  0.35970000  1.0 -0.7715137933
O  O53  1  0.03790000  0.59920000  0.11320000  1.0 -0.8275019263
O  O54  1  0.96210000  0.09920000  0.88680000  1.0 -0.8275019263
O  O55  1  0.03320000  0.43540000  0.10400000  1.0 -0.8161576127
O  O56  1  0.96680000  0.93540000  0.89600000  1.0 -0.8161576127
O  O57  1  0.98370000  0.50910000  0.23780000  1.0 -0.7828935717
O  O58  1  0.01630000  0.00910000  0.76220000  1.0 -0.7828935717
O  O59  1  0.86710000  0.51920000  0.10000000  1.0 -0.7899974321
O  O60  1  0.13290000  0.01920000  0.90000000  1.0 -0.7899974321
O  O61  1  0.82070000  0.80950000  0.96250000  1.0 -0.7402943543
O  O62  1  0.17930000  0.30950000  0.03750000  1.0 -0.7402943543
O  O63  1  0.96960000  0.71920000  0.93030000  1.0 -0.7828935717
O  O64  1  0.03040000  0.21920000  0.06970000  1.0 -0.7899974321
O  O65  1  0.99520000  0.34330000  0.90980000  1.0 -0.8002750993
O  O66  1  0.00480000  0.84330000  0.09020000  1.0 -0.8002750993
O  O67  1  0.83500000  0.33410000  0.81300000  1.0 -0.7483986182
O  O68  1  0.16500000  0.83410000  0.18700000  1.0 -0.7483986182
O  O69  1  0.64550000  0.43510000  0.82170000  1.0 -0.6833221649
O  O70  1  0.35450000  0.93510000  0.17830000  1.0 -0.6833221649
O  O71  1  0.31690000  0.83530000  0.32150000  1.0 -0.7402943543
O  O72  1  0.68310000  0.33530000  0.67850000  1.0 -0.7402943543
O  O73  1  0.86590000  0.44610000  0.67680000  1.0 -0.7402943543
O  O74  1  0.13410000  0.94610000  0.32320000  1.0 -0.7402943543
O  O75  1  0.82450000  0.53070000  0.53030000  1.0 -0.7613935141
O  O76  1  0.17550000  0.03070000  0.46970000  1.0 -0.7715137933
O  O77  1  0.99930000  0.53340000  0.60800000  1.0 -0.7899974321
O  O78  1  0.00070000  0.03340000  0.39200000  1.0 -0.7899974321
O  O79  1  0.81260000  0.64670000  0.98040000  1.0 -0.7899974321
O  O80  1  0.18740000  0.14670000  0.01960000  1.0 -0.7899974321
O  O81  1  0.13770000  0.74000000  0.05280000  1.0 -0.7899974321
O  O82  1  0.86230000  0.24000000  0.94720000  1.0 -0.7899974321
O  O83  1  0.83450000  0.39810000  0.97260000  1.0 -0.8002750993
O  O84  1  0.16550000  0.89810000  0.02740000  1.0 -0.8002750993
O  O85  1  0.27930000  0.38710000  0.78220000  1.0 -0.6972663288
O  O86  1  0.72070000  0.88710000  0.21780000  1.0 -0.6972663288
O  O87  1  0.81850000  0.52360000  0.83210000  1.0 -0.8002750993
O  O88  1  0.18150000  0.02360000  0.16790000  1.0 -0.8002750993
O  O89  1  0.68600000  0.52370000  0.67060000  1.0 -0.8143180643
O  O90  1  0.31400000  0.02370000  0.32940000  1.0 -0.8143180643
F  F1  1  0.12250000  0.68560000  0.69410000  1.0 -0.5217864995
F  F2  1  0.87750000  0.18560000  0.30590000  1.0 -0.5217864995
F  F3  1  0.52640000  0.52910000  0.54810000  1.0 -0.4923563336
F  F4  1  0.47360000  0.02910000  0.45190000  1.0 -0.4923563336
F  F5  1  0.97430000  0.54160000  0.94850000  1.0 -0.5217864995
F  F6  1  0.02570000  0.04160000  0.05150000  1.0 -0.5217864995
