# DDEC6 charges by PACMAN v1.1 (https://github.com/mtap-research/PACMAN-charge/)
data_FALRIV01_FSR_pacman
_symmetry_space_group_name_H-M   'P 1'
_cell_length_a   13.66810000
_cell_length_b   13.66810000
_cell_length_c   8.77590000
_cell_angle_alpha   82.39810000
_cell_angle_beta   97.60190000
_cell_angle_gamma   85.44530000
_symmetry_Int_Tables_number   1
_chemical_formula_structural   ZnH24(C13N4)2
_chemical_formula_sum   'Zn2 H48 C52 N16'
_cell_volume   1602.94003488
_cell_formula_units_Z   2
loop_
 _symmetry_equiv_pos_site_id
 _symmetry_equiv_pos_as_xyz
  1  'x, y, z'
loop_
 _atom_site_type_symbol
 _atom_site_label
 _atom_site_symmetry_multiplicity
 _atom_site_fract_x
 _atom_site_fract_y
 _atom_site_fract_z
 _atom_site_occupancy
 _atom_site_charge
Zn  Zn1  1  0.82512000  0.82512000  0.25000000  1.0 0.6638953965
Zn  Zn2  1  0.17488000  0.17488000  0.75000000  1.0 0.6638953965
H  H1  1  0.89250000  0.63150000  0.48930000  1.0 0.0995734986
H  H2  1  0.63150000  0.89250000  0.01070000  1.0 0.0995734986
H  H3  1  0.75820000  0.66620000  0.06490000  1.0 0.0995734986
H  H4  1  0.66620000  0.75820000  0.43510000  1.0 0.0995734986
H  H5  1  0.75960000  0.49840000  0.07000000  1.0 0.1283750887
H  H6  1  0.49840000  0.75960000  0.43000000  1.0 0.1283750887
H  H7  1  0.89310000  0.46410000  0.50880000  1.0 0.1283750887
H  H8  1  0.46410000  0.89310000  0.99120000  1.0 0.1283750887
H  H9  1  0.89830000  0.32050000  0.33290000  1.0 0.1283750887
H  H10  1  0.32050000  0.89830000  0.16710000  1.0 0.1283750887
H  H11  1  0.79380000  0.32500000  0.38690000  1.0 0.1196785103
H  H12  1  0.32500000  0.79380000  0.11310000  1.0 0.1196785103
H  H13  1  0.82460000  0.33160000  0.08070000  1.0 0.1123569433
H  H14  1  0.33160000  0.82460000  0.41930000  1.0 0.1123569433
H  H15  1  0.72040000  0.33400000  0.13670000  1.0 0.1123569433
H  H16  1  0.33400000  0.72040000  0.36330000  1.0 0.1123569433
H  H17  1  0.92560000  0.00740000  0.10880000  1.0 0.0916393045
H  H18  1  0.00740000  0.92560000  0.39120000  1.0 0.0916393045
H  H19  1  0.69550000  0.00670000  0.32100000  1.0 0.0916393045
H  H20  1  0.00670000  0.69550000  0.17900000  1.0 0.0916393045
H  H21  1  0.91850000  0.17610000  0.08220000  1.0 0.1123569433
H  H22  1  0.17610000  0.91850000  0.41780000  1.0 0.1123569433
H  H23  1  0.67650000  0.17570000  0.28730000  1.0 0.1283750887
H  H24  1  0.17570000  0.67650000  0.21270000  1.0 0.1283750887
H  H25  1  0.10750000  0.36850000  0.51070000  1.0 0.0995734986
H  H26  1  0.36850000  0.10750000  0.98930000  1.0 0.0995734986
H  H27  1  0.24180000  0.33380000  0.93510000  1.0 0.0995734986
H  H28  1  0.33380000  0.24180000  0.56490000  1.0 0.0995734986
H  H29  1  0.24040000  0.50160000  0.93000000  1.0 0.1283750887
H  H30  1  0.50160000  0.24040000  0.57000000  1.0 0.1283750887
H  H31  1  0.10690000  0.53590000  0.49120000  1.0 0.1283750887
H  H32  1  0.53590000  0.10690000  0.00880000  1.0 0.1283750887
H  H33  1  0.10170000  0.67950000  0.66710000  1.0 0.1283750887
H  H34  1  0.67950000  0.10170000  0.83290000  1.0 0.1283750887
H  H35  1  0.20620000  0.67500000  0.61310000  1.0 0.1196785103
H  H36  1  0.67500000  0.20620000  0.88690000  1.0 0.1196785103
H  H37  1  0.17540000  0.66840000  0.91930000  1.0 0.1123569433
H  H38  1  0.66840000  0.17540000  0.58070000  1.0 0.1123569433
H  H39  1  0.27960000  0.66600000  0.86330000  1.0 0.1123569433
H  H40  1  0.66600000  0.27960000  0.63670000  1.0 0.1123569433
H  H41  1  0.07440000  0.99260000  0.89120000  1.0 0.0916393045
H  H42  1  0.99260000  0.07440000  0.60880000  1.0 0.0916393045
H  H43  1  0.30450000  0.99330000  0.67900000  1.0 0.0916393045
H  H44  1  0.99330000  0.30450000  0.82100000  1.0 0.0916393045
H  H45  1  0.08150000  0.82390000  0.91780000  1.0 0.1123569433
H  H46  1  0.82390000  0.08150000  0.58220000  1.0 0.1123569433
H  H47  1  0.32350000  0.82430000  0.71270000  1.0 0.1283750887
H  H48  1  0.82430000  0.32350000  0.78730000  1.0 0.1283750887
C  C1  1  0.86560000  0.60420000  0.40360000  1.0 0.0496377972
C  C2  1  0.60420000  0.86560000  0.09640000  1.0 0.0496377972
C  C3  1  0.78750000  0.62470000  0.15460000  1.0 0.0791013073
C  C4  1  0.62470000  0.78750000  0.34540000  1.0 0.0791013073
C  C5  1  0.78690000  0.52370000  0.15750000  1.0 -0.2116853129
C  C6  1  0.52370000  0.78690000  0.34250000  1.0 -0.2116853129
C  C7  1  0.86620000  0.50340000  0.41570000  1.0 -0.2205782316
C  C8  1  0.50340000  0.86620000  0.08430000  1.0 -0.2205782316
C  C9  1  0.82740000  0.45960000  0.29220000  1.0 0.1611339506
C  C10  1  0.45960000  0.82740000  0.20780000  1.0 0.1611339506
C  C11  1  0.82980000  0.34840000  0.30320000  1.0 -0.2507026028
C  C12  1  0.34840000  0.82980000  0.19680000  1.0 -0.2507026028
C  C13  1  0.78950000  0.30830000  0.16560000  1.0 -0.2507026028
C  C14  1  0.30830000  0.78950000  0.33440000  1.0 -0.2507026028
C  C15  1  0.87520000  0.04160000  0.14780000  1.0 0.0418020617
C  C16  1  0.04160000  0.87520000  0.35220000  1.0 0.0418020617
C  C17  1  0.74040000  0.04120000  0.26960000  1.0 0.0496377972
C  C18  1  0.04120000  0.74040000  0.23040000  1.0 0.0496377972
C  C19  1  0.87120000  0.14340000  0.13050000  1.0 -0.2205782316
C  C20  1  0.14340000  0.87120000  0.36950000  1.0 -0.2205782316
C  C21  1  0.72980000  0.14320000  0.25250000  1.0 -0.2116853129
C  C22  1  0.14320000  0.72980000  0.24750000  1.0 -0.2116853129
C  C23  1  0.79660000  0.19680000  0.18520000  1.0 0.1448643338
C  C24  1  0.19680000  0.79660000  0.31480000  1.0 0.1448643338
C  C25  1  0.84490000  0.85030000  0.88200000  1.0 0.2898671906
C  C26  1  0.85030000  0.84490000  0.61800000  1.0 0.2898671906
C  C27  1  0.13440000  0.39580000  0.59640000  1.0 0.0496377972
C  C28  1  0.39580000  0.13440000  0.90360000  1.0 0.0496377972
C  C29  1  0.21250000  0.37530000  0.84540000  1.0 0.0791013073
C  C30  1  0.37530000  0.21250000  0.65460000  1.0 0.0791013073
C  C31  1  0.21310000  0.47630000  0.84250000  1.0 -0.2116853129
C  C32  1  0.47630000  0.21310000  0.65750000  1.0 -0.2116853129
C  C33  1  0.13380000  0.49660000  0.58430000  1.0 -0.2205782316
C  C34  1  0.49660000  0.13380000  0.91570000  1.0 -0.2205782316
C  C35  1  0.17260000  0.54040000  0.70780000  1.0 0.1611339506
C  C36  1  0.54040000  0.17260000  0.79220000  1.0 0.1611339506
C  C37  1  0.17020000  0.65160000  0.69680000  1.0 -0.2507026028
C  C38  1  0.65160000  0.17020000  0.80320000  1.0 -0.2507026028
C  C39  1  0.21050000  0.69170000  0.83440000  1.0 -0.2507026028
C  C40  1  0.69170000  0.21050000  0.66560000  1.0 -0.2507026028
C  C41  1  0.12480000  0.95840000  0.85220000  1.0 0.0418020617
C  C42  1  0.95840000  0.12480000  0.64780000  1.0 0.0418020617
C  C43  1  0.25960000  0.95880000  0.73040000  1.0 0.0496377972
C  C44  1  0.95880000  0.25960000  0.76960000  1.0 0.0496377972
C  C45  1  0.12880000  0.85660000  0.86950000  1.0 -0.2205782316
C  C46  1  0.85660000  0.12880000  0.63050000  1.0 -0.2205782316
C  C47  1  0.27020000  0.85680000  0.74750000  1.0 -0.2116853129
C  C48  1  0.85680000  0.27020000  0.75250000  1.0 -0.2116853129
C  C49  1  0.20340000  0.80320000  0.81480000  1.0 0.1454646121
C  C50  1  0.80320000  0.20340000  0.68520000  1.0 0.1448643338
C  C51  1  0.15510000  0.14970000  0.11800000  1.0 0.2898671906
C  C52  1  0.14970000  0.15510000  0.38200000  1.0 0.2898671906
N  N1  1  0.81190000  0.98950000  0.21620000  1.0 -0.2426126171
N  N2  1  0.98950000  0.81190000  0.28380000  1.0 -0.2426126171
N  N3  1  0.82780000  0.66500000  0.27310000  1.0 -0.2205782316
N  N4  1  0.66500000  0.82780000  0.22690000  1.0 -0.2205782316
N  N5  1  0.83080000  0.83600000  0.00380000  1.0 -0.5612862874
N  N6  1  0.83600000  0.83080000  0.49620000  1.0 -0.5612862874
N  N7  1  0.86170000  0.89030000  0.73700000  1.0 -0.110408077
N  N8  1  0.89030000  0.86170000  0.76300000  1.0 -0.110408077
N  N9  1  0.18810000  0.01050000  0.78380000  1.0 -0.2426126171
N  N10  1  0.01050000  0.18810000  0.71620000  1.0 -0.2426126171
N  N11  1  0.17220000  0.33500000  0.72690000  1.0 -0.2205782316
N  N12  1  0.33500000  0.17220000  0.77310000  1.0 -0.2205782316
N  N13  1  0.16920000  0.16400000  0.99620000  1.0 -0.5612862874
N  N14  1  0.16400000  0.16920000  0.50380000  1.0 -0.5612862874
N  N15  1  0.13830000  0.10970000  0.26300000  1.0 -0.110408077
N  N16  1  0.10970000  0.13830000  0.23700000  1.0 -0.110408077
