# DDEC6 charges by PACMAN v1.1 (https://github.com/mtap-research/PACMAN-charge/)
data_FALVOF_ASR_pacman
_symmetry_space_group_name_H-M   'P 1'
_cell_length_a   10.95300000
_cell_length_b   23.05600000
_cell_length_c   20.92800000
_cell_angle_alpha   90.00000000
_cell_angle_beta   111.15800000
_cell_angle_gamma   90.00000000
_symmetry_Int_Tables_number   1
_chemical_formula_structural   Pr2Cu2H5(C5O4)5
_chemical_formula_sum   'Pr8 Cu8 H20 C100 O80'
_cell_volume   4928.72851080
_cell_formula_units_Z   4
loop_
 _symmetry_equiv_pos_site_id
 _symmetry_equiv_pos_as_xyz
  1  'x, y, z'
loop_
 _atom_site_type_symbol
 _atom_site_label
 _atom_site_symmetry_multiplicity
 _atom_site_fract_x
 _atom_site_fract_y
 _atom_site_fract_z
 _atom_site_occupancy
 _atom_site_charge
Pr  Pr1  1  0.13916000  0.35385000  0.09981000  1.0 2.1169610585
Pr  Pr2  1  0.86084000  0.85385000  0.40019000  1.0 2.1169610585
Pr  Pr3  1  0.86084000  0.64615000  0.90019000  1.0 2.1169610585
Pr  Pr4  1  0.13916000  0.14615000  0.59981000  1.0 2.1169610585
Pr  Pr5  1  0.70338000  0.14512000  0.85230000  1.0 2.1131783093
Pr  Pr6  1  0.29662000  0.64512000  0.64770000  1.0 2.1131783093
Pr  Pr7  1  0.29662000  0.85488000  0.14770000  1.0 2.1131783093
Pr  Pr8  1  0.70338000  0.35488000  0.35230000  1.0 2.1131783093
Cu  Cu1  1  0.18999000  0.17742000  0.10005000  1.0 0.9065041805
Cu  Cu2  1  0.81001000  0.67742000  0.39995000  1.0 0.9065041805
Cu  Cu3  1  0.81001000  0.82258000  0.89995000  1.0 0.9065041805
Cu  Cu4  1  0.18999000  0.32258000  0.60005000  1.0 0.9065041805
Cu  Cu5  1  0.65008000  0.32170000  0.84747000  1.0 0.9065041805
Cu  Cu6  1  0.34992000  0.82170000  0.65253000  1.0 0.9065041805
Cu  Cu7  1  0.34992000  0.67830000  0.15253000  1.0 0.9065041805
Cu  Cu8  1  0.65008000  0.17830000  0.34747000  1.0 0.9065041805
H  H1  1  0.02800000  0.20580000  0.75600000  1.0 0.1099744616
H  H2  1  0.97200000  0.70580000  0.74400000  1.0 0.1099744616
H  H3  1  0.97200000  0.79420000  0.24400000  1.0 0.1099744616
H  H4  1  0.02800000  0.29420000  0.25600000  1.0 0.1099744616
H  H5  1  0.31920000  0.30440000  0.94170000  1.0 0.1262816305
H  H6  1  0.68080000  0.80440000  0.55830000  1.0 0.1262816305
H  H7  1  0.68080000  0.69560000  0.05830000  1.0 0.1262816305
H  H8  1  0.31920000  0.19560000  0.44170000  1.0 0.1262816305
H  H9  1  0.37690000  0.58280000  0.95900000  1.0 0.1099744616
H  H10  1  0.62310000  0.08280000  0.54100000  1.0 0.1099744616
H  H11  1  0.62310000  0.41720000  0.04100000  1.0 0.1099744616
H  H12  1  0.37690000  0.91720000  0.45900000  1.0 0.1099744616
H  H13  1  0.80050000  0.29950000  0.19160000  1.0 0.1099744616
H  H14  1  0.19950000  0.79950000  0.30840000  1.0 0.1099744616
H  H15  1  0.19950000  0.70050000  0.80840000  1.0 0.1099744616
H  H16  1  0.80050000  0.20050000  0.69160000  1.0 0.1099744616
H  H17  1  0.52440000  0.19520000  0.00720000  1.0 0.1184578504
H  H18  1  0.47560000  0.69520000  0.49280000  1.0 0.1184578504
H  H19  1  0.47560000  0.80480000  0.99280000  1.0 0.1184578504
H  H20  1  0.52440000  0.30480000  0.50720000  1.0 0.1184578504
C  C1  1  0.16530000  0.24920000  0.91350000  1.0 -0.0265113702
C  C2  1  0.83470000  0.74920000  0.58650000  1.0 -0.0265113702
C  C3  1  0.83470000  0.75080000  0.08650000  1.0 -0.0265113702
C  C4  1  0.16530000  0.25080000  0.41350000  1.0 -0.0265113702
C  C5  1  0.07610000  0.21980000  0.85690000  1.0 -0.0421464391
C  C6  1  0.92390000  0.71980000  0.64310000  1.0 -0.0454981529
C  C7  1  0.92390000  0.78020000  0.14310000  1.0 -0.0454981529
C  C8  1  0.07610000  0.28020000  0.35690000  1.0 -0.0454981529
C  C9  1  0.08540000  0.22610000  0.79310000  1.0 -0.1215424851
C  C10  1  0.91460000  0.72610000  0.70690000  1.0 -0.1215424851
C  C11  1  0.91460000  0.77390000  0.20690000  1.0 -0.1215424851
C  C12  1  0.08540000  0.27390000  0.29310000  1.0 -0.1215424851
C  C13  1  0.17890000  0.26230000  0.78330000  1.0 -0.069064845
C  C14  1  0.82110000  0.76230000  0.71670000  1.0 -0.069064845
C  C15  1  0.82110000  0.73770000  0.21670000  1.0 -0.069064845
C  C16  1  0.17890000  0.23770000  0.28330000  1.0 -0.069064845
C  C17  1  0.26710000  0.29180000  0.83970000  1.0 -0.0103598332
C  C18  1  0.73290000  0.79180000  0.66030000  1.0 -0.0103598332
C  C19  1  0.73290000  0.70820000  0.16030000  1.0 -0.0103598332
C  C20  1  0.26710000  0.20820000  0.33970000  1.0 -0.0103598332
C  C21  1  0.26010000  0.28500000  0.90430000  1.0 -0.1281323039
C  C22  1  0.73990000  0.78500000  0.59570000  1.0 -0.1281323039
C  C23  1  0.73990000  0.71500000  0.09570000  1.0 -0.1281323039
C  C24  1  0.26010000  0.21500000  0.40430000  1.0 -0.1281323039
C  C25  1  0.16820000  0.23980000  0.98510000  1.0 0.6291312541
C  C26  1  0.83180000  0.73980000  0.51490000  1.0 0.6291312541
C  C27  1  0.83180000  0.76020000  0.01490000  1.0 0.6291312541
C  C28  1  0.16820000  0.26020000  0.48510000  1.0 0.6291312541
C  C29  1  0.96130000  0.18780000  0.86240000  1.0 0.5813618268
C  C30  1  0.03870000  0.68780000  0.63760000  1.0 0.5813618268
C  C31  1  0.03870000  0.81220000  0.13760000  1.0 0.5813618268
C  C32  1  0.96130000  0.31220000  0.36240000  1.0 0.5813618268
C  C33  1  0.17640000  0.27110000  0.71220000  1.0 0.6291312541
C  C34  1  0.82360000  0.77110000  0.78780000  1.0 0.6291312541
C  C35  1  0.82360000  0.72890000  0.28780000  1.0 0.6291312541
C  C36  1  0.17640000  0.22890000  0.21220000  1.0 0.6291312541
C  C37  1  0.37910000  0.32660000  0.83420000  1.0 0.5586163963
C  C38  1  0.62090000  0.82660000  0.66580000  1.0 0.5586163963
C  C39  1  0.62090000  0.67340000  0.16580000  1.0 0.5586163963
C  C40  1  0.37910000  0.17340000  0.33420000  1.0 0.5586163963
C  C41  1  0.37170000  0.50370000  0.99850000  1.0 -0.0223573605
C  C42  1  0.62830000  0.00370000  0.50150000  1.0 -0.0223573605
C  C43  1  0.62830000  0.49630000  0.00150000  1.0 -0.0223573605
C  C44  1  0.37170000  0.99630000  0.49850000  1.0 -0.0223573605
C  C45  1  0.44560000  0.45350000  0.02360000  1.0 -0.0421464391
C  C46  1  0.55440000  0.95350000  0.47640000  1.0 -0.0454981529
C  C47  1  0.55440000  0.54650000  0.97640000  1.0 -0.0454981529
C  C48  1  0.44560000  0.04650000  0.52360000  1.0 -0.0454981529
C  C49  1  0.42620000  0.54950000  0.97540000  1.0 -0.0975823735
C  C50  1  0.57380000  0.04950000  0.52460000  1.0 -0.0975823735
C  C51  1  0.57380000  0.45050000  0.02460000  1.0 -0.0975823735
C  C52  1  0.42620000  0.95050000  0.47540000  1.0 -0.0975823735
C  C53  1  0.23070000  0.50980000  0.99180000  1.0 0.5509577359
C  C54  1  0.76930000  0.00980000  0.50820000  1.0 0.5509577359
C  C55  1  0.76930000  0.49020000  0.00820000  1.0 0.5509577359
C  C56  1  0.23070000  0.99020000  0.49180000  1.0 0.5509577359
C  C57  1  0.39450000  0.40420000  0.05290000  1.0 0.5813618268
C  C58  1  0.60550000  0.90420000  0.44710000  1.0 0.5850736464
C  C59  1  0.60550000  0.59580000  0.94710000  1.0 0.5813618268
C  C60  1  0.39450000  0.09580000  0.55290000  1.0 0.5850736464
C  C61  1  0.57170000  0.20890000  0.10850000  1.0 -0.0223573605
C  C62  1  0.42830000  0.70890000  0.39150000  1.0 -0.0223573605
C  C63  1  0.42830000  0.79110000  0.89150000  1.0 -0.0223573605
C  C64  1  0.57170000  0.29110000  0.60850000  1.0 -0.0223573605
C  C65  1  0.65550000  0.24030000  0.16410000  1.0 -0.0421464391
C  C66  1  0.34450000  0.74030000  0.33590000  1.0 -0.0421464391
C  C67  1  0.34450000  0.75970000  0.83590000  1.0 -0.0421464391
C  C68  1  0.65550000  0.25970000  0.66410000  1.0 -0.0421464391
C  C69  1  0.74640000  0.27800000  0.15470000  1.0 -0.1215424851
C  C70  1  0.25360000  0.77800000  0.34530000  1.0 -0.1215424851
C  C71  1  0.25360000  0.72200000  0.84530000  1.0 -0.1215424851
C  C72  1  0.74640000  0.22200000  0.65470000  1.0 -0.1215424851
C  C73  1  0.75790000  0.28410000  0.09110000  1.0 -0.0103598332
C  C74  1  0.24210000  0.78410000  0.40890000  1.0 -0.0103598332
C  C75  1  0.24210000  0.71590000  0.90890000  1.0 -0.0103598332
C  C76  1  0.75790000  0.21590000  0.59110000  1.0 -0.0103598332
C  C77  1  0.67360000  0.25290000  0.03470000  1.0 -0.0265113702
C  C78  1  0.32640000  0.75290000  0.46530000  1.0 -0.0265113702
C  C79  1  0.32640000  0.74710000  0.96530000  1.0 -0.0265113702
C  C80  1  0.67360000  0.24710000  0.53470000  1.0 -0.0265113702
C  C81  1  0.58090000  0.21570000  0.04440000  1.0 -0.1281323039
C  C82  1  0.41910000  0.71570000  0.45560000  1.0 -0.1281323039
C  C83  1  0.41910000  0.78430000  0.95560000  1.0 -0.1281323039
C  C84  1  0.58090000  0.28430000  0.54440000  1.0 -0.1281323039
C  C85  1  0.46130000  0.17120000  0.11180000  1.0 0.5658193494
C  C86  1  0.53870000  0.67120000  0.38820000  1.0 0.5658193494
C  C87  1  0.53870000  0.82880000  0.88820000  1.0 0.5658193494
C  C88  1  0.46130000  0.32880000  0.61180000  1.0 0.5658193494
C  C89  1  0.65790000  0.23080000  0.23580000  1.0 0.620562848
C  C90  1  0.34210000  0.73080000  0.26420000  1.0 0.620562848
C  C91  1  0.34210000  0.76920000  0.76420000  1.0 0.620562848
C  C92  1  0.65790000  0.26920000  0.73580000  1.0 0.620562848
C  C93  1  0.87310000  0.31700000  0.08580000  1.0 0.5586163963
C  C94  1  0.12690000  0.81700000  0.41420000  1.0 0.5586163963
C  C95  1  0.12690000  0.68300000  0.91420000  1.0 0.5586163963
C  C96  1  0.87310000  0.18300000  0.58580000  1.0 0.5586163963
C  C97  1  0.67190000  0.26090000  0.96360000  1.0 0.6291312541
C  C98  1  0.32810000  0.76090000  0.53640000  1.0 0.6291312541
C  C99  1  0.32810000  0.73910000  0.03640000  1.0 0.6291312541
C  C100  1  0.67190000  0.23910000  0.46360000  1.0 0.6291312541
O  O1  1  0.16707000  0.28262000  0.02087000  1.0 -0.6804671918
O  O2  1  0.83293000  0.78262000  0.47913000  1.0 -0.6804671918
O  O3  1  0.83293000  0.71738000  0.97913000  1.0 -0.6804671918
O  O4  1  0.16707000  0.21738000  0.52087000  1.0 -0.6804671918
O  O5  1  0.17746000  0.18757000  0.00496000  1.0 -0.5508964692
O  O6  1  0.82254000  0.68757000  0.49504000  1.0 -0.5508964692
O  O7  1  0.82254000  0.81243000  0.99504000  1.0 -0.5508964692
O  O8  1  0.17746000  0.31243000  0.50496000  1.0 -0.5508964692
O  O9  1  0.90681000  0.20872000  0.90131000  1.0 -0.618354242
O  O10  1  0.09319000  0.70872000  0.59869000  1.0 -0.618354242
O  O11  1  0.09319000  0.79128000  0.09869000  1.0 -0.618354242
O  O12  1  0.90681000  0.29128000  0.40131000  1.0 -0.618354242
O  O13  1  0.91700000  0.14409000  0.82610000  1.0 -0.618354242
O  O14  1  0.08300000  0.64409000  0.67390000  1.0 -0.618354242
O  O15  1  0.08300000  0.85591000  0.17390000  1.0 -0.618354242
O  O16  1  0.91700000  0.35591000  0.32610000  1.0 -0.618354242
O  O17  1  0.14477000  0.22899000  0.67187000  1.0 -0.7226453458
O  O18  1  0.85523000  0.72899000  0.82813000  1.0 -0.7226453458
O  O19  1  0.85523000  0.77101000  0.32813000  1.0 -0.7226453458
O  O20  1  0.14477000  0.27101000  0.17187000  1.0 -0.7226453458
O  O21  1  0.20162000  0.32122000  0.69592000  1.0 -0.5172343711
O  O22  1  0.79838000  0.82122000  0.80408000  1.0 -0.5172343711
O  O23  1  0.79838000  0.67878000  0.30408000  1.0 -0.5172343711
O  O24  1  0.20162000  0.17878000  0.19592000  1.0 -0.5172343711
O  O25  1  0.46384000  0.29758000  0.81994000  1.0 -0.5729470288
O  O26  1  0.53616000  0.79758000  0.68006000  1.0 -0.5729470288
O  O27  1  0.53616000  0.70242000  0.18006000  1.0 -0.5729470288
O  O28  1  0.46384000  0.20242000  0.31994000  1.0 -0.5729470288
O  O29  1  0.38600000  0.37889000  0.84820000  1.0 -0.4891912227
O  O30  1  0.61400000  0.87889000  0.65180000  1.0 -0.4891912227
O  O31  1  0.61400000  0.62111000  0.15180000  1.0 -0.4891912227
O  O32  1  0.38600000  0.12111000  0.34820000  1.0 -0.4891912227
O  O33  1  0.20770000  0.53949000  0.03770000  1.0 -0.4705903341
O  O34  1  0.79230000  0.03949000  0.46230000  1.0 -0.4705903341
O  O35  1  0.79230000  0.46051000  0.96230000  1.0 -0.4705903341
O  O36  1  0.20770000  0.96051000  0.53770000  1.0 -0.4705903341
O  O37  1  0.14310000  0.48813000  0.94110000  1.0 -0.4331792329
O  O38  1  0.85690000  0.98813000  0.55890000  1.0 -0.4355817769
O  O39  1  0.85690000  0.51187000  0.05890000  1.0 -0.4355817769
O  O40  1  0.14310000  0.01187000  0.44110000  1.0 -0.4355817769
O  O41  1  0.28490000  0.40980000  0.05900000  1.0 -0.6566612159
O  O42  1  0.71510000  0.90980000  0.44100000  1.0 -0.6566612159
O  O43  1  0.71510000  0.59020000  0.94100000  1.0 -0.6566612159
O  O44  1  0.28490000  0.09020000  0.55900000  1.0 -0.6566612159
O  O45  1  0.46520000  0.36060000  0.07040000  1.0 -0.5379517113
O  O46  1  0.53480000  0.86060000  0.42960000  1.0 -0.5379517113
O  O47  1  0.53480000  0.63940000  0.92960000  1.0 -0.5379517113
O  O48  1  0.46520000  0.13940000  0.57040000  1.0 -0.5379517113
O  O49  1  0.37918000  0.19603000  0.13188000  1.0 -0.5619995182
O  O50  1  0.62082000  0.69603000  0.36812000  1.0 -0.5619995182
O  O51  1  0.62082000  0.80397000  0.86812000  1.0 -0.5619995182
O  O52  1  0.37918000  0.30397000  0.63188000  1.0 -0.5619995182
O  O53  1  0.45300000  0.12070000  0.09160000  1.0 -0.4582905804
O  O54  1  0.54700000  0.62070000  0.40840000  1.0 -0.4582905804
O  O55  1  0.54700000  0.87930000  0.90840000  1.0 -0.4582905804
O  O56  1  0.45300000  0.37930000  0.59160000  1.0 -0.4582905804
O  O57  1  0.63739000  0.17996000  0.25179000  1.0 -0.5172343711
O  O58  1  0.36261000  0.67996000  0.24821000  1.0 -0.5172343711
O  O59  1  0.36261000  0.82004000  0.74821000  1.0 -0.5172343711
O  O60  1  0.63739000  0.32004000  0.75179000  1.0 -0.5172343711
O  O61  1  0.68607000  0.27233000  0.27667000  1.0 -0.7094592486
O  O62  1  0.31393000  0.77233000  0.22333000  1.0 -0.7094592486
O  O63  1  0.31393000  0.72767000  0.72333000  1.0 -0.7094592486
O  O64  1  0.68607000  0.22767000  0.77667000  1.0 -0.7094592486
O  O65  1  0.91650000  0.36132000  0.12140000  1.0 -0.614385057
O  O66  1  0.08350000  0.86132000  0.37860000  1.0 -0.614385057
O  O67  1  0.08350000  0.63868000  0.87860000  1.0 -0.614385057
O  O68  1  0.91650000  0.13868000  0.62140000  1.0 -0.614385057
O  O69  1  0.92887000  0.29553000  0.04757000  1.0 -0.6326981221
O  O70  1  0.07113000  0.79553000  0.45243000  1.0 -0.6326981221
O  O71  1  0.07113000  0.70447000  0.95243000  1.0 -0.6326981221
O  O72  1  0.92887000  0.20447000  0.54757000  1.0 -0.6326981221
O  O73  1  0.66803000  0.21654000  0.92823000  1.0 -0.7268600498
O  O74  1  0.33197000  0.71654000  0.57177000  1.0 -0.7268600498
O  O75  1  0.33197000  0.78346000  0.07177000  1.0 -0.7268600498
O  O76  1  0.66803000  0.28346000  0.42823000  1.0 -0.7268600498
O  O77  1  0.66740000  0.31244000  0.94280000  1.0 -0.5172343711
O  O78  1  0.33260000  0.81244000  0.55720000  1.0 -0.5172343711
O  O79  1  0.33260000  0.68756000  0.05720000  1.0 -0.5172343711
O  O80  1  0.66740000  0.18756000  0.44280000  1.0 -0.5172343711
