# DDEC6 charges by PACMAN v1.1 (https://github.com/mtap-research/PACMAN-charge/)
data_FALWIC_ASR_pacman
_symmetry_space_group_name_H-M   'P 1'
_cell_length_a   9.59600000
_cell_length_b   10.06230000
_cell_length_c   10.29380000
_cell_angle_alpha   66.95700000
_cell_angle_beta   88.60400000
_cell_angle_gamma   87.27000000
_symmetry_Int_Tables_number   1
_chemical_formula_structural   CdH22C24(N5O6)2
_chemical_formula_sum   'Cd1 H22 C24 N10 O12'
_cell_volume   913.58557713
_cell_formula_units_Z   1
loop_
 _symmetry_equiv_pos_site_id
 _symmetry_equiv_pos_as_xyz
  1  'x, y, z'
loop_
 _atom_site_type_symbol
 _atom_site_label
 _atom_site_symmetry_multiplicity
 _atom_site_fract_x
 _atom_site_fract_y
 _atom_site_fract_z
 _atom_site_occupancy
 _atom_site_charge
Cd  Cd1  1  0.00000000  0.00000000  0.50000000  1.0 0.5168550669
H  H1  1  0.02220000  0.67960000  0.50750000  1.0 0.0196623707
H  H2  1  0.14300000  0.46240000  0.59950000  1.0 0.0687931164
H  H3  1  0.30480000  0.42160000  0.77590000  1.0 0.0889618803
H  H4  1  0.20840000  0.81730000  0.75830000  1.0 0.0494286206
H  H5  1  0.37980000  0.67990000  0.92480000  1.0 0.1036777853
H  H6  1  0.93730000  0.87250000  0.83690000  1.0 0.0594730771
H  H7  1  0.76890000  0.84740000  0.00560000  1.0 0.0889618803
H  H8  1  0.49530000  0.04120000  0.69860000  1.0 0.0889618803
H  H9  1  0.67030000  0.06120000  0.53880000  1.0 0.0594730771
H  H10  1  0.51760000  0.84770000  0.06450000  1.0 0.0828966501
H  H11  1  0.41050000  0.92870000  0.94340000  1.0 0.0687931164
H  H12  1  0.97780000  0.32040000  0.49250000  1.0 0.0196623707
H  H13  1  0.85700000  0.53760000  0.40050000  1.0 0.0687931164
H  H14  1  0.69520000  0.57840000  0.22410000  1.0 0.0889618803
H  H15  1  0.79160000  0.18270000  0.24170000  1.0 0.0494286206
H  H16  1  0.62020000  0.32010000  0.07520000  1.0 0.1036777853
H  H17  1  0.06270000  0.12750000  0.16310000  1.0 0.0594730771
H  H18  1  0.23110000  0.15260000  0.99440000  1.0 0.0889618803
H  H19  1  0.50470000  0.95880000  0.30140000  1.0 0.0889618803
H  H20  1  0.32970000  0.93880000  0.46120000  1.0 0.0594730771
H  H21  1  0.48240000  0.15230000  0.93550000  1.0 0.0828966501
H  H22  1  0.58950000  0.07130000  0.05660000  1.0 0.0687931164
C  C1  1  0.08660000  0.66450000  0.57850000  1.0 -0.0159583918
C  C2  1  0.15870000  0.53380000  0.63300000  1.0 -0.1715097667
C  C3  1  0.25440000  0.50940000  0.73780000  1.0 -0.1087790669
C  C4  1  0.27460000  0.61790000  0.78570000  1.0 0.0494286206
C  C5  1  0.19620000  0.74490000  0.72520000  1.0 -0.0398256944
C  C6  1  0.37490000  0.60450000  0.89450000  1.0 0.0089158917
C  C7  1  0.84700000  0.90770000  0.80810000  1.0 -0.0092827945
C  C8  1  0.74580000  0.89210000  0.91060000  1.0 -0.222348036
C  C9  1  0.61170000  0.94260000  0.87220000  1.0 0.1463702975
C  C10  1  0.58490000  0.00610000  0.73010000  1.0 -0.2321031035
C  C11  1  0.69130000  0.01760000  0.63440000  1.0 -0.0159583918
C  C12  1  0.50090000  0.93470000  0.98040000  1.0 -0.2795749845
C  C13  1  0.91340000  0.33550000  0.42150000  1.0 -0.0159583918
C  C14  1  0.84130000  0.46620000  0.36700000  1.0 -0.1715097667
C  C15  1  0.74560000  0.49060000  0.26220000  1.0 -0.1087790669
C  C16  1  0.72540000  0.38210000  0.21430000  1.0 0.0494286206
C  C17  1  0.80380000  0.25510000  0.27480000  1.0 -0.0398256944
C  C18  1  0.62510000  0.39550000  0.10550000  1.0 0.0089158917
C  C19  1  0.15300000  0.09230000  0.19190000  1.0 -0.0092827945
C  C20  1  0.25420000  0.10790000  0.08940000  1.0 -0.222348036
C  C21  1  0.38830000  0.05740000  0.12780000  1.0 0.1463702975
C  C22  1  0.41510000  0.99390000  0.26990000  1.0 -0.2321031035
C  C23  1  0.30870000  0.98240000  0.36560000  1.0 -0.0159583918
C  C24  1  0.49910000  0.06530000  0.01960000  1.0 -0.2795749845
N  N1  1  0.81590000  0.88400000  0.30070000  1.0 0.4432147501
N  N2  1  0.10410000  0.77120000  0.62240000  1.0 -0.3609664084
N  N3  1  0.45580000  0.49400000  0.94930000  1.0 -0.1409493577
N  N4  1  0.82160000  0.97050000  0.67030000  1.0 -0.3974543901
N  N5  1  0.80400000  0.87100000  0.33200000  1.0 0.425404018
N  N6  1  0.18410000  0.11600000  0.69930000  1.0 0.4432147501
N  N7  1  0.89590000  0.22880000  0.37760000  1.0 -0.3609664084
N  N8  1  0.54420000  0.50600000  0.05070000  1.0 -0.1522723229
N  N9  1  0.17840000  0.02950000  0.32970000  1.0 -0.3974543901
N  N10  1  0.19600000  0.12900000  0.66800000  1.0 0.425404018
O  O1  1  0.83220000  0.89660000  0.41380000  1.0 0.0279591561
O  O2  1  0.85250000  0.97870000  0.19180000  1.0 -0.1409493577
O  O3  1  0.73100000  0.80920000  0.28130000  1.0 -0.029022915
O  O4  1  0.92130000  0.90780000  0.30750000  1.0 0.0196623707
O  O5  1  0.76000000  0.85880000  0.44330000  1.0 -0.0710186006
O  O6  1  0.79500000  0.77920000  0.28800000  1.0 0.0828966501
O  O7  1  0.16780000  0.10340000  0.58620000  1.0 0.0279591561
O  O8  1  0.14750000  0.02130000  0.80820000  1.0 -0.1409493577
O  O9  1  0.26900000  0.19080000  0.71870000  1.0 -0.029022915
O  O10  1  0.07870000  0.09220000  0.69250000  1.0 0.0196623707
O  O11  1  0.24000000  0.14120000  0.55670000  1.0 -0.0710186006
O  O12  1  0.20500000  0.22080000  0.71200000  1.0 0.0828966501
