# DDEC6 charges by PACMAN v1.1 (https://github.com/mtap-research/PACMAN-charge/)
data_FALZOI_ASR_pacman
_symmetry_space_group_name_H-M   'P 1'
_cell_length_a   14.50110000
_cell_length_b   14.50110000
_cell_length_c   14.50110000
_cell_angle_alpha   109.47100000
_cell_angle_beta   109.47100000
_cell_angle_gamma   109.47100000
_symmetry_Int_Tables_number   1
_chemical_formula_structural   Al3(PO4)4
_chemical_formula_sum   'Al9 P12 O48'
_cell_volume   2347.38594138
_cell_formula_units_Z   3
loop_
 _symmetry_equiv_pos_site_id
 _symmetry_equiv_pos_as_xyz
  1  'x, y, z'
loop_
 _atom_site_type_symbol
 _atom_site_label
 _atom_site_symmetry_multiplicity
 _atom_site_fract_x
 _atom_site_fract_y
 _atom_site_fract_z
 _atom_site_occupancy
 _atom_site_charge
Al  Al1  1  0.50000000  0.00000000  0.50000000  1.0 1.6690135071
Al  Al2  1  0.50000000  0.50000000  0.00000000  1.0 1.6561261485
Al  Al3  1  0.00000000  0.50000000  0.50000000  1.0 1.6690135071
Al  Al4  1  0.25000000  0.75000000  0.50000000  1.0 1.7514503667
Al  Al5  1  0.75000000  0.25000000  0.50000000  1.0 1.7514503667
Al  Al6  1  0.50000000  0.25000000  0.75000000  1.0 1.7514503667
Al  Al7  1  0.50000000  0.75000000  0.25000000  1.0 1.7514503667
Al  Al8  1  0.75000000  0.50000000  0.25000000  1.0 1.7514503667
Al  Al9  1  0.25000000  0.50000000  0.75000000  1.0 1.7514503667
P  P1  1  0.44703000  0.00000000  0.69041000  1.0 1.3106642037
P  P2  1  0.30959000  0.75662000  0.30959000  1.0 1.3106642037
P  P3  1  0.69041000  0.00000000  0.44703000  1.0 1.3106642037
P  P4  1  0.55297000  0.24338000  0.55297000  1.0 1.3106642037
P  P5  1  0.69041000  0.44703000  0.00000000  1.0 1.3106642037
P  P6  1  0.30959000  0.30959000  0.75662000  1.0 1.3106642037
P  P7  1  0.44703000  0.69041000  0.00000000  1.0 1.3106642037
P  P8  1  0.55297000  0.55297000  0.24338000  1.0 1.3106642037
P  P9  1  0.00000000  0.69041000  0.44703000  1.0 1.3106642037
P  P10  1  0.75662000  0.30959000  0.30959000  1.0 1.3106642037
P  P11  1  0.00000000  0.44703000  0.69041000  1.0 1.3106642037
P  P12  1  0.24338000  0.55297000  0.55297000  1.0 1.3106642037
O  O1  1  0.51595000  0.00000000  0.79445000  1.0 -0.4602575879
O  O2  1  0.20555000  0.72150000  0.20555000  1.0 -0.4602575879
O  O3  1  0.79445000  0.00000000  0.51595000  1.0 -0.4602575879
O  O4  1  0.48405000  0.27850000  0.48405000  1.0 -0.4602575879
O  O5  1  0.79445000  0.51595000  0.00000000  1.0 -0.4602575879
O  O6  1  0.20555000  0.20555000  0.72150000  1.0 -0.4602575879
O  O7  1  0.51595000  0.79445000  0.00000000  1.0 -0.4602575879
O  O8  1  0.48405000  0.48405000  0.27850000  1.0 -0.4602575879
O  O9  1  0.00000000  0.79445000  0.51595000  1.0 -0.4602575879
O  O10  1  0.72150000  0.20555000  0.20555000  1.0 -0.4602575879
O  O11  1  0.00000000  0.51595000  0.79445000  1.0 -0.4602575879
O  O12  1  0.27850000  0.48405000  0.48405000  1.0 -0.4602575879
O  O13  1  0.32818000  0.89737000  0.61441000  1.0 -0.7100641211
O  O14  1  0.28296000  0.71377000  0.38559000  1.0 -0.7100641211
O  O15  1  0.71704000  0.10263000  0.43081000  1.0 -0.7100641211
O  O16  1  0.67182000  0.28623000  0.56919000  1.0 -0.7100641211
O  O17  1  0.61441000  0.32818000  0.89737000  1.0 -0.7100641211
O  O18  1  0.38559000  0.28296000  0.71377000  1.0 -0.7100641211
O  O19  1  0.43081000  0.71704000  0.10263000  1.0 -0.7100641211
O  O20  1  0.56919000  0.67182000  0.28623000  1.0 -0.7100641211
O  O21  1  0.89737000  0.61441000  0.32818000  1.0 -0.7100641211
O  O22  1  0.71377000  0.38559000  0.28296000  1.0 -0.7100641211
O  O23  1  0.10263000  0.43081000  0.71704000  1.0 -0.7100641211
O  O24  1  0.28623000  0.56919000  0.67182000  1.0 -0.7100641211
O  O25  1  0.89737000  0.32818000  0.61441000  1.0 -0.7100641211
O  O26  1  0.71377000  0.28296000  0.38559000  1.0 -0.7100641211
O  O27  1  0.10263000  0.71704000  0.43081000  1.0 -0.7100641211
O  O28  1  0.28623000  0.67182000  0.56919000  1.0 -0.7100641211
O  O29  1  0.32818000  0.61441000  0.89737000  1.0 -0.7100641211
O  O30  1  0.28296000  0.38559000  0.71377000  1.0 -0.7100641211
O  O31  1  0.71704000  0.43081000  0.10263000  1.0 -0.7100641211
O  O32  1  0.67182000  0.56919000  0.28623000  1.0 -0.7100641211
O  O33  1  0.61441000  0.89737000  0.32818000  1.0 -0.7100641211
O  O34  1  0.38559000  0.71377000  0.28296000  1.0 -0.7100641211
O  O35  1  0.43081000  0.10263000  0.71704000  1.0 -0.7100641211
O  O36  1  0.56919000  0.28623000  0.67182000  1.0 -0.7100641211
O  O37  1  0.50602000  0.00000000  0.62058000  1.0 -0.7214272115
O  O38  1  0.37942000  0.88544000  0.37942000  1.0 -0.7214272115
O  O39  1  0.62058000  0.00000000  0.50602000  1.0 -0.7214272115
O  O40  1  0.49398000  0.11456000  0.49398000  1.0 -0.7214272115
O  O41  1  0.62058000  0.50602000  0.00000000  1.0 -0.7214272115
O  O42  1  0.37942000  0.37942000  0.88544000  1.0 -0.7214272115
O  O43  1  0.50602000  0.62058000  0.00000000  1.0 -0.7304965189
O  O44  1  0.49398000  0.49398000  0.11456000  1.0 -0.7214272115
O  O45  1  0.00000000  0.62058000  0.50602000  1.0 -0.7214272115
O  O46  1  0.88544000  0.37942000  0.37942000  1.0 -0.7214272115
O  O47  1  0.00000000  0.50602000  0.62058000  1.0 -0.7214272115
O  O48  1  0.11456000  0.49398000  0.49398000  1.0 -0.7214272115
