# DDEC6 charges by PACMAN v1.1 (https://github.com/mtap-research/PACMAN-charge/)
data_FALZAU_ASR_pacman
_symmetry_space_group_name_H-M   'P 1'
_cell_length_a   9.05360000
_cell_length_b   10.16600000
_cell_length_c   25.15800000
_cell_angle_alpha   90.00000000
_cell_angle_beta   90.00000000
_cell_angle_gamma   90.00000000
_symmetry_Int_Tables_number   1
_chemical_formula_structural   Ga2P3O11
_chemical_formula_sum   'Ga16 P24 O88'
_cell_volume   2315.51458582
_cell_formula_units_Z   8
loop_
 _symmetry_equiv_pos_site_id
 _symmetry_equiv_pos_as_xyz
  1  'x, y, z'
loop_
 _atom_site_type_symbol
 _atom_site_label
 _atom_site_symmetry_multiplicity
 _atom_site_fract_x
 _atom_site_fract_y
 _atom_site_fract_z
 _atom_site_occupancy
 _atom_site_charge
Ga  Ga1  1  0.12231000  0.31131000  0.88335000  1.0 1.4712669724
Ga  Ga2  1  0.37769000  0.81131000  0.61665000  1.0 1.4712669724
Ga  Ga3  1  0.12231000  0.18869000  0.11665000  1.0 1.4712669724
Ga  Ga4  1  0.37769000  0.68869000  0.38335000  1.0 1.4712669724
Ga  Ga5  1  0.87769000  0.68869000  0.11665000  1.0 1.4712669724
Ga  Ga6  1  0.62231000  0.18869000  0.38335000  1.0 1.4712669724
Ga  Ga7  1  0.87769000  0.81131000  0.88335000  1.0 1.4712669724
Ga  Ga8  1  0.62231000  0.31131000  0.61665000  1.0 1.4712669724
Ga  Ga9  1  0.66977000  0.51069000  0.76735000  1.0 1.5801017278
Ga  Ga10  1  0.83023000  0.01069000  0.73265000  1.0 1.5801017278
Ga  Ga11  1  0.66977000  0.98931000  0.23265000  1.0 1.5801017278
Ga  Ga12  1  0.83023000  0.48931000  0.26735000  1.0 1.5801017278
Ga  Ga13  1  0.33023000  0.48931000  0.23265000  1.0 1.5801017278
Ga  Ga14  1  0.16977000  0.98931000  0.26735000  1.0 1.5801017278
Ga  Ga15  1  0.33023000  0.01069000  0.76735000  1.0 1.5801017278
Ga  Ga16  1  0.16977000  0.51069000  0.73265000  1.0 1.5801017278
P  P1  1  0.11340000  0.17840000  0.99470000  1.0 0.6566722193
P  P2  1  0.38660000  0.67840000  0.50530000  1.0 0.6566722193
P  P3  1  0.11340000  0.32160000  0.00530000  1.0 0.6566722193
P  P4  1  0.38660000  0.82160000  0.49470000  1.0 0.6566722193
P  P5  1  0.88660000  0.82160000  0.00530000  1.0 0.6566722193
P  P6  1  0.61340000  0.32160000  0.49470000  1.0 0.6566722193
P  P7  1  0.88660000  0.67840000  0.99470000  1.0 0.6566722193
P  P8  1  0.61340000  0.17840000  0.50530000  1.0 0.6566722193
P  P9  1  0.04568000  0.03839000  0.83875000  1.0 1.5255825394
P  P10  1  0.45432000  0.53839000  0.66125000  1.0 1.52309551
P  P11  1  0.04568000  0.46161000  0.16125000  1.0 1.52309551
P  P12  1  0.45432000  0.96161000  0.33875000  1.0 1.52309551
P  P13  1  0.95432000  0.96161000  0.16125000  1.0 1.52309551
P  P14  1  0.54568000  0.46161000  0.33875000  1.0 1.52309551
P  P15  1  0.95432000  0.53839000  0.83875000  1.0 1.52309551
P  P16  1  0.54568000  0.03839000  0.66125000  1.0 1.52309551
P  P17  1  0.38883000  0.32008000  0.80216000  1.0 1.5735576822
P  P18  1  0.11117000  0.82008000  0.69784000  1.0 1.5801017278
P  P19  1  0.38883000  0.17992000  0.19784000  1.0 1.5735576822
P  P20  1  0.11117000  0.67992000  0.30216000  1.0 1.5801017278
P  P21  1  0.61117000  0.67992000  0.19784000  1.0 1.5735576822
P  P22  1  0.88883000  0.17992000  0.30216000  1.0 1.5735576822
P  P23  1  0.61117000  0.82008000  0.80216000  1.0 1.5735576822
P  P24  1  0.88883000  0.32008000  0.69784000  1.0 1.5735576822
O  O1  1  0.30810000  0.33130000  0.85653000  1.0 -0.7387828878
O  O2  1  0.19190000  0.83130000  0.64347000  1.0 -0.7387828878
O  O3  1  0.30810000  0.16870000  0.14347000  1.0 -0.7387828878
O  O4  1  0.19190000  0.66870000  0.35653000  1.0 -0.7387828878
O  O5  1  0.69190000  0.66870000  0.14347000  1.0 -0.7387828878
O  O6  1  0.80810000  0.16870000  0.35653000  1.0 -0.7387828878
O  O7  1  0.69190000  0.83130000  0.85653000  1.0 -0.7387828878
O  O8  1  0.80810000  0.33130000  0.64347000  1.0 -0.7387828878
O  O9  1  0.52650000  0.40370000  0.80756000  1.0 -0.7021588073
O  O10  1  0.97350000  0.90370000  0.69244000  1.0 -0.7021588073
O  O11  1  0.52650000  0.09630000  0.19244000  1.0 -0.7021588073
O  O12  1  0.97350000  0.59630000  0.30756000  1.0 -0.7021588073
O  O13  1  0.47350000  0.59630000  0.19244000  1.0 -0.7021588073
O  O14  1  0.02650000  0.09630000  0.30756000  1.0 -0.7021588073
O  O15  1  0.47350000  0.90370000  0.80756000  1.0 -0.7021588073
O  O16  1  0.02650000  0.40370000  0.69244000  1.0 -0.7021588073
O  O17  1  0.16660000  0.26870000  0.95175000  1.0 -0.4543413646
O  O18  1  0.33340000  0.76870000  0.54825000  1.0 -0.4543413646
O  O19  1  0.16660000  0.23130000  0.04825000  1.0 -0.4543413646
O  O20  1  0.33340000  0.73130000  0.45175000  1.0 -0.4543413646
O  O21  1  0.83340000  0.73130000  0.04825000  1.0 -0.4543413646
O  O22  1  0.66666667  0.23130000  0.45175000  1.0 -0.4543413646
O  O23  1  0.83340000  0.76870000  0.95175000  1.0 -0.4543413646
O  O24  1  0.66666667  0.26870000  0.54825000  1.0 -0.4543413646
O  O25  1  0.01290000  0.18350000  0.85135000  1.0 -0.7021588073
O  O26  1  0.48710000  0.68350000  0.64865000  1.0 -0.7050464875
O  O27  1  0.01290000  0.31650000  0.14865000  1.0 -0.7050464875
O  O28  1  0.48710000  0.81650000  0.35135000  1.0 -0.7050464875
O  O29  1  0.98710000  0.81650000  0.14865000  1.0 -0.7050464875
O  O30  1  0.51290000  0.31650000  0.35135000  1.0 -0.7050464875
O  O31  1  0.98710000  0.68350000  0.85135000  1.0 -0.7050464875
O  O32  1  0.51290000  0.18350000  0.64865000  1.0 -0.7050464875
O  O33  1  0.43110000  0.17460000  0.79283000  1.0 -0.7387828878
O  O34  1  0.06890000  0.67460000  0.70717000  1.0 -0.7387828878
O  O35  1  0.43110000  0.32540000  0.20717000  1.0 -0.7387828878
O  O36  1  0.06890000  0.82540000  0.29283000  1.0 -0.7387828878
O  O37  1  0.56890000  0.82540000  0.20717000  1.0 -0.7387828878
O  O38  1  0.93110000  0.32540000  0.29283000  1.0 -0.7387828878
O  O39  1  0.56890000  0.67460000  0.79283000  1.0 -0.7387828878
O  O40  1  0.93110000  0.17460000  0.70717000  1.0 -0.7387828878
O  O41  1  0.99360000  0.95800000  0.88729000  1.0 -0.6886279709
O  O42  1  0.50640000  0.45800000  0.61271000  1.0 -0.6886279709
O  O43  1  0.99360000  0.54200000  0.11271000  1.0 -0.6886279709
O  O44  1  0.50640000  0.04200000  0.38729000  1.0 -0.6886279709
O  O45  1  0.00640000  0.04200000  0.11271000  1.0 -0.6886279709
O  O46  1  0.49360000  0.54200000  0.38729000  1.0 -0.6886279709
O  O47  1  0.00640000  0.45800000  0.88729000  1.0 -0.6886279709
O  O48  1  0.49360000  0.95800000  0.61271000  1.0 -0.6886279709
O  O49  1  0.21090000  0.02070000  0.83140000  1.0 -0.7021588073
O  O50  1  0.28910000  0.52070000  0.66860000  1.0 -0.7021588073
O  O51  1  0.21090000  0.47930000  0.16860000  1.0 -0.7021588073
O  O52  1  0.28910000  0.97930000  0.33140000  1.0 -0.7021588073
O  O53  1  0.78910000  0.97930000  0.16860000  1.0 -0.7021588073
O  O54  1  0.71090000  0.47930000  0.33140000  1.0 -0.7021588073
O  O55  1  0.78910000  0.52070000  0.83140000  1.0 -0.7021588073
O  O56  1  0.71090000  0.02070000  0.66860000  1.0 -0.7021588073
O  O57  1  0.28430000  0.36240000  0.75723000  1.0 -0.7955380432
O  O58  1  0.21570000  0.86240000  0.74277000  1.0 -0.7955380432
O  O59  1  0.28430000  0.13760000  0.24277000  1.0 -0.7955380432
O  O60  1  0.21570000  0.63760000  0.25723000  1.0 -0.7955380432
O  O61  1  0.71570000  0.63760000  0.24277000  1.0 -0.7955380432
O  O62  1  0.78430000  0.13760000  0.25723000  1.0 -0.7955380432
O  O63  1  0.71570000  0.86240000  0.75723000  1.0 -0.7955380432
O  O64  1  0.78430000  0.36240000  0.74277000  1.0 -0.7955380432
O  O65  1  0.18430000  0.04160000  0.98750000  1.0 -0.4058774835
O  O66  1  0.31570000  0.54160000  0.51250000  1.0 -0.4058774835
O  O67  1  0.18430000  0.45840000  0.01250000  1.0 -0.4058774835
O  O68  1  0.31570000  0.95840000  0.48750000  1.0 -0.4058774835
O  O69  1  0.81570000  0.95840000  0.01250000  1.0 -0.4040366984
O  O70  1  0.68430000  0.45840000  0.48750000  1.0 -0.4040366984
O  O71  1  0.81570000  0.54160000  0.98750000  1.0 -0.4040366984
O  O72  1  0.68430000  0.04160000  0.51250000  1.0 -0.4040366984
O  O73  1  0.94370000  0.16770000  0.99100000  1.0 -0.116826219
O  O74  1  0.55630000  0.66770000  0.50900000  1.0 -0.116826219
O  O75  1  0.94370000  0.33230000  0.00900000  1.0 -0.116826219
O  O76  1  0.55630000  0.83230000  0.49100000  1.0 -0.116826219
O  O77  1  0.05630000  0.83230000  0.00900000  1.0 -0.116826219
O  O78  1  0.44370000  0.33230000  0.49100000  1.0 -0.116826219
O  O79  1  0.05630000  0.66770000  0.99100000  1.0 -0.116826219
O  O80  1  0.44370000  0.16770000  0.50900000  1.0 -0.116826219
O  O81  1  0.96090000  0.99380000  0.79118000  1.0 -0.7597813956
O  O82  1  0.53910000  0.49380000  0.70882000  1.0 -0.7597813956
O  O83  1  0.96090000  0.50620000  0.20882000  1.0 -0.7597813956
O  O84  1  0.53910000  0.00620000  0.29118000  1.0 -0.7597813956
O  O85  1  0.03910000  0.00620000  0.20882000  1.0 -0.7597813956
O  O86  1  0.46090000  0.50620000  0.29118000  1.0 -0.7597813956
O  O87  1  0.03910000  0.49380000  0.79118000  1.0 -0.7597813956
O  O88  1  0.46090000  0.99380000  0.70882000  1.0 -0.7597813956
