# DDEC6 charges by PACMAN v1.1 (https://github.com/mtap-research/PACMAN-charge/)
data_FANQER_FSR_pacman
_symmetry_space_group_name_H-M   'P 1'
_cell_length_a   7.24700000
_cell_length_b   14.98300000
_cell_length_c   23.51860000
_cell_angle_alpha   90.00000000
_cell_angle_beta   107.04000000
_cell_angle_gamma   90.00000000
_symmetry_Int_Tables_number   1
_chemical_formula_structural   Mn3H16W2C24(N5O)4
_chemical_formula_sum   'Mn6 H32 W4 C48 N40 O8'
_cell_volume   2441.58591302
_cell_formula_units_Z   2
loop_
 _symmetry_equiv_pos_site_id
 _symmetry_equiv_pos_as_xyz
  1  'x, y, z'
loop_
 _atom_site_type_symbol
 _atom_site_label
 _atom_site_symmetry_multiplicity
 _atom_site_fract_x
 _atom_site_fract_y
 _atom_site_fract_z
 _atom_site_occupancy
 _atom_site_charge
Mn  Mn1  1  0.98658000  0.47324000  0.23323000  1.0 0.9302644885
Mn  Mn2  1  0.01342000  0.97324000  0.26677000  1.0 0.9302644885
Mn  Mn3  1  0.01342000  0.52676000  0.76677000  1.0 0.9302644885
Mn  Mn4  1  0.98658000  0.02676000  0.73323000  1.0 0.9302644885
Mn  Mn5  1  0.00000000  0.50000000  0.50000000  1.0 0.9103293276
Mn  Mn6  1  0.00000000  0.00000000  0.00000000  1.0 0.9103293276
H  H1  1  0.04890000  0.51100000  0.37030000  1.0 0.1106053746
H  H2  1  0.95110000  0.01100000  0.12970000  1.0 0.1106053746
H  H3  1  0.95110000  0.48900000  0.62970000  1.0 0.1106053746
H  H4  1  0.04890000  0.98900000  0.87030000  1.0 0.1106053746
H  H5  1  0.09320000  0.29780000  0.47010000  1.0 0.1258947967
H  H6  1  0.90680000  0.79780000  0.02990000  1.0 0.1258947967
H  H7  1  0.90680000  0.70220000  0.52990000  1.0 0.1258947967
H  H8  1  0.09320000  0.20220000  0.97010000  1.0 0.1258947967
H  H9  1  0.09940000  0.20900000  0.38970000  1.0 0.1399447849
H  H10  1  0.90060000  0.70900000  0.11030000  1.0 0.1399447849
H  H11  1  0.90060000  0.79100000  0.61030000  1.0 0.1399447849
H  H12  1  0.09940000  0.29100000  0.88970000  1.0 0.1399447849
H  H13  1  0.05480000  0.27730000  0.29650000  1.0 0.1244436061
H  H14  1  0.94520000  0.77730000  0.20350000  1.0 0.1244436061
H  H15  1  0.94520000  0.72270000  0.70350000  1.0 0.1244436061
H  H16  1  0.05480000  0.22270000  0.79650000  1.0 0.1244436061
H  H17  1  0.79600000  0.54200000  0.11900000  1.0 0.4257072663
H  H18  1  0.20400000  0.04200000  0.38100000  1.0 0.4257072663
H  H19  1  0.20400000  0.45800000  0.88100000  1.0 0.4257072663
H  H20  1  0.79600000  0.95800000  0.61900000  1.0 0.4257072663
H  H21  1  0.01500000  0.55000000  0.13000000  1.0 0.4198203316
H  H22  1  0.98500000  0.05000000  0.37000000  1.0 0.4198203316
H  H23  1  0.98500000  0.45000000  0.87000000  1.0 0.4198203316
H  H24  1  0.01500000  0.95000000  0.63000000  1.0 0.4198203316
H  H25  1  0.67000000  0.41900000  0.47500000  1.0 0.4142480945
H  H26  1  0.33000000  0.91900000  0.02500000  1.0 0.4142480945
H  H27  1  0.33000000  0.58100000  0.52500000  1.0 0.4142480945
H  H28  1  0.67000000  0.08100000  0.97500000  1.0 0.4142480945
H  H29  1  0.77000000  0.37400000  0.53500000  1.0 0.3917516103
H  H30  1  0.23000000  0.87400000  0.96500000  1.0 0.3917516103
H  H31  1  0.23000000  0.62600000  0.46500000  1.0 0.3917516103
H  H32  1  0.77000000  0.12600000  0.03500000  1.0 0.3917516103
W  W1  1  0.55958000  0.71377000  0.32180000  1.0 0.6530918187
W  W2  1  0.44042000  0.21377000  0.17820000  1.0 0.6530918187
W  W3  1  0.44042000  0.28623000  0.67820000  1.0 0.6530918187
W  W4  1  0.55958000  0.78623000  0.82180000  1.0 0.6530918187
C  C1  1  0.74410000  0.63060000  0.28690000  1.0 0.0390704025
C  C2  1  0.25590000  0.13060000  0.21310000  1.0 0.0390704025
C  C3  1  0.25590000  0.36940000  0.71310000  1.0 0.0390704025
C  C4  1  0.74410000  0.86940000  0.78690000  1.0 0.0390704025
C  C5  1  0.76430000  0.80870000  0.30660000  1.0 0.0588151544
C  C6  1  0.23570000  0.30870000  0.19340000  1.0 0.0588151544
C  C7  1  0.23570000  0.19130000  0.69340000  1.0 0.0588151544
C  C8  1  0.76430000  0.69130000  0.80660000  1.0 0.0588151544
C  C9  1  0.37810000  0.83100000  0.30350000  1.0 0.0588151544
C  C10  1  0.62190000  0.33100000  0.19650000  1.0 0.0588151544
C  C11  1  0.62190000  0.16900000  0.69650000  1.0 0.0588151544
C  C12  1  0.37810000  0.66900000  0.80350000  1.0 0.0588151544
C  C13  1  0.37170000  0.60280000  0.28560000  1.0 0.0271878923
C  C14  1  0.62830000  0.10280000  0.21440000  1.0 0.0390704025
C  C15  1  0.62830000  0.39720000  0.71440000  1.0 0.0390704025
C  C16  1  0.37170000  0.89720000  0.78560000  1.0 0.0390704025
C  C17  1  0.70730000  0.62080000  0.39050000  1.0 0.0531234896
C  C18  1  0.29270000  0.12080000  0.10950000  1.0 0.0531234896
C  C19  1  0.29270000  0.37920000  0.60950000  1.0 0.0531234896
C  C20  1  0.70730000  0.87920000  0.89050000  1.0 0.0531234896
C  C21  1  0.67380000  0.79050000  0.40260000  1.0 -0.0266722132
C  C22  1  0.32620000  0.29050000  0.09740000  1.0 -0.0266722132
C  C23  1  0.32620000  0.20950000  0.59740000  1.0 -0.0266722132
C  C24  1  0.67380000  0.70950000  0.90260000  1.0 -0.0266722132
C  C25  1  0.35650000  0.69750000  0.37260000  1.0 0.0271878923
C  C26  1  0.64350000  0.19750000  0.12740000  1.0 0.0271878923
C  C27  1  0.64350000  0.30250000  0.62740000  1.0 0.0271878923
C  C28  1  0.35650000  0.80250000  0.87260000  1.0 0.0271878923
C  C29  1  0.46850000  0.73410000  0.22650000  1.0 -0.0389825789
C  C30  1  0.53150000  0.23410000  0.27350000  1.0 -0.0389825789
C  C31  1  0.53150000  0.26590000  0.77350000  1.0 -0.0389825789
C  C32  1  0.46850000  0.76590000  0.72650000  1.0 -0.0389825789
C  C33  1  0.05380000  0.44780000  0.37390000  1.0 0.2309981292
C  C34  1  0.94620000  0.94780000  0.12610000  1.0 0.2309981292
C  C35  1  0.94620000  0.55220000  0.62610000  1.0 0.2309981292
C  C36  1  0.05380000  0.05220000  0.87390000  1.0 0.2309981292
C  C37  1  0.08310000  0.32460000  0.43270000  1.0 0.1399447849
C  C38  1  0.91690000  0.82460000  0.06730000  1.0 0.1399447849
C  C39  1  0.91690000  0.67540000  0.56730000  1.0 0.1399447849
C  C40  1  0.08310000  0.17540000  0.93270000  1.0 0.1399447849
C  C41  1  0.08350000  0.27180000  0.38530000  1.0 -0.1525575922
C  C42  1  0.91650000  0.77180000  0.11470000  1.0 -0.1525575922
C  C43  1  0.91650000  0.72820000  0.61470000  1.0 -0.1525575922
C  C44  1  0.08350000  0.22820000  0.88530000  1.0 -0.1525575922
C  C45  1  0.06020000  0.31280000  0.33040000  1.0 0.1478432088
C  C46  1  0.93980000  0.81280000  0.16960000  1.0 0.1478432088
C  C47  1  0.93980000  0.68720000  0.66960000  1.0 0.1478432088
C  C48  1  0.06020000  0.18720000  0.83040000  1.0 0.1478432088
N  N1  1  0.83650000  0.58240000  0.26790000  1.0 -0.3480851636
N  N2  1  0.16350000  0.08240000  0.23210000  1.0 -0.3480851636
N  N3  1  0.16350000  0.41760000  0.73210000  1.0 -0.3480851636
N  N4  1  0.83650000  0.91760000  0.76790000  1.0 -0.3480851636
N  N5  1  0.13730000  0.36060000  0.20420000  1.0 -0.3480851636
N  N6  1  0.86270000  0.86060000  0.29580000  1.0 -0.3480851636
N  N7  1  0.86270000  0.63940000  0.79580000  1.0 -0.3480851636
N  N8  1  0.13730000  0.13940000  0.70420000  1.0 -0.3480851636
N  N9  1  0.71960000  0.39310000  0.20640000  1.0 -0.3480851636
N  N10  1  0.28040000  0.89310000  0.29360000  1.0 -0.3443201923
N  N11  1  0.28040000  0.60690000  0.79360000  1.0 -0.3443201923
N  N12  1  0.71960000  0.10690000  0.70640000  1.0 -0.3443201923
N  N13  1  0.26330000  0.54570000  0.26610000  1.0 -0.3480851636
N  N14  1  0.73670000  0.04570000  0.23390000  1.0 -0.3480851636
N  N15  1  0.73670000  0.45430000  0.73390000  1.0 -0.3480851636
N  N16  1  0.26330000  0.95430000  0.76610000  1.0 -0.3480851636
N  N17  1  0.78990000  0.57430000  0.42750000  1.0 -0.3682291055
N  N18  1  0.21010000  0.07430000  0.07250000  1.0 -0.3682291055
N  N19  1  0.21010000  0.42570000  0.57250000  1.0 -0.3682291055
N  N20  1  0.78990000  0.92570000  0.92750000  1.0 -0.3682291055
N  N21  1  0.73250000  0.83020000  0.44530000  1.0 -0.3480851636
N  N22  1  0.26750000  0.33020000  0.05470000  1.0 -0.3480851636
N  N23  1  0.26750000  0.16980000  0.55470000  1.0 -0.3480851636
N  N24  1  0.73250000  0.66980000  0.94530000  1.0 -0.3480851636
N  N25  1  0.24890000  0.68670000  0.39850000  1.0 -0.3237566495
N  N26  1  0.75110000  0.18670000  0.10150000  1.0 -0.3237566495
N  N27  1  0.75110000  0.31330000  0.60150000  1.0 -0.3237566495
N  N28  1  0.24890000  0.81330000  0.89850000  1.0 -0.3315769756
N  N29  1  0.42350000  0.74780000  0.17610000  1.0 -0.3315769756
N  N30  1  0.57650000  0.24780000  0.32390000  1.0 -0.3315769756
N  N31  1  0.57650000  0.25220000  0.82390000  1.0 -0.3315769756
N  N32  1  0.42350000  0.75220000  0.67610000  1.0 -0.3315769756
N  N33  1  0.04600000  0.40140000  0.32510000  1.0 -0.2690632486
N  N34  1  0.95400000  0.90140000  0.17490000  1.0 -0.2690632486
N  N35  1  0.95400000  0.59860000  0.67490000  1.0 -0.2690632486
N  N36  1  0.04600000  0.09860000  0.82510000  1.0 -0.2690632486
N  N37  1  0.06840000  0.41390000  0.42710000  1.0 -0.2811558837
N  N38  1  0.93160000  0.91390000  0.07290000  1.0 -0.2811558837
N  N39  1  0.93160000  0.58610000  0.57290000  1.0 -0.2811558837
N  N40  1  0.06840000  0.08610000  0.92710000  1.0 -0.2811558837
O  O1  1  0.91750000  0.53680000  0.14800000  1.0 -0.7207079822
O  O2  1  0.08250000  0.03680000  0.35200000  1.0 -0.7207079822
O  O3  1  0.08250000  0.46320000  0.85200000  1.0 -0.7207079822
O  O4  1  0.91750000  0.96320000  0.64800000  1.0 -0.7207079822
O  O5  1  0.79050000  0.40150000  0.50120000  1.0 -0.7305754268
O  O6  1  0.20950000  0.90150000  0.99880000  1.0 -0.7305754268
O  O7  1  0.20950000  0.59850000  0.49880000  1.0 -0.7305754268
O  O8  1  0.79050000  0.09850000  0.00120000  1.0 -0.7305754268
