# DDEC6 charges by PACMAN v1.1 (https://github.com/mtap-research/PACMAN-charge/)
data_FAQFAI_ASR_pacman
_symmetry_space_group_name_H-M   'P 1'
_cell_length_a   11.44090000
_cell_length_b   11.44090000
_cell_length_c   19.78590000
_cell_angle_alpha   74.06360000
_cell_angle_beta   105.93600000
_cell_angle_gamma   121.68800000
_symmetry_Int_Tables_number   1
_chemical_formula_structural   Zn4H30C34N2O15
_chemical_formula_sum   'Zn8 H60 C68 N4 O30'
_cell_volume   2092.01247423
_cell_formula_units_Z   2
loop_
 _symmetry_equiv_pos_site_id
 _symmetry_equiv_pos_as_xyz
  1  'x, y, z'
loop_
 _atom_site_type_symbol
 _atom_site_label
 _atom_site_symmetry_multiplicity
 _atom_site_fract_x
 _atom_site_fract_y
 _atom_site_fract_z
 _atom_site_occupancy
 _atom_site_charge
Zn  Zn1  1  0.78886000  0.62164000  0.50477000  1.0 0.9299507666
Zn  Zn2  1  0.92945000  0.76307000  0.36551000  1.0 0.8896155584
Zn  Zn3  1  0.63760000  0.47938000  0.36525000  1.0 0.9299507666
Zn  Zn4  1  0.64490000  0.75080000  0.37291000  1.0 0.9371500242
Zn  Zn5  1  0.37836000  0.21114000  0.00477000  1.0 0.9299507666
Zn  Zn6  1  0.23693000  0.07055000  0.86551000  1.0 0.8896155584
Zn  Zn7  1  0.52062000  0.36240000  0.86525000  1.0 0.9299507666
Zn  Zn8  1  0.24920000  0.35510000  0.87291000  1.0 0.9371500242
H  H1  1  0.29640000  0.10080000  0.44450000  1.0 0.1207893306
H  H2  1  0.51350000  0.25370000  0.62650000  1.0 0.1207893306
H  H3  1  0.35990000  0.05250000  0.69310000  1.0 0.1110011541
H  H4  1  0.15910000  0.88150000  0.63130000  1.0 0.1014763951
H  H5  1  0.77470000  0.19570000  0.36200000  1.0 0.1292179067
H  H6  1  0.12580000  0.18180000  0.38570000  1.0 0.1207893306
H  H7  1  0.26020000  0.41640000  0.39650000  1.0 0.1207893306
H  H8  1  0.15170000  0.54250000  0.38690000  1.0 0.1110011541
H  H9  1  0.43780000  0.45200000  0.15000000  1.0 0.1292179067
H  H10  1  0.32230000  0.67370000  0.97480000  1.0 0.1110011541
H  H11  1  0.36790000  0.82870000  0.04140000  1.0 0.1207893306
H  H12  1  0.43690000  0.79670000  0.16250000  1.0 0.1207893306
H  H13  1  0.16910000  0.98290000  0.27280000  1.0 0.1014763951
H  H14  1  0.10930000  0.08230000  0.27340000  1.0 0.0697181485
H  H15  1  0.21800000  0.20920000  0.18390000  1.0 0.0924859175
H  H16  1  0.22440000  0.08260000  0.16760000  1.0 0.1014763951
H  H17  1  0.04450000  0.06850000  0.07640000  1.0 0.0697181485
H  H18  1  0.00600000  0.15320000  0.11170000  1.0 0.0697181485
H  H19  1  0.72180000  0.80560000  0.13300000  1.0 0.079128073
H  H20  1  0.75660000  0.96060000  0.09460000  1.0 0.079128073
H  H21  1  0.79840000  0.87340000  0.06460000  1.0 0.0924859175
H  H22  1  0.74020000  0.84420000  0.20210000  1.0 0.0697181485
H  H23  1  0.75190000  0.71270000  0.19690000  1.0 0.0924859175
H  H24  1  0.77700000  0.78260000  0.08690000  1.0 0.079128073
H  H25  1  0.69680000  0.86260000  0.08810000  1.0 0.079128073
H  H26  1  0.90680000  0.08620000  0.08310000  1.0 0.0697181485
H  H27  1  0.96390000  0.01070000  0.05260000  1.0 0.0697181485
H  H28  1  0.20300000  0.09200000  0.21080000  1.0 0.0697181485
H  H29  1  0.18770000  0.10330000  0.12670000  1.0 0.0924859175
H  H30  1  0.14950000  0.19330000  0.15690000  1.0 0.0924859175
H  H31  1  0.89920000  0.70360000  0.94450000  1.0 0.1207893306
H  H32  1  0.74630000  0.48650000  0.12650000  1.0 0.1207893306
H  H33  1  0.94750000  0.64010000  0.19310000  1.0 0.1110011541
H  H34  1  0.11850000  0.84090000  0.13130000  1.0 0.1014763951
H  H35  1  0.80430000  0.22530000  0.86200000  1.0 0.1292179067
H  H36  1  0.81820000  0.87420000  0.88570000  1.0 0.1207893306
H  H37  1  0.58360000  0.73980000  0.89650000  1.0 0.1207893306
H  H38  1  0.45750000  0.84830000  0.88690000  1.0 0.1110011541
H  H39  1  0.54800000  0.56220000  0.65000000  1.0 0.1292179067
H  H40  1  0.32630000  0.67770000  0.47480000  1.0 0.1110011541
H  H41  1  0.17130000  0.63210000  0.54140000  1.0 0.1207893306
H  H42  1  0.20330000  0.56310000  0.66250000  1.0 0.1207893306
H  H43  1  0.01710000  0.83090000  0.77280000  1.0 0.1014763951
H  H44  1  0.91770000  0.89070000  0.77340000  1.0 0.0697181485
H  H45  1  0.79080000  0.78200000  0.68390000  1.0 0.1014763951
H  H46  1  0.91740000  0.77560000  0.66760000  1.0 0.1014763951
H  H47  1  0.93150000  0.95550000  0.57640000  1.0 0.0697181485
H  H48  1  0.84680000  0.99400000  0.61170000  1.0 0.0697181485
H  H49  1  0.19440000  0.27820000  0.63300000  1.0 0.079128073
H  H50  1  0.03940000  0.24340000  0.59460000  1.0 0.079128073
H  H51  1  0.12660000  0.20160000  0.56460000  1.0 0.0924859175
H  H52  1  0.15580000  0.25980000  0.70210000  1.0 0.0697181485
H  H53  1  0.28730000  0.24810000  0.69690000  1.0 0.0924859175
H  H54  1  0.21740000  0.22300000  0.58690000  1.0 0.079128073
H  H55  1  0.13740000  0.30320000  0.58810000  1.0 0.079128073
H  H56  1  0.91380000  0.09320000  0.58310000  1.0 0.0697181485
H  H57  1  0.98930000  0.03610000  0.55260000  1.0 0.0697181485
H  H58  1  0.90800000  0.79700000  0.71080000  1.0 0.0697181485
H  H59  1  0.89670000  0.81230000  0.62670000  1.0 0.0924859175
H  H60  1  0.80670000  0.85050000  0.65690000  1.0 0.0924859175
C  C1  1  0.20850000  0.97410000  0.53160000  1.0 -0.0196432669
C  C2  1  0.30680000  0.09120000  0.49470000  1.0 -0.1310065236
C  C3  1  0.42000000  0.19420000  0.53040000  1.0 -0.0196432669
C  C4  1  0.43690000  0.18090000  0.60290000  1.0 -0.110260872
C  C5  1  0.34450000  0.06350000  0.64260000  1.0 -0.1721952814
C  C6  1  0.22660000  0.96060000  0.60560000  1.0 -0.1981798928
C  C7  1  0.08050000  0.86850000  0.49370000  1.0 0.5520349074
C  C8  1  0.52480000  0.32500000  0.48860000  1.0 0.5695136119
C  C9  1  0.95310000  0.38550000  0.37280000  1.0 -0.0196432669
C  C10  1  0.87340000  0.24020000  0.36890000  1.0 -0.1393738944
C  C11  1  0.93670000  0.16610000  0.37480000  1.0 0.0032299034
C  C12  1  0.08110000  0.23350000  0.38350000  1.0 -0.1721952814
C  C13  1  0.16150000  0.37310000  0.38900000  1.0 -0.110260872
C  C14  1  0.09700000  0.44620000  0.38340000  1.0 -0.1193273188
C  C15  1  0.88120000  0.46940000  0.36390000  1.0 0.5695136119
C  C16  1  0.85610000  0.01470000  0.36590000  1.0 0.5520349074
C  C17  1  0.44770000  0.62190000  0.16930000  1.0 -0.0655792016
C  C18  1  0.42290000  0.52910000  0.12790000  1.0 -0.1570488882
C  C19  1  0.37730000  0.54490000  0.05580000  1.0 -0.0404346271
C  C20  1  0.35520000  0.66060000  0.02440000  1.0 -0.110260872
C  C21  1  0.38030000  0.75010000  0.06360000  1.0 -0.110260872
C  C22  1  0.42330000  0.73250000  0.13540000  1.0 -0.110260872
C  C23  1  0.50600000  0.60980000  0.24440000  1.0 0.5754566122
C  C24  1  0.34700000  0.44300000  0.01110000  1.0 0.5638504851
C  C25  1  0.97380000  0.92120000  0.22190000  1.0 0.1292179067
C  C26  1  0.11090000  0.02550000  0.24430000  1.0 -0.0621235758
C  C27  1  0.16430000  0.10970000  0.17950000  1.0 -0.1981798928
C  C28  1  0.03130000  0.07890000  0.12140000  1.0 0.0032299034
C  C29  1  0.78950000  0.89250000  0.10770000  1.0 -0.1393738944
C  C30  1  0.93990000  0.88610000  0.21150000  1.0 0.150885113
C  C31  1  0.79120000  0.81480000  0.18350000  1.0 -0.0905268635
C  C32  1  0.78200000  0.85400000  0.10850000  1.0 -0.1310065236
C  C33  1  0.92360000  0.00640000  0.09220000  1.0 -0.0510147173
C  C34  1  0.14800000  0.10400000  0.16500000  1.0 -0.2148343693
C  C35  1  0.02590000  0.79150000  0.03160000  1.0 -0.0196432669
C  C36  1  0.90880000  0.69320000  0.99470000  1.0 -0.1310065236
C  C37  1  0.80580000  0.58000000  0.03040000  1.0 -0.0196432669
C  C38  1  0.81910000  0.56310000  0.10290000  1.0 -0.110260872
C  C39  1  0.93650000  0.65550000  0.14260000  1.0 -0.1721952814
C  C40  1  0.03940000  0.77340000  0.10560000  1.0 -0.1981798928
C  C41  1  0.13150000  0.91950000  0.99370000  1.0 0.5520349074
C  C42  1  0.67500000  0.47520000  0.98860000  1.0 0.5695136119
C  C43  1  0.61450000  0.04690000  0.87280000  1.0 -0.0196432669
C  C44  1  0.75980000  0.12660000  0.86890000  1.0 -0.1393738944
C  C45  1  0.83390000  0.06330000  0.87480000  1.0 0.0032299034
C  C46  1  0.76650000  0.91890000  0.88350000  1.0 -0.1721952814
C  C47  1  0.62690000  0.83850000  0.88900000  1.0 -0.110260872
C  C48  1  0.55380000  0.90300000  0.88340000  1.0 -0.1193273188
C  C49  1  0.53060000  0.11880000  0.86390000  1.0 0.5695136119
C  C50  1  0.98530000  0.14390000  0.86590000  1.0 0.5520349074
C  C51  1  0.37810000  0.55230000  0.66930000  1.0 -0.0655792016
C  C52  1  0.47090000  0.57710000  0.62790000  1.0 -0.1570488882
C  C53  1  0.45510000  0.62270000  0.55580000  1.0 -0.0404346271
C  C54  1  0.33940000  0.64480000  0.52440000  1.0 -0.110260872
C  C55  1  0.24990000  0.61970000  0.56360000  1.0 -0.110260872
C  C56  1  0.26750000  0.57670000  0.63540000  1.0 -0.1193273188
C  C57  1  0.39020000  0.49400000  0.74440000  1.0 0.5754566122
C  C58  1  0.55700000  0.65300000  0.51110000  1.0 0.5638504851
C  C59  1  0.07880000  0.02620000  0.72190000  1.0 0.1207893306
C  C60  1  0.97450000  0.88910000  0.74430000  1.0 -0.0621235758
C  C61  1  0.89030000  0.83570000  0.67950000  1.0 -0.1981798928
C  C62  1  0.92110000  0.96870000  0.62140000  1.0 0.0032299034
C  C63  1  0.10750000  0.21050000  0.60770000  1.0 -0.1393738944
C  C64  1  0.11390000  0.06010000  0.71150000  1.0 0.150885113
C  C65  1  0.18520000  0.20880000  0.68350000  1.0 -0.0905268635
C  C66  1  0.14600000  0.21800000  0.60850000  1.0 -0.1310065236
C  C67  1  0.99360000  0.07640000  0.59220000  1.0 -0.0510147173
C  C68  1  0.89600000  0.85200000  0.66500000  1.0 -0.2148343693
N  N1  1  0.92760000  0.94840000  0.15510000  1.0 0.0547291715
N  N2  1  0.00980000  0.99500000  0.16310000  1.0 0.0697181485
N  N3  1  0.05160000  0.07240000  0.65510000  1.0 0.0559305254
N  N4  1  0.00500000  0.99020000  0.66310000  1.0 0.0697181485
O  O1  1  0.97090000  0.80770000  0.51970000  1.0 -0.5707951656
O  O2  1  0.09200000  0.84900000  0.43680000  1.0 -0.5346992683
O  O3  1  0.95930000  0.59770000  0.36510000  1.0 -0.5707951656
O  O4  1  0.75140000  0.40480000  0.35850000  1.0 -0.549004994
O  O5  1  0.49690000  0.33010000  0.42130000  1.0 -0.549004994
O  O6  1  0.62590000  0.40990000  0.52080000  1.0 -0.5367997104
O  O7  1  0.33110000  0.32650000  0.04110000  1.0 -0.5206864249
O  O8  1  0.33140000  0.48100000  0.94440000  1.0 -0.5367997104
O  O9  1  0.52760000  0.69560000  0.28110000  1.0 -0.549004994
O  O10  1  0.53410000  0.51070000  0.27070000  1.0 -0.549004994
O  O11  1  0.91610000  0.96230000  0.35120000  1.0 -0.5707951656
O  O12  1  0.72780000  0.94920000  0.37380000  1.0 -0.5367997104
O  O13  1  0.75220000  0.65440000  0.40080000  1.0 -1.0192371678
O  O14  1  0.89900000  0.80360000  0.26110000  1.0 -0.0510147173
O  O15  1  0.00630000  0.86490000  0.27260000  1.0 -0.0311659012
O  O16  1  0.19230000  0.02910000  0.01970000  1.0 -0.5707951656
O  O17  1  0.15100000  0.90800000  0.93680000  1.0 -0.5367997104
O  O18  1  0.40230000  0.04070000  0.86510000  1.0 -0.5707951656
O  O19  1  0.59520000  0.24860000  0.85850000  1.0 -0.549004994
O  O20  1  0.66990000  0.50310000  0.92130000  1.0 -0.549004994
O  O21  1  0.59010000  0.37410000  0.02080000  1.0 -0.5367997104
O  O22  1  0.67350000  0.66890000  0.54110000  1.0 -0.5206864249
O  O23  1  0.51900000  0.66860000  0.44440000  1.0 -0.5367997104
O  O24  1  0.30440000  0.47240000  0.78110000  1.0 -0.549004994
O  O25  1  0.48930000  0.46590000  0.77070000  1.0 -0.549004994
O  O26  1  0.03770000  0.08390000  0.85120000  1.0 -0.5707951656
O  O27  1  0.05080000  0.27220000  0.87380000  1.0 -0.5367997104
O  O28  1  0.34560000  0.24780000  0.90080000  1.0 -1.0192371678
O  O29  1  0.19640000  0.10100000  0.76110000  1.0 -0.0404346271
O  O30  1  0.13510000  0.99370000  0.77260000  1.0 -0.0311659012
