# DDEC6 charges by PACMAN v1.1 (https://github.com/mtap-research/PACMAN-charge/)
data_FARYEE_FSR_pacman
_symmetry_space_group_name_H-M   'P 1'
_cell_length_a   12.81710000
_cell_length_b   17.21310000
_cell_length_c   16.94660000
_cell_angle_alpha   90.00000000
_cell_angle_beta   108.73600000
_cell_angle_gamma   90.00000000
_symmetry_Int_Tables_number   1
_chemical_formula_structural   NdRe4Te4C12N12O5
_chemical_formula_sum   'Nd4 Re16 Te16 C48 N48 O20'
_cell_volume   3540.66946993
_cell_formula_units_Z   4
loop_
 _symmetry_equiv_pos_site_id
 _symmetry_equiv_pos_as_xyz
  1  'x, y, z'
loop_
 _atom_site_type_symbol
 _atom_site_label
 _atom_site_symmetry_multiplicity
 _atom_site_fract_x
 _atom_site_fract_y
 _atom_site_fract_z
 _atom_site_occupancy
 _atom_site_charge
Nd  Nd1  1  0.68273000  0.69335000  0.85121000  1.0 1.9936968322
Nd  Nd2  1  0.31727000  0.19335000  0.64879000  1.0 1.995813115
Nd  Nd3  1  0.31727000  0.30665000  0.14879000  1.0 1.9936968322
Nd  Nd4  1  0.68273000  0.80665000  0.35121000  1.0 1.9936968322
Re  Re1  1  0.30583000  0.62081000  0.93702000  1.0 0.0287619238
Re  Re2  1  0.69417000  0.12081000  0.56298000  1.0 0.0201333968
Re  Re3  1  0.69417000  0.37919000  0.06298000  1.0 0.0201333968
Re  Re4  1  0.30583000  0.87919000  0.43702000  1.0 0.0201333968
Re  Re5  1  0.20444000  0.61870000  0.06596000  1.0 0.0201333968
Re  Re6  1  0.79556000  0.11870000  0.43404000  1.0 0.0201333968
Re  Re7  1  0.79556000  0.38130000  0.93404000  1.0 0.0119917202
Re  Re8  1  0.20444000  0.88130000  0.56596000  1.0 0.0201333968
Re  Re9  1  0.14399000  0.73479000  0.93728000  1.0 -0.0249056532
Re  Re10  1  0.85601000  0.23479000  0.56272000  1.0 -0.0292202422
Re  Re11  1  0.85601000  0.26521000  0.06272000  1.0 -0.0292202422
Re  Re12  1  0.14399000  0.76521000  0.43728000  1.0 -0.0292202422
Re  Re13  1  0.35545000  0.73957000  0.06314000  1.0 -0.0488624239
Re  Re14  1  0.64455000  0.23957000  0.43686000  1.0 -0.0488624239
Re  Re15  1  0.64455000  0.26043000  0.93686000  1.0 -0.0410805992
Re  Re16  1  0.35545000  0.76043000  0.56314000  1.0 -0.0488624239
Te  Te1  1  0.17059000  0.76528000  0.09551000  1.0 0.2800810003
Te  Te2  1  0.82941000  0.26528000  0.40449000  1.0 0.2800810003
Te  Te3  1  0.82941000  0.23472000  0.90449000  1.0 0.2800810003
Te  Te4  1  0.17059000  0.73472000  0.59551000  1.0 0.2800810003
Te  Te5  1  0.32589000  0.76835000  0.90432000  1.0 0.2871021108
Te  Te6  1  0.67411000  0.26835000  0.59568000  1.0 0.2871021108
Te  Te7  1  0.67411000  0.23165000  0.09568000  1.0 0.2871021108
Te  Te8  1  0.32589000  0.73165000  0.40432000  1.0 0.2871021108
Te  Te9  1  0.41703000  0.59301000  0.09449000  1.0 0.2973786057
Te  Te10  1  0.58297000  0.09301000  0.40551000  1.0 0.2973786057
Te  Te11  1  0.58297000  0.40699000  0.90551000  1.0 0.2973786057
Te  Te12  1  0.41703000  0.90699000  0.59449000  1.0 0.2973786057
Te  Te13  1  0.09651000  0.58573000  0.90932000  1.0 0.2800810003
Te  Te14  1  0.90349000  0.08573000  0.59068000  1.0 0.2800810003
Te  Te15  1  0.90349000  0.41427000  0.09068000  1.0 0.2871021108
Te  Te16  1  0.09651000  0.91427000  0.40932000  1.0 0.2800810003
C  C1  1  0.46090000  0.62010000  0.92110000  1.0 0.1910439678
C  C2  1  0.53910000  0.12010000  0.57890000  1.0 0.1910439678
C  C3  1  0.53910000  0.37990000  0.07890000  1.0 0.1910439678
C  C4  1  0.46090000  0.87990000  0.42110000  1.0 0.1910439678
C  C5  1  0.26130000  0.60950000  0.80830000  1.0 0.1066753217
C  C6  1  0.73870000  0.10950000  0.69170000  1.0 0.1066753217
C  C7  1  0.73870000  0.39050000  0.19170000  1.0 0.1066753217
C  C8  1  0.26130000  0.89050000  0.30830000  1.0 0.1066753217
C  C9  1  0.32130000  0.50030000  0.92180000  1.0 0.0505925112
C  C10  1  0.67870000  0.00030000  0.57820000  1.0 0.0505925112
C  C11  1  0.67870000  0.49970000  0.07820000  1.0 0.0505925112
C  C12  1  0.32130000  0.99970000  0.42180000  1.0 0.0505925112
C  C13  1  0.20580000  0.49720000  0.08490000  1.0 0.213371715
C  C14  1  0.79420000  0.99720000  0.41510000  1.0 0.213371715
C  C15  1  0.79420000  0.50280000  0.91510000  1.0 0.2177138612
C  C16  1  0.20580000  0.00280000  0.58490000  1.0 0.213371715
C  C17  1  0.25320000  0.61060000  0.19680000  1.0 0.0927862734
C  C18  1  0.74680000  0.11060000  0.30320000  1.0 0.0927862734
C  C19  1  0.74680000  0.38940000  0.80320000  1.0 0.0927862734
C  C20  1  0.25320000  0.88940000  0.69680000  1.0 0.0927862734
C  C21  1  0.04750000  0.60780000  0.07970000  1.0 0.0505925112
C  C22  1  0.95250000  0.10780000  0.42030000  1.0 0.0505925112
C  C23  1  0.95250000  0.39220000  0.92030000  1.0 0.0505925112
C  C24  1  0.04750000  0.89220000  0.57970000  1.0 0.0505925112
C  C25  1  0.97590000  0.74010000  0.92480000  1.0 0.233130353
C  C26  1  0.02410000  0.24010000  0.57520000  1.0 0.233130353
C  C27  1  0.02410000  0.25990000  0.07520000  1.0 0.233130353
C  C28  1  0.97590000  0.75990000  0.42480000  1.0 0.233130353
C  C29  1  0.12060000  0.85490000  0.92470000  1.0 0.0505925112
C  C30  1  0.87940000  0.35490000  0.57530000  1.0 0.0505925112
C  C31  1  0.87940000  0.14510000  0.07530000  1.0 0.0389106646
C  C32  1  0.12060000  0.64510000  0.42470000  1.0 0.0505925112
C  C33  1  0.07350000  0.74030000  0.80740000  1.0 0.0702656065
C  C34  1  0.92650000  0.24030000  0.69260000  1.0 0.0702656065
C  C35  1  0.92650000  0.25970000  0.19260000  1.0 0.0702656065
C  C36  1  0.07350000  0.75970000  0.30740000  1.0 0.0702656065
C  C37  1  0.36410000  0.86350000  0.07330000  1.0 0.0617245487
C  C38  1  0.63590000  0.36350000  0.42670000  1.0 0.0617245487
C  C39  1  0.63590000  0.13650000  0.92670000  1.0 0.0617245487
C  C40  1  0.36410000  0.63650000  0.57330000  1.0 0.0617245487
C  C41  1  0.42920000  0.75130000  0.19200000  1.0 0.213371715
C  C42  1  0.57080000  0.25130000  0.30800000  1.0 0.2177138612
C  C43  1  0.57080000  0.24870000  0.80800000  1.0 0.213371715
C  C44  1  0.42920000  0.74870000  0.69200000  1.0 0.213371715
C  C45  1  0.52190000  0.75630000  0.07370000  1.0 0.0389106646
C  C46  1  0.47810000  0.25630000  0.42630000  1.0 0.0389106646
C  C47  1  0.47810000  0.24370000  0.92630000  1.0 0.0389106646
C  C48  1  0.52190000  0.74370000  0.57370000  1.0 0.0287619238
N  N1  1  0.54200000  0.62400000  0.90690000  1.0 -0.3764366372
N  N2  1  0.45800000  0.12400000  0.59310000  1.0 -0.3764366372
N  N3  1  0.45800000  0.37600000  0.09310000  1.0 -0.3764366372
N  N4  1  0.54200000  0.87600000  0.40690000  1.0 -0.3764366372
N  N5  1  0.23910000  0.59910000  0.73640000  1.0 -0.2477278575
N  N6  1  0.76090000  0.09910000  0.76360000  1.0 -0.2477278575
N  N7  1  0.76090000  0.40090000  0.26360000  1.0 -0.2477278575
N  N8  1  0.23910000  0.90090000  0.23640000  1.0 -0.2477278575
N  N9  1  0.32620000  0.43580000  0.90850000  1.0 -0.116715753
N  N10  1  0.67380000  0.93580000  0.59150000  1.0 -0.116715753
N  N11  1  0.67380000  0.56420000  0.09150000  1.0 -0.116715753
N  N12  1  0.32620000  0.06420000  0.40850000  1.0 -0.116715753
N  N13  1  0.20950000  0.43340000  0.10350000  1.0 -0.3879495948
N  N14  1  0.79050000  0.93340000  0.39650000  1.0 -0.3879495948
N  N15  1  0.79050000  0.56660000  0.89650000  1.0 -0.3879495948
N  N16  1  0.20950000  0.06660000  0.60350000  1.0 -0.3879495948
N  N17  1  0.27800000  0.60080000  0.26720000  1.0 -0.2216815144
N  N18  1  0.72200000  0.10080000  0.23280000  1.0 -0.2216815144
N  N19  1  0.72200000  0.39920000  0.73280000  1.0 -0.2216815144
N  N20  1  0.27800000  0.89920000  0.76720000  1.0 -0.2216815144
N  N21  1  0.96330000  0.59940000  0.08750000  1.0 -0.1997476048
N  N22  1  0.03670000  0.09940000  0.41250000  1.0 -0.1997476048
N  N23  1  0.03670000  0.40060000  0.91250000  1.0 -0.1997476048
N  N24  1  0.96330000  0.90060000  0.58750000  1.0 -0.1997476048
N  N25  1  0.88240000  0.74170000  0.91140000  1.0 -0.4236088856
N  N26  1  0.11760000  0.24170000  0.58860000  1.0 -0.4236088856
N  N27  1  0.11760000  0.25830000  0.08860000  1.0 -0.4236088856
N  N28  1  0.88240000  0.75830000  0.41140000  1.0 -0.4290138348
N  N29  1  0.10860000  0.92100000  0.91790000  1.0 -0.0104715317
N  N30  1  0.89140000  0.42100000  0.58210000  1.0 -0.0104715317
N  N31  1  0.89140000  0.07900000  0.08210000  1.0 -0.0020974069
N  N32  1  0.10860000  0.57900000  0.41790000  1.0 -0.0104715317
N  N33  1  0.03120000  0.74320000  0.73690000  1.0 -0.1582063675
N  N34  1  0.96880000  0.24320000  0.76310000  1.0 -0.1546737566
N  N35  1  0.96880000  0.25680000  0.26310000  1.0 -0.1582063675
N  N36  1  0.03120000  0.75680000  0.23690000  1.0 -0.1546737566
N  N37  1  0.37430000  0.92800000  0.08180000  1.0 -0.0292202422
N  N38  1  0.62570000  0.42800000  0.41820000  1.0 -0.0410805992
N  N39  1  0.62570000  0.07200000  0.91820000  1.0 -0.0292202422
N  N40  1  0.37430000  0.57200000  0.58180000  1.0 -0.0292202422
N  N41  1  0.48300000  0.76130000  0.26070000  1.0 -0.3616696014
N  N42  1  0.51700000  0.26130000  0.23930000  1.0 -0.3616696014
N  N43  1  0.51700000  0.23870000  0.73930000  1.0 -0.3616696014
N  N44  1  0.48300000  0.73870000  0.76070000  1.0 -0.3616696014
N  N45  1  0.61160000  0.77070000  0.08350000  1.0 0.0287619238
N  N46  1  0.38840000  0.27070000  0.41650000  1.0 0.0287619238
N  N47  1  0.38840000  0.22930000  0.91650000  1.0 0.0287619238
N  N48  1  0.61160000  0.72930000  0.58350000  1.0 0.0201333968
O  O1  1  0.58710000  0.58940000  0.74970000  1.0 -0.4712544321
O  O2  1  0.41290000  0.08940000  0.75030000  1.0 -0.4712544321
O  O3  1  0.41290000  0.41060000  0.25030000  1.0 -0.4712544321
O  O4  1  0.58710000  0.91060000  0.24970000  1.0 -0.4825113281
O  O5  1  0.64010000  0.80390000  0.92700000  1.0 -0.4825113281
O  O6  1  0.35990000  0.30390000  0.57300000  1.0 -0.4825113281
O  O7  1  0.35990000  0.19610000  0.07300000  1.0 -0.4825113281
O  O8  1  0.64010000  0.69610000  0.42700000  1.0 -0.4712544321
O  O9  1  0.68750000  0.81630000  0.77330000  1.0 -0.3358384832
O  O10  1  0.31250000  0.31630000  0.72670000  1.0 -0.3483938201
O  O11  1  0.31250000  0.18370000  0.22670000  1.0 -0.3301466817
O  O12  1  0.68750000  0.68370000  0.27330000  1.0 -0.3483938201
O  O13  1  0.76230000  0.68050000  0.01080000  1.0 -0.3301466817
O  O14  1  0.23770000  0.18050000  0.48920000  1.0 -0.3301466817
O  O15  1  0.23770000  0.31950000  0.98920000  1.0 -0.3301466817
O  O16  1  0.76230000  0.81950000  0.51080000  1.0 -0.3301466817
O  O17  1  0.77300000  0.67060000  0.74210000  1.0 -0.3483938201
O  O18  1  0.22700000  0.17060000  0.75790000  1.0 -0.3483938201
O  O19  1  0.22700000  0.32940000  0.25790000  1.0 -0.3483938201
O  O20  1  0.77300000  0.82940000  0.24210000  1.0 -0.3301466817
