# DDEC6 charges by PACMAN v1.1 (https://github.com/mtap-research/PACMAN-charge/)
data_FARYAA_ASR_pacman
_symmetry_space_group_name_H-M   'P 1'
_cell_length_a   13.33990000
_cell_length_b   13.33990000
_cell_length_c   20.77730000
_cell_angle_alpha   90.00000000
_cell_angle_beta   90.00000000
_cell_angle_gamma   108.34200000
_symmetry_Int_Tables_number   1
_chemical_formula_structural   KNdRe4Te4C12(N6O)2
_chemical_formula_sum   'K4 Nd4 Re16 Te16 C48 N48 O8'
_cell_volume   3509.53618945
_cell_formula_units_Z   4
loop_
 _symmetry_equiv_pos_site_id
 _symmetry_equiv_pos_as_xyz
  1  'x, y, z'
loop_
 _atom_site_type_symbol
 _atom_site_label
 _atom_site_symmetry_multiplicity
 _atom_site_fract_x
 _atom_site_fract_y
 _atom_site_fract_z
 _atom_site_occupancy
 _atom_site_charge
K  K1  1  0.87310000  0.87310000  0.00000000  1.0 0.4045464799
K  K2  1  0.12690000  0.12690000  0.50000000  1.0 0.4075810716
K  K3  1  0.12690000  0.12690000  0.00000000  1.0 0.4075810716
K  K4  1  0.87310000  0.87310000  0.50000000  1.0 0.4045464799
Nd  Nd1  1  0.11835000  0.37125000  0.75000000  1.0 1.8677329823
Nd  Nd2  1  0.88165000  0.62875000  0.25000000  1.0 1.8612256453
Nd  Nd3  1  0.37125000  0.11835000  0.25000000  1.0 1.8677329823
Nd  Nd4  1  0.62875000  0.88165000  0.75000000  1.0 1.8612256453
Re  Re1  1  0.29750000  0.70250000  0.94230000  1.0 -0.0568332803
Re  Re2  1  0.70250000  0.29750000  0.44230000  1.0 -0.0681487962
Re  Re3  1  0.70250000  0.29750000  0.05770000  1.0 -0.0681487962
Re  Re4  1  0.29750000  0.70250000  0.55770000  1.0 -0.0568332803
Re  Re5  1  0.44011000  0.74345000  0.04975000  1.0 -0.0166616787
Re  Re6  1  0.55989000  0.25655000  0.54975000  1.0 -0.0121095272
Re  Re7  1  0.74345000  0.44011000  0.95025000  1.0 -0.0121095272
Re  Re8  1  0.25655000  0.55989000  0.45025000  1.0 -0.0121095272
Re  Re9  1  0.55989000  0.25655000  0.95025000  1.0 -0.0121095272
Re  Re10  1  0.44011000  0.74345000  0.45025000  1.0 -0.0166616787
Re  Re11  1  0.25655000  0.55989000  0.04975000  1.0 -0.0121095272
Re  Re12  1  0.74345000  0.44011000  0.54975000  1.0 -0.0121095272
Re  Re13  1  0.23464000  0.76536000  0.06614000  1.0 -0.0568332803
Re  Re14  1  0.76536000  0.23464000  0.56614000  1.0 -0.0568332803
Re  Re15  1  0.76536000  0.23464000  0.93386000  1.0 -0.0568332803
Re  Re16  1  0.23464000  0.76536000  0.43386000  1.0 -0.0568332803
Te  Te1  1  0.32326000  0.67674000  0.15256000  1.0 0.2682016075
Te  Te2  1  0.67674000  0.32326000  0.65256000  1.0 0.2682016075
Te  Te3  1  0.67674000  0.32326000  0.84744000  1.0 0.2682016075
Te  Te4  1  0.32326000  0.67674000  0.34744000  1.0 0.2682016075
Te  Te5  1  0.37946000  0.89168000  0.99194000  1.0 0.2113163973
Te  Te6  1  0.62054000  0.10832000  0.49194000  1.0 0.2194018208
Te  Te7  1  0.89168000  0.37946000  0.00806000  1.0 0.2194018208
Te  Te8  1  0.10832000  0.62054000  0.50806000  1.0 0.2113163973
Te  Te9  1  0.62054000  0.10832000  0.00806000  1.0 0.2194018208
Te  Te10  1  0.37946000  0.89168000  0.50806000  1.0 0.2113163973
Te  Te11  1  0.10832000  0.62054000  0.99194000  1.0 0.2113163973
Te  Te12  1  0.89168000  0.37946000  0.49194000  1.0 0.2194018208
Te  Te13  1  0.41624000  0.58376000  0.96969000  1.0 0.2488188327
Te  Te14  1  0.58376000  0.41624000  0.46969000  1.0 0.2488188327
Te  Te15  1  0.58376000  0.41624000  0.03031000  1.0 0.2488188327
Te  Te16  1  0.41624000  0.58376000  0.53031000  1.0 0.2488188327
C  C1  1  0.23620000  0.58480000  0.87160000  1.0 0.2007957156
C  C2  1  0.76380000  0.41520000  0.37160000  1.0 0.2113163973
C  C3  1  0.58480000  0.23620000  0.12840000  1.0 0.2007957156
C  C4  1  0.41520000  0.76380000  0.62840000  1.0 0.2007957156
C  C5  1  0.76380000  0.41520000  0.12840000  1.0 0.2113163973
C  C6  1  0.23620000  0.58480000  0.62840000  1.0 0.2007957156
C  C7  1  0.41520000  0.76380000  0.87160000  1.0 0.2007957156
C  C8  1  0.58480000  0.23620000  0.37160000  1.0 0.2007957156
C  C9  1  0.21830000  0.78170000  0.88380000  1.0 0.0214413803
C  C10  1  0.78170000  0.21830000  0.38380000  1.0 0.0214413803
C  C11  1  0.78170000  0.21830000  0.11620000  1.0 0.0214413803
C  C12  1  0.21830000  0.78170000  0.61620000  1.0 0.0214413803
C  C13  1  0.52130000  0.86890000  0.11050000  1.0 0.0261921727
C  C14  1  0.47870000  0.13110000  0.61050000  1.0 0.0214413803
C  C15  1  0.86890000  0.52130000  0.88950000  1.0 0.0214413803
C  C16  1  0.13110000  0.47870000  0.38950000  1.0 0.0214413803
C  C17  1  0.47870000  0.13110000  0.88950000  1.0 0.0214413803
C  C18  1  0.52130000  0.86890000  0.38950000  1.0 0.0261921727
C  C19  1  0.13110000  0.47870000  0.11050000  1.0 0.0214413803
C  C20  1  0.86890000  0.52130000  0.61050000  1.0 0.0214413803
C  C21  1  0.54210000  0.67450000  0.09750000  1.0 0.0529479191
C  C22  1  0.45790000  0.32550000  0.59750000  1.0 0.0529479191
C  C23  1  0.67450000  0.54210000  0.90250000  1.0 0.0555650995
C  C24  1  0.32550000  0.45790000  0.40250000  1.0 0.0529479191
C  C25  1  0.45790000  0.32550000  0.90250000  1.0 0.0529479191
C  C26  1  0.54210000  0.67450000  0.40250000  1.0 0.0529479191
C  C27  1  0.32550000  0.45790000  0.09750000  1.0 0.0529479191
C  C28  1  0.67450000  0.54210000  0.59750000  1.0 0.0555650995
C  C29  1  0.58030000  0.81310000  0.99810000  1.0 0.0686905452
C  C30  1  0.41970000  0.18690000  0.49810000  1.0 0.0686905452
C  C31  1  0.81310000  0.58030000  0.00190000  1.0 0.0686905452
C  C32  1  0.18690000  0.41970000  0.50190000  1.0 0.0686905452
C  C33  1  0.41970000  0.18690000  0.00190000  1.0 0.0686905452
C  C34  1  0.58030000  0.81310000  0.50190000  1.0 0.0686905452
C  C35  1  0.18690000  0.41970000  0.99810000  1.0 0.0686905452
C  C36  1  0.81310000  0.58030000  0.49810000  1.0 0.0686905452
C  C37  1  0.14280000  0.85720000  0.03080000  1.0 0.1014603481
C  C38  1  0.85720000  0.14280000  0.53080000  1.0 0.1014603481
C  C39  1  0.85720000  0.14280000  0.96920000  1.0 0.1014603481
C  C40  1  0.14280000  0.85720000  0.46920000  1.0 0.1014603481
C  C41  1  0.10660000  0.71600000  0.13090000  1.0 0.1761990741
C  C42  1  0.89340000  0.28400000  0.63090000  1.0 0.1701254353
C  C43  1  0.71600000  0.10660000  0.86910000  1.0 0.1701254353
C  C44  1  0.28400000  0.89340000  0.36910000  1.0 0.1701254353
C  C45  1  0.89340000  0.28400000  0.86910000  1.0 0.1701254353
C  C46  1  0.10660000  0.71600000  0.36910000  1.0 0.1761990741
C  C47  1  0.28400000  0.89340000  0.13090000  1.0 0.1701254353
C  C48  1  0.71600000  0.10660000  0.63090000  1.0 0.1701254353
N  N1  1  0.20220000  0.51940000  0.83430000  1.0 -0.4502894028
N  N2  1  0.79780000  0.48060000  0.33430000  1.0 -0.4502894028
N  N3  1  0.51940000  0.20220000  0.16570000  1.0 -0.4502894028
N  N4  1  0.48060000  0.79780000  0.66570000  1.0 -0.4502894028
N  N5  1  0.79780000  0.48060000  0.16570000  1.0 -0.4502894028
N  N6  1  0.20220000  0.51940000  0.66570000  1.0 -0.4502894028
N  N7  1  0.48060000  0.79780000  0.83430000  1.0 -0.4502894028
N  N8  1  0.51940000  0.20220000  0.33430000  1.0 -0.4502894028
N  N9  1  0.17610000  0.82390000  0.85150000  1.0 -0.160445337
N  N10  1  0.82390000  0.17610000  0.35150000  1.0 -0.160445337
N  N11  1  0.82390000  0.17610000  0.14850000  1.0 -0.160445337
N  N12  1  0.17610000  0.82390000  0.64850000  1.0 -0.160445337
N  N13  1  0.56860000  0.93660000  0.14210000  1.0 -0.2465867171
N  N14  1  0.43140000  0.06340000  0.64210000  1.0 -0.2465867171
N  N15  1  0.93660000  0.56860000  0.85790000  1.0 -0.2465867171
N  N16  1  0.06340000  0.43140000  0.35790000  1.0 -0.2465867171
N  N17  1  0.43140000  0.06340000  0.85790000  1.0 -0.2465867171
N  N18  1  0.56860000  0.93660000  0.35790000  1.0 -0.2465867171
N  N19  1  0.06340000  0.43140000  0.14210000  1.0 -0.2465867171
N  N20  1  0.93660000  0.56860000  0.64210000  1.0 -0.2465867171
N  N21  1  0.59570000  0.63730000  0.12470000  1.0 -0.2434191003
N  N22  1  0.40430000  0.36270000  0.62470000  1.0 -0.2465867171
N  N23  1  0.63730000  0.59570000  0.87530000  1.0 -0.2465867171
N  N24  1  0.36270000  0.40430000  0.37530000  1.0 -0.2434191003
N  N25  1  0.40430000  0.36270000  0.87530000  1.0 -0.2465867171
N  N26  1  0.59570000  0.63730000  0.37530000  1.0 -0.2434191003
N  N27  1  0.36270000  0.40430000  0.12470000  1.0 -0.2434191003
N  N28  1  0.63730000  0.59570000  0.62470000  1.0 -0.2465867171
N  N29  1  0.65900000  0.85420000  0.97360000  1.0 -0.3009145006
N  N30  1  0.34100000  0.14580000  0.47360000  1.0 -0.3009145006
N  N31  1  0.85420000  0.65900000  0.02640000  1.0 -0.3009145006
N  N32  1  0.14580000  0.34100000  0.52640000  1.0 -0.3009145006
N  N33  1  0.34100000  0.14580000  0.02640000  1.0 -0.3009145006
N  N34  1  0.65900000  0.85420000  0.52640000  1.0 -0.3009145006
N  N35  1  0.14580000  0.34100000  0.97360000  1.0 -0.3009145006
N  N36  1  0.85420000  0.65900000  0.47360000  1.0 -0.3009145006
N  N37  1  0.09280000  0.90720000  0.01580000  1.0 -0.3290820017
N  N38  1  0.90720000  0.09280000  0.51580000  1.0 -0.3290820017
N  N39  1  0.90720000  0.09280000  0.98420000  1.0 -0.3290820017
N  N40  1  0.09280000  0.90720000  0.48420000  1.0 -0.3290820017
N  N41  1  0.03650000  0.68850000  0.16570000  1.0 -0.4402295545
N  N42  1  0.96350000  0.31150000  0.66570000  1.0 -0.4402295545
N  N43  1  0.68850000  0.03650000  0.83430000  1.0 -0.4402295545
N  N44  1  0.31150000  0.96350000  0.33430000  1.0 -0.4402295545
N  N45  1  0.96350000  0.31150000  0.83430000  1.0 -0.4402295545
N  N46  1  0.03650000  0.68850000  0.33430000  1.0 -0.4402295545
N  N47  1  0.31150000  0.96350000  0.16570000  1.0 -0.4402295545
N  N48  1  0.68850000  0.03650000  0.66570000  1.0 -0.4402295545
O  O1  1  0.11860000  0.13420000  0.03970000  1.0 -0.1898868296
O  O2  1  0.88140000  0.86580000  0.53970000  1.0 -0.1898868296
O  O3  1  0.13420000  0.11860000  0.96030000  1.0 -0.1898868296
O  O4  1  0.86580000  0.88140000  0.46030000  1.0 -0.1898868296
O  O5  1  0.88140000  0.86580000  0.96030000  1.0 -0.1898868296
O  O6  1  0.11860000  0.13420000  0.46030000  1.0 -0.1898868296
O  O7  1  0.86580000  0.88140000  0.03970000  1.0 -0.1898868296
O  O8  1  0.13420000  0.11860000  0.53970000  1.0 -0.1898868296
