# DDEC6 charges by PACMAN v1.1 (https://github.com/mtap-research/PACMAN-charge/)
data_FASGEO_ASR_pacman
_symmetry_space_group_name_H-M   'P 1'
_cell_length_a   15.44600000
_cell_length_b   15.44600000
_cell_length_c   9.90700000
_cell_angle_alpha   90.00000000
_cell_angle_beta   90.00000000
_cell_angle_gamma   90.00000000
_symmetry_Int_Tables_number   1
_chemical_formula_structural   SmZn2H24C44S4N4O13
_chemical_formula_sum   'Sm2 Zn4 H48 C88 S8 N8 O26'
_cell_volume   2363.60132081
_cell_formula_units_Z   2
loop_
 _symmetry_equiv_pos_site_id
 _symmetry_equiv_pos_as_xyz
  1  'x, y, z'
loop_
 _atom_site_type_symbol
 _atom_site_label
 _atom_site_symmetry_multiplicity
 _atom_site_fract_x
 _atom_site_fract_y
 _atom_site_fract_z
 _atom_site_occupancy
 _atom_site_charge
Sm  Sm1  1  0.50000000  0.50000000  0.25000000  1.0 2.3125318849
Sm  Sm2  1  0.50000000  0.50000000  0.75000000  1.0 2.3125318849
Zn  Zn1  1  0.00000000  0.00000000  0.96823000  1.0 0.4087669814
Zn  Zn2  1  0.00000000  0.00000000  0.53177000  1.0 0.4087669814
Zn  Zn3  1  0.00000000  0.00000000  0.03177000  1.0 0.4087669814
Zn  Zn4  1  0.00000000  0.00000000  0.46823000  1.0 0.4087669814
H  H1  1  0.59080000  0.73970000  0.79900000  1.0 0.1401419256
H  H2  1  0.40920000  0.26030000  0.79900000  1.0 0.1401419256
H  H3  1  0.73970000  0.40920000  0.79900000  1.0 0.1401419256
H  H4  1  0.26030000  0.59080000  0.79900000  1.0 0.1401419256
H  H5  1  0.59080000  0.26030000  0.70100000  1.0 0.1401419256
H  H6  1  0.40920000  0.73970000  0.70100000  1.0 0.1401419256
H  H7  1  0.73970000  0.59080000  0.70100000  1.0 0.1401419256
H  H8  1  0.26030000  0.40920000  0.70100000  1.0 0.1401419256
H  H9  1  0.40920000  0.26030000  0.20100000  1.0 0.1401419256
H  H10  1  0.59080000  0.73970000  0.20100000  1.0 0.1401419256
H  H11  1  0.26030000  0.59080000  0.20100000  1.0 0.1401419256
H  H12  1  0.73970000  0.40920000  0.20100000  1.0 0.1401419256
H  H13  1  0.40920000  0.73970000  0.29900000  1.0 0.1401419256
H  H14  1  0.59080000  0.26030000  0.29900000  1.0 0.1401419256
H  H15  1  0.26030000  0.40920000  0.29900000  1.0 0.1401419256
H  H16  1  0.73970000  0.59080000  0.29900000  1.0 0.1401419256
H  H17  1  0.71460000  0.82170000  0.79830000  1.0 0.1288020029
H  H18  1  0.28540000  0.17830000  0.79830000  1.0 0.1288020029
H  H19  1  0.82170000  0.28540000  0.79830000  1.0 0.1288020029
H  H20  1  0.17830000  0.71460000  0.79830000  1.0 0.1288020029
H  H21  1  0.71460000  0.17830000  0.70170000  1.0 0.1288020029
H  H22  1  0.28540000  0.82170000  0.70170000  1.0 0.1288020029
H  H23  1  0.82170000  0.71460000  0.70170000  1.0 0.1288020029
H  H24  1  0.17830000  0.28540000  0.70170000  1.0 0.1288020029
H  H25  1  0.28540000  0.17830000  0.20170000  1.0 0.1288020029
H  H26  1  0.71460000  0.82170000  0.20170000  1.0 0.1288020029
H  H27  1  0.17830000  0.71460000  0.20170000  1.0 0.1288020029
H  H28  1  0.82170000  0.28540000  0.20170000  1.0 0.1288020029
H  H29  1  0.28540000  0.82170000  0.29830000  1.0 0.1288020029
H  H30  1  0.71460000  0.17830000  0.29830000  1.0 0.1288020029
H  H31  1  0.17830000  0.28540000  0.29830000  1.0 0.1288020029
H  H32  1  0.82170000  0.71460000  0.29830000  1.0 0.1288020029
H  H33  1  0.84920000  0.70340000  0.00000000  1.0 0.1401419256
H  H34  1  0.15080000  0.29660000  0.00000000  1.0 0.1401419256
H  H35  1  0.70340000  0.15080000  0.00000000  1.0 0.1401419256
H  H36  1  0.29660000  0.84920000  0.00000000  1.0 0.1401419256
H  H37  1  0.84920000  0.29660000  0.50000000  1.0 0.1401419256
H  H38  1  0.15080000  0.70340000  0.50000000  1.0 0.1401419256
H  H39  1  0.70340000  0.84920000  0.50000000  1.0 0.1401419256
H  H40  1  0.29660000  0.15080000  0.50000000  1.0 0.1401419256
H  H41  1  0.00470000  0.66790000  0.00000000  1.0 0.1288020029
H  H42  1  0.99530000  0.33210000  0.00000000  1.0 0.1288020029
H  H43  1  0.66790000  0.99530000  0.00000000  1.0 0.1288020029
H  H44  1  0.33210000  0.00470000  0.00000000  1.0 0.1288020029
H  H45  1  0.00470000  0.33210000  0.50000000  1.0 0.1288020029
H  H46  1  0.99530000  0.66790000  0.50000000  1.0 0.1288020029
H  H47  1  0.66790000  0.00470000  0.50000000  1.0 0.1288020029
H  H48  1  0.33210000  0.99530000  0.50000000  1.0 0.1288020029
C  C1  1  0.57967000  0.73207000  0.00000000  1.0 -0.0928378467
C  C2  1  0.42033000  0.26793000  0.00000000  1.0 -0.0928378467
C  C3  1  0.73207000  0.42033000  0.00000000  1.0 -0.0928378467
C  C4  1  0.26793000  0.57967000  0.00000000  1.0 -0.0928378467
C  C5  1  0.57967000  0.26793000  0.50000000  1.0 -0.0928378467
C  C6  1  0.42033000  0.73207000  0.50000000  1.0 -0.0928378467
C  C7  1  0.73207000  0.57967000  0.50000000  1.0 -0.0928378467
C  C8  1  0.26793000  0.42033000  0.50000000  1.0 -0.0928378467
C  C9  1  0.61610000  0.75632000  0.88010000  1.0 -0.0746670326
C  C10  1  0.38390000  0.24368000  0.88010000  1.0 -0.0746670326
C  C11  1  0.75632000  0.38390000  0.88010000  1.0 -0.0746670326
C  C12  1  0.24368000  0.61610000  0.88010000  1.0 -0.0746670326
C  C13  1  0.61610000  0.24368000  0.61990000  1.0 -0.0746670326
C  C14  1  0.38390000  0.75632000  0.61990000  1.0 -0.0746670326
C  C15  1  0.75632000  0.61610000  0.61990000  1.0 -0.0746670326
C  C16  1  0.24368000  0.38390000  0.61990000  1.0 -0.0746670326
C  C17  1  0.38390000  0.24368000  0.11990000  1.0 -0.0746670326
C  C18  1  0.61610000  0.75632000  0.11990000  1.0 -0.0746670326
C  C19  1  0.24368000  0.61610000  0.11990000  1.0 -0.0746670326
C  C20  1  0.75632000  0.38390000  0.11990000  1.0 -0.0746670326
C  C21  1  0.38390000  0.75632000  0.38010000  1.0 -0.0746670326
C  C22  1  0.61610000  0.24368000  0.38010000  1.0 -0.0746670326
C  C23  1  0.24368000  0.38390000  0.38010000  1.0 -0.0746670326
C  C24  1  0.75632000  0.61610000  0.38010000  1.0 -0.0746670326
C  C25  1  0.68993000  0.80502000  0.88000000  1.0 -0.1242261043
C  C26  1  0.31007000  0.19498000  0.88000000  1.0 -0.1242261043
C  C27  1  0.80502000  0.31007000  0.88000000  1.0 -0.1242261043
C  C28  1  0.19498000  0.68993000  0.88000000  1.0 -0.1242261043
C  C29  1  0.68993000  0.19498000  0.62000000  1.0 -0.1242261043
C  C30  1  0.31007000  0.80502000  0.62000000  1.0 -0.1242261043
C  C31  1  0.80502000  0.68993000  0.62000000  1.0 -0.1242261043
C  C32  1  0.19498000  0.31007000  0.62000000  1.0 -0.1242261043
C  C33  1  0.31007000  0.19498000  0.12000000  1.0 -0.1242261043
C  C34  1  0.68993000  0.80502000  0.12000000  1.0 -0.1242261043
C  C35  1  0.19498000  0.68993000  0.12000000  1.0 -0.1242261043
C  C36  1  0.80502000  0.31007000  0.12000000  1.0 -0.1242261043
C  C37  1  0.31007000  0.80502000  0.38000000  1.0 -0.1242261043
C  C38  1  0.68993000  0.19498000  0.38000000  1.0 -0.1242261043
C  C39  1  0.19498000  0.31007000  0.38000000  1.0 -0.1242261043
C  C40  1  0.80502000  0.68993000  0.38000000  1.0 -0.1242261043
C  C41  1  0.72846000  0.82984000  0.00000000  1.0 0.1021104345
C  C42  1  0.27154000  0.17016000  0.00000000  1.0 0.1021104345
C  C43  1  0.82984000  0.27154000  0.00000000  1.0 0.1021104345
C  C44  1  0.17016000  0.72846000  0.00000000  1.0 0.1021104345
C  C45  1  0.72846000  0.17016000  0.50000000  1.0 0.1021104345
C  C46  1  0.27154000  0.82984000  0.50000000  1.0 0.1021104345
C  C47  1  0.82984000  0.72846000  0.50000000  1.0 0.1021104345
C  C48  1  0.17016000  0.27154000  0.50000000  1.0 0.1021104345
C  C49  1  0.81189000  0.88352000  0.00000000  1.0 -0.1100507759
C  C50  1  0.18811000  0.11648000  0.00000000  1.0 -0.1100507759
C  C51  1  0.88352000  0.18811000  0.00000000  1.0 -0.1100507759
C  C52  1  0.11648000  0.81189000  0.00000000  1.0 -0.1100507759
C  C53  1  0.81189000  0.11648000  0.50000000  1.0 -0.1100507759
C  C54  1  0.18811000  0.88352000  0.50000000  1.0 -0.1100507759
C  C55  1  0.88352000  0.81189000  0.50000000  1.0 -0.1100507759
C  C56  1  0.11648000  0.18811000  0.50000000  1.0 -0.1100507759
C  C57  1  0.88959000  0.83641000  0.00000000  1.0 0.1977438108
C  C58  1  0.11041000  0.16359000  0.00000000  1.0 0.1977438108
C  C59  1  0.83641000  0.11041000  0.00000000  1.0 0.1977438108
C  C60  1  0.16359000  0.88959000  0.00000000  1.0 0.1977438108
C  C61  1  0.88959000  0.16359000  0.50000000  1.0 0.1977438108
C  C62  1  0.11041000  0.83641000  0.50000000  1.0 0.1977438108
C  C63  1  0.83641000  0.88959000  0.50000000  1.0 0.1977438108
C  C64  1  0.16359000  0.11041000  0.50000000  1.0 0.1977438108
C  C65  1  0.89506000  0.74239000  0.00000000  1.0 -0.1627651135
C  C66  1  0.10494000  0.25761000  0.00000000  1.0 -0.1627651135
C  C67  1  0.74239000  0.10494000  0.00000000  1.0 -0.1627651135
C  C68  1  0.25761000  0.89506000  0.00000000  1.0 -0.1627651135
C  C69  1  0.89506000  0.25761000  0.50000000  1.0 -0.1627651135
C  C70  1  0.10494000  0.74239000  0.50000000  1.0 -0.1627651135
C  C71  1  0.74239000  0.89506000  0.50000000  1.0 -0.1627651135
C  C72  1  0.25761000  0.10494000  0.50000000  1.0 -0.1627651135
C  C73  1  0.98070000  0.72310000  0.00000000  1.0 -0.1627651135
C  C74  1  0.01930000  0.27690000  0.00000000  1.0 -0.1627651135
C  C75  1  0.72310000  0.01930000  0.00000000  1.0 -0.1627651135
C  C76  1  0.27690000  0.98070000  0.00000000  1.0 -0.1627651135
C  C77  1  0.98070000  0.27690000  0.50000000  1.0 -0.1627651135
C  C78  1  0.01930000  0.72310000  0.50000000  1.0 -0.1627651135
C  C79  1  0.72310000  0.98070000  0.50000000  1.0 -0.1627651135
C  C80  1  0.27690000  0.01930000  0.50000000  1.0 -0.1627651135
C  C81  1  0.02850000  0.80434000  0.00000000  1.0 0.1843029486
C  C82  1  0.97150000  0.19566000  0.00000000  1.0 0.1843029486
C  C83  1  0.80434000  0.97150000  0.00000000  1.0 0.1843029486
C  C84  1  0.19566000  0.02850000  0.00000000  1.0 0.1843029486
C  C85  1  0.02850000  0.19566000  0.50000000  1.0 0.1843029486
C  C86  1  0.97150000  0.80434000  0.50000000  1.0 0.1843029486
C  C87  1  0.80434000  0.02850000  0.50000000  1.0 0.1843029486
C  C88  1  0.19566000  0.97150000  0.50000000  1.0 0.1843029486
S  S1  1  0.47637000  0.68047000  0.00000000  1.0 1.2758685911
S  S2  1  0.52363000  0.31953000  0.00000000  1.0 1.2758685911
S  S3  1  0.68047000  0.52363000  0.00000000  1.0 1.2758685911
S  S4  1  0.31953000  0.47637000  0.00000000  1.0 1.2758685911
S  S5  1  0.47637000  0.31953000  0.50000000  1.0 1.2758685911
S  S6  1  0.52363000  0.68047000  0.50000000  1.0 1.2758685911
S  S7  1  0.68047000  0.47637000  0.50000000  1.0 1.2758685911
S  S8  1  0.31953000  0.52363000  0.50000000  1.0 1.2758685911
N  N1  1  0.96958000  0.87112000  0.00000000  1.0 -0.2855592406
N  N2  1  0.03042000  0.12888000  0.00000000  1.0 -0.2855592406
N  N3  1  0.87112000  0.03042000  0.00000000  1.0 -0.2855592406
N  N4  1  0.12888000  0.96958000  0.00000000  1.0 -0.2855592406
N  N5  1  0.96958000  0.12888000  0.50000000  1.0 -0.2855592406
N  N6  1  0.03042000  0.87112000  0.50000000  1.0 -0.2855592406
N  N7  1  0.87112000  0.96958000  0.50000000  1.0 -0.2855592406
N  N8  1  0.12888000  0.03042000  0.50000000  1.0 -0.2855592406
O  O1  1  0.47006000  0.62807000  0.12190000  1.0 -0.7327230757
O  O2  1  0.52994000  0.37193000  0.12190000  1.0 -0.7327230757
O  O3  1  0.62807000  0.52994000  0.12190000  1.0 -0.7327230757
O  O4  1  0.37193000  0.47006000  0.12190000  1.0 -0.7327230757
O  O5  1  0.47006000  0.37193000  0.37810000  1.0 -0.7327230757
O  O6  1  0.52994000  0.62807000  0.37810000  1.0 -0.7327230757
O  O7  1  0.62807000  0.47006000  0.37810000  1.0 -0.7327230757
O  O8  1  0.37193000  0.52994000  0.37810000  1.0 -0.7327230757
O  O9  1  0.52994000  0.37193000  0.87810000  1.0 -0.7327230757
O  O10  1  0.47006000  0.62807000  0.87810000  1.0 -0.7327230757
O  O11  1  0.37193000  0.47006000  0.87810000  1.0 -0.7327230757
O  O12  1  0.62807000  0.52994000  0.87810000  1.0 -0.7327230757
O  O13  1  0.52994000  0.62807000  0.62190000  1.0 -0.7327230757
O  O14  1  0.47006000  0.37193000  0.62190000  1.0 -0.7327230757
O  O15  1  0.37193000  0.52994000  0.62190000  1.0 -0.7327230757
O  O16  1  0.62807000  0.47006000  0.62190000  1.0 -0.7327230757
O  O17  1  0.41352000  0.74927000  0.00000000  1.0 -0.5612574255
O  O18  1  0.58648000  0.25073000  0.00000000  1.0 -0.5612574255
O  O19  1  0.74927000  0.58648000  0.00000000  1.0 -0.5612574255
O  O20  1  0.25073000  0.41352000  0.00000000  1.0 -0.5612574255
O  O21  1  0.41352000  0.25073000  0.50000000  1.0 -0.5612574255
O  O22  1  0.58648000  0.74927000  0.50000000  1.0 -0.5612574255
O  O23  1  0.74927000  0.41352000  0.50000000  1.0 -0.5612574255
O  O24  1  0.25073000  0.58648000  0.50000000  1.0 -0.5612574255
O  O25  1  0.00000000  0.00000000  0.75000000  1.0 -0.4436243659
O  O26  1  0.00000000  0.00000000  0.25000000  1.0 -0.4436243659
