# DDEC6 charges by PACMAN v1.1 (https://github.com/mtap-research/PACMAN-charge/)
data_FASGIS_ASR_pacman
_symmetry_space_group_name_H-M   'P 1'
_cell_length_a   11.16370000
_cell_length_b   13.42310000
_cell_length_c   19.71300000
_cell_angle_alpha   71.96400000
_cell_angle_beta   74.61300000
_cell_angle_gamma   75.76400000
_symmetry_Int_Tables_number   1
_chemical_formula_structural   Tb3CoH24C44S5N4O15
_chemical_formula_sum   'Tb6 Co2 H48 C88 S10 N8 O30'
_cell_volume   2664.62800075
_cell_formula_units_Z   2
loop_
 _symmetry_equiv_pos_site_id
 _symmetry_equiv_pos_as_xyz
  1  'x, y, z'
loop_
 _atom_site_type_symbol
 _atom_site_label
 _atom_site_symmetry_multiplicity
 _atom_site_fract_x
 _atom_site_fract_y
 _atom_site_fract_z
 _atom_site_occupancy
 _atom_site_charge
Tb  Tb1  1  0.49274000  0.10327000  0.07806000  1.0 0.8834875823
Tb  Tb2  1  0.50726000  0.89673000  0.92194000  1.0 0.8834875823
Tb  Tb3  1  0.49872000  0.11545000  0.08896000  1.0 1.1080341638
Tb  Tb4  1  0.50128000  0.88455000  0.91104000  1.0 1.1080341638
Tb  Tb5  1  0.47090000  0.15059000  0.08564000  1.0 -0.0087588056
Tb  Tb6  1  0.52910000  0.84941000  0.91436000  1.0 -0.0087588056
Co  Co1  1  0.78619000  0.51451000  0.42130000  1.0 0.6354448498
Co  Co2  1  0.21381000  0.48549000  0.57870000  1.0 0.6354448498
H  H1  1  0.87980000  0.54390000  0.15100000  1.0 0.1489387081
H  H2  1  0.12020000  0.45610000  0.84900000  1.0 0.1489387081
H  H3  1  0.01670000  0.64880000  0.16110000  1.0 0.1571753515
H  H4  1  0.98330000  0.35120000  0.83890000  1.0 0.1571753515
H  H5  1  0.10550000  0.74420000  0.38210000  1.0 0.1406594764
H  H6  1  0.89450000  0.25580000  0.61790000  1.0 0.1406594764
H  H7  1  0.98650000  0.74260000  0.50750000  1.0 0.1406594764
H  H8  1  0.01350000  0.25740000  0.49250000  1.0 0.1406594764
H  H9  1  0.61800000  0.53980000  0.68180000  1.0 0.1406594764
H  H10  1  0.38200000  0.46020000  0.31820000  1.0 0.1406594764
H  H11  1  0.53020000  0.39950000  0.67450000  1.0 0.1489387081
H  H12  1  0.46980000  0.60050000  0.32550000  1.0 0.1489387081
H  H13  1  0.56020000  0.21060000  0.46960000  1.0 0.1406594764
H  H14  1  0.43980000  0.78940000  0.53040000  1.0 0.1406594764
H  H15  1  0.62050000  0.26200000  0.34040000  1.0 0.1571753515
H  H16  1  0.37950000  0.73800000  0.65960000  1.0 0.1571753515
H  H17  1  0.84370000  0.26010000  0.23210000  1.0 0.1406594764
H  H18  1  0.15630000  0.73990000  0.76790000  1.0 0.1489387081
H  H19  1  0.81870000  0.21810000  0.13380000  1.0 0.1489387081
H  H20  1  0.18130000  0.78190000  0.86620000  1.0 0.1489387081
H  H21  1  0.59690000  0.49530000  0.07910000  1.0 0.1571753515
H  H22  1  0.40310000  0.50470000  0.92090000  1.0 0.1571753515
H  H23  1  0.59850000  0.53100000  0.18710000  1.0 0.1314894647
H  H24  1  0.40150000  0.46900000  0.81290000  1.0 0.1314894647
H  H25  1  0.21980000  0.57330000  0.22840000  1.0 0.1314894647
H  H26  1  0.78020000  0.42670000  0.77160000  1.0 0.1314894647
H  H27  1  0.39060000  0.63760000  0.15760000  1.0 0.1406594764
H  H28  1  0.60940000  0.36240000  0.84240000  1.0 0.1406594764
H  H29  1  0.22320000  0.92560000  0.18910000  1.0 0.1314894647
H  H30  1  0.77680000  0.07440000  0.81090000  1.0 0.1314894647
H  H31  1  0.04560000  0.85380000  0.26320000  1.0 0.1571753515
H  H32  1  0.95440000  0.14620000  0.73680000  1.0 0.1489387081
H  H33  1  0.95740000  0.59300000  0.63670000  1.0 0.1210867689
H  H34  1  0.04260000  0.40700000  0.36330000  1.0 0.1210867689
H  H35  1  0.96860000  0.67500000  0.71810000  1.0 0.1406594764
H  H36  1  0.03140000  0.32500000  0.28190000  1.0 0.1406594764
H  H37  1  0.61760000  0.83290000  0.70960000  1.0 0.1489387081
H  H38  1  0.38240000  0.16710000  0.29040000  1.0 0.1489387081
H  H39  1  0.61470000  0.75320000  0.62310000  1.0 0.1314894647
H  H40  1  0.38530000  0.24680000  0.37690000  1.0 0.1314894647
H  H41  1  0.67520000  0.18800000  0.65390000  1.0 0.1314894647
H  H42  1  0.32480000  0.81200000  0.34610000  1.0 0.1314894647
H  H43  1  0.57670000  0.05500000  0.73700000  1.0 0.1489387081
H  H44  1  0.42330000  0.94500000  0.26300000  1.0 0.1489387081
H  H45  1  0.27090000  0.17030000  0.65340000  1.0 0.1406594764
H  H46  1  0.72910000  0.82970000  0.34660000  1.0 0.1406594764
H  H47  1  0.36920000  0.30370000  0.56850000  1.0 0.1210867689
H  H48  1  0.63080000  0.69630000  0.43150000  1.0 0.1210867689
C  C1  1  0.74670000  0.43370000  0.28242000  1.0 -0.0788057241
C  C2  1  0.25330000  0.56630000  0.71758000  1.0 -0.0788057241
C  C3  1  0.82120000  0.50930000  0.26567000  1.0 0.186192145
C  C4  1  0.17880000  0.49070000  0.73433000  1.0 0.186192145
C  C5  1  0.88790000  0.55400000  0.19403000  1.0 -0.1293533637
C  C6  1  0.11210000  0.44600000  0.80597000  1.0 -0.1293533637
C  C7  1  0.96250000  0.61140000  0.19960000  1.0 -0.1356508135
C  C8  1  0.03750000  0.38860000  0.80040000  1.0 -0.1356508135
C  C9  1  0.94620000  0.60690000  0.27508000  1.0 0.186192145
C  C10  1  0.05380000  0.39310000  0.72492000  1.0 0.186192145
C  C11  1  0.01260000  0.65330000  0.30529000  1.0 -0.0712605128
C  C12  1  0.98740000  0.34670000  0.69471000  1.0 -0.0712605128
C  C13  1  0.98250000  0.65500000  0.37650000  1.0 0.1747260094
C  C14  1  0.01750000  0.34500000  0.62350000  1.0 0.1747260094
C  C15  1  0.03640000  0.71090000  0.40620000  1.0 -0.1629205991
C  C16  1  0.96360000  0.28910000  0.59380000  1.0 -0.1629205991
C  C17  1  0.97230000  0.70930000  0.47620000  1.0 -0.1629205991
C  C18  1  0.02770000  0.29070000  0.52380000  1.0 -0.1629205991
C  C19  1  0.87770000  0.64450000  0.49046000  1.0 0.1997077838
C  C20  1  0.12230000  0.35550000  0.50954000  1.0 0.1997077838
C  C21  1  0.79230000  0.62210000  0.55724000  1.0 -0.0712605128
C  C22  1  0.20770000  0.37790000  0.44276000  1.0 -0.0712605128
C  C23  1  0.71300000  0.55030000  0.57152000  1.0 0.1817350984
C  C24  1  0.28700000  0.44970000  0.42848000  1.0 0.1817350984
C  C25  1  0.63290000  0.51360000  0.64128000  1.0 -0.1505601679
C  C26  1  0.36710000  0.48640000  0.35872000  1.0 -0.1505601679
C  C27  1  0.58550000  0.43700000  0.63688000  1.0 -0.1505601679
C  C28  1  0.41450000  0.56300000  0.36312000  1.0 -0.1505601679
C  C29  1  0.63000000  0.41890000  0.56674000  1.0 0.1997077838
C  C30  1  0.37000000  0.58110000  0.43326000  1.0 0.1997077838
C  C31  1  0.60320000  0.33870000  0.54376000  1.0 -0.0572794389
C  C32  1  0.39680000  0.66130000  0.45624000  1.0 -0.0572794389
C  C33  1  0.63790000  0.33320000  0.47131000  1.0 0.186192145
C  C34  1  0.36210000  0.66680000  0.52869000  1.0 0.186192145
C  C35  1  0.60230000  0.26680000  0.44260000  1.0 -0.1629205991
C  C36  1  0.39770000  0.73320000  0.55740000  1.0 -0.1629205991
C  C37  1  0.63630000  0.29420000  0.37190000  1.0 -0.1505601679
C  C38  1  0.36370000  0.70580000  0.62810000  1.0 -0.1505601679
C  C39  1  0.70090000  0.38070000  0.35070000  1.0 0.1817350984
C  C40  1  0.29910000  0.61930000  0.64930000  1.0 0.1817350984
C  C41  1  0.72850000  0.40050000  0.21928000  1.0 0.0824189969
C  C42  1  0.27150000  0.59950000  0.78072000  1.0 0.0824189969
C  C43  1  0.79060000  0.30760000  0.20256000  1.0 -0.1199874232
C  C44  1  0.20940000  0.69240000  0.79744000  1.0 -0.1199874232
C  C45  1  0.77640000  0.28290000  0.14320000  1.0 -0.0410173162
C  C46  1  0.22360000  0.71710000  0.85680000  1.0 -0.0410173162
C  C47  1  0.70130000  0.35120000  0.09718000  1.0 -0.0788057241
C  C48  1  0.29870000  0.64880000  0.90282000  1.0 -0.0788057241
C  C49  1  0.64240000  0.44530000  0.11190000  1.0 -0.027247644
C  C50  1  0.35760000  0.55470000  0.88810000  1.0 -0.027247644
C  C51  1  0.64780000  0.46970000  0.17500000  1.0 -0.1293533637
C  C52  1  0.35220000  0.53030000  0.82500000  1.0 -0.1293533637
C  C53  1  0.11600000  0.70420000  0.25434000  1.0 0.0891585574
C  C54  1  0.88400000  0.29580000  0.74566000  1.0 0.0891585574
C  C55  1  0.22060000  0.64500000  0.22080000  1.0 -0.1293533637
C  C56  1  0.77940000  0.35500000  0.77920000  1.0 -0.1293533637
C  C57  1  0.32290000  0.68250000  0.17830000  1.0 -0.0497825816
C  C58  1  0.67710000  0.31750000  0.82170000  1.0 -0.0497825816
C  C59  1  0.32710000  0.78930000  0.16520000  1.0 -0.0963032208
C  C60  1  0.67290000  0.21070000  0.83480000  1.0 -0.0963032208
C  C61  1  0.22240000  0.85370000  0.19730000  1.0 -0.0164480311
C  C62  1  0.77760000  0.14630000  0.80270000  1.0 -0.0164480311
C  C63  1  0.11520000  0.81070000  0.24230000  1.0 -0.1065575927
C  C64  1  0.88480000  0.18930000  0.75770000  1.0 -0.1065575927
C  C65  1  0.79000000  0.67180000  0.61422000  1.0 0.0824189969
C  C66  1  0.21000000  0.32820000  0.38578000  1.0 0.0824189969
C  C67  1  0.89050000  0.64580000  0.64863000  1.0 -0.1293533637
C  C68  1  0.10950000  0.35420000  0.35137000  1.0 -0.1293533637
C  C69  1  0.89670000  0.69280000  0.69850000  1.0 -0.0788057241
C  C70  1  0.10330000  0.30720000  0.30150000  1.0 -0.0788057241
C  C71  1  0.79640000  0.76750000  0.72050000  1.0 -0.0712605128
C  C72  1  0.20360000  0.23250000  0.27950000  1.0 -0.0712605128
C  C73  1  0.68910000  0.78730000  0.69300000  1.0 -0.0497825816
C  C74  1  0.31090000  0.21270000  0.30700000  1.0 -0.0497825816
C  C75  1  0.68800000  0.73920000  0.64090000  1.0 -0.1199874232
C  C76  1  0.31200000  0.26080000  0.35910000  1.0 -0.1199874232
C  C77  1  0.53670000  0.25790000  0.59808000  1.0 0.0891585574
C  C78  1  0.46330000  0.74210000  0.40192000  1.0 0.0891585574
C  C79  1  0.59420000  0.18420000  0.65190000  1.0 -0.1199874232
C  C80  1  0.40580000  0.81580000  0.34810000  1.0 -0.1199874232
C  C81  1  0.53460000  0.10510000  0.70260000  1.0 -0.0497825816
C  C82  1  0.46540000  0.89490000  0.29740000  1.0 -0.0572794389
C  C83  1  0.41630000  0.10050000  0.70210000  1.0 -0.0712605128
C  C84  1  0.58370000  0.89950000  0.29790000  1.0 -0.0712605128
C  C85  1  0.35350000  0.17330000  0.65290000  1.0 -0.0788057241
C  C86  1  0.64650000  0.82670000  0.34710000  1.0 -0.0788057241
C  C87  1  0.41350000  0.25270000  0.60150000  1.0 -0.1293533637
C  C88  1  0.58650000  0.74730000  0.39850000  1.0 -0.1293533637
S  S1  1  0.70025000  0.32025000  0.01753000  1.0 1.2045451701
S  S2  1  0.29975000  0.67975000  0.98247000  1.0 1.2045451701
S  S3  1  0.46843000  0.83002000  0.11823000  1.0 0.5588429273
S  S4  1  0.53157000  0.16998000  0.88177000  1.0 0.5588429273
S  S5  1  0.80489000  0.83438000  0.78272000  1.0 1.1908488572
S  S6  1  0.19511000  0.16562000  0.21728000  1.0 1.1908488572
S  S7  1  0.34486000  0.99025000  0.76084000  1.0 1.2344506085
S  S8  1  0.65514000  0.00975000  0.23916000  1.0 1.2344506085
S  S9  1  0.41800000  0.89480000  0.08620000  1.0 0.2390753627
S  S10  1  0.58200000  0.10520000  0.91380000  1.0 0.2390753627
N  N1  1  0.70130000  0.40700000  0.41390000  1.0 -0.3632809742
N  N2  1  0.29870000  0.59300000  0.58610000  1.0 -0.3632809742
N  N3  1  0.85560000  0.54490000  0.31582000  1.0 -0.3712675496
N  N4  1  0.14440000  0.45510000  0.68418000  1.0 -0.3712675496
N  N5  1  0.88490000  0.61120000  0.43040000  1.0 -0.3544242977
N  N6  1  0.11510000  0.38880000  0.56960000  1.0 -0.3544242977
N  N7  1  0.70840000  0.49100000  0.52463000  1.0 -0.3632809742
N  N8  1  0.29160000  0.50900000  0.47537000  1.0 -0.3632809742
O  O1  1  0.66570000  0.21270000  0.04270000  1.0 -0.6704003065
O  O2  1  0.33430000  0.78730000  0.95730000  1.0 -0.6704003065
O  O3  1  0.60920000  0.40340000  0.98176000  1.0 -0.4375137239
O  O4  1  0.39080000  0.59660000  0.01824000  1.0 -0.4375137239
O  O5  1  0.82840000  0.31530000  0.97309000  1.0 -0.4973469376
O  O6  1  0.17160000  0.68470000  0.02691000  1.0 -0.4973469376
O  O7  1  0.47070000  0.83650000  0.04353000  1.0 -0.3984275012
O  O8  1  0.52930000  0.16350000  0.95647000  1.0 -0.3984275012
O  O9  1  0.57510000  0.76250000  0.14150000  1.0 -0.3712675496
O  O10  1  0.42490000  0.23750000  0.85850000  1.0 -0.3712675496
O  O11  1  0.45100000  0.94400000  0.12332000  1.0 -0.4375137239
O  O12  1  0.54900000  0.05600000  0.87668000  1.0 -0.4375137239
O  O13  1  0.85920000  0.91620000  0.74310000  1.0 -0.3984275012
O  O14  1  0.14080000  0.08380000  0.25690000  1.0 -0.3984275012
O  O15  1  0.87600000  0.75730000  0.83480000  1.0 -0.470991969
O  O16  1  0.12400000  0.24270000  0.16520000  1.0 -0.470991969
O  O17  1  0.67830000  0.87290000  0.81540000  1.0 -0.6704003065
O  O18  1  0.32170000  0.12710000  0.18460000  1.0 -0.6704003065
O  O19  1  0.38140000  0.90740000  0.71610000  1.0 -0.5782689749
O  O20  1  0.61860000  0.09260000  0.28390000  1.0 -0.5782689749
O  O21  1  0.21310000  0.02670000  0.77850000  1.0 -0.4860070645
O  O22  1  0.78690000  0.97330000  0.22150000  1.0 -0.4860070645
O  O23  1  0.40350000  0.95300000  0.82243000  1.0 -0.7098692953
O  O24  1  0.59650000  0.04700000  0.17757000  1.0 -0.7098692953
O  O25  1  0.67660000  0.99680000  0.03810000  1.0 -0.4510698417
O  O26  1  0.32340000  0.00320000  0.96190000  1.0 -0.4510698417
O  O27  1  0.40400000  0.29820000  0.05170000  1.0 -0.6195867955
O  O28  1  0.59600000  0.70180000  0.94830000  1.0 -0.6195867955
O  O29  1  0.30170000  0.11090000  0.04644000  1.0 -0.4510698417
O  O30  1  0.69830000  0.88910000  0.95356000  1.0 -0.455420345
