# DDEC6 charges by PACMAN v1.1 (https://github.com/mtap-research/PACMAN-charge/)
data_FASHOX_ASR_pacman
_symmetry_space_group_name_H-M   'P 1'
_cell_length_a   9.32780000
_cell_length_b   15.55290000
_cell_length_c   13.03180000
_cell_angle_alpha   90.00000000
_cell_angle_beta   132.34500000
_cell_angle_gamma   90.00000000
_symmetry_Int_Tables_number   1
_chemical_formula_structural   U5(PO4)4
_chemical_formula_sum   'U10 P8 O32'
_cell_volume   1397.33184265
_cell_formula_units_Z   2
loop_
 _symmetry_equiv_pos_site_id
 _symmetry_equiv_pos_as_xyz
  1  'x, y, z'
loop_
 _atom_site_type_symbol
 _atom_site_label
 _atom_site_symmetry_multiplicity
 _atom_site_fract_x
 _atom_site_fract_y
 _atom_site_fract_z
 _atom_site_occupancy
 _atom_site_charge
U  U1  1  0.11300000  0.01700000  0.97100000  1.0 1.9783068693
U  U2  1  0.11300000  0.98300000  0.47100000  1.0 1.9783068693
U  U3  1  0.60360000  0.02280000  0.36510000  1.0 2.0506272411
U  U4  1  0.60360000  0.97720000  0.86510000  1.0 2.0448557234
U  U5  1  0.13240000  0.48920000  0.99870000  1.0 1.9783068693
U  U6  1  0.13240000  0.51080000  0.49870000  1.0 1.9783068693
U  U7  1  0.62300000  0.47070000  0.39450000  1.0 2.0506272411
U  U8  1  0.62300000  0.52930000  0.89450000  1.0 2.0571154451
U  U9  1  0.90540000  0.25120000  0.18880000  1.0 2.2013676262
U  U10  1  0.90540000  0.74880000  0.68880000  1.0 2.2013676262
P  P1  1  0.64170000  0.43690000  0.16170000  1.0 1.3823869721
P  P2  1  0.64170000  0.56310000  0.66170000  1.0 1.3823869721
P  P3  1  0.10360000  0.47390000  0.22500000  1.0 1.3886373138
P  P4  1  0.10360000  0.52610000  0.72500000  1.0 1.3823869721
P  P5  1  0.62660000  0.06380000  0.13780000  1.0 1.3886373138
P  P6  1  0.62660000  0.93620000  0.63780000  1.0 1.3823869721
P  P7  1  0.08720000  0.03000000  0.20080000  1.0 1.3823869721
P  P8  1  0.08720000  0.97000000  0.70080000  1.0 1.3823869721
O  O1  1  0.44620000  0.05630000  0.12200000  1.0 -1.0622672769
O  O2  1  0.44620000  0.94370000  0.62200000  1.0 -1.0622672769
O  O3  1  0.26620000  0.04250000  0.21650000  1.0 -1.0347728038
O  O4  1  0.26620000  0.95750000  0.71650000  1.0 -1.0347728038
O  O5  1  0.28490000  0.46060000  0.24480000  1.0 -1.0201831961
O  O6  1  0.28490000  0.53940000  0.74480000  1.0 -1.0201831961
O  O7  1  0.46030000  0.44450000  0.14630000  1.0 -1.0622672769
O  O8  1  0.46030000  0.55550000  0.64630000  1.0 -1.0622672769
O  O9  1  0.80710000  0.46060000  0.31850000  1.0 -1.0622672769
O  O10  1  0.80710000  0.53940000  0.81850000  1.0 -1.0659358406
O  O11  1  0.62990000  0.50470000  0.07200000  1.0 -0.9223698878
O  O12  1  0.62990000  0.49530000  0.57200000  1.0 -0.9095077221
O  O13  1  0.15010000  0.53930000  0.33500000  1.0 -0.8584496284
O  O14  1  0.15010000  0.46070000  0.83500000  1.0 -0.8584496284
O  O15  1  0.96080000  0.51750000  0.07980000  1.0 -1.0386729145
O  O16  1  0.96080000  0.48250000  0.57980000  1.0 -1.0386729145
O  O17  1  0.12540000  0.96030000  0.30140000  1.0 -0.8710632527
O  O18  1  0.12540000  0.03970000  0.80140000  1.0 -0.8710632527
O  O19  1  0.61040000  0.00080000  0.04310000  1.0 -0.9024419838
O  O20  1  0.61040000  0.99920000  0.54310000  1.0 -0.9024419838
O  O21  1  0.02810000  0.39140000  0.23110000  1.0 -1.0201831961
O  O22  1  0.02810000  0.60860000  0.73110000  1.0 -1.0201831961
O  O23  1  0.93970000  0.99300000  0.05070000  1.0 -1.0506503487
O  O24  1  0.93970000  0.00700000  0.55070000  1.0 -1.0506503487
O  O25  1  0.02370000  0.11260000  0.21710000  1.0 -1.0201831961
O  O26  1  0.02370000  0.88740000  0.71710000  1.0 -1.0201831961
O  O27  1  0.78800000  0.03270000  0.28950000  1.0 -1.0622672769
O  O28  1  0.78800000  0.96730000  0.78950000  1.0 -1.0622672769
O  O29  1  0.66120000  0.34740000  0.13190000  1.0 -0.9024419838
O  O30  1  0.66120000  0.65260000  0.63190000  1.0 -0.9024419838
O  O31  1  0.65390000  0.15380000  0.11650000  1.0 -0.9095077221
O  O32  1  0.65390000  0.84620000  0.61650000  1.0 -0.9095077221
