# DDEC6 charges by PACMAN v1.1 (https://github.com/mtap-research/PACMAN-charge/)
data_FASHUD_ASR_pacman
_symmetry_space_group_name_H-M   'P 1'
_cell_length_a   16.13900000
_cell_length_b   16.13900000
_cell_length_c   18.24700000
_cell_angle_alpha   90.00000000
_cell_angle_beta   90.00000000
_cell_angle_gamma   90.00000000
_symmetry_Int_Tables_number   1
_chemical_formula_structural   Sr2Zr(CO2)8
_chemical_formula_sum   'Sr16 Zr8 C64 O128'
_cell_volume   4752.74720629
_cell_formula_units_Z   8
loop_
 _symmetry_equiv_pos_site_id
 _symmetry_equiv_pos_as_xyz
  1  'x, y, z'
loop_
 _atom_site_type_symbol
 _atom_site_label
 _atom_site_symmetry_multiplicity
 _atom_site_fract_x
 _atom_site_fract_y
 _atom_site_fract_z
 _atom_site_occupancy
 _atom_site_charge
Sr  Sr1  1  0.73720000  0.75000000  0.37500000  1.0 1.3498885378
Sr  Sr2  1  0.23720000  0.25000000  0.87500000  1.0 1.3498885378
Sr  Sr3  1  0.76280000  0.75000000  0.87500000  1.0 1.3498885378
Sr  Sr4  1  0.26280000  0.25000000  0.37500000  1.0 1.3498885378
Sr  Sr5  1  0.25000000  0.23720000  0.62500000  1.0 1.3498885378
Sr  Sr6  1  0.75000000  0.73720000  0.12500000  1.0 1.3498885378
Sr  Sr7  1  0.25000000  0.26280000  0.12500000  1.0 1.3498885378
Sr  Sr8  1  0.75000000  0.76280000  0.62500000  1.0 1.3498885378
Sr  Sr9  1  0.26280000  0.75000000  0.87500000  1.0 1.3498885378
Sr  Sr10  1  0.76280000  0.25000000  0.37500000  1.0 1.3498885378
Sr  Sr11  1  0.23720000  0.75000000  0.37500000  1.0 1.3498885378
Sr  Sr12  1  0.73720000  0.25000000  0.87500000  1.0 1.3498885378
Sr  Sr13  1  0.75000000  0.26280000  0.62500000  1.0 1.3498885378
Sr  Sr14  1  0.25000000  0.76280000  0.12500000  1.0 1.3498885378
Sr  Sr15  1  0.75000000  0.23720000  0.12500000  1.0 1.3498885378
Sr  Sr16  1  0.25000000  0.73720000  0.62500000  1.0 1.3498885378
Zr  Zr1  1  0.00000000  0.50000000  0.75000000  1.0 1.6622366254
Zr  Zr2  1  0.50000000  0.00000000  0.25000000  1.0 1.6622366254
Zr  Zr3  1  0.50000000  0.50000000  0.00000000  1.0 1.6192841872
Zr  Zr4  1  0.00000000  0.00000000  0.50000000  1.0 1.6622366254
Zr  Zr5  1  0.50000000  0.50000000  0.50000000  1.0 1.6622366254
Zr  Zr6  1  0.00000000  0.00000000  0.00000000  1.0 1.6192841872
Zr  Zr7  1  0.00000000  0.50000000  0.25000000  1.0 1.6622366254
Zr  Zr8  1  0.50000000  0.00000000  0.75000000  1.0 1.6622366254
C  C1  1  0.13460000  0.36790000  0.73480000  1.0 0.5213654384
C  C2  1  0.11230000  0.39080000  0.65540000  1.0 0.4939066607
C  C3  1  0.63460000  0.86790000  0.23480000  1.0 0.5213654384
C  C4  1  0.61230000  0.89080000  0.15540000  1.0 0.4939066607
C  C5  1  0.36540000  0.13210000  0.23480000  1.0 0.5213654384
C  C6  1  0.38770000  0.10920000  0.15540000  1.0 0.4939066607
C  C7  1  0.86540000  0.63210000  0.73480000  1.0 0.5213654384
C  C8  1  0.88770000  0.60920000  0.65540000  1.0 0.4939066607
C  C9  1  0.63210000  0.63460000  0.98480000  1.0 0.5213654384
C  C10  1  0.60920000  0.61230000  0.90540000  1.0 0.4939066607
C  C11  1  0.13210000  0.13460000  0.48480000  1.0 0.5213654384
C  C12  1  0.10920000  0.11230000  0.40540000  1.0 0.4939066607
C  C13  1  0.86790000  0.86540000  0.48480000  1.0 0.5213654384
C  C14  1  0.89080000  0.88770000  0.40540000  1.0 0.4939066607
C  C15  1  0.36790000  0.36540000  0.98480000  1.0 0.5213654384
C  C16  1  0.39080000  0.38770000  0.90540000  1.0 0.4939066607
C  C17  1  0.36540000  0.36790000  0.51520000  1.0 0.5213654384
C  C18  1  0.38770000  0.39080000  0.59460000  1.0 0.4939066607
C  C19  1  0.86540000  0.86790000  0.01520000  1.0 0.5213654384
C  C20  1  0.88770000  0.89080000  0.09460000  1.0 0.4939066607
C  C21  1  0.13460000  0.13210000  0.01520000  1.0 0.5213654384
C  C22  1  0.11230000  0.10920000  0.09460000  1.0 0.4939066607
C  C23  1  0.63460000  0.63210000  0.51520000  1.0 0.5213654384
C  C24  1  0.61230000  0.60920000  0.59460000  1.0 0.4939066607
C  C25  1  0.86790000  0.63460000  0.26520000  1.0 0.5213654384
C  C26  1  0.89080000  0.61230000  0.34460000  1.0 0.4939066607
C  C27  1  0.36790000  0.13460000  0.76520000  1.0 0.5213654384
C  C28  1  0.39080000  0.11230000  0.84460000  1.0 0.4939066607
C  C29  1  0.63210000  0.86540000  0.76520000  1.0 0.5213654384
C  C30  1  0.60920000  0.88770000  0.84460000  1.0 0.4939066607
C  C31  1  0.13210000  0.36540000  0.26520000  1.0 0.5213654384
C  C32  1  0.10920000  0.38770000  0.34460000  1.0 0.4939066607
C  C33  1  0.86540000  0.13210000  0.51520000  1.0 0.5213654384
C  C34  1  0.88770000  0.10920000  0.59460000  1.0 0.4939066607
C  C35  1  0.36540000  0.63210000  0.01520000  1.0 0.5213654384
C  C36  1  0.38770000  0.60920000  0.09460000  1.0 0.4939066607
C  C37  1  0.63460000  0.36790000  0.01520000  1.0 0.5213654384
C  C38  1  0.61230000  0.39080000  0.09460000  1.0 0.4939066607
C  C39  1  0.13460000  0.86790000  0.51520000  1.0 0.5213654384
C  C40  1  0.11230000  0.89080000  0.59460000  1.0 0.4939066607
C  C41  1  0.36790000  0.86540000  0.26520000  1.0 0.5213654384
C  C42  1  0.39080000  0.88770000  0.34460000  1.0 0.4939066607
C  C43  1  0.86790000  0.36540000  0.76520000  1.0 0.5213654384
C  C44  1  0.89080000  0.38770000  0.84460000  1.0 0.4939066607
C  C45  1  0.13210000  0.63460000  0.76520000  1.0 0.5213654384
C  C46  1  0.10920000  0.61230000  0.84460000  1.0 0.4939066607
C  C47  1  0.63210000  0.13460000  0.26520000  1.0 0.5213654384
C  C48  1  0.60920000  0.11230000  0.34460000  1.0 0.4939066607
C  C49  1  0.63460000  0.13210000  0.73480000  1.0 0.5213654384
C  C50  1  0.61230000  0.10920000  0.65540000  1.0 0.4939066607
C  C51  1  0.13460000  0.63210000  0.23480000  1.0 0.5213654384
C  C52  1  0.11230000  0.60920000  0.15540000  1.0 0.4939066607
C  C53  1  0.86540000  0.36790000  0.23480000  1.0 0.5213654384
C  C54  1  0.88770000  0.39080000  0.15540000  1.0 0.4939066607
C  C55  1  0.36540000  0.86790000  0.73480000  1.0 0.5213654384
C  C56  1  0.38770000  0.89080000  0.65540000  1.0 0.4939066607
C  C57  1  0.13210000  0.86540000  0.98480000  1.0 0.5213654384
C  C58  1  0.10920000  0.88770000  0.90540000  1.0 0.4939066607
C  C59  1  0.63210000  0.36540000  0.48480000  1.0 0.5213654384
C  C60  1  0.60920000  0.38770000  0.40540000  1.0 0.4939066607
C  C61  1  0.36790000  0.63460000  0.48480000  1.0 0.5213654384
C  C62  1  0.39080000  0.61230000  0.40540000  1.0 0.4939066607
C  C63  1  0.86790000  0.13460000  0.98480000  1.0 0.5213654384
C  C64  1  0.89080000  0.11230000  0.90540000  1.0 0.4939066607
O  O1  1  0.68780000  0.81540000  0.24750000  1.0 -0.5186433916
O  O2  1  0.05600000  0.44540000  0.65090000  1.0 -0.5186433916
O  O3  1  0.09230000  0.40840000  0.78160000  1.0 -0.5875454873
O  O4  1  0.14830000  0.35680000  0.60370000  1.0 -0.4782587264
O  O5  1  0.18780000  0.31540000  0.74750000  1.0 -0.5186433916
O  O6  1  0.55600000  0.94540000  0.15090000  1.0 -0.5186433916
O  O7  1  0.59230000  0.90840000  0.28160000  1.0 -0.5875454873
O  O8  1  0.64830000  0.85680000  0.10370000  1.0 -0.4782587264
O  O9  1  0.81220000  0.68460000  0.74750000  1.0 -0.5186433916
O  O10  1  0.44400000  0.05460000  0.15090000  1.0 -0.5186433916
O  O11  1  0.40770000  0.09160000  0.28160000  1.0 -0.5875454873
O  O12  1  0.35170000  0.14320000  0.10370000  1.0 -0.4782587264
O  O13  1  0.31220000  0.18460000  0.24750000  1.0 -0.5186433916
O  O14  1  0.94400000  0.55460000  0.65090000  1.0 -0.5186433916
O  O15  1  0.90770000  0.59160000  0.78160000  1.0 -0.5875454873
O  O16  1  0.85170000  0.64320000  0.60370000  1.0 -0.4782587264
O  O17  1  0.18460000  0.18780000  0.49750000  1.0 -0.5186433916
O  O18  1  0.55460000  0.55600000  0.90090000  1.0 -0.5186433916
O  O19  1  0.59160000  0.59230000  0.03160000  1.0 -0.5875454873
O  O20  1  0.64320000  0.64830000  0.85370000  1.0 -0.4782587264
O  O21  1  0.68460000  0.68780000  0.99750000  1.0 -0.5186433916
O  O22  1  0.05460000  0.05600000  0.40090000  1.0 -0.5186433916
O  O23  1  0.09160000  0.09230000  0.53160000  1.0 -0.5875454873
O  O24  1  0.14320000  0.14830000  0.35370000  1.0 -0.4782587264
O  O25  1  0.31540000  0.31220000  0.99750000  1.0 -0.5186433916
O  O26  1  0.94540000  0.94400000  0.40090000  1.0 -0.5186433916
O  O27  1  0.90840000  0.90770000  0.53160000  1.0 -0.5875454873
O  O28  1  0.85680000  0.85170000  0.35370000  1.0 -0.4782587264
O  O29  1  0.81540000  0.81220000  0.49750000  1.0 -0.5186433916
O  O30  1  0.44540000  0.44400000  0.90090000  1.0 -0.5186433916
O  O31  1  0.40840000  0.40770000  0.03160000  1.0 -0.5875454873
O  O32  1  0.35680000  0.35170000  0.85370000  1.0 -0.4782587264
O  O33  1  0.81220000  0.81540000  0.00250000  1.0 -0.5186433916
O  O34  1  0.44400000  0.44540000  0.59910000  1.0 -0.5186433916
O  O35  1  0.40770000  0.40840000  0.46840000  1.0 -0.5875454873
O  O36  1  0.35170000  0.35680000  0.64630000  1.0 -0.4782587264
O  O37  1  0.31220000  0.31540000  0.50250000  1.0 -0.5186433916
O  O38  1  0.94400000  0.94540000  0.09910000  1.0 -0.5186433916
O  O39  1  0.90770000  0.90840000  0.96840000  1.0 -0.5875454873
O  O40  1  0.85170000  0.85680000  0.14630000  1.0 -0.4782587264
O  O41  1  0.68780000  0.68460000  0.50250000  1.0 -0.5186433916
O  O42  1  0.05600000  0.05460000  0.09910000  1.0 -0.5186433916
O  O43  1  0.09230000  0.09160000  0.96840000  1.0 -0.5875454873
O  O44  1  0.14830000  0.14320000  0.14630000  1.0 -0.4782587264
O  O45  1  0.18780000  0.18460000  0.00250000  1.0 -0.5186433916
O  O46  1  0.55600000  0.55460000  0.59910000  1.0 -0.5186433916
O  O47  1  0.59230000  0.59160000  0.46840000  1.0 -0.5875454873
O  O48  1  0.64830000  0.64320000  0.64630000  1.0 -0.4782587264
O  O49  1  0.31540000  0.18780000  0.75250000  1.0 -0.5186433916
O  O50  1  0.94540000  0.55600000  0.34910000  1.0 -0.5186433916
O  O51  1  0.90840000  0.59230000  0.21840000  1.0 -0.5875454873
O  O52  1  0.85680000  0.64830000  0.39630000  1.0 -0.4782587264
O  O53  1  0.81540000  0.68780000  0.25250000  1.0 -0.5186433916
O  O54  1  0.44540000  0.05600000  0.84910000  1.0 -0.5186433916
O  O55  1  0.40840000  0.09230000  0.71840000  1.0 -0.5875454873
O  O56  1  0.35680000  0.14830000  0.89630000  1.0 -0.4782587264
O  O57  1  0.18460000  0.31220000  0.25250000  1.0 -0.5186433916
O  O58  1  0.55460000  0.94400000  0.84910000  1.0 -0.5186433916
O  O59  1  0.59160000  0.90770000  0.71840000  1.0 -0.5875454873
O  O60  1  0.64320000  0.85170000  0.89630000  1.0 -0.4782587264
O  O61  1  0.68460000  0.81220000  0.75250000  1.0 -0.5186433916
O  O62  1  0.05460000  0.44400000  0.34910000  1.0 -0.5186433916
O  O63  1  0.09160000  0.40770000  0.21840000  1.0 -0.5875454873
O  O64  1  0.14320000  0.35170000  0.39630000  1.0 -0.4782587264
O  O65  1  0.31220000  0.68460000  0.00250000  1.0 -0.5186433916
O  O66  1  0.94400000  0.05460000  0.59910000  1.0 -0.5186433916
O  O67  1  0.90770000  0.09160000  0.46840000  1.0 -0.5875454873
O  O68  1  0.85170000  0.14320000  0.64630000  1.0 -0.4782587264
O  O69  1  0.81220000  0.18460000  0.50250000  1.0 -0.5186433916
O  O70  1  0.44400000  0.55460000  0.09910000  1.0 -0.5186433916
O  O71  1  0.40770000  0.59160000  0.96840000  1.0 -0.5875454873
O  O72  1  0.35170000  0.64320000  0.14630000  1.0 -0.4782587264
O  O73  1  0.18780000  0.81540000  0.50250000  1.0 -0.5186433916
O  O74  1  0.55600000  0.44540000  0.09910000  1.0 -0.5186433916
O  O75  1  0.59230000  0.40840000  0.96840000  1.0 -0.5875454873
O  O76  1  0.64830000  0.35680000  0.14630000  1.0 -0.4782587264
O  O77  1  0.68780000  0.31540000  0.00250000  1.0 -0.5186433916
O  O78  1  0.05600000  0.94540000  0.59910000  1.0 -0.5186433916
O  O79  1  0.09230000  0.90840000  0.46840000  1.0 -0.5875454873
O  O80  1  0.14830000  0.85680000  0.64630000  1.0 -0.4782587264
O  O81  1  0.81540000  0.31220000  0.75250000  1.0 -0.5186433916
O  O82  1  0.44540000  0.94400000  0.34910000  1.0 -0.5186433916
O  O83  1  0.40840000  0.90770000  0.21840000  1.0 -0.5875454873
O  O84  1  0.35680000  0.85170000  0.39630000  1.0 -0.4782587264
O  O85  1  0.31540000  0.81220000  0.25250000  1.0 -0.5186433916
O  O86  1  0.94540000  0.44400000  0.84910000  1.0 -0.5186433916
O  O87  1  0.90840000  0.40770000  0.71840000  1.0 -0.5875454873
O  O88  1  0.85680000  0.35170000  0.89630000  1.0 -0.4782587264
O  O89  1  0.68460000  0.18780000  0.25250000  1.0 -0.5186433916
O  O90  1  0.05460000  0.55600000  0.84910000  1.0 -0.5186433916
O  O91  1  0.09160000  0.59230000  0.71840000  1.0 -0.5875454873
O  O92  1  0.14320000  0.64830000  0.89630000  1.0 -0.4782587264
O  O93  1  0.18460000  0.68780000  0.75250000  1.0 -0.5186433916
O  O94  1  0.55460000  0.05600000  0.34910000  1.0 -0.5186433916
O  O95  1  0.59160000  0.09230000  0.21840000  1.0 -0.5875454873
O  O96  1  0.64320000  0.14830000  0.39630000  1.0 -0.4782587264
O  O97  1  0.18780000  0.68460000  0.24750000  1.0 -0.5186433916
O  O98  1  0.55600000  0.05460000  0.65090000  1.0 -0.5186433916
O  O99  1  0.59230000  0.09160000  0.78160000  1.0 -0.5875454873
O  O100  1  0.64830000  0.14320000  0.60370000  1.0 -0.4782587264
O  O101  1  0.68780000  0.18460000  0.74750000  1.0 -0.5186433916
O  O102  1  0.05600000  0.55460000  0.15090000  1.0 -0.5186433916
O  O103  1  0.09230000  0.59160000  0.28160000  1.0 -0.5875454873
O  O104  1  0.14830000  0.64320000  0.10370000  1.0 -0.4782587264
O  O105  1  0.31220000  0.81540000  0.74750000  1.0 -0.5186433916
O  O106  1  0.94400000  0.44540000  0.15090000  1.0 -0.5186433916
O  O107  1  0.90770000  0.40840000  0.28160000  1.0 -0.5875454873
O  O108  1  0.85170000  0.35680000  0.10370000  1.0 -0.4782587264
O  O109  1  0.81220000  0.31540000  0.24750000  1.0 -0.5186433916
O  O110  1  0.44400000  0.94540000  0.65090000  1.0 -0.5186433916
O  O111  1  0.40770000  0.90840000  0.78160000  1.0 -0.5875454873
O  O112  1  0.35170000  0.85680000  0.60370000  1.0 -0.4782587264
O  O113  1  0.68460000  0.31220000  0.49750000  1.0 -0.5186433916
O  O114  1  0.05460000  0.94400000  0.90090000  1.0 -0.5186433916
O  O115  1  0.09160000  0.90770000  0.03160000  1.0 -0.5875454873
O  O116  1  0.14320000  0.85170000  0.85370000  1.0 -0.4782587264
O  O117  1  0.18460000  0.81220000  0.99750000  1.0 -0.5186433916
O  O118  1  0.55460000  0.44400000  0.40090000  1.0 -0.5186433916
O  O119  1  0.59160000  0.40770000  0.53160000  1.0 -0.5875454873
O  O120  1  0.64320000  0.35170000  0.35370000  1.0 -0.4782587264
O  O121  1  0.81540000  0.18780000  0.99750000  1.0 -0.5186433916
O  O122  1  0.44540000  0.55600000  0.40090000  1.0 -0.5186433916
O  O123  1  0.40840000  0.59230000  0.53160000  1.0 -0.5875454873
O  O124  1  0.35680000  0.64830000  0.35370000  1.0 -0.4782587264
O  O125  1  0.31540000  0.68780000  0.49750000  1.0 -0.5186433916
O  O126  1  0.94540000  0.05600000  0.90090000  1.0 -0.5186433916
O  O127  1  0.90840000  0.09230000  0.03160000  1.0 -0.5875454873
O  O128  1  0.85680000  0.14830000  0.85370000  1.0 -0.4782587264
