# DDEC6 charges by PACMAN v1.1 (https://github.com/mtap-research/PACMAN-charge/)
data_FASKIX_ASR_pacman
_symmetry_space_group_name_H-M   'P 1'
_cell_length_a   16.04690000
_cell_length_b   16.04690000
_cell_length_c   12.07010000
_cell_angle_alpha   90.00000000
_cell_angle_beta   90.00000000
_cell_angle_gamma   120.00000000
_symmetry_Int_Tables_number   1
_chemical_formula_structural   Ni3H5C11O13
_chemical_formula_sum   'Ni18 H30 C66 O78'
_cell_volume   2691.68226071
_cell_formula_units_Z   6
loop_
 _symmetry_equiv_pos_site_id
 _symmetry_equiv_pos_as_xyz
  1  'x, y, z'
loop_
 _atom_site_type_symbol
 _atom_site_label
 _atom_site_symmetry_multiplicity
 _atom_site_fract_x
 _atom_site_fract_y
 _atom_site_fract_z
 _atom_site_occupancy
 _atom_site_charge
Ni  Ni1  1  0.99996000  0.24029000  0.99998000  1.0 0.7762469321
Ni  Ni2  1  0.87841000  0.12160000  0.19626000  1.0 0.6154541642
Ni  Ni3  1  0.12157000  0.24313000  0.19638000  1.0 0.5839689046
Ni  Ni4  1  0.75971000  0.75967000  0.99998000  1.0 0.7762469321
Ni  Ni5  1  0.87840000  0.75681000  0.19626000  1.0 0.6123778343
Ni  Ni6  1  0.75687000  0.87844000  0.19638000  1.0 0.5839689046
Ni  Ni7  1  0.24033000  0.00004000  0.99998000  1.0 0.7762469321
Ni  Ni8  1  0.24319000  0.12159000  0.19626000  1.0 0.6123778343
Ni  Ni9  1  0.12156000  0.87843000  0.19638000  1.0 0.5855203241
Ni  Ni10  1  0.00004000  0.75971000  0.00002000  1.0 0.7762469321
Ni  Ni11  1  0.12159000  0.87840000  0.80374000  1.0 0.6123778343
Ni  Ni12  1  0.87843000  0.75687000  0.80362000  1.0 0.5839689046
Ni  Ni13  1  0.24029000  0.24033000  0.00002000  1.0 0.7762469321
Ni  Ni14  1  0.12160000  0.24319000  0.80374000  1.0 0.6123778343
Ni  Ni15  1  0.24313000  0.12156000  0.80362000  1.0 0.5855203241
Ni  Ni16  1  0.75967000  0.99996000  0.00002000  1.0 0.7762469321
Ni  Ni17  1  0.75681000  0.87841000  0.80374000  1.0 0.6154541642
Ni  Ni18  1  0.87844000  0.12157000  0.80362000  1.0 0.5839689046
H  H1  1  0.99990000  0.49971000  0.12691000  1.0 0.1518979875
H  H2  1  0.00078000  0.62350000  0.41679000  1.0 0.1276179883
H  H3  1  0.00083000  0.37722000  0.41661000  1.0 0.1276179883
H  H4  1  0.06424000  0.12860000  0.24554000  1.0 0.1276179883
H  H5  1  0.93384000  0.06561000  0.24867000  1.0 0.1518979875
H  H6  1  0.50029000  0.50019000  0.12691000  1.0 0.1518979875
H  H7  1  0.37650000  0.37728000  0.41679000  1.0 0.1276179883
H  H8  1  0.62278000  0.62361000  0.41661000  1.0 0.1276179883
H  H9  1  0.87140000  0.93564000  0.24554000  1.0 0.1276179883
H  H10  1  0.93439000  0.86823000  0.24867000  1.0 0.1518979875
H  H11  1  0.49981000  0.00010000  0.12691000  1.0 0.1518979875
H  H12  1  0.62272000  0.99922000  0.41679000  1.0 0.1276179883
H  H13  1  0.37639000  0.99917000  0.41661000  1.0 0.1276179883
H  H14  1  0.06436000  0.93576000  0.24554000  1.0 0.1276179883
H  H15  1  0.13177000  0.06616000  0.24867000  1.0 0.1518979875
H  H16  1  0.00010000  0.50029000  0.87309000  1.0 0.1518979875
H  H17  1  0.99922000  0.37650000  0.58321000  1.0 0.1276179883
H  H18  1  0.99917000  0.62278000  0.58339000  1.0 0.1276179883
H  H19  1  0.93576000  0.87140000  0.75446000  1.0 0.1276179883
H  H20  1  0.06616000  0.93439000  0.75133000  1.0 0.1518979875
H  H21  1  0.49971000  0.49981000  0.87309000  1.0 0.1518979875
H  H22  1  0.62350000  0.62272000  0.58321000  1.0 0.1276179883
H  H23  1  0.37722000  0.37639000  0.58339000  1.0 0.1276179883
H  H24  1  0.12860000  0.06436000  0.75446000  1.0 0.1276179883
H  H25  1  0.06561000  0.13177000  0.75133000  1.0 0.1518979875
H  H26  1  0.50019000  0.99990000  0.87309000  1.0 0.1518979875
H  H27  1  0.37728000  0.00078000  0.58321000  1.0 0.1276179883
H  H28  1  0.62361000  0.00083000  0.58339000  1.0 0.1276179883
H  H29  1  0.93564000  0.06424000  0.75446000  1.0 0.1276179883
H  H30  1  0.86823000  0.93384000  0.75133000  1.0 0.1518979875
C  C1  1  0.99930000  0.65430000  0.20300000  1.0 0.6028646747
C  C2  1  0.99940000  0.34450000  0.20290000  1.0 0.6028646747
C  C3  1  0.00010000  0.49990000  0.20400000  1.0 -0.1113867877
C  C4  1  0.00020000  0.57390000  0.26310000  1.0 -0.0055931836
C  C5  1  0.00010000  0.42620000  0.26310000  1.0 -0.002894663
C  C6  1  0.00000000  0.49990000  0.43840000  1.0 0.0702427323
C  C7  1  0.00040000  0.57290000  0.37880000  1.0 -0.1218012179
C  C8  1  0.00040000  0.42740000  0.37870000  1.0 -0.1218012179
C  C9  1  0.07310000  0.14630000  0.17120000  1.0 0.0155420478
C  C10  1  0.91400000  0.08400000  0.45300000  1.0 0.23817075
C  C11  1  0.92620000  0.07330000  0.17370000  1.0 0.0130336333
C  C12  1  0.34570000  0.34500000  0.20300000  1.0 0.6028646747
C  C13  1  0.65550000  0.65490000  0.20290000  1.0 0.6028646747
C  C14  1  0.50010000  0.50020000  0.20400000  1.0 -0.1113867877
C  C15  1  0.42610000  0.42630000  0.26310000  1.0 -0.002894663
C  C16  1  0.57380000  0.57390000  0.26310000  1.0 -0.002894663
C  C17  1  0.50010000  0.50010000  0.43840000  1.0 0.0702427323
C  C18  1  0.42710000  0.42750000  0.37880000  1.0 -0.1218012179
C  C19  1  0.57260000  0.57300000  0.37870000  1.0 -0.1218012179
C  C20  1  0.85370000  0.92680000  0.17120000  1.0 0.0155420478
C  C21  1  0.91600000  0.83000000  0.45300000  1.0 0.23817075
C  C22  1  0.92670000  0.85290000  0.17370000  1.0 0.0130336333
C  C23  1  0.65500000  0.00070000  0.20300000  1.0 0.6028646747
C  C24  1  0.34510000  0.00060000  0.20290000  1.0 0.6028646747
C  C25  1  0.49980000  0.99990000  0.20400000  1.0 -0.1113867877
C  C26  1  0.57370000  0.99980000  0.26310000  1.0 -0.002894663
C  C27  1  0.42610000  0.99990000  0.26310000  1.0 -0.002894663
C  C28  1  0.49990000  0.00000000  0.43840000  1.0 0.0702427323
C  C29  1  0.57250000  0.99960000  0.37880000  1.0 -0.1218012179
C  C30  1  0.42700000  0.99960000  0.37870000  1.0 -0.1218012179
C  C31  1  0.07320000  0.92690000  0.17120000  1.0 0.0155420478
C  C32  1  0.17000000  0.08600000  0.45300000  1.0 0.23817075
C  C33  1  0.14710000  0.07380000  0.17370000  1.0 0.0130336333
C  C34  1  0.00070000  0.34570000  0.79700000  1.0 0.6028646747
C  C35  1  0.00060000  0.65550000  0.79710000  1.0 0.6028646747
C  C36  1  0.99990000  0.50010000  0.79600000  1.0 -0.1113867877
C  C37  1  0.99980000  0.42610000  0.73690000  1.0 -0.0055931836
C  C38  1  0.99990000  0.57380000  0.73690000  1.0 -0.002894663
C  C39  1  0.00000000  0.50010000  0.56160000  1.0 0.0702427323
C  C40  1  0.99960000  0.42710000  0.62120000  1.0 -0.1218012179
C  C41  1  0.99960000  0.57260000  0.62130000  1.0 -0.1218012179
C  C42  1  0.92690000  0.85370000  0.82880000  1.0 0.0155420478
C  C43  1  0.08600000  0.91600000  0.54700000  1.0 0.23817075
C  C44  1  0.07380000  0.92670000  0.82630000  1.0 0.0130336333
C  C45  1  0.65430000  0.65500000  0.79700000  1.0 0.6028646747
C  C46  1  0.34450000  0.34510000  0.79710000  1.0 0.6028646747
C  C47  1  0.49990000  0.49980000  0.79600000  1.0 -0.1113867877
C  C48  1  0.57390000  0.57370000  0.73690000  1.0 -0.0055931836
C  C49  1  0.42620000  0.42610000  0.73690000  1.0 -0.002894663
C  C50  1  0.49990000  0.49990000  0.56160000  1.0 0.0702427323
C  C51  1  0.57290000  0.57250000  0.62120000  1.0 -0.1218012179
C  C52  1  0.42740000  0.42700000  0.62130000  1.0 -0.1218012179
C  C53  1  0.14630000  0.07320000  0.82880000  1.0 0.0155420478
C  C54  1  0.08400000  0.17000000  0.54700000  1.0 0.23817075
C  C55  1  0.07330000  0.14710000  0.82630000  1.0 0.0130336333
C  C56  1  0.34500000  0.99930000  0.79700000  1.0 0.6028646747
C  C57  1  0.65490000  0.99940000  0.79710000  1.0 0.6028646747
C  C58  1  0.50020000  0.00010000  0.79600000  1.0 -0.1113867877
C  C59  1  0.42630000  0.00020000  0.73690000  1.0 -0.0055931836
C  C60  1  0.57390000  0.00010000  0.73690000  1.0 -0.002894663
C  C61  1  0.50010000  0.00000000  0.56160000  1.0 0.0702427323
C  C62  1  0.42750000  0.00040000  0.62120000  1.0 -0.1218012179
C  C63  1  0.57300000  0.00040000  0.62130000  1.0 -0.1218012179
C  C64  1  0.92680000  0.07310000  0.82880000  1.0 0.0155420478
C  C65  1  0.83000000  0.91400000  0.54700000  1.0 0.23817075
C  C66  1  0.85290000  0.92620000  0.82630000  1.0 0.0130336333
O  O1  1  0.99990000  0.15610000  0.12970000  1.0 -0.2566288044
O  O2  1  0.15610000  0.15620000  0.12960000  1.0 -0.2566288044
O  O3  1  0.00020000  0.33500000  0.11090000  1.0 -0.3646698127
O  O4  1  0.99990000  0.66480000  0.11090000  1.0 -0.3675124526
O  O5  1  0.92340000  0.25400000  0.25430000  1.0 -0.4537536721
O  O6  1  0.92340000  0.66960000  0.25410000  1.0 -0.4572683858
O  O7  1  0.14790000  0.29500000  0.96220000  1.0 -0.150924021
O  O8  1  0.91110000  0.08850000  0.35330000  1.0 -0.4205517252
O  O9  1  0.91170000  0.08850000  0.64720000  1.0 -0.150924021
O  O10  1  0.90300000  0.10000000  0.55300000  1.0 0.0821235461
O  O11  1  0.07720000  0.74630000  0.25410000  1.0 -0.4537536721
O  O12  1  0.14800000  0.29550000  0.03660000  1.0 -0.150924021
O  O13  1  0.07610000  0.33030000  0.25380000  1.0 -0.440144368
O  O14  1  0.84390000  0.84380000  0.12970000  1.0 -0.2566288044
O  O15  1  0.84380000  0.99990000  0.12960000  1.0 -0.2566288044
O  O16  1  0.66500000  0.66520000  0.11090000  1.0 -0.3646698127
O  O17  1  0.33520000  0.33510000  0.11090000  1.0 -0.3675124526
O  O18  1  0.74600000  0.66940000  0.25430000  1.0 -0.4537536721
O  O19  1  0.33040000  0.25380000  0.25410000  1.0 -0.4572683858
O  O20  1  0.70500000  0.85290000  0.96220000  1.0 -0.150924021
O  O21  1  0.91150000  0.82260000  0.35330000  1.0 -0.4205517252
O  O22  1  0.91150000  0.82320000  0.64720000  1.0 -0.150924021
O  O23  1  0.90000000  0.80300000  0.55300000  1.0 0.0821235461
O  O24  1  0.25370000  0.33090000  0.25410000  1.0 -0.4537536721
O  O25  1  0.70450000  0.85250000  0.03660000  1.0 -0.150924021
O  O26  1  0.66970000  0.74580000  0.25380000  1.0 -0.440144368
O  O27  1  0.15620000  0.00010000  0.12970000  1.0 -0.2566288044
O  O28  1  0.00010000  0.84390000  0.12960000  1.0 -0.2566288044
O  O29  1  0.33480000  0.99980000  0.11090000  1.0 -0.3646698127
O  O30  1  0.66490000  0.00010000  0.11090000  1.0 -0.3675124526
O  O31  1  0.33060000  0.07660000  0.25430000  1.0 -0.4537536721
O  O32  1  0.74620000  0.07660000  0.25410000  1.0 -0.4572683858
O  O33  1  0.14710000  0.85210000  0.96220000  1.0 -0.1570000082
O  O34  1  0.17740000  0.08890000  0.35330000  1.0 -0.4205517252
O  O35  1  0.17680000  0.08830000  0.64720000  1.0 -0.1442294597
O  O36  1  0.19700000  0.09700000  0.55300000  1.0 0.0821235461
O  O37  1  0.66910000  0.92280000  0.25410000  1.0 -0.4537536721
O  O38  1  0.14750000  0.85200000  0.03660000  1.0 -0.150924021
O  O39  1  0.25420000  0.92390000  0.25380000  1.0 -0.440144368
O  O40  1  0.00010000  0.84390000  0.87030000  1.0 -0.2566288044
O  O41  1  0.84390000  0.84380000  0.87040000  1.0 -0.2566288044
O  O42  1  0.99980000  0.66500000  0.88910000  1.0 -0.3646698127
O  O43  1  0.00010000  0.33520000  0.88910000  1.0 -0.3675124526
O  O44  1  0.07660000  0.74600000  0.74570000  1.0 -0.4572683858
O  O45  1  0.07660000  0.33040000  0.74590000  1.0 -0.4572683858
O  O46  1  0.85210000  0.70500000  0.03780000  1.0 -0.150924021
O  O47  1  0.08890000  0.91150000  0.64670000  1.0 -0.4205517252
O  O48  1  0.08830000  0.91150000  0.35280000  1.0 -0.1442294597
O  O49  1  0.09700000  0.90000000  0.44700000  1.0 0.0821235461
O  O50  1  0.92280000  0.25370000  0.74590000  1.0 -0.4537536721
O  O51  1  0.85200000  0.70450000  0.96340000  1.0 -0.150924021
O  O52  1  0.92390000  0.66970000  0.74620000  1.0 -0.440144368
O  O53  1  0.15610000  0.15620000  0.87030000  1.0 -0.2566288044
O  O54  1  0.15620000  0.00010000  0.87040000  1.0 -0.2566288044
O  O55  1  0.33500000  0.33480000  0.88910000  1.0 -0.3646698127
O  O56  1  0.66480000  0.66490000  0.88910000  1.0 -0.3675124526
O  O57  1  0.25400000  0.33060000  0.74570000  1.0 -0.4537536721
O  O58  1  0.66960000  0.74620000  0.74590000  1.0 -0.4572683858
O  O59  1  0.29500000  0.14710000  0.03780000  1.0 -0.150924021
O  O60  1  0.08850000  0.17740000  0.64670000  1.0 -0.4205517252
O  O61  1  0.08850000  0.17680000  0.35280000  1.0 -0.150924021
O  O62  1  0.10000000  0.19700000  0.44700000  1.0 0.0821235461
O  O63  1  0.74630000  0.66910000  0.74590000  1.0 -0.4537536721
O  O64  1  0.29550000  0.14750000  0.96340000  1.0 -0.150924021
O  O65  1  0.33030000  0.25420000  0.74620000  1.0 -0.440144368
O  O66  1  0.84380000  0.99990000  0.87030000  1.0 -0.2566288044
O  O67  1  0.99990000  0.15610000  0.87040000  1.0 -0.2566288044
O  O68  1  0.66520000  0.00020000  0.88910000  1.0 -0.3646698127
O  O69  1  0.33510000  0.99990000  0.88910000  1.0 -0.3675124526
O  O70  1  0.66940000  0.92340000  0.74570000  1.0 -0.4537536721
O  O71  1  0.25380000  0.92340000  0.74590000  1.0 -0.4572683858
O  O72  1  0.85290000  0.14790000  0.03780000  1.0 -0.150924021
O  O73  1  0.82260000  0.91110000  0.64670000  1.0 -0.4205517252
O  O74  1  0.82320000  0.91170000  0.35280000  1.0 -0.150924021
O  O75  1  0.80300000  0.90300000  0.44700000  1.0 0.0821235461
O  O76  1  0.33090000  0.07720000  0.74590000  1.0 -0.4537536721
O  O77  1  0.85250000  0.14800000  0.96340000  1.0 -0.150924021
O  O78  1  0.74580000  0.07610000  0.74620000  1.0 -0.440144368
