# DDEC6 charges by PACMAN v1.1 (https://github.com/mtap-research/PACMAN-charge/)
data_FASVIH_FSR_pacman
_symmetry_space_group_name_H-M   'P 1'
_cell_length_a   7.40540000
_cell_length_b   18.81100000
_cell_length_c   13.30900000
_cell_angle_alpha   90.00000000
_cell_angle_beta   116.45800000
_cell_angle_gamma   90.00000000
_symmetry_Int_Tables_number   1
_chemical_formula_structural   Cu2H3C11N2O7
_chemical_formula_sum   'Cu8 H12 C44 N8 O28'
_cell_volume   1659.79936348
_cell_formula_units_Z   4
loop_
 _symmetry_equiv_pos_site_id
 _symmetry_equiv_pos_as_xyz
  1  'x, y, z'
loop_
 _atom_site_type_symbol
 _atom_site_label
 _atom_site_symmetry_multiplicity
 _atom_site_fract_x
 _atom_site_fract_y
 _atom_site_fract_z
 _atom_site_occupancy
 _atom_site_charge
Cu  Cu1  1  0.44383000  0.07552000  0.50622000  1.0 1.0321788906
Cu  Cu2  1  0.55617000  0.57552000  0.99378000  1.0 1.0321788906
Cu  Cu3  1  0.55617000  0.92448000  0.49378000  1.0 1.0321788906
Cu  Cu4  1  0.44383000  0.42448000  0.00622000  1.0 1.0321788906
Cu  Cu5  1  0.88590000  0.05901000  0.56850000  1.0 0.9805503904
Cu  Cu6  1  0.11410000  0.55901000  0.93150000  1.0 0.9805503904
Cu  Cu7  1  0.11410000  0.94099000  0.43150000  1.0 0.9805503904
Cu  Cu8  1  0.88590000  0.44099000  0.06850000  1.0 0.9805503904
H  H1  1  0.40770000  0.23150000  0.70570000  1.0 0.1322446584
H  H2  1  0.59230000  0.73150000  0.79430000  1.0 0.1322446584
H  H3  1  0.59230000  0.76850000  0.29430000  1.0 0.1322446584
H  H4  1  0.40770000  0.26850000  0.20570000  1.0 0.1322446584
H  H5  1  0.39920000  0.32300000  0.81390000  1.0 0.1448080509
H  H6  1  0.60080000  0.82300000  0.68610000  1.0 0.1448080509
H  H7  1  0.60080000  0.67700000  0.18610000  1.0 0.1448080509
H  H8  1  0.39920000  0.17700000  0.31390000  1.0 0.1448080509
H  H9  1  0.99380000  0.26600000  0.80200000  1.0 0.1322446584
H  H10  1  0.00620000  0.76600000  0.69800000  1.0 0.1322446584
H  H11  1  0.00620000  0.73400000  0.19800000  1.0 0.1322446584
H  H12  1  0.99380000  0.23400000  0.30200000  1.0 0.1322446584
C  C1  1  0.70530000  0.17640000  0.67390000  1.0 0.6040652513
C  C2  1  0.29470000  0.67640000  0.82610000  1.0 0.6040652513
C  C3  1  0.29470000  0.82360000  0.32610000  1.0 0.6040652513
C  C4  1  0.70530000  0.32360000  0.17390000  1.0 0.6040652513
C  C5  1  0.70280000  0.23890000  0.74310000  1.0 -0.0373221443
C  C6  1  0.29720000  0.73890000  0.75690000  1.0 -0.0373221443
C  C7  1  0.29720000  0.76110000  0.25690000  1.0 -0.0373221443
C  C8  1  0.70280000  0.26110000  0.24310000  1.0 -0.0373221443
C  C9  1  0.52470000  0.25720000  0.74740000  1.0 -0.0650092096
C  C10  1  0.47530000  0.75720000  0.75260000  1.0 -0.0650092096
C  C11  1  0.47530000  0.74280000  0.25260000  1.0 -0.0650092096
C  C12  1  0.52470000  0.24280000  0.24740000  1.0 -0.0650092096
C  C13  1  0.52000000  0.31220000  0.81180000  1.0 -0.1881349266
C  C14  1  0.48000000  0.81220000  0.68820000  1.0 -0.1881349266
C  C15  1  0.48000000  0.68780000  0.18820000  1.0 -0.1881349266
C  C16  1  0.52000000  0.18780000  0.31180000  1.0 -0.1881349266
C  C17  1  0.69240000  0.35370000  0.87600000  1.0 0.3345618664
C  C18  1  0.30760000  0.85370000  0.62400000  1.0 0.3345618664
C  C19  1  0.30760000  0.64630000  0.12400000  1.0 0.3345618664
C  C20  1  0.69240000  0.14630000  0.37600000  1.0 0.3345618664
C  C21  1  0.87310000  0.33540000  0.87310000  1.0 -0.1710124791
C  C22  1  0.12690000  0.83540000  0.62690000  1.0 -0.1710124791
C  C23  1  0.12690000  0.66460000  0.12690000  1.0 -0.1710124791
C  C24  1  0.87310000  0.16460000  0.37310000  1.0 -0.1710124791
C  C25  1  0.87430000  0.27780000  0.80500000  1.0 -0.0820210458
C  C26  1  0.12570000  0.77780000  0.69500000  1.0 -0.0820210458
C  C27  1  0.12570000  0.72220000  0.19500000  1.0 -0.0820210458
C  C28  1  0.87430000  0.22220000  0.30500000  1.0 -0.0820210458
C  C29  1  0.06290000  0.37480000  0.93860000  1.0 0.6149469732
C  C30  1  0.93710000  0.87480000  0.56140000  1.0 0.6149469732
C  C31  1  0.93710000  0.62520000  0.06140000  1.0 0.6149469732
C  C32  1  0.06290000  0.12520000  0.43860000  1.0 0.6149469732
C  C33  1  0.25010000  0.05400000  0.75490000  1.0 0.358466123
C  C34  1  0.74990000  0.55400000  0.74510000  1.0 0.358466123
C  C35  1  0.74990000  0.94600000  0.24510000  1.0 0.358466123
C  C36  1  0.25010000  0.44600000  0.25490000  1.0 0.358466123
C  C37  1  0.37840000  0.94270000  0.88450000  1.0 0.067107693
C  C38  1  0.62160000  0.44270000  0.61550000  1.0 0.067107693
C  C39  1  0.62160000  0.05730000  0.11550000  1.0 0.067107693
C  C40  1  0.37840000  0.55730000  0.38450000  1.0 0.067107693
C  C41  1  0.59870000  0.07060000  0.91690000  1.0 -0.0938988768
C  C42  1  0.40130000  0.57060000  0.58310000  1.0 -0.0938988768
C  C43  1  0.40130000  0.92940000  0.08310000  1.0 -0.0938988768
C  C44  1  0.59870000  0.42940000  0.41690000  1.0 -0.0938988768
N  N1  1  0.41010000  0.02730000  0.84380000  1.0 0.1322446584
N  N2  1  0.58990000  0.52730000  0.65620000  1.0 0.1322446584
N  N3  1  0.58990000  0.97270000  0.15620000  1.0 0.1322446584
N  N4  1  0.41010000  0.47270000  0.34380000  1.0 0.1322446584
N  N5  1  0.46620000  0.06540000  0.79290000  1.0 0.0413625005
N  N6  1  0.53380000  0.56540000  0.70710000  1.0 0.0413625005
N  N7  1  0.53380000  0.93460000  0.20710000  1.0 0.0413625005
N  N8  1  0.46620000  0.43460000  0.29290000  1.0 0.0413625005
O  O1  1  0.53420000  0.14550000  0.62310000  1.0 -0.5351848484
O  O2  1  0.46580000  0.64550000  0.87690000  1.0 -0.5351848484
O  O3  1  0.46580000  0.85450000  0.37690000  1.0 -0.5351848484
O  O4  1  0.53420000  0.35450000  0.12310000  1.0 -0.5351848484
O  O5  1  0.86410000  0.15894000  0.66900000  1.0 -0.5635353506
O  O6  1  0.13590000  0.65894000  0.83100000  1.0 -0.5635353506
O  O7  1  0.13590000  0.84106000  0.33100000  1.0 -0.5635353506
O  O8  1  0.86410000  0.34106000  0.16900000  1.0 -0.5635353506
O  O9  1  0.20720000  0.36657000  0.91230000  1.0 -0.4843436957
O  O10  1  0.79280000  0.86657000  0.58770000  1.0 -0.4843436957
O  O11  1  0.79280000  0.63343000  0.08770000  1.0 -0.4843436957
O  O12  1  0.20720000  0.13343000  0.41230000  1.0 -0.4843436957
O  O13  1  0.08480000  0.41676000  0.01830000  1.0 -0.5982690335
O  O14  1  0.91520000  0.91676000  0.48170000  1.0 -0.5982690335
O  O15  1  0.91520000  0.58324000  0.98170000  1.0 -0.5982690335
O  O16  1  0.08480000  0.08324000  0.51830000  1.0 -0.5982690335
O  O17  1  0.32990000  0.99160000  0.41020000  1.0 -0.8268342495
O  O18  1  0.67010000  0.49160000  0.08980000  1.0 -0.8268342495
O  O19  1  0.67010000  0.00840000  0.58980000  1.0 -0.8268342495
O  O20  1  0.32990000  0.50840000  0.91020000  1.0 -0.8268342495
O  O21  1  0.67020000  0.40738000  0.93330000  1.0 -0.553685847
O  O22  1  0.32980000  0.90738000  0.56670000  1.0 -0.553685847
O  O23  1  0.32980000  0.59262000  0.06670000  1.0 -0.553685847
O  O24  1  0.67020000  0.09262000  0.43330000  1.0 -0.553685847
O  O25  1  0.09670000  0.01729000  0.70480000  1.0 -0.3755300075
O  O26  1  0.90330000  0.51729000  0.79520000  1.0 -0.3755300075
O  O27  1  0.90330000  0.98271000  0.29520000  1.0 -0.3755300075
O  O28  1  0.09670000  0.48271000  0.20480000  1.0 -0.3755300075
