# DDEC6 charges by PACMAN v1.1 (https://github.com/mtap-research/PACMAN-charge/)
data_FAVKAP_ASR_pacman
_symmetry_space_group_name_H-M   'P 1'
_cell_length_a   11.18400000
_cell_length_b   11.18400000
_cell_length_c   14.59100000
_cell_angle_alpha   90.00000000
_cell_angle_beta   90.00000000
_cell_angle_gamma   120.00000000
_symmetry_Int_Tables_number   1
_chemical_formula_structural   FeC4O5
_chemical_formula_sum   'Fe6 C24 O30'
_cell_volume   1580.55643020
_cell_formula_units_Z   6
loop_
 _symmetry_equiv_pos_site_id
 _symmetry_equiv_pos_as_xyz
  1  'x, y, z'
loop_
 _atom_site_type_symbol
 _atom_site_label
 _atom_site_symmetry_multiplicity
 _atom_site_fract_x
 _atom_site_fract_y
 _atom_site_fract_z
 _atom_site_occupancy
 _atom_site_charge
Fe  Fe1  1  0.76900000  0.23700000  0.25000000  1.0 1.1578261047
Fe  Fe2  1  0.46800000  0.23100000  0.25000000  1.0 1.1578261047
Fe  Fe3  1  0.23700000  0.76900000  0.75000000  1.0 1.1578261047
Fe  Fe4  1  0.76300000  0.53200000  0.25000000  1.0 1.1578261047
Fe  Fe5  1  0.53200000  0.76300000  0.75000000  1.0 1.1578261047
Fe  Fe6  1  0.23100000  0.46800000  0.75000000  1.0 1.1578261047
C  C1  1  0.91900000  0.48200000  0.11400000  1.0 0.5783038824
C  C2  1  0.56300000  0.08100000  0.38600000  1.0 0.5783038824
C  C3  1  0.48200000  0.91900000  0.61400000  1.0 0.5783038824
C  C4  1  0.51800000  0.43700000  0.11400000  1.0 0.5783038824
C  C5  1  0.43700000  0.51800000  0.88600000  1.0 0.5783038824
C  C6  1  0.91900000  0.48200000  0.38600000  1.0 0.5783038824
C  C7  1  0.08100000  0.56300000  0.61400000  1.0 0.5783038824
C  C8  1  0.56300000  0.08100000  0.11400000  1.0 0.5783038824
C  C9  1  0.48200000  0.91900000  0.88600000  1.0 0.5783038824
C  C10  1  0.51800000  0.43700000  0.38600000  1.0 0.5783038824
C  C11  1  0.43700000  0.51800000  0.61400000  1.0 0.5783038824
C  C12  1  0.08100000  0.56300000  0.88600000  1.0 0.5783038824
C  C13  1  0.93500000  0.48200000  0.01900000  1.0 -0.0141875229
C  C14  1  0.54700000  0.06500000  0.48100000  1.0 -0.0141875229
C  C15  1  0.48200000  0.93500000  0.51900000  1.0 -0.0141875229
C  C16  1  0.51800000  0.45300000  0.01900000  1.0 -0.0141875229
C  C17  1  0.45300000  0.51800000  0.98100000  1.0 -0.0141875229
C  C18  1  0.93500000  0.48200000  0.48100000  1.0 -0.0141875229
C  C19  1  0.06500000  0.54700000  0.51900000  1.0 -0.0141875229
C  C20  1  0.54700000  0.06500000  0.01900000  1.0 -0.0141875229
C  C21  1  0.48200000  0.93500000  0.98100000  1.0 -0.0141875229
C  C22  1  0.51800000  0.45300000  0.48100000  1.0 -0.0141875229
C  C23  1  0.45300000  0.51800000  0.51900000  1.0 -0.0141875229
C  C24  1  0.06500000  0.54700000  0.98100000  1.0 -0.0141875229
O  O1  1  0.66600000  0.33300000  0.25000000  1.0 -0.692275098
O  O2  1  0.66700000  0.33400000  0.25000000  1.0 -0.692275098
O  O3  1  0.33300000  0.66600000  0.75000000  1.0 -0.692275098
O  O4  1  0.66700000  0.33300000  0.25000000  1.0 -0.692275098
O  O5  1  0.33300000  0.66700000  0.75000000  1.0 -0.692275098
O  O6  1  0.33400000  0.66700000  0.75000000  1.0 -0.692275098
O  O7  1  0.89300000  0.37000000  0.15100000  1.0 -0.3891262994
O  O8  1  0.47700000  0.10700000  0.34900000  1.0 -0.3891262994
O  O9  1  0.37000000  0.89300000  0.65100000  1.0 -0.3891262994
O  O10  1  0.63000000  0.52300000  0.15100000  1.0 -0.3891262994
O  O11  1  0.52300000  0.63000000  0.84900000  1.0 -0.3891262994
O  O12  1  0.89300000  0.37000000  0.34900000  1.0 -0.3891262994
O  O13  1  0.10700000  0.47700000  0.65100000  1.0 -0.3891262994
O  O14  1  0.47700000  0.10700000  0.15100000  1.0 -0.3891262994
O  O15  1  0.37000000  0.89300000  0.84900000  1.0 -0.3891262994
O  O16  1  0.63000000  0.52300000  0.34900000  1.0 -0.3891262994
O  O17  1  0.52300000  0.63000000  0.65100000  1.0 -0.3891262994
O  O18  1  0.10700000  0.47700000  0.84900000  1.0 -0.3891262994
O  O19  1  0.88100000  0.55900000  0.15400000  1.0 -0.4077655634
O  O20  1  0.67800000  0.11900000  0.34600000  1.0 -0.4077655634
O  O21  1  0.55900000  0.88100000  0.65400000  1.0 -0.4077655634
O  O22  1  0.44100000  0.32200000  0.15400000  1.0 -0.4077655634
O  O23  1  0.32200000  0.44100000  0.84600000  1.0 -0.4077655634
O  O24  1  0.88100000  0.55900000  0.34600000  1.0 -0.4077655634
O  O25  1  0.11900000  0.67800000  0.65400000  1.0 -0.4077655634
O  O26  1  0.67800000  0.11900000  0.15400000  1.0 -0.4077655634
O  O27  1  0.55900000  0.88100000  0.84600000  1.0 -0.4077655634
O  O28  1  0.44100000  0.32200000  0.34600000  1.0 -0.4077655634
O  O29  1  0.32200000  0.44100000  0.65400000  1.0 -0.4077655634
O  O30  1  0.11900000  0.67800000  0.84600000  1.0 -0.4077655634
