# DDEC6 charges by PACMAN v1.1 (https://github.com/mtap-research/PACMAN-charge/)
data_FAWCEN01_FSR_pacman
_symmetry_space_group_name_H-M   'P 1'
_cell_length_a   14.64640000
_cell_length_b   14.64640000
_cell_length_c   14.64640000
_cell_angle_alpha   109.47100000
_cell_angle_beta   109.47100000
_cell_angle_gamma   109.47100000
_symmetry_Int_Tables_number   1
_chemical_formula_structural   ZnH16(C2N)4
_chemical_formula_sum   'Zn6 H96 C48 N24'
_cell_volume   2418.65725343
_cell_formula_units_Z   6
loop_
 _symmetry_equiv_pos_site_id
 _symmetry_equiv_pos_as_xyz
  1  'x, y, z'
loop_
 _atom_site_type_symbol
 _atom_site_label
 _atom_site_symmetry_multiplicity
 _atom_site_fract_x
 _atom_site_fract_y
 _atom_site_fract_z
 _atom_site_occupancy
 _atom_site_charge
Zn  Zn1  1  0.75000000  0.25000000  0.50000000  1.0 0.646727705
Zn  Zn2  1  0.25000000  0.75000000  0.50000000  1.0 0.646727705
Zn  Zn3  1  0.50000000  0.75000000  0.25000000  1.0 0.646727705
Zn  Zn4  1  0.50000000  0.25000000  0.75000000  1.0 0.646727705
Zn  Zn5  1  0.25000000  0.50000000  0.75000000  1.0 0.646727705
Zn  Zn6  1  0.75000000  0.50000000  0.25000000  1.0 0.646727705
H  H1  1  0.89890000  0.42560000  0.76510000  1.0 0.1253059695
H  H2  1  0.66050000  0.13380000  0.23490000  1.0 0.1253059695
H  H3  1  0.33950000  0.57440000  0.47330000  1.0 0.1253059695
H  H4  1  0.10110000  0.86620000  0.52670000  1.0 0.1253059695
H  H5  1  0.76510000  0.89890000  0.42560000  1.0 0.1253059695
H  H6  1  0.23490000  0.66050000  0.13380000  1.0 0.1253059695
H  H7  1  0.47330000  0.33950000  0.57440000  1.0 0.1253059695
H  H8  1  0.52670000  0.10110000  0.86620000  1.0 0.1253059695
H  H9  1  0.42560000  0.76510000  0.89890000  1.0 0.1253059695
H  H10  1  0.13380000  0.23490000  0.66050000  1.0 0.1253059695
H  H11  1  0.57440000  0.47330000  0.33950000  1.0 0.1253059695
H  H12  1  0.86620000  0.52670000  0.10110000  1.0 0.1253059695
H  H13  1  0.42560000  0.89890000  0.76510000  1.0 0.1253059695
H  H14  1  0.13380000  0.66050000  0.23490000  1.0 0.1253059695
H  H15  1  0.57440000  0.33950000  0.47330000  1.0 0.1253059695
H  H16  1  0.86620000  0.10110000  0.52670000  1.0 0.1253059695
H  H17  1  0.89890000  0.76510000  0.42560000  1.0 0.1253059695
H  H18  1  0.66050000  0.23490000  0.13380000  1.0 0.1253059695
H  H19  1  0.33950000  0.47330000  0.57440000  1.0 0.1253059695
H  H20  1  0.10110000  0.52670000  0.86620000  1.0 0.1253059695
H  H21  1  0.76510000  0.42560000  0.89890000  1.0 0.1253059695
H  H22  1  0.23490000  0.13380000  0.66050000  1.0 0.1253059695
H  H23  1  0.47330000  0.57440000  0.33950000  1.0 0.1253059695
H  H24  1  0.52670000  0.86620000  0.10110000  1.0 0.1253059695
H  H25  1  0.07560000  0.34060000  0.52560000  1.0 0.0684223671
H  H26  1  0.81500000  0.55000000  0.47440000  1.0 0.0684223671
H  H27  1  0.18500000  0.65940000  0.73500000  1.0 0.0684223671
H  H28  1  0.92440000  0.45000000  0.26500000  1.0 0.0684223671
H  H29  1  0.52560000  0.07560000  0.34060000  1.0 0.0684223671
H  H30  1  0.47440000  0.81500000  0.55000000  1.0 0.0684223671
H  H31  1  0.73500000  0.18500000  0.65940000  1.0 0.0684223671
H  H32  1  0.26500000  0.92440000  0.45000000  1.0 0.0684223671
H  H33  1  0.34060000  0.52560000  0.07560000  1.0 0.0684223671
H  H34  1  0.55000000  0.47440000  0.81500000  1.0 0.0684223671
H  H35  1  0.65940000  0.73500000  0.18500000  1.0 0.0684223671
H  H36  1  0.45000000  0.26500000  0.92440000  1.0 0.0684223671
H  H37  1  0.34060000  0.07560000  0.52560000  1.0 0.0684223671
H  H38  1  0.55000000  0.81500000  0.47440000  1.0 0.0684223671
H  H39  1  0.65940000  0.18500000  0.73500000  1.0 0.0684223671
H  H40  1  0.45000000  0.92440000  0.26500000  1.0 0.0684223671
H  H41  1  0.07560000  0.52560000  0.34060000  1.0 0.0684223671
H  H42  1  0.81500000  0.47440000  0.55000000  1.0 0.0684223671
H  H43  1  0.18500000  0.73500000  0.65940000  1.0 0.0684223671
H  H44  1  0.92440000  0.26500000  0.45000000  1.0 0.0684223671
H  H45  1  0.52560000  0.34060000  0.07560000  1.0 0.0684223671
H  H46  1  0.47440000  0.55000000  0.81500000  1.0 0.0684223671
H  H47  1  0.73500000  0.65940000  0.18500000  1.0 0.0684223671
H  H48  1  0.26500000  0.45000000  0.92440000  1.0 0.0684223671
H  H49  1  0.96430000  0.33720000  0.45950000  1.0 0.0684223671
H  H50  1  0.87770000  0.50480000  0.54050000  1.0 0.0684223671
H  H51  1  0.12230000  0.66280000  0.62710000  1.0 0.0684223671
H  H52  1  0.03570000  0.49520000  0.37290000  1.0 0.0684223671
H  H53  1  0.45950000  0.96430000  0.33720000  1.0 0.0684223671
H  H54  1  0.54050000  0.87770000  0.50480000  1.0 0.0684223671
H  H55  1  0.62710000  0.12230000  0.66280000  1.0 0.0684223671
H  H56  1  0.37290000  0.03570000  0.49520000  1.0 0.0684223671
H  H57  1  0.33720000  0.45950000  0.96430000  1.0 0.0684223671
H  H58  1  0.50480000  0.54050000  0.87770000  1.0 0.0684223671
H  H59  1  0.66280000  0.62710000  0.12230000  1.0 0.0684223671
H  H60  1  0.49520000  0.37290000  0.03570000  1.0 0.0684223671
H  H61  1  0.33720000  0.96430000  0.45950000  1.0 0.0684223671
H  H62  1  0.50480000  0.87770000  0.54050000  1.0 0.0684223671
H  H63  1  0.66280000  0.12230000  0.62710000  1.0 0.0684223671
H  H64  1  0.49520000  0.03570000  0.37290000  1.0 0.0684223671
H  H65  1  0.96430000  0.45950000  0.33720000  1.0 0.0684223671
H  H66  1  0.87770000  0.54050000  0.50480000  1.0 0.0684223671
H  H67  1  0.12230000  0.62710000  0.66280000  1.0 0.0684223671
H  H68  1  0.03570000  0.37290000  0.49520000  1.0 0.0684223671
H  H69  1  0.45950000  0.33720000  0.96430000  1.0 0.0684223671
H  H70  1  0.54050000  0.50480000  0.87770000  1.0 0.0684223671
H  H71  1  0.62710000  0.66280000  0.12230000  1.0 0.0684223671
H  H72  1  0.37290000  0.49520000  0.03570000  1.0 0.0684223671
H  H73  1  0.96000000  0.23640000  0.47720000  1.0 0.0641555791
H  H74  1  0.75920000  0.48280000  0.52280000  1.0 0.0641555791
H  H75  1  0.24080000  0.76360000  0.72360000  1.0 0.0641555791
H  H76  1  0.04000000  0.51720000  0.27640000  1.0 0.0641555791
H  H77  1  0.47720000  0.96000000  0.23640000  1.0 0.0641555791
H  H78  1  0.52280000  0.75920000  0.48280000  1.0 0.0641555791
H  H79  1  0.72360000  0.24080000  0.76360000  1.0 0.0641555791
H  H80  1  0.27640000  0.04000000  0.51720000  1.0 0.0641555791
H  H81  1  0.23640000  0.47720000  0.96000000  1.0 0.0641555791
H  H82  1  0.48280000  0.52280000  0.75920000  1.0 0.0641555791
H  H83  1  0.76360000  0.72360000  0.24080000  1.0 0.0641555791
H  H84  1  0.51720000  0.27640000  0.04000000  1.0 0.0641555791
H  H85  1  0.23640000  0.96000000  0.47720000  1.0 0.0641555791
H  H86  1  0.48280000  0.75920000  0.52280000  1.0 0.0641555791
H  H87  1  0.76360000  0.24080000  0.72360000  1.0 0.0641555791
H  H88  1  0.51720000  0.04000000  0.27640000  1.0 0.0641555791
H  H89  1  0.96000000  0.47720000  0.23640000  1.0 0.0641555791
H  H90  1  0.75920000  0.52280000  0.48280000  1.0 0.0641555791
H  H91  1  0.24080000  0.72360000  0.76360000  1.0 0.0641555791
H  H92  1  0.04000000  0.27640000  0.51720000  1.0 0.0641555791
H  H93  1  0.47720000  0.23640000  0.96000000  1.0 0.0641555791
H  H94  1  0.52280000  0.48280000  0.75920000  1.0 0.0641555791
H  H95  1  0.72360000  0.76360000  0.24080000  1.0 0.0641555791
H  H96  1  0.27640000  0.51720000  0.04000000  1.0 0.0641555791
C  C1  1  0.94420000  0.41950000  0.73430000  1.0 -0.0780583729
C  C2  1  0.68520000  0.20990000  0.26570000  1.0 -0.0780583729
C  C3  1  0.31480000  0.58050000  0.52470000  1.0 -0.0780583729
C  C4  1  0.05580000  0.79010000  0.47530000  1.0 -0.0780583729
C  C5  1  0.73430000  0.94420000  0.41950000  1.0 -0.0780583729
C  C6  1  0.26570000  0.68520000  0.20990000  1.0 -0.0780583729
C  C7  1  0.52470000  0.31480000  0.58050000  1.0 -0.0780583729
C  C8  1  0.47530000  0.05580000  0.79010000  1.0 -0.0780583729
C  C9  1  0.41950000  0.73430000  0.94420000  1.0 -0.0780583729
C  C10  1  0.20990000  0.26570000  0.68520000  1.0 -0.0780583729
C  C11  1  0.58050000  0.52470000  0.31480000  1.0 -0.0780583729
C  C12  1  0.79010000  0.47530000  0.05580000  1.0 -0.0780583729
C  C13  1  0.41950000  0.94420000  0.73430000  1.0 -0.0780583729
C  C14  1  0.20990000  0.68520000  0.26570000  1.0 -0.0780583729
C  C15  1  0.58050000  0.31480000  0.52470000  1.0 -0.0780583729
C  C16  1  0.79010000  0.05580000  0.47530000  1.0 -0.0780583729
C  C17  1  0.94420000  0.73430000  0.41950000  1.0 -0.0780583729
C  C18  1  0.68520000  0.26570000  0.20990000  1.0 -0.0780583729
C  C19  1  0.31480000  0.52470000  0.58050000  1.0 -0.0780583729
C  C20  1  0.05580000  0.47530000  0.79010000  1.0 -0.0780583729
C  C21  1  0.73430000  0.41950000  0.94420000  1.0 -0.0780583729
C  C22  1  0.26570000  0.20990000  0.68520000  1.0 -0.0780583729
C  C23  1  0.52470000  0.58050000  0.31480000  1.0 -0.0780583729
C  C24  1  0.47530000  0.79010000  0.05580000  1.0 -0.0780583729
C  C25  1  0.00000000  0.36940000  0.61640000  1.0 0.2713246634
C  C26  1  0.75300000  0.38360000  0.38360000  1.0 0.2713246634
C  C27  1  0.24700000  0.63060000  0.63060000  1.0 0.2713246634
C  C28  1  0.00000000  0.61640000  0.36940000  1.0 0.2713246634
C  C29  1  0.61640000  0.00000000  0.36940000  1.0 0.2713246634
C  C30  1  0.38360000  0.75300000  0.38360000  1.0 0.2713246634
C  C31  1  0.63060000  0.24700000  0.63060000  1.0 0.2713246634
C  C32  1  0.36940000  0.00000000  0.61640000  1.0 0.2713246634
C  C33  1  0.36940000  0.61640000  0.00000000  1.0 0.2713246634
C  C34  1  0.38360000  0.38360000  0.75300000  1.0 0.2713246634
C  C35  1  0.63060000  0.63060000  0.24700000  1.0 0.2713246634
C  C36  1  0.61640000  0.36940000  0.00000000  1.0 0.2713246634
C  C37  1  0.00000000  0.31610000  0.51030000  1.0 -0.4066081305
C  C38  1  0.80580000  0.48970000  0.48970000  1.0 -0.4066081305
C  C39  1  0.19420000  0.68390000  0.68390000  1.0 -0.4066081305
C  C40  1  0.00000000  0.51030000  0.31610000  1.0 -0.4066081305
C  C41  1  0.51030000  0.00000000  0.31610000  1.0 -0.4066081305
C  C42  1  0.48970000  0.80580000  0.48970000  1.0 -0.4066081305
C  C43  1  0.68390000  0.19420000  0.68390000  1.0 -0.4066081305
C  C44  1  0.31610000  0.00000000  0.51030000  1.0 -0.4066081305
C  C45  1  0.31610000  0.51030000  0.00000000  1.0 -0.4066081305
C  C46  1  0.48970000  0.48970000  0.80580000  1.0 -0.4066081305
C  C47  1  0.68390000  0.68390000  0.19420000  1.0 -0.4066081305
C  C48  1  0.51030000  0.31610000  0.00000000  1.0 -0.4066081305
N  N1  1  0.90720000  0.35100000  0.62260000  1.0 -0.3422881027
N  N2  1  0.72840000  0.28460000  0.37740000  1.0 -0.3422881027
N  N3  1  0.27160000  0.64900000  0.55620000  1.0 -0.3422881027
N  N4  1  0.09280000  0.71540000  0.44380000  1.0 -0.3422881027
N  N5  1  0.62260000  0.90720000  0.35100000  1.0 -0.3422881027
N  N6  1  0.37740000  0.72840000  0.28460000  1.0 -0.3422881027
N  N7  1  0.55620000  0.27160000  0.64900000  1.0 -0.3422881027
N  N8  1  0.44380000  0.09280000  0.71540000  1.0 -0.3422881027
N  N9  1  0.35100000  0.62260000  0.90720000  1.0 -0.3422881027
N  N10  1  0.28460000  0.37740000  0.72840000  1.0 -0.3422881027
N  N11  1  0.64900000  0.55620000  0.27160000  1.0 -0.3422881027
N  N12  1  0.71540000  0.44380000  0.09280000  1.0 -0.3422881027
N  N13  1  0.35100000  0.90720000  0.62260000  1.0 -0.3422881027
N  N14  1  0.28460000  0.72840000  0.37740000  1.0 -0.3422881027
N  N15  1  0.64900000  0.27160000  0.55620000  1.0 -0.3422881027
N  N16  1  0.71540000  0.09280000  0.44380000  1.0 -0.3422881027
N  N17  1  0.90720000  0.62260000  0.35100000  1.0 -0.3422881027
N  N18  1  0.72840000  0.37740000  0.28460000  1.0 -0.3422881027
N  N19  1  0.27160000  0.55620000  0.64900000  1.0 -0.3422881027
N  N20  1  0.09280000  0.44380000  0.71540000  1.0 -0.3422881027
N  N21  1  0.62260000  0.35100000  0.90720000  1.0 -0.3422881027
N  N22  1  0.37740000  0.28460000  0.72840000  1.0 -0.3422881027
N  N23  1  0.55620000  0.64900000  0.27160000  1.0 -0.3422881027
N  N24  1  0.44380000  0.71540000  0.09280000  1.0 -0.3422881027
