# DDEC6 charges by PACMAN v1.1 (https://github.com/mtap-research/PACMAN-charge/)
data_FAWCEN02_FSR_pacman
_symmetry_space_group_name_H-M   'P 1'
_cell_length_a   14.71640000
_cell_length_b   14.71640000
_cell_length_c   14.71640000
_cell_angle_alpha   109.47100000
_cell_angle_beta   109.47100000
_cell_angle_gamma   109.47100000
_symmetry_Int_Tables_number   1
_chemical_formula_structural   ZnH16(C2N)4
_chemical_formula_sum   'Zn6 H96 C48 N24'
_cell_volume   2453.50195241
_cell_formula_units_Z   6
loop_
 _symmetry_equiv_pos_site_id
 _symmetry_equiv_pos_as_xyz
  1  'x, y, z'
loop_
 _atom_site_type_symbol
 _atom_site_label
 _atom_site_symmetry_multiplicity
 _atom_site_fract_x
 _atom_site_fract_y
 _atom_site_fract_z
 _atom_site_occupancy
 _atom_site_charge
Zn  Zn1  1  0.75000000  0.50000000  0.25000000  1.0 0.6342128396
Zn  Zn2  1  0.25000000  0.50000000  0.75000000  1.0 0.6342128396
Zn  Zn3  1  0.25000000  0.75000000  0.50000000  1.0 0.6342128396
Zn  Zn4  1  0.75000000  0.25000000  0.50000000  1.0 0.6342128396
Zn  Zn5  1  0.50000000  0.25000000  0.75000000  1.0 0.6342128396
Zn  Zn6  1  0.50000000  0.75000000  0.25000000  1.0 0.6342128396
H  H1  1  0.65690000  0.52090000  0.42000000  1.0 0.1195371503
H  H2  1  0.10090000  0.23690000  0.58000000  1.0 0.1195371503
H  H3  1  0.89910000  0.47910000  0.13600000  1.0 0.1195371503
H  H4  1  0.34310000  0.76310000  0.86400000  1.0 0.1195371503
H  H5  1  0.42000000  0.65690000  0.52090000  1.0 0.1195371503
H  H6  1  0.58000000  0.10090000  0.23690000  1.0 0.1195371503
H  H7  1  0.13600000  0.89910000  0.47910000  1.0 0.1195371503
H  H8  1  0.86400000  0.34310000  0.76310000  1.0 0.1195371503
H  H9  1  0.52090000  0.42000000  0.65690000  1.0 0.1195371503
H  H10  1  0.23690000  0.58000000  0.10090000  1.0 0.1195371503
H  H11  1  0.47910000  0.13600000  0.89910000  1.0 0.1195371503
H  H12  1  0.76310000  0.86400000  0.34310000  1.0 0.1195371503
H  H13  1  0.52090000  0.65690000  0.42000000  1.0 0.1195371503
H  H14  1  0.23690000  0.10090000  0.58000000  1.0 0.1195371503
H  H15  1  0.47910000  0.89910000  0.13600000  1.0 0.1195371503
H  H16  1  0.76310000  0.34310000  0.86400000  1.0 0.1195371503
H  H17  1  0.65690000  0.42000000  0.52090000  1.0 0.1195371503
H  H18  1  0.10090000  0.58000000  0.23690000  1.0 0.1195371503
H  H19  1  0.89910000  0.13600000  0.47910000  1.0 0.1195371503
H  H20  1  0.34310000  0.86400000  0.76310000  1.0 0.1195371503
H  H21  1  0.42000000  0.52090000  0.65690000  1.0 0.1195371503
H  H22  1  0.58000000  0.23690000  0.10090000  1.0 0.1195371503
H  H23  1  0.13600000  0.47910000  0.89910000  1.0 0.1195371503
H  H24  1  0.86400000  0.76310000  0.34310000  1.0 0.1195371503
H  H25  1  0.88590000  0.37390000  0.35320000  1.0 0.0687859082
H  H26  1  0.02070000  0.53270000  0.64680000  1.0 0.0687859082
H  H27  1  0.97930000  0.62610000  0.51200000  1.0 0.0687859082
H  H28  1  0.11410000  0.46730000  0.48800000  1.0 0.0687859082
H  H29  1  0.35320000  0.88590000  0.37390000  1.0 0.0687859082
H  H30  1  0.64680000  0.02070000  0.53270000  1.0 0.0687859082
H  H31  1  0.51200000  0.97930000  0.62610000  1.0 0.0687859082
H  H32  1  0.48800000  0.11410000  0.46730000  1.0 0.0687859082
H  H33  1  0.37390000  0.35320000  0.88590000  1.0 0.0687859082
H  H34  1  0.53270000  0.64680000  0.02070000  1.0 0.0687859082
H  H35  1  0.62610000  0.51200000  0.97930000  1.0 0.0687859082
H  H36  1  0.46730000  0.48800000  0.11410000  1.0 0.0687859082
H  H37  1  0.37390000  0.88590000  0.35320000  1.0 0.0687859082
H  H38  1  0.53270000  0.02070000  0.64680000  1.0 0.0687859082
H  H39  1  0.62610000  0.97930000  0.51200000  1.0 0.0687859082
H  H40  1  0.46730000  0.11410000  0.48800000  1.0 0.0687859082
H  H41  1  0.88590000  0.35320000  0.37390000  1.0 0.0687859082
H  H42  1  0.02070000  0.64680000  0.53270000  1.0 0.0687859082
H  H43  1  0.97930000  0.51200000  0.62610000  1.0 0.0687859082
H  H44  1  0.11410000  0.48800000  0.46730000  1.0 0.0687859082
H  H45  1  0.35320000  0.37390000  0.88590000  1.0 0.0687859082
H  H46  1  0.64680000  0.53270000  0.02070000  1.0 0.0687859082
H  H47  1  0.51200000  0.62610000  0.97930000  1.0 0.0687859082
H  H48  1  0.48800000  0.46730000  0.11410000  1.0 0.0687859082
H  H49  1  0.77280000  0.29300000  0.24060000  1.0 0.0687859082
H  H50  1  0.05240000  0.53220000  0.75940000  1.0 0.0687859082
H  H51  1  0.94760000  0.70700000  0.47980000  1.0 0.0687859082
H  H52  1  0.22720000  0.46780000  0.52020000  1.0 0.0687859082
H  H53  1  0.24060000  0.77280000  0.29300000  1.0 0.0687859082
H  H54  1  0.75940000  0.05240000  0.53220000  1.0 0.0687859082
H  H55  1  0.47980000  0.94760000  0.70700000  1.0 0.0687859082
H  H56  1  0.52020000  0.22720000  0.46780000  1.0 0.0687859082
H  H57  1  0.29300000  0.24060000  0.77280000  1.0 0.0687859082
H  H58  1  0.53220000  0.75940000  0.05240000  1.0 0.0687859082
H  H59  1  0.70700000  0.47980000  0.94760000  1.0 0.0687859082
H  H60  1  0.46780000  0.52020000  0.22720000  1.0 0.0687859082
H  H61  1  0.29300000  0.77280000  0.24060000  1.0 0.0687859082
H  H62  1  0.53220000  0.05240000  0.75940000  1.0 0.0687859082
H  H63  1  0.70700000  0.94760000  0.47980000  1.0 0.0687859082
H  H64  1  0.46780000  0.22720000  0.52020000  1.0 0.0687859082
H  H65  1  0.77280000  0.24060000  0.29300000  1.0 0.0687859082
H  H66  1  0.05240000  0.75940000  0.53220000  1.0 0.0687859082
H  H67  1  0.94760000  0.47980000  0.70700000  1.0 0.0687859082
H  H68  1  0.22720000  0.52020000  0.46780000  1.0 0.0687859082
H  H69  1  0.24060000  0.29300000  0.77280000  1.0 0.0687859082
H  H70  1  0.75940000  0.53220000  0.05240000  1.0 0.0687859082
H  H71  1  0.47980000  0.70700000  0.94760000  1.0 0.0687859082
H  H72  1  0.52020000  0.46780000  0.22720000  1.0 0.0687859082
H  H73  1  0.80490000  0.25770000  0.33080000  1.0 0.0687859082
H  H74  1  0.92690000  0.47410000  0.66920000  1.0 0.0687859082
H  H75  1  0.07310000  0.74230000  0.54720000  1.0 0.0687859082
H  H76  1  0.19510000  0.52590000  0.45280000  1.0 0.0687859082
H  H77  1  0.33080000  0.80490000  0.25770000  1.0 0.0687859082
H  H78  1  0.66920000  0.92690000  0.47410000  1.0 0.0687859082
H  H79  1  0.54720000  0.07310000  0.74230000  1.0 0.0687859082
H  H80  1  0.45280000  0.19510000  0.52590000  1.0 0.0687859082
H  H81  1  0.25770000  0.33080000  0.80490000  1.0 0.0687859082
H  H82  1  0.47410000  0.66920000  0.92690000  1.0 0.0687859082
H  H83  1  0.74230000  0.54720000  0.07310000  1.0 0.0687859082
H  H84  1  0.52590000  0.45280000  0.19510000  1.0 0.0687859082
H  H85  1  0.25770000  0.80490000  0.33080000  1.0 0.0687859082
H  H86  1  0.47410000  0.92690000  0.66920000  1.0 0.0687859082
H  H87  1  0.74230000  0.07310000  0.54720000  1.0 0.0687859082
H  H88  1  0.52590000  0.19510000  0.45280000  1.0 0.0687859082
H  H89  1  0.80490000  0.33080000  0.25770000  1.0 0.0687859082
H  H90  1  0.92690000  0.66920000  0.47410000  1.0 0.0687859082
H  H91  1  0.07310000  0.54720000  0.74230000  1.0 0.0687859082
H  H92  1  0.19510000  0.45280000  0.52590000  1.0 0.0687859082
H  H93  1  0.33080000  0.25770000  0.80490000  1.0 0.0687859082
H  H94  1  0.66920000  0.47410000  0.92690000  1.0 0.0687859082
H  H95  1  0.54720000  0.74230000  0.07310000  1.0 0.0687859082
H  H96  1  0.45280000  0.52590000  0.19510000  1.0 0.0687859082
C  C1  1  0.75320000  0.36980000  0.36980000  1.0 0.2677018896
C  C2  1  0.00000000  0.38340000  0.63020000  1.0 0.2677018896
C  C3  1  0.00000000  0.63020000  0.38340000  1.0 0.2677018896
C  C4  1  0.24680000  0.61660000  0.61660000  1.0 0.2677018896
C  C5  1  0.36980000  0.75320000  0.36980000  1.0 0.2677018896
C  C6  1  0.63020000  0.00000000  0.38340000  1.0 0.2677018896
C  C7  1  0.38340000  0.00000000  0.63020000  1.0 0.2677018896
C  C8  1  0.61660000  0.24680000  0.61660000  1.0 0.2677018896
C  C9  1  0.36980000  0.36980000  0.75320000  1.0 0.2677018896
C  C10  1  0.38340000  0.63020000  0.00000000  1.0 0.2677018896
C  C11  1  0.63020000  0.38340000  0.00000000  1.0 0.2677018896
C  C12  1  0.61660000  0.61660000  0.24680000  1.0 0.2677018896
C  C13  1  0.80920000  0.31900000  0.31900000  1.0 -0.4059099078
C  C14  1  0.00000000  0.49020000  0.68100000  1.0 -0.4059099078
C  C15  1  0.00000000  0.68100000  0.49020000  1.0 -0.4059099078
C  C16  1  0.19080000  0.50980000  0.50980000  1.0 -0.4059099078
C  C17  1  0.31900000  0.80920000  0.31900000  1.0 -0.4059099078
C  C18  1  0.68100000  0.00000000  0.49020000  1.0 -0.4059099078
C  C19  1  0.49020000  0.00000000  0.68100000  1.0 -0.4059099078
C  C20  1  0.50980000  0.19080000  0.50980000  1.0 -0.4059099078
C  C21  1  0.31900000  0.31900000  0.80920000  1.0 -0.4059099078
C  C22  1  0.49020000  0.68100000  0.00000000  1.0 -0.4059099078
C  C23  1  0.68100000  0.49020000  0.00000000  1.0 -0.4059099078
C  C24  1  0.50980000  0.50980000  0.19080000  1.0 -0.4059099078
C  C25  1  0.68310000  0.47100000  0.41490000  1.0 -0.0720771643
C  C26  1  0.05610000  0.26820000  0.58510000  1.0 -0.0720771643
C  C27  1  0.94390000  0.52900000  0.21210000  1.0 -0.0720771643
C  C28  1  0.31690000  0.73180000  0.78790000  1.0 -0.0720771643
C  C29  1  0.41490000  0.68310000  0.47100000  1.0 -0.0720771643
C  C30  1  0.58510000  0.05610000  0.26820000  1.0 -0.0720771643
C  C31  1  0.21210000  0.94390000  0.52900000  1.0 -0.0720771643
C  C32  1  0.78790000  0.31690000  0.73180000  1.0 -0.0720771643
C  C33  1  0.47100000  0.41490000  0.68310000  1.0 -0.0720771643
C  C34  1  0.26820000  0.58510000  0.05610000  1.0 -0.0720771643
C  C35  1  0.52900000  0.21210000  0.94390000  1.0 -0.0720771643
C  C36  1  0.73180000  0.78790000  0.31690000  1.0 -0.0720771643
C  C37  1  0.47100000  0.68310000  0.41490000  1.0 -0.0720771643
C  C38  1  0.26820000  0.05610000  0.58510000  1.0 -0.0720771643
C  C39  1  0.52900000  0.94390000  0.21210000  1.0 -0.0720771643
C  C40  1  0.73180000  0.31690000  0.78790000  1.0 -0.0720771643
C  C41  1  0.68310000  0.41490000  0.47100000  1.0 -0.0720771643
C  C42  1  0.05610000  0.58510000  0.26820000  1.0 -0.0720771643
C  C43  1  0.94390000  0.21210000  0.52900000  1.0 -0.0720771643
C  C44  1  0.31690000  0.78790000  0.73180000  1.0 -0.0720771643
C  C45  1  0.41490000  0.47100000  0.68310000  1.0 -0.0720771643
C  C46  1  0.58510000  0.26820000  0.05610000  1.0 -0.0720771643
C  C47  1  0.21210000  0.52900000  0.94390000  1.0 -0.0720771643
C  C48  1  0.78790000  0.73180000  0.31690000  1.0 -0.0720771643
N  N1  1  0.72740000  0.44320000  0.34960000  1.0 -0.3432669113
N  N2  1  0.09360000  0.37780000  0.65040000  1.0 -0.3432669113
N  N3  1  0.90640000  0.55680000  0.28420000  1.0 -0.3432669113
N  N4  1  0.27260000  0.62220000  0.71580000  1.0 -0.3432669113
N  N5  1  0.34960000  0.72740000  0.44320000  1.0 -0.3432669113
N  N6  1  0.65040000  0.09360000  0.37780000  1.0 -0.3432669113
N  N7  1  0.28420000  0.90640000  0.55680000  1.0 -0.3432669113
N  N8  1  0.71580000  0.27260000  0.62220000  1.0 -0.3432669113
N  N9  1  0.44320000  0.34960000  0.72740000  1.0 -0.3432669113
N  N10  1  0.37780000  0.65040000  0.09360000  1.0 -0.3432669113
N  N11  1  0.55680000  0.28420000  0.90640000  1.0 -0.3432669113
N  N12  1  0.62220000  0.71580000  0.27260000  1.0 -0.3432669113
N  N13  1  0.44320000  0.72740000  0.34960000  1.0 -0.3432669113
N  N14  1  0.37780000  0.09360000  0.65040000  1.0 -0.3432669113
N  N15  1  0.55680000  0.90640000  0.28420000  1.0 -0.3432669113
N  N16  1  0.62220000  0.27260000  0.71580000  1.0 -0.3432669113
N  N17  1  0.72740000  0.34960000  0.44320000  1.0 -0.3432669113
N  N18  1  0.09360000  0.65040000  0.37780000  1.0 -0.3432669113
N  N19  1  0.90640000  0.28420000  0.55680000  1.0 -0.3432669113
N  N20  1  0.27260000  0.71580000  0.62220000  1.0 -0.3432669113
N  N21  1  0.34960000  0.44320000  0.72740000  1.0 -0.3432669113
N  N22  1  0.65040000  0.37780000  0.09360000  1.0 -0.3432669113
N  N23  1  0.28420000  0.55680000  0.90640000  1.0 -0.3432669113
N  N24  1  0.71580000  0.62220000  0.27260000  1.0 -0.3432669113
