# DDEC6 charges by PACMAN v1.1 (https://github.com/mtap-research/PACMAN-charge/)
data_FAWCEN_FSR_pacman
_symmetry_space_group_name_H-M   'P 1'
_cell_length_a   14.59330000
_cell_length_b   14.59330000
_cell_length_c   14.59330000
_cell_angle_alpha   109.47100000
_cell_angle_beta   109.47100000
_cell_angle_gamma   109.47100000
_symmetry_Int_Tables_number   1
_chemical_formula_structural   ZnH16(C2N)4
_chemical_formula_sum   'Zn6 H96 C48 N24'
_cell_volume   2392.44624419
_cell_formula_units_Z   6
loop_
 _symmetry_equiv_pos_site_id
 _symmetry_equiv_pos_as_xyz
  1  'x, y, z'
loop_
 _atom_site_type_symbol
 _atom_site_label
 _atom_site_symmetry_multiplicity
 _atom_site_fract_x
 _atom_site_fract_y
 _atom_site_fract_z
 _atom_site_occupancy
 _atom_site_charge
Zn  Zn1  1  0.75000000  0.25000000  0.50000000  1.0 0.6633872967
Zn  Zn2  1  0.25000000  0.75000000  0.50000000  1.0 0.6633872967
Zn  Zn3  1  0.50000000  0.75000000  0.25000000  1.0 0.6633872967
Zn  Zn4  1  0.50000000  0.25000000  0.75000000  1.0 0.6633872967
Zn  Zn5  1  0.25000000  0.50000000  0.75000000  1.0 0.6633872967
Zn  Zn6  1  0.75000000  0.50000000  0.25000000  1.0 0.6633872967
H  H1  1  0.89820000  0.13110000  0.46590000  1.0 0.1222391806
H  H2  1  0.66520000  0.43230000  0.53410000  1.0 0.1222391806
H  H3  1  0.33480000  0.86890000  0.76710000  1.0 0.1222391806
H  H4  1  0.10180000  0.56770000  0.23290000  1.0 0.1222391806
H  H5  1  0.46590000  0.89820000  0.13110000  1.0 0.1222391806
H  H6  1  0.53410000  0.66520000  0.43230000  1.0 0.1222391806
H  H7  1  0.76710000  0.33480000  0.86890000  1.0 0.1222391806
H  H8  1  0.23290000  0.10180000  0.56770000  1.0 0.1222391806
H  H9  1  0.13110000  0.46590000  0.89820000  1.0 0.1222391806
H  H10  1  0.43230000  0.53410000  0.66520000  1.0 0.1222391806
H  H11  1  0.86890000  0.76710000  0.33480000  1.0 0.1222391806
H  H12  1  0.56770000  0.23290000  0.10180000  1.0 0.1222391806
H  H13  1  0.13110000  0.89820000  0.46590000  1.0 0.1222391806
H  H14  1  0.43230000  0.66520000  0.53410000  1.0 0.1222391806
H  H15  1  0.86890000  0.33480000  0.76710000  1.0 0.1222391806
H  H16  1  0.56770000  0.10180000  0.23290000  1.0 0.1222391806
H  H17  1  0.89820000  0.46590000  0.13110000  1.0 0.1222391806
H  H18  1  0.66520000  0.53410000  0.43230000  1.0 0.1222391806
H  H19  1  0.33480000  0.76710000  0.86890000  1.0 0.1222391806
H  H20  1  0.10180000  0.23290000  0.56770000  1.0 0.1222391806
H  H21  1  0.46590000  0.13110000  0.89820000  1.0 0.1222391806
H  H22  1  0.53410000  0.43230000  0.66520000  1.0 0.1222391806
H  H23  1  0.76710000  0.86890000  0.33480000  1.0 0.1222391806
H  H24  1  0.23290000  0.56770000  0.10180000  1.0 0.1222391806
H  H25  1  0.07580000  0.54770000  0.73750000  1.0 0.0636049564
H  H26  1  0.81020000  0.33830000  0.26250000  1.0 0.0636049564
H  H27  1  0.18980000  0.45230000  0.52810000  1.0 0.0636049564
H  H28  1  0.92420000  0.66170000  0.47190000  1.0 0.0636049564
H  H29  1  0.73750000  0.07580000  0.54770000  1.0 0.0636049564
H  H30  1  0.26250000  0.81020000  0.33830000  1.0 0.0636049564
H  H31  1  0.52810000  0.18980000  0.45230000  1.0 0.0636049564
H  H32  1  0.47190000  0.92420000  0.66170000  1.0 0.0636049564
H  H33  1  0.54770000  0.73750000  0.07580000  1.0 0.0636049564
H  H34  1  0.33830000  0.26250000  0.81020000  1.0 0.0636049564
H  H35  1  0.45230000  0.52810000  0.18980000  1.0 0.0636049564
H  H36  1  0.66170000  0.47190000  0.92420000  1.0 0.0636049564
H  H37  1  0.54770000  0.07580000  0.73750000  1.0 0.0636049564
H  H38  1  0.33830000  0.81020000  0.26250000  1.0 0.0636049564
H  H39  1  0.45230000  0.18980000  0.52810000  1.0 0.0636049564
H  H40  1  0.66170000  0.92420000  0.47190000  1.0 0.0636049564
H  H41  1  0.07580000  0.73750000  0.54770000  1.0 0.0636049564
H  H42  1  0.81020000  0.26250000  0.33830000  1.0 0.0636049564
H  H43  1  0.18980000  0.52810000  0.45230000  1.0 0.0636049564
H  H44  1  0.92420000  0.47190000  0.66170000  1.0 0.0636049564
H  H45  1  0.73750000  0.54770000  0.07580000  1.0 0.0636049564
H  H46  1  0.26250000  0.33830000  0.81020000  1.0 0.0636049564
H  H47  1  0.52810000  0.45230000  0.18980000  1.0 0.0636049564
H  H48  1  0.47190000  0.66170000  0.92420000  1.0 0.0636049564
H  H49  1  0.95840000  0.47900000  0.72300000  1.0 0.0636049564
H  H50  1  0.75600000  0.23540000  0.27700000  1.0 0.0636049564
H  H51  1  0.24400000  0.52100000  0.47940000  1.0 0.0636049564
H  H52  1  0.04160000  0.76460000  0.52060000  1.0 0.0636049564
H  H53  1  0.72300000  0.95840000  0.47900000  1.0 0.0636049564
H  H54  1  0.27700000  0.75600000  0.23540000  1.0 0.0636049564
H  H55  1  0.47940000  0.24400000  0.52100000  1.0 0.0636049564
H  H56  1  0.52060000  0.04160000  0.76460000  1.0 0.0636049564
H  H57  1  0.47900000  0.72300000  0.95840000  1.0 0.0636049564
H  H58  1  0.23540000  0.27700000  0.75600000  1.0 0.0636049564
H  H59  1  0.52100000  0.47940000  0.24400000  1.0 0.0636049564
H  H60  1  0.76460000  0.52060000  0.04160000  1.0 0.0636049564
H  H61  1  0.47900000  0.95840000  0.72300000  1.0 0.0636049564
H  H62  1  0.23540000  0.75600000  0.27700000  1.0 0.0636049564
H  H63  1  0.52100000  0.24400000  0.47940000  1.0 0.0636049564
H  H64  1  0.76460000  0.04160000  0.52060000  1.0 0.0636049564
H  H65  1  0.95840000  0.72300000  0.47900000  1.0 0.0636049564
H  H66  1  0.75600000  0.27700000  0.23540000  1.0 0.0636049564
H  H67  1  0.24400000  0.47940000  0.52100000  1.0 0.0636049564
H  H68  1  0.04160000  0.52060000  0.76460000  1.0 0.0636049564
H  H69  1  0.72300000  0.47900000  0.95840000  1.0 0.0636049564
H  H70  1  0.27700000  0.23540000  0.75600000  1.0 0.0636049564
H  H71  1  0.47940000  0.52100000  0.24400000  1.0 0.0636049564
H  H72  1  0.52060000  0.76460000  0.04160000  1.0 0.0636049564
H  H73  1  0.96580000  0.50480000  0.62880000  1.0 0.0684307926
H  H74  1  0.87600000  0.33700000  0.37120000  1.0 0.0684307926
H  H75  1  0.12400000  0.49520000  0.46100000  1.0 0.0684307926
H  H76  1  0.03420000  0.66300000  0.53900000  1.0 0.0684307926
H  H77  1  0.62880000  0.96580000  0.50480000  1.0 0.0684307926
H  H78  1  0.37120000  0.87600000  0.33700000  1.0 0.0684307926
H  H79  1  0.46100000  0.12400000  0.49520000  1.0 0.0684307926
H  H80  1  0.53900000  0.03420000  0.66300000  1.0 0.0684307926
H  H81  1  0.50480000  0.62880000  0.96580000  1.0 0.0684307926
H  H82  1  0.33700000  0.37120000  0.87600000  1.0 0.0684307926
H  H83  1  0.49520000  0.46100000  0.12400000  1.0 0.0684307926
H  H84  1  0.66300000  0.53900000  0.03420000  1.0 0.0684307926
H  H85  1  0.50480000  0.96580000  0.62880000  1.0 0.0684307926
H  H86  1  0.33700000  0.87600000  0.37120000  1.0 0.0684307926
H  H87  1  0.49520000  0.12400000  0.46100000  1.0 0.0684307926
H  H88  1  0.66300000  0.03420000  0.53900000  1.0 0.0684307926
H  H89  1  0.96580000  0.62880000  0.50480000  1.0 0.0684307926
H  H90  1  0.87600000  0.37120000  0.33700000  1.0 0.0684307926
H  H91  1  0.12400000  0.46100000  0.49520000  1.0 0.0684307926
H  H92  1  0.03420000  0.53900000  0.66300000  1.0 0.0684307926
H  H93  1  0.62880000  0.50480000  0.96580000  1.0 0.0684307926
H  H94  1  0.37120000  0.33700000  0.87600000  1.0 0.0684307926
H  H95  1  0.46100000  0.49520000  0.12400000  1.0 0.0684307926
H  H96  1  0.53900000  0.66300000  0.03420000  1.0 0.0684307926
C  C1  1  0.00000000  0.38130000  0.62930000  1.0 0.2661918549
C  C2  1  0.75200000  0.37070000  0.37070000  1.0 0.2661918549
C  C3  1  0.24800000  0.61870000  0.61870000  1.0 0.2661918549
C  C4  1  0.00000000  0.62930000  0.38130000  1.0 0.2624603293
C  C5  1  0.62930000  0.00000000  0.38130000  1.0 0.2661918549
C  C6  1  0.37070000  0.75200000  0.37070000  1.0 0.2661918549
C  C7  1  0.61870000  0.24800000  0.61870000  1.0 0.2661918549
C  C8  1  0.38130000  0.00000000  0.62930000  1.0 0.2624603293
C  C9  1  0.38130000  0.62930000  0.00000000  1.0 0.2624603293
C  C10  1  0.37070000  0.37070000  0.75200000  1.0 0.2661918549
C  C11  1  0.61870000  0.61870000  0.24800000  1.0 0.2661918549
C  C12  1  0.62930000  0.38130000  0.00000000  1.0 0.2661918549
C  C13  1  0.94360000  0.20720000  0.51880000  1.0 -0.0707857274
C  C14  1  0.68840000  0.42480000  0.48120000  1.0 -0.0707857274
C  C15  1  0.31160000  0.79280000  0.73640000  1.0 -0.0707857274
C  C16  1  0.05640000  0.57520000  0.26360000  1.0 -0.0707857274
C  C17  1  0.51880000  0.94360000  0.20720000  1.0 -0.0707857274
C  C18  1  0.48120000  0.68840000  0.42480000  1.0 -0.0707857274
C  C19  1  0.73640000  0.31160000  0.79280000  1.0 -0.0707857274
C  C20  1  0.26360000  0.05640000  0.57520000  1.0 -0.0707857274
C  C21  1  0.20720000  0.51880000  0.94360000  1.0 -0.0707857274
C  C22  1  0.42480000  0.48120000  0.68840000  1.0 -0.0707857274
C  C23  1  0.79280000  0.73640000  0.31160000  1.0 -0.0707857274
C  C24  1  0.57520000  0.26360000  0.05640000  1.0 -0.0707857274
C  C25  1  0.20720000  0.94360000  0.51880000  1.0 -0.0707857274
C  C26  1  0.42480000  0.68840000  0.48120000  1.0 -0.0707857274
C  C27  1  0.79280000  0.31160000  0.73640000  1.0 -0.0707857274
C  C28  1  0.57520000  0.05640000  0.26360000  1.0 -0.0707857274
C  C29  1  0.94360000  0.51880000  0.20720000  1.0 -0.0707857274
C  C30  1  0.68840000  0.48120000  0.42480000  1.0 -0.0707857274
C  C31  1  0.31160000  0.73640000  0.79280000  1.0 -0.0707857274
C  C32  1  0.05640000  0.26360000  0.57520000  1.0 -0.0707857274
C  C33  1  0.51880000  0.20720000  0.94360000  1.0 -0.0707857274
C  C34  1  0.48120000  0.42480000  0.68840000  1.0 -0.0707857274
C  C35  1  0.73640000  0.79280000  0.31160000  1.0 -0.0707857274
C  C36  1  0.26360000  0.57520000  0.05640000  1.0 -0.0707857274
C  C37  1  0.00000000  0.48760000  0.68460000  1.0 -0.4015437358
C  C38  1  0.80300000  0.31540000  0.31540000  1.0 -0.4015437358
C  C39  1  0.19700000  0.51240000  0.51240000  1.0 -0.4015437358
C  C40  1  0.00000000  0.68460000  0.48760000  1.0 -0.4015437358
C  C41  1  0.68460000  0.00000000  0.48760000  1.0 -0.4015437358
C  C42  1  0.31540000  0.80300000  0.31540000  1.0 -0.4015437358
C  C43  1  0.51240000  0.19700000  0.51240000  1.0 -0.4015437358
C  C44  1  0.48760000  0.00000000  0.68460000  1.0 -0.4015437358
C  C45  1  0.48760000  0.68460000  0.00000000  1.0 -0.4015437358
C  C46  1  0.31540000  0.31540000  0.80300000  1.0 -0.4015437358
C  C47  1  0.51240000  0.51240000  0.19700000  1.0 -0.4015437358
C  C48  1  0.68460000  0.48760000  0.00000000  1.0 -0.4015437358
N  N1  1  0.90560000  0.28160000  0.55260000  1.0 -0.3446927109
N  N2  1  0.72900000  0.35300000  0.44740000  1.0 -0.3446927109
N  N3  1  0.27100000  0.71840000  0.62400000  1.0 -0.3446927109
N  N4  1  0.09440000  0.64700000  0.37600000  1.0 -0.3446927109
N  N5  1  0.55260000  0.90560000  0.28160000  1.0 -0.3446927109
N  N6  1  0.44740000  0.72900000  0.35300000  1.0 -0.3446927109
N  N7  1  0.62400000  0.27100000  0.71840000  1.0 -0.3453280547
N  N8  1  0.37600000  0.09440000  0.64700000  1.0 -0.3446927109
N  N9  1  0.28160000  0.55260000  0.90560000  1.0 -0.3446927109
N  N10  1  0.35300000  0.44740000  0.72900000  1.0 -0.3453280547
N  N11  1  0.71840000  0.62400000  0.27100000  1.0 -0.3446927109
N  N12  1  0.64700000  0.37600000  0.09440000  1.0 -0.3446927109
N  N13  1  0.28160000  0.90560000  0.55260000  1.0 -0.3446927109
N  N14  1  0.35300000  0.72900000  0.44740000  1.0 -0.3446927109
N  N15  1  0.71840000  0.27100000  0.62400000  1.0 -0.3446927109
N  N16  1  0.64700000  0.09440000  0.37600000  1.0 -0.3446927109
N  N17  1  0.90560000  0.55260000  0.28160000  1.0 -0.3446927109
N  N18  1  0.72900000  0.44740000  0.35300000  1.0 -0.3446927109
N  N19  1  0.27100000  0.62400000  0.71840000  1.0 -0.3446927109
N  N20  1  0.09440000  0.37600000  0.64700000  1.0 -0.3446927109
N  N21  1  0.55260000  0.28160000  0.90560000  1.0 -0.3453280547
N  N22  1  0.44740000  0.35300000  0.72900000  1.0 -0.3453280547
N  N23  1  0.62400000  0.71840000  0.27100000  1.0 -0.3446927109
N  N24  1  0.37600000  0.64700000  0.09440000  1.0 -0.3446927109
