# DDEC6 charges by PACMAN v1.1 (https://github.com/mtap-research/PACMAN-charge/)
data_FAYLIC_FSR_pacman
_symmetry_space_group_name_H-M   'P 1'
_cell_length_a   7.14500000
_cell_length_b   7.14500000
_cell_length_c   13.36900000
_cell_angle_alpha   90.00000000
_cell_angle_beta   90.00000000
_cell_angle_gamma   90.00000000
_symmetry_Int_Tables_number   1
_chemical_formula_structural   FePt(C4N)6
_chemical_formula_sum   'Fe1 Pt1 C24 N6'
_cell_volume   682.50115322
_cell_formula_units_Z   1
loop_
 _symmetry_equiv_pos_site_id
 _symmetry_equiv_pos_as_xyz
  1  'x, y, z'
loop_
 _atom_site_type_symbol
 _atom_site_label
 _atom_site_symmetry_multiplicity
 _atom_site_fract_x
 _atom_site_fract_y
 _atom_site_fract_z
 _atom_site_occupancy
 _atom_site_charge
Fe  Fe1  1  0.50000000  0.50000000  0.50000000  1.0 0.6507694106
Pt  Pt1  1  0.00000000  0.00000000  0.50000000  1.0 0.1011653076
C  C1  1  0.50000000  0.65600000  0.70160000  1.0 0.0514143992
C  C2  1  0.50000000  0.34400000  0.70160000  1.0 0.0514143992
C  C3  1  0.50000000  0.34400000  0.29840000  1.0 0.0514143992
C  C4  1  0.50000000  0.65600000  0.29840000  1.0 0.0514143992
C  C5  1  0.34400000  0.50000000  0.29840000  1.0 0.0514143992
C  C6  1  0.65600000  0.50000000  0.29840000  1.0 0.0514143992
C  C7  1  0.65600000  0.50000000  0.70160000  1.0 0.0514143992
C  C8  1  0.34400000  0.50000000  0.70160000  1.0 0.0514143992
C  C9  1  0.50000000  0.64800000  0.80560000  1.0 -0.0430760515
C  C10  1  0.50000000  0.35200000  0.80560000  1.0 -0.0430760515
C  C11  1  0.50000000  0.35200000  0.19440000  1.0 -0.0430760515
C  C12  1  0.50000000  0.64800000  0.19440000  1.0 -0.0430760515
C  C13  1  0.35200000  0.50000000  0.19440000  1.0 -0.0430760515
C  C14  1  0.64800000  0.50000000  0.19440000  1.0 -0.0430760515
C  C15  1  0.64800000  0.50000000  0.80560000  1.0 -0.0430760515
C  C16  1  0.35200000  0.50000000  0.80560000  1.0 -0.0430760515
C  C17  1  0.50000000  0.50000000  0.85790000  1.0 0.0081868795
C  C18  1  0.50000000  0.50000000  0.14210000  1.0 0.0081868795
C  C19  1  0.50000000  0.50000000  0.96750000  1.0 0.0514143992
C  C20  1  0.50000000  0.50000000  0.03250000  1.0 0.0514143992
C  C21  1  0.19600000  0.80400000  0.50000000  1.0 0.1104947756
C  C22  1  0.80400000  0.19600000  0.50000000  1.0 0.1104947756
C  C23  1  0.19600000  0.19600000  0.50000000  1.0 0.1104947756
C  C24  1  0.80400000  0.80400000  0.50000000  1.0 0.1104947756
N  N1  1  0.50000000  0.50000000  0.64900000  1.0 -0.1914201696
N  N2  1  0.50000000  0.50000000  0.35100000  1.0 -0.1914201696
N  N3  1  0.30960000  0.69040000  0.50000000  1.0 -0.2492457052
N  N4  1  0.69040000  0.30960000  0.50000000  1.0 -0.2492457052
N  N5  1  0.30960000  0.30960000  0.50000000  1.0 -0.2492457052
N  N6  1  0.69040000  0.69040000  0.50000000  1.0 -0.2492457052
