# DDEC6 charges by PACMAN v1.1 (https://github.com/mtap-research/PACMAN-charge/)
data_FAYLEY_FSR_pacman
_symmetry_space_group_name_H-M   'P 1'
_cell_length_a   7.14900000
_cell_length_b   7.14900000
_cell_length_c   13.39200000
_cell_angle_alpha   90.00000000
_cell_angle_beta   90.00000000
_cell_angle_gamma   90.00000000
_symmetry_Int_Tables_number   1
_chemical_formula_structural   FePt(C5N)6
_chemical_formula_sum   'Fe1 Pt1 C30 N6'
_cell_volume   684.44102779
_cell_formula_units_Z   1
loop_
 _symmetry_equiv_pos_site_id
 _symmetry_equiv_pos_as_xyz
  1  'x, y, z'
loop_
 _atom_site_type_symbol
 _atom_site_label
 _atom_site_symmetry_multiplicity
 _atom_site_fract_x
 _atom_site_fract_y
 _atom_site_fract_z
 _atom_site_occupancy
 _atom_site_charge
Fe  Fe1  1  0.50000000  0.50000000  0.50000000  1.0 0.5877980319
Pt  Pt1  1  0.00000000  0.00000000  0.50000000  1.0 -0.0017940747
C  C1  1  0.65700000  0.50000000  0.29900000  1.0 0.0182821927
C  C2  1  0.34300000  0.50000000  0.29900000  1.0 0.0182821927
C  C3  1  0.65700000  0.50000000  0.70100000  1.0 0.0182821927
C  C4  1  0.34300000  0.50000000  0.70100000  1.0 0.0182821927
C  C5  1  0.50000000  0.34300000  0.70100000  1.0 0.0182821927
C  C6  1  0.50000000  0.65700000  0.70100000  1.0 0.0182821927
C  C7  1  0.50000000  0.34300000  0.29900000  1.0 0.0182821927
C  C8  1  0.50000000  0.65700000  0.29900000  1.0 0.0182821927
C  C9  1  0.65700000  0.50000000  0.19650000  1.0 -0.0335487808
C  C10  1  0.34300000  0.50000000  0.19650000  1.0 -0.0335487808
C  C11  1  0.65700000  0.50000000  0.80350000  1.0 -0.0335487808
C  C12  1  0.34300000  0.50000000  0.80350000  1.0 -0.0335487808
C  C13  1  0.50000000  0.34300000  0.80350000  1.0 -0.0335487808
C  C14  1  0.50000000  0.65700000  0.80350000  1.0 -0.0335487808
C  C15  1  0.50000000  0.34300000  0.19650000  1.0 -0.0335487808
C  C16  1  0.50000000  0.65700000  0.19650000  1.0 -0.0335487808
C  C17  1  0.50000000  0.50000000  0.14600000  1.0 -0.0573980073
C  C18  1  0.50000000  0.50000000  0.85400000  1.0 -0.0573980073
C  C19  1  0.50000000  0.43000000  0.03200000  1.0 0.0348754981
C  C20  1  0.50000000  0.57000000  0.03200000  1.0 0.0348754981
C  C21  1  0.50000000  0.57000000  0.96800000  1.0 0.0348754981
C  C22  1  0.50000000  0.43000000  0.96800000  1.0 0.0348754981
C  C23  1  0.57000000  0.50000000  0.96800000  1.0 0.0348754981
C  C24  1  0.43000000  0.50000000  0.96800000  1.0 0.0348754981
C  C25  1  0.43000000  0.50000000  0.03200000  1.0 0.0348754981
C  C26  1  0.57000000  0.50000000  0.03200000  1.0 0.0348754981
C  C27  1  0.80480000  0.80480000  0.50000000  1.0 0.1757126925
C  C28  1  0.19520000  0.19520000  0.50000000  1.0 0.1757126925
C  C29  1  0.80480000  0.19520000  0.50000000  1.0 0.1757126925
C  C30  1  0.19520000  0.80480000  0.50000000  1.0 0.1757126925
N  N1  1  0.50000000  0.50000000  0.35030000  1.0 -0.1968888389
N  N2  1  0.50000000  0.50000000  0.64970000  1.0 -0.1968888389
N  N3  1  0.69040000  0.69040000  0.50000000  1.0 -0.2342880788
N  N4  1  0.30960000  0.30960000  0.50000000  1.0 -0.2342880788
N  N5  1  0.69040000  0.30960000  0.50000000  1.0 -0.2342880788
N  N6  1  0.30960000  0.69040000  0.50000000  1.0 -0.2342880788
