# DDEC6 charges by PACMAN v1.1 (https://github.com/mtap-research/PACMAN-charge/)
data_FAYPOM_FSR_pacman
_symmetry_space_group_name_H-M   'P 1'
_cell_length_a   20.83230000
_cell_length_b   20.83230000
_cell_length_c   20.04900000
_cell_angle_alpha   77.32120000
_cell_angle_beta   102.67900000
_cell_angle_gamma   58.27560000
_symmetry_Int_Tables_number   1
_chemical_formula_structural   Zn5H56C73(N9O8)2
_chemical_formula_sum   'Zn10 H112 C146 N36 O32'
_cell_volume   6606.34976526
_cell_formula_units_Z   2
loop_
 _symmetry_equiv_pos_site_id
 _symmetry_equiv_pos_as_xyz
  1  'x, y, z'
loop_
 _atom_site_type_symbol
 _atom_site_label
 _atom_site_symmetry_multiplicity
 _atom_site_fract_x
 _atom_site_fract_y
 _atom_site_fract_z
 _atom_site_occupancy
 _atom_site_charge
Zn  Zn1  1  0.95824000  0.95824000  0.25000000  1.0 0.447721684
Zn  Zn2  1  0.87006000  0.15976000  0.11967000  1.0 0.6679948062
Zn  Zn3  1  0.15976000  0.87006000  0.38033000  1.0 0.6679948062
Zn  Zn4  1  0.83346000  0.96706000  0.35004000  1.0 0.6638865561
Zn  Zn5  1  0.96706000  0.83346000  0.14996000  1.0 0.6638865561
Zn  Zn6  1  0.04176000  0.04176000  0.75000000  1.0 0.447721684
Zn  Zn7  1  0.12994000  0.84024000  0.88033000  1.0 0.6679948062
Zn  Zn8  1  0.84024000  0.12994000  0.61967000  1.0 0.6679948062
Zn  Zn9  1  0.16654000  0.03294000  0.64996000  1.0 0.6638865561
Zn  Zn10  1  0.03294000  0.16654000  0.85004000  1.0 0.6638865561
H  H1  1  0.00470000  0.89770000  0.64400000  1.0 0.1208589287
H  H2  1  0.89770000  0.00470000  0.85600000  1.0 0.1208589287
H  H3  1  0.67010000  0.99430000  0.48110000  1.0 0.1208589287
H  H4  1  0.99430000  0.67010000  0.01890000  1.0 0.1208589287
H  H5  1  0.87840000  0.33220000  0.93190000  1.0 0.1287575832
H  H6  1  0.33220000  0.87840000  0.56810000  1.0 0.1287575832
H  H7  1  0.18020000  0.84320000  0.56410000  1.0 0.1287575832
H  H8  1  0.84320000  0.18020000  0.93590000  1.0 0.1287575832
H  H9  1  0.90960000  0.93740000  0.53130000  1.0 0.1400537566
H  H10  1  0.93740000  0.90960000  0.96870000  1.0 0.1400537566
H  H11  1  0.22410000  0.99130000  0.36200000  1.0 0.1287575832
H  H12  1  0.99130000  0.22410000  0.13800000  1.0 0.1287575832
H  H13  1  0.86430000  0.76350000  0.53580000  1.0 0.1287575832
H  H14  1  0.76350000  0.86430000  0.96420000  1.0 0.1287575832
H  H15  1  0.13160000  0.85060000  0.66080000  1.0 0.111131985
H  H16  1  0.85060000  0.13160000  0.83920000  1.0 0.111131985
H  H17  1  0.82720000  0.71560000  0.62370000  1.0 0.1208589287
H  H18  1  0.71560000  0.82720000  0.87630000  1.0 0.1208589287
H  H19  1  0.68290000  0.30970000  0.10970000  1.0 0.1400537566
H  H20  1  0.30970000  0.68290000  0.39030000  1.0 0.1400537566
H  H21  1  0.65510000  0.15410000  0.29310000  1.0 0.1400537566
H  H22  1  0.15410000  0.65510000  0.20690000  1.0 0.1400537566
H  H23  1  0.56970000  0.37410000  0.13920000  1.0 0.111131985
H  H24  1  0.37410000  0.56970000  0.36080000  1.0 0.111131985
H  H25  1  0.55320000  0.29400000  0.22740000  1.0 0.111131985
H  H26  1  0.29400000  0.55320000  0.27260000  1.0 0.111131985
H  H27  1  0.21660000  0.10740000  0.30340000  1.0 0.111131985
H  H28  1  0.10740000  0.21660000  0.19660000  1.0 0.111131985
H  H29  1  0.51390000  0.06970000  0.54800000  1.0 0.1287575832
H  H30  1  0.06970000  0.51390000  0.95200000  1.0 0.1287575832
H  H31  1  0.53690000  0.05450000  0.48070000  1.0 0.1208589287
H  H32  1  0.05450000  0.53690000  0.01930000  1.0 0.1208589287
H  H33  1  0.58880000  0.06580000  0.53980000  1.0 0.1208589287
H  H34  1  0.06580000  0.58880000  0.96020000  1.0 0.1208589287
H  H35  1  0.80150000  0.68910000  0.72180000  1.0 0.1002811097
H  H36  1  0.68910000  0.80150000  0.77820000  1.0 0.1002811097
H  H37  1  0.73890000  0.68850000  0.66180000  1.0 0.1002811097
H  H38  1  0.68850000  0.73890000  0.83820000  1.0 0.1002811097
H  H39  1  0.83180000  0.45940000  0.85230000  1.0 0.1208589287
H  H40  1  0.45940000  0.83180000  0.64770000  1.0 0.1208589287
H  H41  1  0.74430000  0.58950000  0.75630000  1.0 0.1002811097
H  H42  1  0.58950000  0.74430000  0.74370000  1.0 0.1002811097
H  H43  1  0.80890000  0.58590000  0.81830000  1.0 0.1002811097
H  H44  1  0.58590000  0.80890000  0.68170000  1.0 0.1002811097
H  H45  1  0.71670000  0.43590000  0.01830000  1.0 0.1287575832
H  H46  1  0.43590000  0.71670000  0.48170000  1.0 0.1287575832
H  H47  1  0.74990000  0.86950000  0.33820000  1.0 0.1483970244
H  H48  1  0.86950000  0.74990000  0.16180000  1.0 0.1483970244
H  H49  1  0.71080000  0.79660000  0.26950000  1.0 0.1208589287
H  H50  1  0.79660000  0.71080000  0.23050000  1.0 0.1208589287
H  H51  1  0.56480000  0.64700000  0.97600000  1.0 0.1208589287
H  H52  1  0.64700000  0.56480000  0.52400000  1.0 0.1208589287
H  H53  1  0.64990000  0.56570000  0.03530000  1.0 0.111131985
H  H54  1  0.56570000  0.64990000  0.46470000  1.0 0.111131985
H  H55  1  0.58740000  0.56120000  0.98040000  1.0 0.1002811097
H  H56  1  0.56120000  0.58740000  0.51960000  1.0 0.1002811097
H  H57  1  0.99530000  0.10230000  0.35600000  1.0 0.1208589287
H  H58  1  0.10230000  0.99530000  0.14400000  1.0 0.1208589287
H  H59  1  0.32990000  0.00570000  0.51890000  1.0 0.1208589287
H  H60  1  0.00570000  0.32990000  0.98110000  1.0 0.1208589287
H  H61  1  0.12160000  0.66780000  0.06810000  1.0 0.1287575832
H  H62  1  0.66780000  0.12160000  0.43190000  1.0 0.1287575832
H  H63  1  0.81980000  0.15680000  0.43590000  1.0 0.1287575832
H  H64  1  0.15680000  0.81980000  0.06410000  1.0 0.1287575832
H  H65  1  0.09040000  0.06260000  0.46870000  1.0 0.1400537566
H  H66  1  0.06260000  0.09040000  0.03130000  1.0 0.1400537566
H  H67  1  0.77590000  0.00870000  0.63800000  1.0 0.1287575832
H  H68  1  0.00870000  0.77590000  0.86200000  1.0 0.1287575832
H  H69  1  0.13570000  0.23650000  0.46420000  1.0 0.1287575832
H  H70  1  0.23650000  0.13570000  0.03580000  1.0 0.1287575832
H  H71  1  0.86840000  0.14940000  0.33920000  1.0 0.111131985
H  H72  1  0.14940000  0.86840000  0.16080000  1.0 0.111131985
H  H73  1  0.17280000  0.28440000  0.37630000  1.0 0.1208589287
H  H74  1  0.28440000  0.17280000  0.12370000  1.0 0.1208589287
H  H75  1  0.31710000  0.69030000  0.89030000  1.0 0.1400537566
H  H76  1  0.69030000  0.31710000  0.60970000  1.0 0.1400537566
H  H77  1  0.34490000  0.84590000  0.70690000  1.0 0.1400537566
H  H78  1  0.84590000  0.34490000  0.79310000  1.0 0.1400537566
H  H79  1  0.43030000  0.62590000  0.86080000  1.0 0.111131985
H  H80  1  0.62590000  0.43030000  0.63920000  1.0 0.111131985
H  H81  1  0.44680000  0.70600000  0.77260000  1.0 0.111131985
H  H82  1  0.70600000  0.44680000  0.72740000  1.0 0.111131985
H  H83  1  0.78340000  0.89260000  0.69660000  1.0 0.111131985
H  H84  1  0.89260000  0.78340000  0.80340000  1.0 0.111131985
H  H85  1  0.48610000  0.93030000  0.45200000  1.0 0.1287575832
H  H86  1  0.93030000  0.48610000  0.04800000  1.0 0.1287575832
H  H87  1  0.46310000  0.94550000  0.51930000  1.0 0.1208589287
H  H88  1  0.94550000  0.46310000  0.98070000  1.0 0.1208589287
H  H89  1  0.41120000  0.93420000  0.46020000  1.0 0.1208589287
H  H90  1  0.93420000  0.41120000  0.03980000  1.0 0.1208589287
H  H91  1  0.19850000  0.31090000  0.27820000  1.0 0.1002811097
H  H92  1  0.31090000  0.19850000  0.22180000  1.0 0.1002811097
H  H93  1  0.26110000  0.31150000  0.33820000  1.0 0.1002811097
H  H94  1  0.31150000  0.26110000  0.16180000  1.0 0.1002811097
H  H95  1  0.16820000  0.54060000  0.14770000  1.0 0.1208589287
H  H96  1  0.54060000  0.16820000  0.35230000  1.0 0.1208589287
H  H97  1  0.25570000  0.41050000  0.24370000  1.0 0.1002811097
H  H98  1  0.41050000  0.25570000  0.25630000  1.0 0.1002811097
H  H99  1  0.19110000  0.41410000  0.18170000  1.0 0.1002811097
H  H100  1  0.41410000  0.19110000  0.31830000  1.0 0.1002811097
H  H101  1  0.28330000  0.56410000  0.98170000  1.0 0.1287575832
H  H102  1  0.56410000  0.28330000  0.51830000  1.0 0.1287575832
H  H103  1  0.25010000  0.13050000  0.66180000  1.0 0.1483970244
H  H104  1  0.13050000  0.25010000  0.83820000  1.0 0.1483970244
H  H105  1  0.28920000  0.20340000  0.73050000  1.0 0.1208589287
H  H106  1  0.20340000  0.28920000  0.76950000  1.0 0.1208589287
H  H107  1  0.43520000  0.35300000  0.02400000  1.0 0.1208589287
H  H108  1  0.35300000  0.43520000  0.47600000  1.0 0.1208589287
H  H109  1  0.35010000  0.43430000  0.96470000  1.0 0.111131985
H  H110  1  0.43430000  0.35010000  0.53530000  1.0 0.111131985
H  H111  1  0.41260000  0.43880000  0.01960000  1.0 0.1002811097
H  H112  1  0.43880000  0.41260000  0.48040000  1.0 0.1002811097
C  C1  1  0.01950000  0.89490000  0.60360000  1.0 -0.0992706189
C  C2  1  0.89490000  0.01950000  0.89640000  1.0 -0.0992706189
C  C3  1  0.06780000  0.88700000  0.48780000  1.0 0.1208589287
C  C4  1  0.88700000  0.06780000  0.01220000  1.0 0.1208589287
C  C5  1  0.98760000  0.91560000  0.47780000  1.0 0.1208589287
C  C6  1  0.91560000  0.98760000  0.02220000  1.0 0.1208589287
C  C7  1  0.70143000  0.93803000  0.50960000  1.0 -0.2290181788
C  C8  1  0.93803000  0.70143000  0.99040000  1.0 -0.2290181788
C  C9  1  0.83563000  0.37963000  0.93300000  1.0 -0.1211053891
C  C10  1  0.37963000  0.83563000  0.56700000  1.0 -0.1211053891
C  C11  1  0.12660000  0.86180000  0.55620000  1.0 -0.1687069098
C  C12  1  0.86180000  0.12660000  0.94380000  1.0 -0.1687069098
C  C13  1  0.11024000  0.04104000  0.28080000  1.0 0.111131985
C  C14  1  0.04104000  0.11024000  0.21920000  1.0 0.111131985
C  C15  1  0.96280000  0.91920000  0.53740000  1.0 -0.1533262876
C  C16  1  0.91920000  0.96280000  0.96260000  1.0 -0.1533262876
C  C17  1  0.73850000  0.19770000  0.18820000  1.0 0.111131985
C  C18  1  0.19770000  0.73850000  0.31180000  1.0 0.111131985
C  C19  1  0.77090000  0.88250000  0.50070000  1.0 -0.0199675996
C  C20  1  0.88250000  0.77090000  0.99930000  1.0 -0.0199675996
C  C21  1  0.67927000  0.90867000  0.56150000  1.0 0.1400537566
C  C22  1  0.90867000  0.67927000  0.93850000  1.0 0.1400537566
C  C23  1  0.17959000  0.03579000  0.31850000  1.0 -0.1687069098
C  C24  1  0.03579000  0.17959000  0.18150000  1.0 -0.1687069098
C  C25  1  0.81765000  0.80025000  0.54230000  1.0 -0.0992706189
C  C26  1  0.80025000  0.81765000  0.95770000  1.0 -0.0992706189
C  C27  1  0.09530000  0.86750000  0.61310000  1.0 -0.0992706189
C  C28  1  0.86750000  0.09530000  0.88690000  1.0 -0.1113089501
C  C29  1  0.79467000  0.77187000  0.59450000  1.0 -0.2359653696
C  C30  1  0.77187000  0.79467000  0.90550000  1.0 -0.2359653696
C  C31  1  0.72800000  0.15120000  0.24080000  1.0 0.1287575832
C  C32  1  0.15120000  0.72800000  0.25920000  1.0 0.1287575832
C  C33  1  0.67800000  0.27980000  0.14750000  1.0 -0.1533262876
C  C34  1  0.27980000  0.67800000  0.35250000  1.0 -0.1533262876
C  C35  1  0.66050000  0.18550000  0.25720000  1.0 -0.1752987861
C  C36  1  0.18550000  0.66050000  0.24280000  1.0 -0.1752987861
C  C37  1  0.60990000  0.31730000  0.16350000  1.0 -0.1211053891
C  C38  1  0.31730000  0.60990000  0.33650000  1.0 -0.1211053891
C  C39  1  0.60080000  0.26840000  0.21840000  1.0 -0.0992706189
C  C40  1  0.26840000  0.60080000  0.28160000  1.0 -0.0992706189
C  C41  1  0.17340000  0.10560000  0.28280000  1.0 -0.1113089501
C  C42  1  0.10560000  0.17340000  0.21720000  1.0 -0.1113089501
C  C43  1  0.55850000  0.04390000  0.53260000  1.0 -0.2290181788
C  C44  1  0.04390000  0.55850000  0.96740000  1.0 -0.2290181788
C  C45  1  0.83020000  0.29100000  0.03540000  1.0 0.515129754
C  C46  1  0.29100000  0.83020000  0.46460000  1.0 0.515129754
C  C47  1  0.74359000  0.71459000  0.69520000  1.0 -0.0913016148
C  C48  1  0.71459000  0.74359000  0.80480000  1.0 -0.0913016148
C  C49  1  0.72559000  0.82399000  0.60430000  1.0 0.1576738
C  C50  1  0.82399000  0.72559000  0.89570000  1.0 0.1576738
C  C51  1  0.80761000  0.45581000  0.88540000  1.0 -0.2290181788
C  C52  1  0.45581000  0.80761000  0.61460000  1.0 -0.2290181788
C  C53  1  0.70555000  0.70555000  0.75000000  1.0 0.0821513922
C  C54  1  0.75051000  0.61351000  0.79130000  1.0 -0.083478263
C  C55  1  0.61351000  0.75051000  0.70870000  1.0 -0.083478263
C  C56  1  0.74537000  0.52577000  0.88600000  1.0 0.1483970244
C  C57  1  0.52577000  0.74537000  0.61400000  1.0 0.1483970244
C  C58  1  0.80120000  0.91040000  0.44670000  1.0 0.5277976782
C  C59  1  0.91040000  0.80120000  0.05330000  1.0 0.5277976782
C  C60  1  0.80105000  0.37325000  0.98170000  1.0 -0.0021372611
C  C61  1  0.37325000  0.80105000  0.51830000  1.0 -0.0021372611
C  C62  1  0.74000000  0.44060000  0.98450000  1.0 -0.2187728848
C  C63  1  0.44060000  0.74000000  0.51550000  1.0 -0.2187728848
C  C64  1  0.71090000  0.51930000  0.93540000  1.0 0.1400537566
C  C65  1  0.51930000  0.71090000  0.56460000  1.0 0.1400537566
C  C66  1  0.82590000  0.86150000  0.27090000  1.0 0.111131985
C  C67  1  0.86150000  0.82590000  0.22910000  1.0 0.111131985
C  C68  1  0.76960000  0.85000000  0.30430000  1.0 -0.1301917269
C  C69  1  0.85000000  0.76960000  0.19570000  1.0 -0.1301917269
C  C70  1  0.75430000  0.79770000  0.26730000  1.0 -0.1301917269
C  C71  1  0.79770000  0.75430000  0.23270000  1.0 -0.1301917269
C  C72  1  0.60880000  0.59180000  0.98550000  1.0 -0.2493937074
C  C73  1  0.59180000  0.60880000  0.51450000  1.0 -0.2493937074
C  C74  1  0.98050000  0.10510000  0.39640000  1.0 -0.0992706189
C  C75  1  0.10510000  0.98050000  0.10360000  1.0 -0.0992706189
C  C76  1  0.93220000  0.11300000  0.51220000  1.0 0.1208589287
C  C77  1  0.11300000  0.93220000  0.98780000  1.0 0.1208589287
C  C78  1  0.01240000  0.08440000  0.52220000  1.0 0.1208589287
C  C79  1  0.08440000  0.01240000  0.97780000  1.0 0.1208589287
C  C80  1  0.29857000  0.06197000  0.49040000  1.0 -0.2290181788
C  C81  1  0.06197000  0.29857000  0.00960000  1.0 -0.2290181788
C  C82  1  0.16437000  0.62037000  0.06700000  1.0 -0.1211053891
C  C83  1  0.62037000  0.16437000  0.43300000  1.0 -0.1211053891
C  C84  1  0.87340000  0.13820000  0.44380000  1.0 -0.1687069098
C  C85  1  0.13820000  0.87340000  0.05620000  1.0 -0.1687069098
C  C86  1  0.88976000  0.95896000  0.71920000  1.0 0.111131985
C  C87  1  0.95896000  0.88976000  0.78080000  1.0 0.111131985
C  C88  1  0.03720000  0.08080000  0.46260000  1.0 -0.1533262876
C  C89  1  0.08080000  0.03720000  0.03740000  1.0 -0.1533262876
C  C90  1  0.26150000  0.80230000  0.81180000  1.0 0.1208589287
C  C91  1  0.80230000  0.26150000  0.68820000  1.0 0.111131985
C  C92  1  0.22910000  0.11750000  0.49930000  1.0 -0.0199675996
C  C93  1  0.11750000  0.22910000  0.00070000  1.0 -0.0199675996
C  C94  1  0.32073000  0.09133000  0.43850000  1.0 0.1400537566
C  C95  1  0.09133000  0.32073000  0.06150000  1.0 0.1400537566
C  C96  1  0.82041000  0.96421000  0.68150000  1.0 -0.1687069098
C  C97  1  0.96421000  0.82041000  0.81850000  1.0 -0.1687069098
C  C98  1  0.18235000  0.19975000  0.45770000  1.0 -0.0992706189
C  C99  1  0.19975000  0.18235000  0.04230000  1.0 -0.0992706189
C  C100  1  0.90470000  0.13250000  0.38690000  1.0 -0.0992706189
C  C101  1  0.13250000  0.90470000  0.11310000  1.0 -0.0992706189
C  C102  1  0.20533000  0.22813000  0.40550000  1.0 -0.2359653696
C  C103  1  0.22813000  0.20533000  0.09450000  1.0 -0.2359653696
C  C104  1  0.27200000  0.84880000  0.75920000  1.0 0.1287575832
C  C105  1  0.84880000  0.27200000  0.74080000  1.0 0.1287575832
C  C106  1  0.32200000  0.72020000  0.85250000  1.0 -0.1533262876
C  C107  1  0.72020000  0.32200000  0.64750000  1.0 -0.1533262876
C  C108  1  0.33950000  0.81450000  0.74280000  1.0 -0.1752987861
C  C109  1  0.81450000  0.33950000  0.75720000  1.0 -0.1752987861
C  C110  1  0.39010000  0.68270000  0.83650000  1.0 -0.1211053891
C  C111  1  0.68270000  0.39010000  0.66350000  1.0 -0.1211053891
C  C112  1  0.39920000  0.73160000  0.78160000  1.0 -0.0992706189
C  C113  1  0.73160000  0.39920000  0.71840000  1.0 -0.0992706189
C  C114  1  0.82660000  0.89440000  0.71720000  1.0 -0.1113089501
C  C115  1  0.89440000  0.82660000  0.78280000  1.0 -0.1113089501
C  C116  1  0.44150000  0.95610000  0.46740000  1.0 -0.2290181788
C  C117  1  0.95610000  0.44150000  0.03260000  1.0 -0.2290181788
C  C118  1  0.16980000  0.70900000  0.96460000  1.0 0.515129754
C  C119  1  0.70900000  0.16980000  0.53540000  1.0 0.515129754
C  C120  1  0.25641000  0.28541000  0.30480000  1.0 -0.0913016148
C  C121  1  0.28541000  0.25641000  0.19520000  1.0 -0.0913016148
C  C122  1  0.27441000  0.17601000  0.39570000  1.0 0.1576738
C  C123  1  0.17601000  0.27441000  0.10430000  1.0 0.1576738
C  C124  1  0.19239000  0.54419000  0.11460000  1.0 -0.2290181788
C  C125  1  0.54419000  0.19239000  0.38540000  1.0 -0.2290181788
C  C126  1  0.29445000  0.29445000  0.25000000  1.0 0.0821513922
C  C127  1  0.24949000  0.38649000  0.20870000  1.0 -0.083478263
C  C128  1  0.38649000  0.24949000  0.29130000  1.0 -0.083478263
C  C129  1  0.25463000  0.47423000  0.11400000  1.0 0.1483970244
C  C130  1  0.47423000  0.25463000  0.38600000  1.0 0.1483970244
C  C131  1  0.19880000  0.08960000  0.55330000  1.0 0.5277976782
C  C132  1  0.08960000  0.19880000  0.94670000  1.0 0.5277976782
C  C133  1  0.19895000  0.62675000  0.01830000  1.0 -0.0021372611
C  C134  1  0.62675000  0.19895000  0.48170000  1.0 -0.0021372611
C  C135  1  0.26000000  0.55940000  0.01550000  1.0 -0.2187728848
C  C136  1  0.55940000  0.26000000  0.48450000  1.0 -0.2187728848
C  C137  1  0.28910000  0.48070000  0.06460000  1.0 0.1400537566
C  C138  1  0.48070000  0.28910000  0.43540000  1.0 0.1400537566
C  C139  1  0.17410000  0.13850000  0.72910000  1.0 0.111131985
C  C140  1  0.13850000  0.17410000  0.77090000  1.0 0.111131985
C  C141  1  0.23040000  0.15000000  0.69570000  1.0 -0.1301917269
C  C142  1  0.15000000  0.23040000  0.80430000  1.0 -0.1301917269
C  C143  1  0.24570000  0.20230000  0.73270000  1.0 -0.1301917269
C  C144  1  0.20230000  0.24570000  0.76730000  1.0 -0.1301917269
C  C145  1  0.39120000  0.40820000  0.01450000  1.0 -0.2493937074
C  C146  1  0.40820000  0.39120000  0.48550000  1.0 -0.2493937074
N  N1  1  0.99703000  0.92183000  0.37110000  1.0 -0.0199675996
N  N2  1  0.92183000  0.99703000  0.12890000  1.0 -0.0199675996
N  N3  1  0.81055000  0.14555000  0.18440000  1.0 -0.2187728848
N  N4  1  0.14555000  0.81055000  0.31560000  1.0 -0.2187728848
N  N5  1  0.84338000  0.07038000  0.23430000  1.0 -0.0263642013
N  N6  1  0.07038000  0.84338000  0.26570000  1.0 -0.0263642013
N  N7  1  0.94566000  0.93626000  0.40470000  1.0 -0.1990947286
N  N8  1  0.93626000  0.94566000  0.09530000  1.0 -0.1990947286
N  N9  1  0.07301000  0.89121000  0.41890000  1.0 -0.2493937074
N  N10  1  0.89121000  0.07301000  0.08110000  1.0 -0.2493937074
N  N11  1  0.09265000  0.98505000  0.29720000  1.0 -0.210592097
N  N12  1  0.98505000  0.09265000  0.20280000  1.0 -0.210592097
N  N13  1  0.01787000  0.01787000  0.25000000  1.0 -0.0263642013
N  N14  1  0.79421000  0.07361000  0.26800000  1.0 -0.1990947286
N  N15  1  0.07361000  0.79421000  0.23200000  1.0 -0.1990947286
N  N16  1  0.89823000  0.89823000  0.25000000  1.0 -0.0263642013
N  N17  1  0.85010000  0.90550000  0.28740000  1.0 -0.210592097
N  N18  1  0.90550000  0.85010000  0.21260000  1.0 -0.210592097
N  N19  1  0.00297000  0.07817000  0.62890000  1.0 -0.0199675996
N  N20  1  0.07817000  0.00297000  0.87110000  1.0 -0.0199675996
N  N21  1  0.18945000  0.85445000  0.81560000  1.0 -0.2187728848
N  N22  1  0.85445000  0.18945000  0.68440000  1.0 -0.2187728848
N  N23  1  0.15662000  0.92962000  0.76570000  1.0 -0.0263642013
N  N24  1  0.92962000  0.15662000  0.73430000  1.0 -0.0263642013
N  N25  1  0.05434000  0.06374000  0.59530000  1.0 -0.210592097
N  N26  1  0.06374000  0.05434000  0.90470000  1.0 -0.210592097
N  N27  1  0.92699000  0.10879000  0.58110000  1.0 -0.2493937074
N  N28  1  0.10879000  0.92699000  0.91890000  1.0 -0.2493937074
N  N29  1  0.90735000  0.01495000  0.70280000  1.0 -0.210592097
N  N30  1  0.01495000  0.90735000  0.79720000  1.0 -0.210592097
N  N31  1  0.98213000  0.98213000  0.75000000  1.0 -0.0263642013
N  N32  1  0.20579000  0.92639000  0.73200000  1.0 -0.1990947286
N  N33  1  0.92639000  0.20579000  0.76800000  1.0 -0.1990947286
N  N34  1  0.10177000  0.10177000  0.75000000  1.0 -0.0263642013
N  N35  1  0.14990000  0.09450000  0.71260000  1.0 -0.210592097
N  N36  1  0.09450000  0.14990000  0.78740000  1.0 -0.210592097
O  O1  1  0.75892000  0.98452000  0.40440000  1.0 -0.5032693952
O  O2  1  0.98452000  0.75892000  0.09560000  1.0 -0.5032693952
O  O3  1  0.80123000  0.28363000  0.07860000  1.0 -0.4217963502
O  O4  1  0.28363000  0.80123000  0.42140000  1.0 -0.4217963502
O  O5  1  0.86550000  0.85830000  0.44340000  1.0 -0.4855582028
O  O6  1  0.85830000  0.86550000  0.05660000  1.0 -0.4855582028
O  O7  1  0.61175000  0.95735000  0.57600000  1.0 -0.1533262876
O  O8  1  0.95735000  0.61175000  0.92400000  1.0 -0.1533262876
O  O9  1  0.71422000  0.60442000  0.84225000  1.0 -0.1752987861
O  O10  1  0.60442000  0.71422000  0.65775000  1.0 -0.1752987861
O  O11  1  0.69869000  0.80149000  0.65390000  1.0 -0.1687069098
O  O12  1  0.80149000  0.69869000  0.84610000  1.0 -0.1687069098
O  O13  1  0.88529000  0.22829000  0.03410000  1.0 -0.4449660688
O  O14  1  0.22829000  0.88529000  0.46590000  1.0 -0.4452932387
O  O15  1  0.64682000  0.59362000  0.93050000  1.0 -0.1571894869
O  O16  1  0.59362000  0.64682000  0.56950000  1.0 -0.1571894869
O  O17  1  0.24108000  0.01548000  0.59560000  1.0 -0.5032693952
O  O18  1  0.01548000  0.24108000  0.90440000  1.0 -0.5032693952
O  O19  1  0.19877000  0.71637000  0.92140000  1.0 -0.4217963502
O  O20  1  0.71637000  0.19877000  0.57860000  1.0 -0.4217963502
O  O21  1  0.13450000  0.14170000  0.55660000  1.0 -0.4848734646
O  O22  1  0.14170000  0.13450000  0.94340000  1.0 -0.4848734646
O  O23  1  0.38825000  0.04265000  0.42400000  1.0 -0.1533262876
O  O24  1  0.04265000  0.38825000  0.07600000  1.0 -0.1533262876
O  O25  1  0.28578000  0.39558000  0.15775000  1.0 -0.1752987861
O  O26  1  0.39558000  0.28578000  0.34225000  1.0 -0.1752987861
O  O27  1  0.30131000  0.19851000  0.34610000  1.0 -0.1687069098
O  O28  1  0.19851000  0.30131000  0.15390000  1.0 -0.1687069098
O  O29  1  0.11471000  0.77171000  0.96590000  1.0 -0.4449660688
O  O30  1  0.77171000  0.11471000  0.53410000  1.0 -0.4449660688
O  O31  1  0.35318000  0.40638000  0.06950000  1.0 -0.1571894869
O  O32  1  0.40638000  0.35318000  0.43050000  1.0 -0.1571894869
