# DDEC6 charges by PACMAN v1.1 (https://github.com/mtap-research/PACMAN-charge/)
data_FAZPED_FSR_pacman
_symmetry_space_group_name_H-M   'P 1'
_cell_length_a   16.39740000
_cell_length_b   16.39740000
_cell_length_c   16.39740000
_cell_angle_alpha   114.08900000
_cell_angle_beta   114.08900000
_cell_angle_gamma   114.08900000
_symmetry_Int_Tables_number   1
_chemical_formula_structural   Co2H8C12N5ClO4
_chemical_formula_sum   'Co12 H48 C72 N30 Cl6 O24'
_cell_volume   2660.83397938
_cell_formula_units_Z   6
loop_
 _symmetry_equiv_pos_site_id
 _symmetry_equiv_pos_as_xyz
  1  'x, y, z'
loop_
 _atom_site_type_symbol
 _atom_site_label
 _atom_site_symmetry_multiplicity
 _atom_site_fract_x
 _atom_site_fract_y
 _atom_site_fract_z
 _atom_site_occupancy
 _atom_site_charge
Co  Co1  1  0.62252000  0.06976000  0.02311000  1.0 0.8273944681
Co  Co2  1  0.06976000  0.02311000  0.62252000  1.0 0.8273944681
Co  Co3  1  0.02311000  0.62252000  0.06976000  1.0 0.8273944681
Co  Co4  1  0.37748000  0.93024000  0.97689000  1.0 0.8273944681
Co  Co5  1  0.93024000  0.97689000  0.37748000  1.0 0.8273944681
Co  Co6  1  0.97689000  0.37748000  0.93024000  1.0 0.8273944681
Co  Co7  1  0.39587000  0.78890000  0.74909000  1.0 0.8243119543
Co  Co8  1  0.78890000  0.74909000  0.39587000  1.0 0.8243119543
Co  Co9  1  0.74909000  0.39587000  0.78890000  1.0 0.8243119543
Co  Co10  1  0.60413000  0.21110000  0.25091000  1.0 0.8243119543
Co  Co11  1  0.21110000  0.25091000  0.60413000  1.0 0.8243119543
Co  Co12  1  0.25091000  0.60413000  0.21110000  1.0 0.8243119543
H  H1  1  0.75200000  0.52150000  0.31570000  1.0 0.11059128
H  H2  1  0.52150000  0.31570000  0.75200000  1.0 0.11059128
H  H3  1  0.31570000  0.75200000  0.52150000  1.0 0.11059128
H  H4  1  0.24800000  0.47850000  0.68430000  1.0 0.11059128
H  H5  1  0.47850000  0.68430000  0.24800000  1.0 0.11059128
H  H6  1  0.68430000  0.24800000  0.47850000  1.0 0.11059128
H  H7  1  0.56290000  0.41820000  0.94900000  1.0 0.1282066562
H  H8  1  0.41820000  0.94900000  0.56290000  1.0 0.1282066562
H  H9  1  0.94900000  0.56290000  0.41820000  1.0 0.1282066562
H  H10  1  0.43710000  0.58180000  0.05100000  1.0 0.1282066562
H  H11  1  0.58180000  0.05100000  0.43710000  1.0 0.1282066562
H  H12  1  0.05100000  0.43710000  0.58180000  1.0 0.1282066562
H  H13  1  0.79750000  0.20320000  0.91920000  1.0 0.11059128
H  H14  1  0.20320000  0.91920000  0.79750000  1.0 0.11059128
H  H15  1  0.91920000  0.79750000  0.20320000  1.0 0.11059128
H  H16  1  0.20250000  0.79680000  0.08080000  1.0 0.11059128
H  H17  1  0.79680000  0.08080000  0.20250000  1.0 0.11059128
H  H18  1  0.08080000  0.20250000  0.79680000  1.0 0.11059128
H  H19  1  0.84000000  0.12740000  0.69030000  1.0 0.11059128
H  H20  1  0.12740000  0.69030000  0.84000000  1.0 0.11059128
H  H21  1  0.69030000  0.84000000  0.12740000  1.0 0.11059128
H  H22  1  0.16000000  0.87260000  0.30970000  1.0 0.11059128
H  H23  1  0.87260000  0.30970000  0.16000000  1.0 0.11059128
H  H24  1  0.30970000  0.16000000  0.87260000  1.0 0.11059128
H  H25  1  0.56060000  0.85370000  0.60440000  1.0 0.1282066562
H  H26  1  0.85370000  0.60440000  0.56060000  1.0 0.1282066562
H  H27  1  0.60440000  0.56060000  0.85370000  1.0 0.1282066562
H  H28  1  0.43940000  0.14630000  0.39560000  1.0 0.1282066562
H  H29  1  0.14630000  0.39560000  0.43940000  1.0 0.1282066562
H  H30  1  0.39560000  0.43940000  0.14630000  1.0 0.1282066562
H  H31  1  0.57800000  0.28800000  0.96120000  1.0 0.121872666
H  H32  1  0.28800000  0.96120000  0.57800000  1.0 0.121872666
H  H33  1  0.96120000  0.57800000  0.28800000  1.0 0.121872666
H  H34  1  0.42200000  0.71200000  0.03880000  1.0 0.121872666
H  H35  1  0.71200000  0.03880000  0.42200000  1.0 0.121872666
H  H36  1  0.03880000  0.42200000  0.71200000  1.0 0.121872666
H  H37  1  0.67220000  0.92250000  0.55720000  1.0 0.1282066562
H  H38  1  0.92250000  0.55720000  0.67220000  1.0 0.1282066562
H  H39  1  0.55720000  0.67220000  0.92250000  1.0 0.1282066562
H  H40  1  0.32780000  0.07750000  0.44280000  1.0 0.1282066562
H  H41  1  0.07750000  0.44280000  0.32780000  1.0 0.1282066562
H  H42  1  0.44280000  0.32780000  0.07750000  1.0 0.1282066562
H  H43  1  0.64610000  0.59700000  0.12140000  1.0 0.0975097791
H  H44  1  0.59700000  0.12140000  0.64610000  1.0 0.0975097791
H  H45  1  0.12140000  0.64610000  0.59700000  1.0 0.0975097791
H  H46  1  0.35390000  0.40300000  0.87860000  1.0 0.0975097791
H  H47  1  0.40300000  0.87860000  0.35390000  1.0 0.0975097791
H  H48  1  0.87860000  0.35390000  0.40300000  1.0 0.0975097791
C  C1  1  0.66560000  0.39130000  0.14020000  1.0 -0.0576644263
C  C2  1  0.39130000  0.14020000  0.66560000  1.0 -0.0576644263
C  C3  1  0.14020000  0.66560000  0.39130000  1.0 -0.0576644263
C  C4  1  0.33440000  0.60870000  0.85980000  1.0 -0.0576644263
C  C5  1  0.60870000  0.85980000  0.33440000  1.0 -0.0576644263
C  C6  1  0.85980000  0.33440000  0.60870000  1.0 -0.0576644263
C  C7  1  0.71380000  0.50060000  0.24100000  1.0 0.048113474
C  C8  1  0.50060000  0.24100000  0.71380000  1.0 0.048113474
C  C9  1  0.24100000  0.71380000  0.50060000  1.0 0.048113474
C  C10  1  0.28620000  0.49940000  0.75900000  1.0 0.048113474
C  C11  1  0.49940000  0.75900000  0.28620000  1.0 0.048113474
C  C12  1  0.75900000  0.28620000  0.49940000  1.0 0.048113474
C  C13  1  0.66740000  0.02350000  0.76700000  1.0 -0.0662722041
C  C14  1  0.02350000  0.76700000  0.66740000  1.0 -0.0662722041
C  C15  1  0.76700000  0.66740000  0.02350000  1.0 -0.0662722041
C  C16  1  0.33260000  0.97650000  0.23300000  1.0 -0.0662722041
C  C17  1  0.97650000  0.23300000  0.33260000  1.0 -0.0662722041
C  C18  1  0.23300000  0.33260000  0.97650000  1.0 -0.0662722041
C  C19  1  0.60160000  0.43770000  0.02310000  1.0 -0.1454383308
C  C20  1  0.43770000  0.02310000  0.60160000  1.0 -0.1454383308
C  C21  1  0.02310000  0.60160000  0.43770000  1.0 -0.1454383308
C  C22  1  0.39840000  0.56230000  0.97690000  1.0 -0.1454383308
C  C23  1  0.56230000  0.97690000  0.39840000  1.0 -0.1454383308
C  C24  1  0.97690000  0.39840000  0.56230000  1.0 -0.1454383308
C  C25  1  0.77000000  0.14580000  0.84390000  1.0 0.048113474
C  C26  1  0.14580000  0.84390000  0.77000000  1.0 0.048113474
C  C27  1  0.84390000  0.77000000  0.14580000  1.0 0.048113474
C  C28  1  0.23000000  0.85420000  0.15610000  1.0 0.048113474
C  C29  1  0.85420000  0.15610000  0.23000000  1.0 0.048113474
C  C30  1  0.15610000  0.23000000  0.85420000  1.0 0.048113474
C  C31  1  0.79560000  0.10140000  0.71000000  1.0 0.0905391412
C  C32  1  0.10140000  0.71000000  0.79560000  1.0 0.0905391412
C  C33  1  0.71000000  0.79560000  0.10140000  1.0 0.0905391412
C  C34  1  0.20440000  0.89860000  0.29000000  1.0 0.0905391412
C  C35  1  0.89860000  0.29000000  0.20440000  1.0 0.0905391412
C  C36  1  0.29000000  0.20440000  0.89860000  1.0 0.0905391412
C  C37  1  0.67290000  0.30650000  0.15290000  1.0 0.5645876949
C  C38  1  0.30650000  0.15290000  0.67290000  1.0 0.5645876949
C  C39  1  0.15290000  0.67290000  0.30650000  1.0 0.5645876949
C  C40  1  0.32710000  0.69350000  0.84710000  1.0 0.5645876949
C  C41  1  0.69350000  0.84710000  0.32710000  1.0 0.5645876949
C  C42  1  0.84710000  0.32710000  0.69350000  1.0 0.5645876949
C  C43  1  0.62900000  0.93710000  0.65780000  1.0 -0.0576644263
C  C44  1  0.93710000  0.65780000  0.62900000  1.0 -0.0576644263
C  C45  1  0.65780000  0.62900000  0.93710000  1.0 -0.0576644263
C  C46  1  0.37100000  0.06290000  0.34220000  1.0 -0.0576644263
C  C47  1  0.06290000  0.34220000  0.37100000  1.0 -0.0576644263
C  C48  1  0.34220000  0.37100000  0.06290000  1.0 -0.0576644263
C  C49  1  0.60970000  0.36000000  0.02970000  1.0 -0.0481278648
C  C50  1  0.36000000  0.02970000  0.60970000  1.0 -0.0481278648
C  C51  1  0.02970000  0.60970000  0.36000000  1.0 -0.0481278648
C  C52  1  0.39030000  0.64000000  0.97030000  1.0 -0.0481278648
C  C53  1  0.64000000  0.97030000  0.39030000  1.0 -0.0481278648
C  C54  1  0.97030000  0.39030000  0.64000000  1.0 -0.0481278648
C  C55  1  0.60190000  0.98890000  0.80710000  1.0 0.5771949912
C  C56  1  0.98890000  0.80710000  0.60190000  1.0 0.5771949912
C  C57  1  0.80710000  0.60190000  0.98890000  1.0 0.5771949912
C  C58  1  0.39810000  0.01110000  0.19290000  1.0 0.5771949912
C  C59  1  0.01110000  0.19290000  0.39810000  1.0 0.5771949912
C  C60  1  0.19290000  0.39810000  0.01110000  1.0 0.5771949912
C  C61  1  0.69560000  0.97850000  0.63020000  1.0 -0.1382011299
C  C62  1  0.97850000  0.63020000  0.69560000  1.0 -0.1382011299
C  C63  1  0.63020000  0.69560000  0.97850000  1.0 -0.1382011299
C  C64  1  0.30440000  0.02150000  0.36980000  1.0 -0.1382011299
C  C65  1  0.02150000  0.36980000  0.30440000  1.0 -0.1382011299
C  C66  1  0.36980000  0.30440000  0.02150000  1.0 -0.1382011299
C  C67  1  0.65150000  0.54490000  0.12700000  1.0 0.0766968007
C  C68  1  0.54490000  0.12700000  0.65150000  1.0 0.0766968007
C  C69  1  0.12700000  0.65150000  0.54490000  1.0 0.0766968007
C  C70  1  0.34850000  0.45510000  0.87300000  1.0 0.0766968007
C  C71  1  0.45510000  0.87300000  0.34850000  1.0 0.0766968007
C  C72  1  0.87300000  0.34850000  0.45510000  1.0 0.0766968007
N  N1  1  0.70710000  0.57670000  0.23460000  1.0 -0.2417291725
N  N2  1  0.57670000  0.23460000  0.70710000  1.0 -0.2417291725
N  N3  1  0.23460000  0.70710000  0.57670000  1.0 -0.2417291725
N  N4  1  0.29290000  0.42330000  0.76540000  1.0 -0.2417291725
N  N5  1  0.42330000  0.76540000  0.29290000  1.0 -0.2417291725
N  N6  1  0.76540000  0.29290000  0.42330000  1.0 -0.2417291725
N  N7  1  0.83180000  0.18590000  0.81490000  1.0 -0.2166242972
N  N8  1  0.18590000  0.81490000  0.83180000  1.0 -0.2166242972
N  N9  1  0.81490000  0.83180000  0.18590000  1.0 -0.2166242972
N  N10  1  0.16820000  0.81410000  0.18510000  1.0 -0.2166242972
N  N11  1  0.81410000  0.18510000  0.16820000  1.0 -0.2166242972
N  N12  1  0.18510000  0.16820000  0.81410000  1.0 -0.2166242972
N  N13  1  0.42140000  0.93930000  0.87070000  1.0 -0.6402417595
N  N14  1  0.93930000  0.87070000  0.42140000  1.0 -0.6402417595
N  N15  1  0.87070000  0.42140000  0.93930000  1.0 -0.6402417595
N  N16  1  0.57860000  0.06070000  0.12930000  1.0 -0.6402417595
N  N17  1  0.06070000  0.12930000  0.57860000  1.0 -0.6402417595
N  N18  1  0.12930000  0.57860000  0.06070000  1.0 -0.6402417595
N  N19  1  0.39650000  0.98190000  0.82840000  1.0 0.4361936326
N  N20  1  0.98190000  0.82840000  0.39650000  1.0 0.4361936326
N  N21  1  0.82840000  0.39650000  0.98190000  1.0 0.4361936326
N  N22  1  0.60350000  0.01810000  0.17160000  1.0 0.4361936326
N  N23  1  0.01810000  0.17160000  0.60350000  1.0 0.4361936326
N  N24  1  0.17160000  0.60350000  0.01810000  1.0 0.4361936326
N  N25  1  0.37600000  0.02340000  0.79420000  1.0 -0.2091944094
N  N26  1  0.02340000  0.79420000  0.37600000  1.0 -0.2091944094
N  N27  1  0.79420000  0.37600000  0.02340000  1.0 -0.2091944094
N  N28  1  0.62400000  0.97660000  0.20580000  1.0 -0.2091944094
N  N29  1  0.97660000  0.20580000  0.62400000  1.0 -0.2091944094
N  N30  1  0.20580000  0.62400000  0.97660000  1.0 -0.2091944094
Cl  Cl1  1  0.58648000  0.88139000  0.94263000  1.0 -0.5085024511
Cl  Cl2  1  0.88139000  0.94263000  0.58648000  1.0 -0.5085024511
Cl  Cl3  1  0.94263000  0.58648000  0.88139000  1.0 -0.5085024511
Cl  Cl4  1  0.41352000  0.11861000  0.05737000  1.0 -0.5085024511
Cl  Cl5  1  0.11861000  0.05737000  0.41352000  1.0 -0.5085024511
Cl  Cl6  1  0.05737000  0.41352000  0.11861000  1.0 -0.5085024511
O  O1  1  0.65300000  0.07170000  0.91380000  1.0 -0.5012106423
O  O2  1  0.07170000  0.91380000  0.65300000  1.0 -0.5012106423
O  O3  1  0.91380000  0.65300000  0.07170000  1.0 -0.5012106423
O  O4  1  0.34700000  0.92830000  0.08620000  1.0 -0.5012106423
O  O5  1  0.92830000  0.08620000  0.34700000  1.0 -0.5012106423
O  O6  1  0.08620000  0.34700000  0.92830000  1.0 -0.5012106423
O  O7  1  0.64130000  0.21810000  0.06470000  1.0 -0.5012106423
O  O8  1  0.21810000  0.06470000  0.64130000  1.0 -0.5012106423
O  O9  1  0.06470000  0.64130000  0.21810000  1.0 -0.5012106423
O  O10  1  0.35870000  0.78190000  0.93530000  1.0 -0.5012106423
O  O11  1  0.78190000  0.93530000  0.35870000  1.0 -0.5012106423
O  O12  1  0.93530000  0.35870000  0.78190000  1.0 -0.5012106423
O  O13  1  0.50050000  0.87970000  0.72760000  1.0 -0.5435391838
O  O14  1  0.87970000  0.72760000  0.50050000  1.0 -0.5435391838
O  O15  1  0.72760000  0.50050000  0.87970000  1.0 -0.5435391838
O  O16  1  0.49950000  0.12030000  0.27240000  1.0 -0.5435391838
O  O17  1  0.12030000  0.27240000  0.49950000  1.0 -0.5435391838
O  O18  1  0.27240000  0.49950000  0.12030000  1.0 -0.5435391838
O  O19  1  0.70730000  0.33230000  0.25050000  1.0 -0.5533009445
O  O20  1  0.33230000  0.25050000  0.70730000  1.0 -0.5533009445
O  O21  1  0.25050000  0.70730000  0.33230000  1.0 -0.5533009445
O  O22  1  0.29270000  0.66770000  0.74950000  1.0 -0.5533009445
O  O23  1  0.66770000  0.74950000  0.29270000  1.0 -0.5533009445
O  O24  1  0.74950000  0.29270000  0.66770000  1.0 -0.5533009445
