# DDEC6 charges by PACMAN v1.1 (https://github.com/mtap-research/PACMAN-charge/)
data_FECCIZ_ASR_pacman
_symmetry_space_group_name_H-M   'P 1'
_cell_length_a   9.51120000
_cell_length_b   10.33250000
_cell_length_c   14.64050000
_cell_angle_alpha   90.00000000
_cell_angle_beta   90.00000000
_cell_angle_gamma   90.00000000
_symmetry_Int_Tables_number   1
_chemical_formula_structural   AlPO4
_chemical_formula_sum   'Al12 P12 O48'
_cell_volume   1438.78743660
_cell_formula_units_Z   12
loop_
 _symmetry_equiv_pos_site_id
 _symmetry_equiv_pos_as_xyz
  1  'x, y, z'
loop_
 _atom_site_type_symbol
 _atom_site_label
 _atom_site_symmetry_multiplicity
 _atom_site_fract_x
 _atom_site_fract_y
 _atom_site_fract_z
 _atom_site_occupancy
 _atom_site_charge
Al  Al1  1  0.38700000  0.35400000  0.60800000  1.0 1.7260941573
Al  Al2  1  0.61300000  0.85400000  0.89200000  1.0 1.7247495163
Al  Al3  1  0.61300000  0.14600000  0.10800000  1.0 1.7260941573
Al  Al4  1  0.38700000  0.64600000  0.39200000  1.0 1.7260941573
Al  Al5  1  0.38300000  0.36600000  0.89600000  1.0 1.706805985
Al  Al6  1  0.61700000  0.86600000  0.60400000  1.0 1.706805985
Al  Al7  1  0.61700000  0.13400000  0.39600000  1.0 1.706805985
Al  Al8  1  0.38300000  0.63400000  0.10400000  1.0 1.706805985
Al  Al9  1  0.13900000  0.65100000  0.75100000  1.0 1.8019548762
Al  Al10  1  0.86100000  0.15100000  0.74900000  1.0 1.8019548762
Al  Al11  1  0.86100000  0.84900000  0.25100000  1.0 1.8019548762
Al  Al12  1  0.13900000  0.34900000  0.24900000  1.0 1.8019548762
P  P1  1  0.15700000  0.33900000  0.77000000  1.0 1.5382153499
P  P2  1  0.84300000  0.83900000  0.73000000  1.0 1.5289405692
P  P3  1  0.84300000  0.16100000  0.27000000  1.0 1.5289405692
P  P4  1  0.15700000  0.66100000  0.23000000  1.0 1.5382153499
P  P5  1  0.63200000  0.14600000  0.61200000  1.0 1.5744081247
P  P6  1  0.36800000  0.64600000  0.88800000  1.0 1.5744081247
P  P7  1  0.36800000  0.35400000  0.11200000  1.0 1.5744081247
P  P8  1  0.63200000  0.85400000  0.38800000  1.0 1.5744081247
P  P9  1  0.36900000  0.34300000  0.41500000  1.0 1.5289405692
P  P10  1  0.63100000  0.84300000  0.08500000  1.0 1.523222636
P  P11  1  0.63100000  0.15700000  0.91500000  1.0 1.523222636
P  P12  1  0.36900000  0.65700000  0.58500000  1.0 1.5289405692
O  O1  1  0.27200000  0.33800000  0.69600000  1.0 -0.8274239393
O  O2  1  0.72800000  0.83800000  0.80400000  1.0 -0.8404683742
O  O3  1  0.72800000  0.16200000  0.19600000  1.0 -0.8274239393
O  O4  1  0.27200000  0.66200000  0.30400000  1.0 -0.8404683742
O  O5  1  0.21800000  0.31100000  0.86400000  1.0 -0.7981744152
O  O6  1  0.78200000  0.81100000  0.63600000  1.0 -0.7981744152
O  O7  1  0.78200000  0.18900000  0.36400000  1.0 -0.7981744152
O  O8  1  0.21800000  0.68900000  0.13600000  1.0 -0.7981744152
O  O9  1  0.08600000  0.48200000  0.75800000  1.0 -0.8404683742
O  O10  1  0.91400000  0.98200000  0.74200000  1.0 -0.8404683742
O  O11  1  0.91400000  0.01800000  0.25800000  1.0 -0.8404683742
O  O12  1  0.08600000  0.51800000  0.24200000  1.0 -0.8404683742
O  O13  1  0.01800000  0.24900000  0.76400000  1.0 -0.8112291526
O  O14  1  0.98200000  0.74900000  0.73600000  1.0 -0.8112291526
O  O15  1  0.98200000  0.25100000  0.26400000  1.0 -0.8112291526
O  O16  1  0.01800000  0.75100000  0.23600000  1.0 -0.8112291526
O  O17  1  0.79000000  0.18200000  0.63700000  1.0 -0.8274239393
O  O18  1  0.21000000  0.68200000  0.86300000  1.0 -0.8274239393
O  O19  1  0.21000000  0.31800000  0.13700000  1.0 -0.8274239393
O  O20  1  0.79000000  0.81800000  0.36300000  1.0 -0.8274239393
O  O21  1  0.61900000  0.13000000  0.51200000  1.0 -0.8112291526
O  O22  1  0.38100000  0.63000000  0.98800000  1.0 -0.8112291526
O  O23  1  0.38100000  0.37000000  0.01200000  1.0 -0.8112291526
O  O24  1  0.61900000  0.87000000  0.48800000  1.0 -0.8112291526
O  O25  1  0.58800000  0.01500000  0.66800000  1.0 -0.8404683742
O  O26  1  0.41200000  0.51500000  0.83200000  1.0 -0.8404683742
O  O27  1  0.41200000  0.48500000  0.16800000  1.0 -0.8404683742
O  O28  1  0.58800000  0.98500000  0.33200000  1.0 -0.8404683742
O  O29  1  0.53400000  0.25600000  0.64300000  1.0 -0.8112291526
O  O30  1  0.46600000  0.75600000  0.85700000  1.0 -0.8112291526
O  O31  1  0.46600000  0.24400000  0.14300000  1.0 -0.8112291526
O  O32  1  0.53400000  0.74400000  0.35700000  1.0 -0.8112291526
O  O33  1  0.31700000  0.30000000  0.50600000  1.0 -0.8112291526
O  O34  1  0.68300000  0.80000000  0.99400000  1.0 -0.8112291526
O  O35  1  0.68300000  0.20000000  0.00600000  1.0 -0.8112291526
O  O36  1  0.31700000  0.70000000  0.49400000  1.0 -0.8112291526
O  O37  1  0.24200000  0.33700000  0.34900000  1.0 -0.8469434273
O  O38  1  0.75800000  0.83700000  0.15100000  1.0 -0.8469434273
O  O39  1  0.75800000  0.16300000  0.84900000  1.0 -0.8404683742
O  O40  1  0.24200000  0.66300000  0.65100000  1.0 -0.8469434273
O  O41  1  0.42500000  0.48200000  0.41200000  1.0 -0.8274239393
O  O42  1  0.57500000  0.98200000  0.08800000  1.0 -0.8274239393
O  O43  1  0.57500000  0.01800000  0.91200000  1.0 -0.8274239393
O  O44  1  0.42500000  0.51800000  0.58800000  1.0 -0.824267615
O  O45  1  0.48800000  0.25400000  0.38100000  1.0 -0.8112291526
O  O46  1  0.51200000  0.75400000  0.11900000  1.0 -0.8112291526
O  O47  1  0.51200000  0.24600000  0.88100000  1.0 -0.8112291526
O  O48  1  0.48800000  0.74600000  0.61900000  1.0 -0.8112291526
