# DDEC6 charges by PACMAN v1.1 (https://github.com/mtap-research/PACMAN-charge/)
data_FECYOD_ASR_pacman
_symmetry_space_group_name_H-M   'P 1'
_cell_length_a   18.12550000
_cell_length_b   18.12550000
_cell_length_c   18.12550000
_cell_angle_alpha   61.00810000
_cell_angle_beta   61.00810000
_cell_angle_gamma   61.00810000
_symmetry_Int_Tables_number   1
_chemical_formula_structural   Zn8H36C69O29
_chemical_formula_sum   'Zn16 H72 C138 O58'
_cell_volume   4306.31532263
_cell_formula_units_Z   2
loop_
 _symmetry_equiv_pos_site_id
 _symmetry_equiv_pos_as_xyz
  1  'x, y, z'
loop_
 _atom_site_type_symbol
 _atom_site_label
 _atom_site_symmetry_multiplicity
 _atom_site_fract_x
 _atom_site_fract_y
 _atom_site_fract_z
 _atom_site_occupancy
 _atom_site_charge
Zn  Zn1  1  0.22002000  0.38927000  0.38927000  1.0 0.8269334372
Zn  Zn2  1  0.38927000  0.38927000  0.22002000  1.0 0.8269334372
Zn  Zn3  1  0.38927000  0.22002000  0.38927000  1.0 0.8269334372
Zn  Zn4  1  0.39419000  0.39419000  0.39419000  1.0 0.7032197651
Zn  Zn5  1  0.80478000  0.97836000  0.80478000  1.0 0.9492586192
Zn  Zn6  1  0.97836000  0.80478000  0.80478000  1.0 0.9492586192
Zn  Zn7  1  0.80478000  0.80478000  0.97836000  1.0 0.9492586192
Zn  Zn8  1  0.80456000  0.80456000  0.80456000  1.0 0.8958973821
Zn  Zn9  1  0.77998000  0.61073000  0.61073000  1.0 0.8269334372
Zn  Zn10  1  0.61073000  0.77998000  0.61073000  1.0 0.8269334372
Zn  Zn11  1  0.61073000  0.61073000  0.77998000  1.0 0.8269334372
Zn  Zn12  1  0.60581000  0.60581000  0.60581000  1.0 0.7032197651
Zn  Zn13  1  0.19522000  0.19522000  0.02164000  1.0 0.9492586192
Zn  Zn14  1  0.02164000  0.19522000  0.19522000  1.0 0.9492586192
Zn  Zn15  1  0.19522000  0.02164000  0.19522000  1.0 0.9492586192
Zn  Zn16  1  0.19544000  0.19544000  0.19544000  1.0 0.894445115
H  H1  1  0.03060000  0.25230000  0.54790000  1.0 0.0947610822
H  H2  1  0.25230000  0.54790000  0.03060000  1.0 0.0947610822
H  H3  1  0.54790000  0.03060000  0.25230000  1.0 0.0947610822
H  H4  1  0.03060000  0.54790000  0.25230000  1.0 0.0947610822
H  H5  1  0.25230000  0.03060000  0.54790000  1.0 0.0947610822
H  H6  1  0.54790000  0.25230000  0.03060000  1.0 0.0947610822
H  H7  1  0.94440000  0.15870000  0.64550000  1.0 0.1092586535
H  H8  1  0.15870000  0.64550000  0.94440000  1.0 0.1092586535
H  H9  1  0.64550000  0.94440000  0.15870000  1.0 0.1092586535
H  H10  1  0.94440000  0.64550000  0.15870000  1.0 0.1092586535
H  H11  1  0.15870000  0.94440000  0.64550000  1.0 0.1092586535
H  H12  1  0.64550000  0.15870000  0.94440000  1.0 0.1092586535
H  H13  1  0.23740000  0.59630000  0.50800000  1.0 0.0794641461
H  H14  1  0.59630000  0.50800000  0.23740000  1.0 0.0794641461
H  H15  1  0.50800000  0.23740000  0.59630000  1.0 0.0794641461
H  H16  1  0.23740000  0.50800000  0.59630000  1.0 0.0794641461
H  H17  1  0.59630000  0.23740000  0.50800000  1.0 0.0794641461
H  H18  1  0.50800000  0.59630000  0.23740000  1.0 0.0794641461
H  H19  1  0.15270000  0.68260000  0.60120000  1.0 0.1092586535
H  H20  1  0.68260000  0.60120000  0.15270000  1.0 0.1092586535
H  H21  1  0.60120000  0.15270000  0.68260000  1.0 0.1092586535
H  H22  1  0.15270000  0.60120000  0.68260000  1.0 0.1092586535
H  H23  1  0.68260000  0.15270000  0.60120000  1.0 0.1092586535
H  H24  1  0.60120000  0.68260000  0.15270000  1.0 0.1092586535
H  H25  1  0.66460000  0.93880000  0.62110000  1.0 0.1018630687
H  H26  1  0.93880000  0.62110000  0.66460000  1.0 0.1018630687
H  H27  1  0.62110000  0.66460000  0.93880000  1.0 0.1018630687
H  H28  1  0.66460000  0.62110000  0.93880000  1.0 0.1018630687
H  H29  1  0.93880000  0.66460000  0.62110000  1.0 0.1018630687
H  H30  1  0.62110000  0.93880000  0.66460000  1.0 0.1018630687
H  H31  1  0.03150000  0.53930000  0.55850000  1.0 0.1194774879
H  H32  1  0.53930000  0.55850000  0.03150000  1.0 0.1194774879
H  H33  1  0.55850000  0.03150000  0.53930000  1.0 0.1194774879
H  H34  1  0.03150000  0.55850000  0.53930000  1.0 0.1194774879
H  H35  1  0.53930000  0.03150000  0.55850000  1.0 0.1194774879
H  H36  1  0.55850000  0.53930000  0.03150000  1.0 0.1194774879
H  H37  1  0.96940000  0.45210000  0.74770000  1.0 0.0947610822
H  H38  1  0.74770000  0.96940000  0.45210000  1.0 0.0947610822
H  H39  1  0.45210000  0.74770000  0.96940000  1.0 0.0947610822
H  H40  1  0.96940000  0.74770000  0.45210000  1.0 0.0947610822
H  H41  1  0.74770000  0.45210000  0.96940000  1.0 0.0947610822
H  H42  1  0.45210000  0.96940000  0.74770000  1.0 0.0947610822
H  H43  1  0.05560000  0.35450000  0.84130000  1.0 0.1092586535
H  H44  1  0.84130000  0.05560000  0.35450000  1.0 0.1092586535
H  H45  1  0.35450000  0.84130000  0.05560000  1.0 0.1092586535
H  H46  1  0.05560000  0.84130000  0.35450000  1.0 0.1092586535
H  H47  1  0.84130000  0.35450000  0.05560000  1.0 0.1092586535
H  H48  1  0.35450000  0.05560000  0.84130000  1.0 0.1092586535
H  H49  1  0.76260000  0.49200000  0.40370000  1.0 0.0794641461
H  H50  1  0.40370000  0.76260000  0.49200000  1.0 0.0794641461
H  H51  1  0.49200000  0.40370000  0.76260000  1.0 0.0794641461
H  H52  1  0.76260000  0.40370000  0.49200000  1.0 0.0794641461
H  H53  1  0.40370000  0.49200000  0.76260000  1.0 0.0794641461
H  H54  1  0.49200000  0.76260000  0.40370000  1.0 0.0794641461
H  H55  1  0.84730000  0.39880000  0.31740000  1.0 0.1092586535
H  H56  1  0.31740000  0.84730000  0.39880000  1.0 0.1092586535
H  H57  1  0.39880000  0.31740000  0.84730000  1.0 0.1092586535
H  H58  1  0.84730000  0.31740000  0.39880000  1.0 0.1092586535
H  H59  1  0.31740000  0.39880000  0.84730000  1.0 0.1092586535
H  H60  1  0.39880000  0.84730000  0.31740000  1.0 0.1092586535
H  H61  1  0.33540000  0.37890000  0.06120000  1.0 0.1018630687
H  H62  1  0.06120000  0.33540000  0.37890000  1.0 0.1018630687
H  H63  1  0.37890000  0.06120000  0.33540000  1.0 0.1018630687
H  H64  1  0.33540000  0.06120000  0.37890000  1.0 0.1018630687
H  H65  1  0.06120000  0.37890000  0.33540000  1.0 0.1018630687
H  H66  1  0.37890000  0.33540000  0.06120000  1.0 0.1018630687
H  H67  1  0.96850000  0.44150000  0.46070000  1.0 0.1194774879
H  H68  1  0.46070000  0.96850000  0.44150000  1.0 0.1194774879
H  H69  1  0.44150000  0.46070000  0.96850000  1.0 0.1194774879
H  H70  1  0.96850000  0.46070000  0.44150000  1.0 0.1194774879
H  H71  1  0.46070000  0.44150000  0.96850000  1.0 0.1194774879
H  H72  1  0.44150000  0.96850000  0.46070000  1.0 0.1194774879
C  C1  1  0.71025000  0.97980000  0.71025000  1.0 0.4464082655
C  C2  1  0.97980000  0.71025000  0.71025000  1.0 0.4464082655
C  C3  1  0.71025000  0.71025000  0.97980000  1.0 0.4464082655
C  C4  1  0.20785000  0.20785000  0.48350000  1.0 0.560322338
C  C5  1  0.20785000  0.48350000  0.20785000  1.0 0.560322338
C  C6  1  0.48350000  0.20785000  0.20785000  1.0 0.560322338
C  C7  1  0.05720000  0.19070000  0.56760000  1.0 -0.1323929157
C  C8  1  0.19070000  0.56760000  0.05720000  1.0 -0.1323929157
C  C9  1  0.56760000  0.05720000  0.19070000  1.0 -0.1323929157
C  C10  1  0.05720000  0.56760000  0.19070000  1.0 -0.1323929157
C  C11  1  0.19070000  0.05720000  0.56760000  1.0 -0.1323929157
C  C12  1  0.56760000  0.19070000  0.05720000  1.0 -0.1323929157
C  C13  1  0.00620000  0.13380000  0.62480000  1.0 -0.1060295373
C  C14  1  0.13380000  0.62480000  0.00620000  1.0 -0.1060295373
C  C15  1  0.62480000  0.00620000  0.13380000  1.0 -0.1060295373
C  C16  1  0.00620000  0.62480000  0.13380000  1.0 -0.1060295373
C  C17  1  0.13380000  0.00620000  0.62480000  1.0 -0.1060295373
C  C18  1  0.62480000  0.13380000  0.00620000  1.0 -0.1060295373
C  C19  1  0.15095000  0.15095000  0.54090000  1.0 -0.0181371012
C  C20  1  0.15095000  0.54090000  0.15095000  1.0 -0.0181371012
C  C21  1  0.54090000  0.15095000  0.15095000  1.0 -0.0181371012
C  C22  1  0.19680000  0.50280000  0.46720000  1.0 0.2532502648
C  C23  1  0.50280000  0.46720000  0.19680000  1.0 0.2532502648
C  C24  1  0.46720000  0.19680000  0.50280000  1.0 0.2532502648
C  C25  1  0.19680000  0.46720000  0.50280000  1.0 0.2532502648
C  C26  1  0.50280000  0.19680000  0.46720000  1.0 0.2532502648
C  C27  1  0.46720000  0.50280000  0.19680000  1.0 0.2532502648
C  C28  1  0.98455000  0.98455000  0.71230000  1.0 0.6019862231
C  C29  1  0.98455000  0.71230000  0.98455000  1.0 0.6019862231
C  C30  1  0.71230000  0.98455000  0.98455000  1.0 0.6019862231
C  C31  1  0.04345000  0.04345000  0.65150000  1.0 -0.013936583
C  C32  1  0.04345000  0.65150000  0.04345000  1.0 -0.013936583
C  C33  1  0.65150000  0.04345000  0.04345000  1.0 -0.013936583
C  C34  1  0.13843000  0.55813000  0.53003000  1.0 0.050123037
C  C35  1  0.55813000  0.53003000  0.13843000  1.0 0.050123037
C  C36  1  0.53003000  0.13843000  0.55813000  1.0 0.050123037
C  C37  1  0.13843000  0.53003000  0.55813000  1.0 0.050123037
C  C38  1  0.55813000  0.13843000  0.53003000  1.0 0.050123037
C  C39  1  0.53003000  0.55813000  0.13843000  1.0 0.050123037
C  C40  1  0.17740000  0.60170000  0.53920000  1.0 -0.0910580966
C  C41  1  0.60170000  0.53920000  0.17740000  1.0 -0.0910580966
C  C42  1  0.53920000  0.17740000  0.60170000  1.0 -0.0910580966
C  C43  1  0.17740000  0.53920000  0.60170000  1.0 -0.0910580966
C  C44  1  0.60170000  0.17740000  0.53920000  1.0 -0.0910580966
C  C45  1  0.53920000  0.60170000  0.17740000  1.0 -0.0910580966
C  C46  1  0.12669000  0.65349000  0.59509000  1.0 -0.0428070482
C  C47  1  0.65349000  0.59509000  0.12669000  1.0 -0.0428070482
C  C48  1  0.59509000  0.12669000  0.65349000  1.0 -0.0428070482
C  C49  1  0.12669000  0.59509000  0.65349000  1.0 -0.0428070482
C  C50  1  0.65349000  0.12669000  0.59509000  1.0 -0.0428070482
C  C51  1  0.59509000  0.65349000  0.12669000  1.0 -0.0428070482
C  C52  1  0.64187000  0.03707000  0.66157000  1.0 0.0319647173
C  C53  1  0.03707000  0.66157000  0.64187000  1.0 0.0319647173
C  C54  1  0.66157000  0.64187000  0.03707000  1.0 0.0319647173
C  C55  1  0.64187000  0.66157000  0.03707000  1.0 0.0319647173
C  C56  1  0.03707000  0.64187000  0.66157000  1.0 0.0319647173
C  C57  1  0.66157000  0.03707000  0.64187000  1.0 0.0319647173
C  C58  1  0.63230000  0.99860000  0.61790000  1.0 -0.1225821676
C  C59  1  0.99860000  0.61790000  0.63230000  1.0 -0.1225821676
C  C60  1  0.61790000  0.63230000  0.99860000  1.0 -0.1225821676
C  C61  1  0.63230000  0.61790000  0.99860000  1.0 -0.1225821676
C  C62  1  0.99860000  0.63230000  0.61790000  1.0 -0.1225821676
C  C63  1  0.61790000  0.99860000  0.63230000  1.0 -0.1225821676
C  C64  1  0.05609000  0.56619000  0.56939000  1.0 -0.1381213182
C  C65  1  0.56619000  0.56939000  0.05609000  1.0 -0.1381213182
C  C66  1  0.56939000  0.05609000  0.56619000  1.0 -0.1381213182
C  C67  1  0.05609000  0.56939000  0.56619000  1.0 -0.1381213182
C  C68  1  0.56619000  0.05609000  0.56939000  1.0 -0.1381213182
C  C69  1  0.56939000  0.56619000  0.05609000  1.0 -0.1381213182
C  C70  1  0.28975000  0.28975000  0.02020000  1.0 0.4464082655
C  C71  1  0.02020000  0.28975000  0.28975000  1.0 0.4464082655
C  C72  1  0.28975000  0.02020000  0.28975000  1.0 0.4464082655
C  C73  1  0.79215000  0.51650000  0.79215000  1.0 0.560322338
C  C74  1  0.79215000  0.79215000  0.51650000  1.0 0.560322338
C  C75  1  0.51650000  0.79215000  0.79215000  1.0 0.560322338
C  C76  1  0.94280000  0.43240000  0.80930000  1.0 -0.1323929157
C  C77  1  0.80930000  0.94280000  0.43240000  1.0 -0.1323929157
C  C78  1  0.43240000  0.80930000  0.94280000  1.0 -0.1323929157
C  C79  1  0.94280000  0.80930000  0.43240000  1.0 -0.1323929157
C  C80  1  0.80930000  0.43240000  0.94280000  1.0 -0.1323929157
C  C81  1  0.43240000  0.94280000  0.80930000  1.0 -0.1323929157
C  C82  1  0.99380000  0.37520000  0.86620000  1.0 -0.1060295373
C  C83  1  0.86620000  0.99380000  0.37520000  1.0 -0.1060295373
C  C84  1  0.37520000  0.86620000  0.99380000  1.0 -0.1060295373
C  C85  1  0.99380000  0.86620000  0.37520000  1.0 -0.1060295373
C  C86  1  0.86620000  0.37520000  0.99380000  1.0 -0.1060295373
C  C87  1  0.37520000  0.99380000  0.86620000  1.0 -0.1060295373
C  C88  1  0.84905000  0.45910000  0.84905000  1.0 -0.0181371012
C  C89  1  0.84905000  0.84905000  0.45910000  1.0 -0.0181371012
C  C90  1  0.45910000  0.84905000  0.84905000  1.0 -0.0181371012
C  C91  1  0.80320000  0.53280000  0.49720000  1.0 0.2532502648
C  C92  1  0.49720000  0.80320000  0.53280000  1.0 0.2532502648
C  C93  1  0.53280000  0.49720000  0.80320000  1.0 0.2532502648
C  C94  1  0.80320000  0.49720000  0.53280000  1.0 0.2532502648
C  C95  1  0.49720000  0.53280000  0.80320000  1.0 0.2532502648
C  C96  1  0.53280000  0.80320000  0.49720000  1.0 0.2532502648
C  C97  1  0.01545000  0.28770000  0.01545000  1.0 0.6019862231
C  C98  1  0.01545000  0.01545000  0.28770000  1.0 0.6019862231
C  C99  1  0.28770000  0.01545000  0.01545000  1.0 0.6019862231
C  C100  1  0.95655000  0.34850000  0.95655000  1.0 -0.013936583
C  C101  1  0.95655000  0.95655000  0.34850000  1.0 -0.013936583
C  C102  1  0.34850000  0.95655000  0.95655000  1.0 -0.013936583
C  C103  1  0.86157000  0.46997000  0.44187000  1.0 0.050123037
C  C104  1  0.44187000  0.86157000  0.46997000  1.0 0.050123037
C  C105  1  0.46997000  0.44187000  0.86157000  1.0 0.050123037
C  C106  1  0.86157000  0.44187000  0.46997000  1.0 0.050123037
C  C107  1  0.44187000  0.46997000  0.86157000  1.0 0.050123037
C  C108  1  0.46997000  0.86157000  0.44187000  1.0 0.050123037
C  C109  1  0.82260000  0.46080000  0.39830000  1.0 -0.0910580966
C  C110  1  0.39830000  0.82260000  0.46080000  1.0 -0.0910580966
C  C111  1  0.46080000  0.39830000  0.82260000  1.0 -0.0910580966
C  C112  1  0.82260000  0.39830000  0.46080000  1.0 -0.0910580966
C  C113  1  0.39830000  0.46080000  0.82260000  1.0 -0.0910580966
C  C114  1  0.46080000  0.82260000  0.39830000  1.0 -0.0910580966
C  C115  1  0.87331000  0.40491000  0.34651000  1.0 -0.0428070482
C  C116  1  0.34651000  0.87331000  0.40491000  1.0 -0.0428070482
C  C117  1  0.40491000  0.34651000  0.87331000  1.0 -0.0428070482
C  C118  1  0.87331000  0.34651000  0.40491000  1.0 -0.0428070482
C  C119  1  0.34651000  0.40491000  0.87331000  1.0 -0.0428070482
C  C120  1  0.40491000  0.87331000  0.34651000  1.0 -0.0428070482
C  C121  1  0.35813000  0.33843000  0.96293000  1.0 0.0319647173
C  C122  1  0.96293000  0.35813000  0.33843000  1.0 0.0319647173
C  C123  1  0.33843000  0.96293000  0.35813000  1.0 0.0319647173
C  C124  1  0.35813000  0.96293000  0.33843000  1.0 0.0319647173
C  C125  1  0.96293000  0.33843000  0.35813000  1.0 0.0319647173
C  C126  1  0.33843000  0.35813000  0.96293000  1.0 0.0319647173
C  C127  1  0.36770000  0.38210000  0.00140000  1.0 -0.1225821676
C  C128  1  0.00140000  0.36770000  0.38210000  1.0 -0.1225821676
C  C129  1  0.38210000  0.00140000  0.36770000  1.0 -0.1225821676
C  C130  1  0.36770000  0.00140000  0.38210000  1.0 -0.1225821676
C  C131  1  0.00140000  0.38210000  0.36770000  1.0 -0.1225821676
C  C132  1  0.38210000  0.36770000  0.00140000  1.0 -0.1225821676
C  C133  1  0.94391000  0.43061000  0.43381000  1.0 -0.1381213182
C  C134  1  0.43381000  0.94391000  0.43061000  1.0 -0.1381213182
C  C135  1  0.43061000  0.43381000  0.94391000  1.0 -0.1381213182
C  C136  1  0.94391000  0.43381000  0.43061000  1.0 -0.1381213182
C  C137  1  0.43381000  0.43061000  0.94391000  1.0 -0.1381213182
C  C138  1  0.43061000  0.94391000  0.43381000  1.0 -0.1381213182
O  O1  1  0.34823000  0.34823000  0.34823000  1.0 -0.8881627385
O  O2  1  0.84800000  0.84800000  0.84800000  1.0 -1.0265057151
O  O3  1  0.73078000  0.89833000  0.73078000  1.0 -0.4932239466
O  O4  1  0.89833000  0.73078000  0.73078000  1.0 -0.4932239466
O  O5  1  0.73078000  0.73078000  0.89833000  1.0 -0.4932239466
O  O6  1  0.17033000  0.29053000  0.45943000  1.0 -0.5311230286
O  O7  1  0.29053000  0.45943000  0.17033000  1.0 -0.5311230286
O  O8  1  0.45943000  0.17033000  0.29053000  1.0 -0.5311230286
O  O9  1  0.17033000  0.45943000  0.29053000  1.0 -0.5311230286
O  O10  1  0.29053000  0.17033000  0.45943000  1.0 -0.5311230286
O  O11  1  0.45943000  0.29053000  0.17033000  1.0 -0.5311230286
O  O12  1  0.89910000  0.02600000  0.73140000  1.0 -0.581548722
O  O13  1  0.02600000  0.73140000  0.89910000  1.0 -0.581548722
O  O14  1  0.73140000  0.89910000  0.02600000  1.0 -0.581548722
O  O15  1  0.89910000  0.73140000  0.02600000  1.0 -0.581548722
O  O16  1  0.02600000  0.89910000  0.73140000  1.0 -0.581548722
O  O17  1  0.73140000  0.02600000  0.89910000  1.0 -0.581548722
O  O18  1  0.73193000  0.02038000  0.73193000  1.0 -0.4932239466
O  O19  1  0.02038000  0.73193000  0.73193000  1.0 -0.4932239466
O  O20  1  0.73193000  0.73193000  0.02038000  1.0 -0.4932239466
O  O21  1  0.15665000  0.46405000  0.46405000  1.0 -0.3779960288
O  O22  1  0.46405000  0.46405000  0.15665000  1.0 -0.3779960288
O  O23  1  0.46405000  0.15665000  0.46405000  1.0 -0.3779960288
O  O24  1  0.27500000  0.49210000  0.43300000  1.0 -0.1452410085
O  O25  1  0.49210000  0.43300000  0.27500000  1.0 -0.1452410085
O  O26  1  0.43300000  0.27500000  0.49210000  1.0 -0.1452410085
O  O27  1  0.27500000  0.43300000  0.49210000  1.0 -0.1452410085
O  O28  1  0.49210000  0.27500000  0.43300000  1.0 -0.1452410085
O  O29  1  0.43300000  0.49210000  0.27500000  1.0 -0.1452410085
O  O30  1  0.65177000  0.65177000  0.65177000  1.0 -0.8881627385
O  O31  1  0.15200000  0.15200000  0.15200000  1.0 -1.0265057151
O  O32  1  0.26922000  0.26922000  0.10167000  1.0 -0.4932239466
O  O33  1  0.10167000  0.26922000  0.26922000  1.0 -0.4932239466
O  O34  1  0.26922000  0.10167000  0.26922000  1.0 -0.4932239466
O  O35  1  0.82967000  0.54057000  0.70947000  1.0 -0.5311230286
O  O36  1  0.70947000  0.82967000  0.54057000  1.0 -0.5311230286
O  O37  1  0.54057000  0.70947000  0.82967000  1.0 -0.5311230286
O  O38  1  0.82967000  0.70947000  0.54057000  1.0 -0.5311230286
O  O39  1  0.70947000  0.54057000  0.82967000  1.0 -0.5311230286
O  O40  1  0.54057000  0.82967000  0.70947000  1.0 -0.5311230286
O  O41  1  0.10090000  0.26860000  0.97400000  1.0 -0.581548722
O  O42  1  0.97400000  0.10090000  0.26860000  1.0 -0.581548722
O  O43  1  0.26860000  0.97400000  0.10090000  1.0 -0.581548722
O  O44  1  0.10090000  0.97400000  0.26860000  1.0 -0.581548722
O  O45  1  0.97400000  0.26860000  0.10090000  1.0 -0.581548722
O  O46  1  0.26860000  0.10090000  0.97400000  1.0 -0.581548722
O  O47  1  0.26807000  0.26807000  0.97962000  1.0 -0.4932239466
O  O48  1  0.97962000  0.26807000  0.26807000  1.0 -0.4932239466
O  O49  1  0.26807000  0.97962000  0.26807000  1.0 -0.4932239466
O  O50  1  0.84335000  0.53595000  0.53595000  1.0 -0.3779960288
O  O51  1  0.53595000  0.84335000  0.53595000  1.0 -0.3779960288
O  O52  1  0.53595000  0.53595000  0.84335000  1.0 -0.3779960288
O  O53  1  0.72500000  0.56700000  0.50790000  1.0 -0.1452410085
O  O54  1  0.50790000  0.72500000  0.56700000  1.0 -0.1452410085
O  O55  1  0.56700000  0.50790000  0.72500000  1.0 -0.1452410085
O  O56  1  0.72500000  0.50790000  0.56700000  1.0 -0.1452410085
O  O57  1  0.50790000  0.56700000  0.72500000  1.0 -0.1452410085
O  O58  1  0.56700000  0.72500000  0.50790000  1.0 -0.1452410085
