# DDEC6 charges by PACMAN v1.1 (https://github.com/mtap-research/PACMAN-charge/)
data_FEDBUO_ASR_pacman
_symmetry_space_group_name_H-M   'P 1'
_cell_length_a   16.35560000
_cell_length_b   16.35560000
_cell_length_c   17.49820000
_cell_angle_alpha   71.52630000
_cell_angle_beta   108.47400000
_cell_angle_gamma   109.66200000
_symmetry_Int_Tables_number   1
_chemical_formula_structural   CoH16(C3N)6
_chemical_formula_sum   'Co4 H64 C72 N24'
_cell_volume   4063.30694016
_cell_formula_units_Z   4
loop_
 _symmetry_equiv_pos_site_id
 _symmetry_equiv_pos_as_xyz
  1  'x, y, z'
loop_
 _atom_site_type_symbol
 _atom_site_label
 _atom_site_symmetry_multiplicity
 _atom_site_fract_x
 _atom_site_fract_y
 _atom_site_fract_z
 _atom_site_occupancy
 _atom_site_charge
Co  Co1  1  0.02865000  0.02865000  0.75000000  1.0 0.1827673443
Co  Co2  1  0.97135000  0.97135000  0.25000000  1.0 0.1827673443
Co  Co3  1  0.00000000  0.50000000  0.50000000  1.0 0.2025912903
Co  Co4  1  0.50000000  0.00000000  0.00000000  1.0 0.2084779494
H  H1  1  0.86700000  0.16260000  0.45830000  1.0 0.1286281735
H  H2  1  0.66020000  0.23660000  0.28240000  1.0 0.1225702815
H  H3  1  0.70540000  0.00220000  0.30790000  1.0 0.1225702815
H  H4  1  0.92800000  0.31880000  0.43780000  1.0 0.1114541796
H  H5  1  0.77460000  0.46200000  0.42810000  1.0 0.1225702815
H  H6  1  0.67710000  0.33090000  0.37590000  1.0 0.1225702815
H  H7  1  0.64120000  0.03440000  0.16430000  1.0 0.1114541796
H  H8  1  0.41800000  0.10420000  0.09130000  1.0 0.1225702815
H  H9  1  0.50100000  0.15260000  0.21940000  1.0 0.1225702815
H  H10  1  0.91350000  0.04050000  0.40940000  1.0 0.1114541796
H  H11  1  0.82990000  0.95870000  0.40000000  1.0 0.1114541796
H  H12  1  0.97980000  0.07280000  0.55470000  1.0 0.0982645132
H  H13  1  0.85930000  0.85290000  0.68340000  1.0 0.0593208052
H  H14  1  0.79420000  0.85360000  0.53600000  1.0 0.0716630602
H  H15  1  0.74590000  0.89410000  0.54290000  1.0 0.0716630602
H  H16  1  0.81810000  0.91090000  0.68990000  1.0 0.0716630602
H  H17  1  0.16260000  0.86700000  0.04170000  1.0 0.1286281735
H  H18  1  0.23660000  0.66020000  0.21760000  1.0 0.1225702815
H  H19  1  0.00220000  0.70540000  0.19210000  1.0 0.1225702815
H  H20  1  0.31880000  0.92800000  0.06220000  1.0 0.1114541796
H  H21  1  0.46200000  0.77460000  0.07190000  1.0 0.1225702815
H  H22  1  0.33090000  0.67710000  0.12410000  1.0 0.1225702815
H  H23  1  0.03440000  0.64120000  0.33570000  1.0 0.1114541796
H  H24  1  0.10420000  0.41800000  0.40870000  1.0 0.1225702815
H  H25  1  0.15260000  0.50100000  0.28060000  1.0 0.1225702815
H  H26  1  0.04050000  0.91350000  0.09060000  1.0 0.1114541796
H  H27  1  0.95870000  0.82990000  0.10000000  1.0 0.1114541796
H  H28  1  0.07280000  0.97980000  0.94530000  1.0 0.0982645132
H  H29  1  0.85290000  0.85930000  0.81660000  1.0 0.0593208052
H  H30  1  0.85360000  0.79420000  0.96400000  1.0 0.0716630602
H  H31  1  0.89410000  0.74590000  0.95710000  1.0 0.0716630602
H  H32  1  0.91090000  0.81810000  0.81010000  1.0 0.0716630602
H  H33  1  0.13300000  0.83740000  0.54170000  1.0 0.1286281735
H  H34  1  0.33980000  0.76340000  0.71760000  1.0 0.1225702815
H  H35  1  0.29460000  0.99780000  0.69210000  1.0 0.1225702815
H  H36  1  0.07200000  0.68120000  0.56220000  1.0 0.1114541796
H  H37  1  0.22540000  0.53800000  0.57190000  1.0 0.1225702815
H  H38  1  0.32290000  0.66910000  0.62410000  1.0 0.1225702815
H  H39  1  0.35880000  0.96560000  0.83570000  1.0 0.1114541796
H  H40  1  0.58200000  0.89580000  0.90870000  1.0 0.1225702815
H  H41  1  0.49900000  0.84740000  0.78060000  1.0 0.1225702815
H  H42  1  0.08650000  0.95950000  0.59060000  1.0 0.1114541796
H  H43  1  0.17010000  0.04130000  0.60000000  1.0 0.1114541796
H  H44  1  0.02020000  0.92720000  0.44530000  1.0 0.0982645132
H  H45  1  0.14070000  0.14710000  0.31660000  1.0 0.0593208052
H  H46  1  0.20580000  0.14640000  0.46400000  1.0 0.0716630602
H  H47  1  0.25410000  0.10590000  0.45710000  1.0 0.0716630602
H  H48  1  0.18190000  0.08910000  0.31010000  1.0 0.0716630602
H  H49  1  0.83740000  0.13300000  0.95830000  1.0 0.1286281735
H  H50  1  0.76340000  0.33980000  0.78240000  1.0 0.1225702815
H  H51  1  0.99780000  0.29460000  0.80790000  1.0 0.1225702815
H  H52  1  0.68120000  0.07200000  0.93780000  1.0 0.1114541796
H  H53  1  0.53800000  0.22540000  0.92810000  1.0 0.1225702815
H  H54  1  0.66910000  0.32290000  0.87590000  1.0 0.1225702815
H  H55  1  0.96560000  0.35880000  0.66430000  1.0 0.1114541796
H  H56  1  0.89580000  0.58200000  0.59130000  1.0 0.1225702815
H  H57  1  0.84740000  0.49900000  0.71940000  1.0 0.1225702815
H  H58  1  0.95950000  0.08650000  0.90940000  1.0 0.1114541796
H  H59  1  0.04130000  0.17010000  0.90000000  1.0 0.1114541796
H  H60  1  0.92720000  0.02020000  0.05470000  1.0 0.0982645132
H  H61  1  0.14710000  0.14070000  0.18340000  1.0 0.0593208052
H  H62  1  0.14640000  0.20580000  0.03600000  1.0 0.0716630602
H  H63  1  0.10590000  0.25410000  0.04290000  1.0 0.0716630602
H  H64  1  0.08910000  0.18190000  0.18990000  1.0 0.0716630602
C  C1  1  0.81827000  0.15099000  0.41430000  1.0 -0.2678156492
C  C2  1  0.76756000  0.21122000  0.37457000  1.0 0.1694668435
C  C3  1  0.69353000  0.19505000  0.30957000  1.0 -0.2678156492
C  C4  1  0.67097000  0.11557000  0.28653000  1.0 0.1569830753
C  C5  1  0.72149000  0.05517000  0.32476000  1.0 -0.2584940739
C  C6  1  0.79629000  0.07271000  0.38825000  1.0 0.1286281735
C  C7  1  0.87792000  0.33848000  0.42899000  1.0 0.0503329254
C  C8  1  0.79343000  0.41647000  0.42345000  1.0 -0.0367768213
C  C9  1  0.73888000  0.34416000  0.39449000  1.0 -0.1417359658
C  C10  1  0.59575000  0.05815000  0.16138000  1.0 0.0503329254
C  C11  1  0.47392000  0.09640000  0.12189000  1.0 -0.0484221588
C  C12  1  0.51923000  0.12323000  0.19271000  1.0 -0.1274034292
C  C13  1  0.85665000  0.01015000  0.42431000  1.0 -0.2320231743
C  C14  1  0.93741000  0.02005000  0.56989000  1.0 -0.1104051791
C  C15  1  0.87400000  0.90020000  0.63920000  1.0 -0.0192139213
C  C16  1  0.83660000  0.90020000  0.55740000  1.0 -0.0484221588
C  C17  1  0.80390000  0.92570000  0.56310000  1.0 -0.0121889498
C  C18  1  0.84500000  0.93260000  0.64530000  1.0 -0.0484221588
C  C19  1  0.15099000  0.81827000  0.08570000  1.0 -0.2678156492
C  C20  1  0.21122000  0.76756000  0.12543000  1.0 0.1694668435
C  C21  1  0.19505000  0.69353000  0.19043000  1.0 -0.275085295
C  C22  1  0.11557000  0.67097000  0.21347000  1.0 0.1569830753
C  C23  1  0.05517000  0.72149000  0.17524000  1.0 -0.2584940739
C  C24  1  0.07271000  0.79629000  0.11175000  1.0 0.1286281735
C  C25  1  0.33848000  0.87792000  0.07101000  1.0 0.0503329254
C  C26  1  0.41647000  0.79343000  0.07655000  1.0 -0.0367768213
C  C27  1  0.34416000  0.73888000  0.10551000  1.0 -0.1417359658
C  C28  1  0.05815000  0.59575000  0.33862000  1.0 0.0503329254
C  C29  1  0.09640000  0.47392000  0.37811000  1.0 -0.0484221588
C  C30  1  0.12323000  0.51923000  0.30729000  1.0 -0.1274034292
C  C31  1  0.01015000  0.85665000  0.07569000  1.0 -0.2320231743
C  C32  1  0.02005000  0.93741000  0.93011000  1.0 -0.1104051791
C  C33  1  0.90020000  0.87400000  0.86080000  1.0 -0.0192139213
C  C34  1  0.90020000  0.83660000  0.94260000  1.0 -0.0484221588
C  C35  1  0.92570000  0.80390000  0.93690000  1.0 -0.0121889498
C  C36  1  0.93260000  0.84500000  0.85470000  1.0 -0.0484221588
C  C37  1  0.18173000  0.84901000  0.58570000  1.0 -0.2678156492
C  C38  1  0.23244000  0.78878000  0.62543000  1.0 0.1694668435
C  C39  1  0.30647000  0.80495000  0.69043000  1.0 -0.275085295
C  C40  1  0.32903000  0.88443000  0.71347000  1.0 0.1569830753
C  C41  1  0.27851000  0.94483000  0.67524000  1.0 -0.2584940739
C  C42  1  0.20371000  0.92729000  0.61175000  1.0 0.1286281735
C  C43  1  0.12208000  0.66152000  0.57101000  1.0 0.0503329254
C  C44  1  0.20657000  0.58353000  0.57655000  1.0 -0.0367768213
C  C45  1  0.26112000  0.65584000  0.60551000  1.0 -0.1417359658
C  C46  1  0.40425000  0.94185000  0.83862000  1.0 0.0503329254
C  C47  1  0.52608000  0.90360000  0.87811000  1.0 -0.0484221588
C  C48  1  0.48077000  0.87677000  0.80729000  1.0 -0.1274034292
C  C49  1  0.14335000  0.98985000  0.57569000  1.0 -0.2320231743
C  C50  1  0.06259000  0.97995000  0.43011000  1.0 -0.1104051791
C  C51  1  0.12600000  0.09980000  0.36080000  1.0 -0.0192139213
C  C52  1  0.16340000  0.09980000  0.44260000  1.0 -0.0484221588
C  C53  1  0.19610000  0.07430000  0.43690000  1.0 -0.0192139213
C  C54  1  0.15500000  0.06740000  0.35470000  1.0 -0.0484221588
C  C55  1  0.84901000  0.18173000  0.91430000  1.0 -0.2678156492
C  C56  1  0.78878000  0.23244000  0.87457000  1.0 0.1694668435
C  C57  1  0.80495000  0.30647000  0.80957000  1.0 -0.275085295
C  C58  1  0.88443000  0.32903000  0.78653000  1.0 0.1569830753
C  C59  1  0.94483000  0.27851000  0.82476000  1.0 -0.2584940739
C  C60  1  0.92729000  0.20371000  0.88825000  1.0 0.1286281735
C  C61  1  0.66152000  0.12208000  0.92899000  1.0 0.0503329254
C  C62  1  0.58353000  0.20657000  0.92345000  1.0 -0.0367768213
C  C63  1  0.65584000  0.26112000  0.89449000  1.0 -0.1417359658
C  C64  1  0.94185000  0.40425000  0.66138000  1.0 0.0503329254
C  C65  1  0.90360000  0.52608000  0.62189000  1.0 -0.0484221588
C  C66  1  0.87677000  0.48077000  0.69271000  1.0 -0.1274034292
C  C67  1  0.98985000  0.14335000  0.92431000  1.0 -0.2320231743
C  C68  1  0.97995000  0.06259000  0.06989000  1.0 -0.1104051791
C  C69  1  0.09980000  0.12600000  0.13920000  1.0 -0.0192139213
C  C70  1  0.09980000  0.16340000  0.05740000  1.0 -0.0484221588
C  C71  1  0.07430000  0.19610000  0.06310000  1.0 -0.0192139213
C  C72  1  0.06740000  0.15500000  0.14530000  1.0 -0.0484221588
N  N1  1  0.88060000  0.41258000  0.44486000  1.0 -0.2678156492
N  N2  1  0.79363000  0.29443000  0.39827000  1.0 0.0037600311
N  N3  1  0.52276000  0.05568000  0.10172000  1.0 -0.2678156492
N  N4  1  0.59735000  0.09865000  0.21745000  1.0 0.0037600311
N  N5  1  0.93588000  0.97924000  0.64675000  1.0 -0.244392617
N  N6  1  0.87257000  0.97929000  0.51512000  1.0 -0.0331524409
N  N7  1  0.41258000  0.88060000  0.05514000  1.0 -0.2678156492
N  N8  1  0.29443000  0.79363000  0.10173000  1.0 0.0037600311
N  N9  1  0.05568000  0.52276000  0.39828000  1.0 -0.2584940739
N  N10  1  0.09865000  0.59735000  0.28255000  1.0 0.0037600311
N  N11  1  0.97924000  0.93588000  0.85325000  1.0 -0.244392617
N  N12  1  0.97929000  0.87257000  0.98488000  1.0 -0.0367768213
N  N13  1  0.11940000  0.58742000  0.55514000  1.0 -0.2678156492
N  N14  1  0.20637000  0.70557000  0.60173000  1.0 0.0037600311
N  N15  1  0.47724000  0.94432000  0.89828000  1.0 -0.2678156492
N  N16  1  0.40265000  0.90135000  0.78255000  1.0 0.0037600311
N  N17  1  0.06412000  0.02076000  0.35325000  1.0 -0.244392617
N  N18  1  0.12743000  0.02071000  0.48488000  1.0 -0.0331524409
N  N19  1  0.58742000  0.11940000  0.94486000  1.0 -0.2678156492
N  N20  1  0.70557000  0.20637000  0.89827000  1.0 0.0037600311
N  N21  1  0.94432000  0.47724000  0.60172000  1.0 -0.2678156492
N  N22  1  0.90135000  0.40265000  0.71745000  1.0 0.0037600311
N  N23  1  0.02076000  0.06412000  0.14675000  1.0 -0.244392617
N  N24  1  0.02071000  0.12743000  0.01512000  1.0 -0.0331524409
