# DDEC6 charges by PACMAN v1.1 (https://github.com/mtap-research/PACMAN-charge/)
data_FEDJUU_ion_pacman
_symmetry_space_group_name_H-M   'P 1'
_cell_length_a   13.10640000
_cell_length_b   13.10640000
_cell_length_c   11.26900000
_cell_angle_alpha   90.00000000
_cell_angle_beta   90.00000000
_cell_angle_gamma   90.00000000
_symmetry_Int_Tables_number   1
_chemical_formula_structural   ZnH32C32N4(ClO8)2
_chemical_formula_sum   'Zn2 H64 C64 N8 Cl4 O32'
_cell_volume   1935.76313750
_cell_formula_units_Z   2
loop_
 _symmetry_equiv_pos_site_id
 _symmetry_equiv_pos_as_xyz
  1  'x, y, z'
loop_
 _atom_site_type_symbol
 _atom_site_label
 _atom_site_symmetry_multiplicity
 _atom_site_fract_x
 _atom_site_fract_y
 _atom_site_fract_z
 _atom_site_occupancy
 _atom_site_charge
Zn  Zn1  1  0.50000000  0.00000000  0.00000000  1.0 0.9192336564
Zn  Zn2  1  0.00000000  0.50000000  0.50000000  1.0 0.9192336564
H  H1  1  0.44400000  0.23180000  0.73570000  1.0 0.1407896027
H  H2  1  0.55600000  0.76820000  0.73570000  1.0 0.1407896027
H  H3  1  0.23180000  0.55600000  0.23570000  1.0 0.1451158439
H  H4  1  0.76820000  0.44400000  0.23570000  1.0 0.1407896027
H  H5  1  0.44400000  0.76820000  0.26430000  1.0 0.1407896027
H  H6  1  0.55600000  0.23180000  0.26430000  1.0 0.1407896027
H  H7  1  0.23180000  0.44400000  0.76430000  1.0 0.1407896027
H  H8  1  0.76820000  0.55600000  0.76430000  1.0 0.1407896027
H  H9  1  0.39970000  0.32820000  0.57120000  1.0 0.123003221
H  H10  1  0.60030000  0.67180000  0.57120000  1.0 0.123003221
H  H11  1  0.32820000  0.60030000  0.07120000  1.0 0.123003221
H  H12  1  0.67180000  0.39970000  0.07120000  1.0 0.123003221
H  H13  1  0.39970000  0.67180000  0.42880000  1.0 0.123003221
H  H14  1  0.60030000  0.32820000  0.42880000  1.0 0.123003221
H  H15  1  0.32820000  0.39970000  0.92880000  1.0 0.123003221
H  H16  1  0.67180000  0.60030000  0.92880000  1.0 0.123003221
H  H17  1  0.17630000  0.13890000  0.50270000  1.0 0.1294301558
H  H18  1  0.82370000  0.86110000  0.50270000  1.0 0.1294301558
H  H19  1  0.13890000  0.82370000  0.00270000  1.0 0.1294301558
H  H20  1  0.86110000  0.17630000  0.00270000  1.0 0.1294301558
H  H21  1  0.17630000  0.86110000  0.49730000  1.0 0.1294301558
H  H22  1  0.82370000  0.13890000  0.49730000  1.0 0.1294301558
H  H23  1  0.13890000  0.17630000  0.99730000  1.0 0.1294301558
H  H24  1  0.86110000  0.82370000  0.99730000  1.0 0.1294301558
H  H25  1  0.21330000  0.04530000  0.66820000  1.0 0.1407896027
H  H26  1  0.78670000  0.95470000  0.66820000  1.0 0.1407896027
H  H27  1  0.04530000  0.78670000  0.16820000  1.0 0.1407896027
H  H28  1  0.95470000  0.21330000  0.16820000  1.0 0.1407896027
H  H29  1  0.21330000  0.95470000  0.33180000  1.0 0.1407896027
H  H30  1  0.78670000  0.04530000  0.33180000  1.0 0.1407896027
H  H31  1  0.04530000  0.21330000  0.83180000  1.0 0.1407896027
H  H32  1  0.95470000  0.78670000  0.83180000  1.0 0.1407896027
H  H33  1  0.18060000  0.30490000  0.40970000  1.0 0.1294301558
H  H34  1  0.81940000  0.69510000  0.40970000  1.0 0.1294301558
H  H35  1  0.30490000  0.81940000  0.90970000  1.0 0.1294301558
H  H36  1  0.69510000  0.18060000  0.90970000  1.0 0.1294301558
H  H37  1  0.18060000  0.69510000  0.59030000  1.0 0.1294301558
H  H38  1  0.81940000  0.30490000  0.59030000  1.0 0.1294301558
H  H39  1  0.30490000  0.18060000  0.09030000  1.0 0.1294301558
H  H40  1  0.69510000  0.81940000  0.09030000  1.0 0.1294301558
H  H41  1  0.28010000  0.37070000  0.42240000  1.0 0.1294301558
H  H42  1  0.71990000  0.62930000  0.42240000  1.0 0.1294301558
H  H43  1  0.37070000  0.71990000  0.92240000  1.0 0.1294301558
H  H44  1  0.62930000  0.28010000  0.92240000  1.0 0.1294301558
H  H45  1  0.28010000  0.62930000  0.57760000  1.0 0.1294301558
H  H46  1  0.71990000  0.37070000  0.57760000  1.0 0.1294301558
H  H47  1  0.37070000  0.28010000  0.07760000  1.0 0.1294301558
H  H48  1  0.62930000  0.71990000  0.07760000  1.0 0.1294301558
H  H49  1  0.28350000  0.17920000  0.30740000  1.0 0.1107812638
H  H50  1  0.71650000  0.82080000  0.30740000  1.0 0.1107812638
H  H51  1  0.17920000  0.71650000  0.80740000  1.0 0.1107812638
H  H52  1  0.82080000  0.28350000  0.80740000  1.0 0.1107812638
H  H53  1  0.28350000  0.82080000  0.69260000  1.0 0.1107812638
H  H54  1  0.71650000  0.17920000  0.69260000  1.0 0.1107812638
H  H55  1  0.17920000  0.28350000  0.19260000  1.0 0.1107812638
H  H56  1  0.82080000  0.71650000  0.19260000  1.0 0.1107812638
H  H57  1  0.37100000  0.26090000  0.30410000  1.0 0.1107812638
H  H58  1  0.62900000  0.73910000  0.30410000  1.0 0.1107812638
H  H59  1  0.26090000  0.62900000  0.80410000  1.0 0.1107812638
H  H60  1  0.73910000  0.37100000  0.80410000  1.0 0.1107812638
H  H61  1  0.37100000  0.73910000  0.69590000  1.0 0.1107812638
H  H62  1  0.62900000  0.26090000  0.69590000  1.0 0.1107812638
H  H63  1  0.26090000  0.37100000  0.19590000  1.0 0.1107812638
H  H64  1  0.73910000  0.62900000  0.19590000  1.0 0.1107812638
C  C1  1  0.36000000  0.06530000  0.83000000  1.0 0.5531744724
C  C2  1  0.64000000  0.93470000  0.83000000  1.0 0.5531744724
C  C3  1  0.06530000  0.64000000  0.33000000  1.0 0.5531744724
C  C4  1  0.93470000  0.36000000  0.33000000  1.0 0.5531744724
C  C5  1  0.36000000  0.93470000  0.17000000  1.0 0.5531744724
C  C6  1  0.64000000  0.06530000  0.17000000  1.0 0.5531744724
C  C7  1  0.06530000  0.36000000  0.67000000  1.0 0.5531744724
C  C8  1  0.93470000  0.64000000  0.67000000  1.0 0.5531744724
C  C9  1  0.33320000  0.12930000  0.72040000  1.0 0.03827292
C  C10  1  0.66680000  0.87070000  0.72040000  1.0 0.03827292
C  C11  1  0.12930000  0.66680000  0.22040000  1.0 0.03827292
C  C12  1  0.87070000  0.33320000  0.22040000  1.0 0.03827292
C  C13  1  0.33320000  0.87070000  0.27960000  1.0 0.03827292
C  C14  1  0.66680000  0.12930000  0.27960000  1.0 0.03827292
C  C15  1  0.12930000  0.33320000  0.77960000  1.0 0.03827292
C  C16  1  0.87070000  0.66680000  0.77960000  1.0 0.03827292
C  C17  1  0.38810000  0.21280000  0.68990000  1.0 -0.1457641061
C  C18  1  0.61190000  0.78720000  0.68990000  1.0 -0.1457641061
C  C19  1  0.21280000  0.61190000  0.18990000  1.0 -0.1457641061
C  C20  1  0.78720000  0.38810000  0.18990000  1.0 -0.1457641061
C  C21  1  0.38810000  0.78720000  0.31010000  1.0 -0.1457641061
C  C22  1  0.61190000  0.21280000  0.31010000  1.0 -0.1457641061
C  C23  1  0.21280000  0.38810000  0.81010000  1.0 -0.1457641061
C  C24  1  0.78720000  0.61190000  0.81010000  1.0 -0.1457641061
C  C25  1  0.36190000  0.27060000  0.59090000  1.0 0.03827292
C  C26  1  0.63810000  0.72940000  0.59090000  1.0 0.03827292
C  C27  1  0.27060000  0.63810000  0.09090000  1.0 0.03827292
C  C28  1  0.72940000  0.36190000  0.09090000  1.0 0.03827292
C  C29  1  0.36190000  0.72940000  0.40910000  1.0 0.03827292
C  C30  1  0.63810000  0.27060000  0.40910000  1.0 0.03827292
C  C31  1  0.27060000  0.36190000  0.90910000  1.0 0.03827292
C  C32  1  0.72940000  0.63810000  0.90910000  1.0 0.03827292
C  C33  1  0.22980000  0.15910000  0.55160000  1.0 0.0324845378
C  C34  1  0.77020000  0.84090000  0.55160000  1.0 0.0324845378
C  C35  1  0.15910000  0.77020000  0.05160000  1.0 0.0324845378
C  C36  1  0.84090000  0.22980000  0.05160000  1.0 0.0324845378
C  C37  1  0.22980000  0.84090000  0.44840000  1.0 0.0324845378
C  C38  1  0.77020000  0.15910000  0.44840000  1.0 0.0324845378
C  C39  1  0.15910000  0.22980000  0.94840000  1.0 0.0324845378
C  C40  1  0.84090000  0.77020000  0.94840000  1.0 0.0324845378
C  C41  1  0.25250000  0.10230000  0.64950000  1.0 -0.1436980787
C  C42  1  0.74750000  0.89770000  0.64950000  1.0 -0.1436980787
C  C43  1  0.10230000  0.74750000  0.14950000  1.0 -0.1436980787
C  C44  1  0.89770000  0.25250000  0.14950000  1.0 -0.1436980787
C  C45  1  0.25250000  0.89770000  0.35050000  1.0 -0.1436980787
C  C46  1  0.74750000  0.10230000  0.35050000  1.0 -0.1436980787
C  C47  1  0.10230000  0.25250000  0.85050000  1.0 -0.1436980787
C  C48  1  0.89770000  0.74750000  0.85050000  1.0 -0.1436980787
C  C49  1  0.25430000  0.30150000  0.41600000  1.0 -0.1292031455
C  C50  1  0.74570000  0.69850000  0.41600000  1.0 -0.1292031455
C  C51  1  0.30150000  0.74570000  0.91600000  1.0 -0.1292031455
C  C52  1  0.69850000  0.25430000  0.91600000  1.0 -0.1292031455
C  C53  1  0.25430000  0.69850000  0.58400000  1.0 -0.1292031455
C  C54  1  0.74570000  0.30150000  0.58400000  1.0 -0.1292031455
C  C55  1  0.30150000  0.25430000  0.08400000  1.0 -0.1292031455
C  C56  1  0.69850000  0.74570000  0.08400000  1.0 -0.1292031455
C  C57  1  0.29760000  0.25180000  0.30550000  1.0 -0.1658304735
C  C58  1  0.70240000  0.74820000  0.30550000  1.0 -0.1658304735
C  C59  1  0.25180000  0.70240000  0.80550000  1.0 -0.1658304735
C  C60  1  0.74820000  0.29760000  0.80550000  1.0 -0.1658304735
C  C61  1  0.29760000  0.74820000  0.69450000  1.0 -0.1658304735
C  C62  1  0.70240000  0.25180000  0.69450000  1.0 -0.1658304735
C  C63  1  0.25180000  0.29760000  0.19450000  1.0 -0.1658304735
C  C64  1  0.74820000  0.70240000  0.19450000  1.0 -0.1658304735
N  N1  1  0.28270000  0.24310000  0.52440000  1.0 0.1107812638
N  N2  1  0.71730000  0.75690000  0.52440000  1.0 0.1107812638
N  N3  1  0.24310000  0.71730000  0.02440000  1.0 0.1107812638
N  N4  1  0.75690000  0.28270000  0.02440000  1.0 0.1107812638
N  N5  1  0.28270000  0.75690000  0.47560000  1.0 0.1107812638
N  N6  1  0.71730000  0.24310000  0.47560000  1.0 0.1107812638
N  N7  1  0.24310000  0.28270000  0.97560000  1.0 0.1107812638
N  N8  1  0.75690000  0.71730000  0.97560000  1.0 0.1107812638
Cl  Cl1  1  0.50000000  0.50000000  0.75000000  1.0 1.2484130626
Cl  Cl2  1  0.50000000  0.50000000  0.25000000  1.0 1.2484130626
Cl  Cl3  1  0.50000000  0.00000000  0.50000000  1.0 1.2400433783
Cl  Cl4  1  0.00000000  0.50000000  0.00000000  1.0 1.2400433783
O  O1  1  0.43660000  0.09560000  0.88700000  1.0 -0.5395449857
O  O2  1  0.56340000  0.90440000  0.88700000  1.0 -0.5395449857
O  O3  1  0.09560000  0.56340000  0.38700000  1.0 -0.5395449857
O  O4  1  0.90440000  0.43660000  0.38700000  1.0 -0.5395449857
O  O5  1  0.43660000  0.90440000  0.11300000  1.0 -0.5395449857
O  O6  1  0.56340000  0.09560000  0.11300000  1.0 -0.5395449857
O  O7  1  0.09560000  0.43660000  0.61300000  1.0 -0.5395449857
O  O8  1  0.90440000  0.56340000  0.61300000  1.0 -0.5395449857
O  O9  1  0.30460000  0.99190000  0.85400000  1.0 -0.5395449857
O  O10  1  0.69540000  0.00810000  0.85400000  1.0 -0.5395449857
O  O11  1  0.99190000  0.69540000  0.35400000  1.0 -0.5395449857
O  O12  1  0.00810000  0.30460000  0.35400000  1.0 -0.5395449857
O  O13  1  0.30460000  0.00810000  0.14600000  1.0 -0.5395449857
O  O14  1  0.69540000  0.99190000  0.14600000  1.0 -0.5395449857
O  O15  1  0.99190000  0.30460000  0.64600000  1.0 -0.5395449857
O  O16  1  0.00810000  0.69540000  0.64600000  1.0 -0.5395449857
O  O17  1  0.41140000  0.50210000  0.67890000  1.0 -0.4881495322
O  O18  1  0.58860000  0.49790000  0.67890000  1.0 -0.4881495322
O  O19  1  0.49790000  0.58860000  0.82110000  1.0 -0.4881495322
O  O20  1  0.50210000  0.41140000  0.82110000  1.0 -0.4881495322
O  O21  1  0.49790000  0.41140000  0.17890000  1.0 -0.4881495322
O  O22  1  0.50210000  0.58860000  0.17890000  1.0 -0.4881495322
O  O23  1  0.41140000  0.49790000  0.32110000  1.0 -0.4881495322
O  O24  1  0.58860000  0.50210000  0.32110000  1.0 -0.4881495322
O  O25  1  0.43730000  0.06340000  0.42770000  1.0 -0.4881495322
O  O26  1  0.56270000  0.93660000  0.42770000  1.0 -0.4881495322
O  O27  1  0.43730000  0.93660000  0.57230000  1.0 -0.4881495322
O  O28  1  0.56270000  0.06340000  0.57230000  1.0 -0.4881495322
O  O29  1  0.93660000  0.43730000  0.92770000  1.0 -0.4881495322
O  O30  1  0.06340000  0.56270000  0.92770000  1.0 -0.4881495322
O  O31  1  0.93660000  0.56270000  0.07230000  1.0 -0.4881495322
O  O32  1  0.06340000  0.43730000  0.07230000  1.0 -0.4881495322
