# DDEC6 charges by PACMAN v1.1 (https://github.com/mtap-research/PACMAN-charge/)
data_FEDKAB_ion_pacman
_symmetry_space_group_name_H-M   'P 1'
_cell_length_a   12.77320000
_cell_length_b   12.77320000
_cell_length_c   11.64500000
_cell_angle_alpha   90.00000000
_cell_angle_beta   90.00000000
_cell_angle_gamma   90.00000000
_symmetry_Int_Tables_number   1
_chemical_formula_structural   CdH32C32N4(ClO8)2
_chemical_formula_sum   'Cd2 H64 C64 N8 Cl4 O32'
_cell_volume   1899.93576230
_cell_formula_units_Z   2
loop_
 _symmetry_equiv_pos_site_id
 _symmetry_equiv_pos_as_xyz
  1  'x, y, z'
loop_
 _atom_site_type_symbol
 _atom_site_label
 _atom_site_symmetry_multiplicity
 _atom_site_fract_x
 _atom_site_fract_y
 _atom_site_fract_z
 _atom_site_occupancy
 _atom_site_charge
Cd  Cd1  1  0.50000000  0.50000000  0.50000000  1.0 0.9389157146
Cd  Cd2  1  0.00000000  0.00000000  0.00000000  1.0 0.9389157146
H  H1  1  0.57890000  0.25010000  0.20580000  1.0 0.1388855756
H  H2  1  0.42110000  0.74990000  0.20580000  1.0 0.1388855756
H  H3  1  0.74990000  0.57890000  0.79420000  1.0 0.1388855756
H  H4  1  0.25010000  0.42110000  0.79420000  1.0 0.1388855756
H  H5  1  0.92110000  0.75010000  0.70580000  1.0 0.1388855756
H  H6  1  0.07890000  0.24990000  0.70580000  1.0 0.1388855756
H  H7  1  0.75010000  0.07890000  0.29420000  1.0 0.1388855756
H  H8  1  0.24990000  0.92110000  0.29420000  1.0 0.1388855756
H  H9  1  0.65150000  0.17970000  0.04130000  1.0 0.1288210128
H  H10  1  0.34850000  0.82030000  0.04130000  1.0 0.1288210128
H  H11  1  0.82030000  0.65150000  0.95870000  1.0 0.1288210128
H  H12  1  0.17970000  0.34850000  0.95870000  1.0 0.1288210128
H  H13  1  0.84850000  0.67970000  0.54130000  1.0 0.1288210128
H  H14  1  0.15150000  0.32030000  0.54130000  1.0 0.1288210128
H  H15  1  0.67970000  0.15150000  0.45870000  1.0 0.1288210128
H  H16  1  0.32030000  0.84850000  0.45870000  1.0 0.1288210128
H  H17  1  0.84600000  0.41740000  0.01500000  1.0 0.1288210128
H  H18  1  0.15400000  0.58260000  0.01500000  1.0 0.1288210128
H  H19  1  0.58260000  0.84600000  0.98500000  1.0 0.1288210128
H  H20  1  0.41740000  0.15400000  0.98500000  1.0 0.1288210128
H  H21  1  0.65400000  0.91740000  0.51500000  1.0 0.1288210128
H  H22  1  0.34600000  0.08260000  0.51500000  1.0 0.1288210128
H  H23  1  0.91740000  0.34600000  0.48500000  1.0 0.1288210128
H  H24  1  0.08260000  0.65400000  0.48500000  1.0 0.1288210128
H  H25  1  0.78110000  0.48870000  0.18290000  1.0 0.1388855756
H  H26  1  0.21890000  0.51130000  0.18290000  1.0 0.1388855756
H  H27  1  0.51130000  0.78110000  0.81710000  1.0 0.1388855756
H  H28  1  0.48870000  0.21890000  0.81710000  1.0 0.1388855756
H  H29  1  0.71890000  0.98870000  0.68290000  1.0 0.1388855756
H  H30  1  0.28110000  0.01130000  0.68290000  1.0 0.1388855756
H  H31  1  0.98870000  0.28110000  0.31710000  1.0 0.1388855756
H  H32  1  0.01130000  0.71890000  0.31710000  1.0 0.1388855756
H  H33  1  0.87580000  0.26190000  0.90550000  1.0 0.1388855756
H  H34  1  0.12420000  0.73810000  0.90550000  1.0 0.1388855756
H  H35  1  0.73810000  0.87580000  0.09450000  1.0 0.1388855756
H  H36  1  0.26190000  0.12420000  0.09450000  1.0 0.1388855756
H  H37  1  0.62420000  0.76190000  0.40550000  1.0 0.1388855756
H  H38  1  0.37580000  0.23810000  0.40550000  1.0 0.1388855756
H  H39  1  0.76190000  0.37580000  0.59450000  1.0 0.1388855756
H  H40  1  0.23810000  0.62420000  0.59450000  1.0 0.1388855756
H  H41  1  0.79250000  0.17150000  0.90860000  1.0 0.1288210128
H  H42  1  0.20750000  0.82850000  0.90860000  1.0 0.1288210128
H  H43  1  0.82850000  0.79250000  0.09140000  1.0 0.1288210128
H  H44  1  0.17150000  0.20750000  0.09140000  1.0 0.1288210128
H  H45  1  0.70750000  0.67150000  0.40860000  1.0 0.1288210128
H  H46  1  0.29250000  0.32850000  0.40860000  1.0 0.1288210128
H  H47  1  0.67150000  0.29250000  0.59140000  1.0 0.1288210128
H  H48  1  0.32850000  0.70750000  0.59140000  1.0 0.1288210128
H  H49  1  0.67320000  0.27860000  0.80830000  1.0 0.110198684
H  H50  1  0.32680000  0.72140000  0.80830000  1.0 0.110198684
H  H51  1  0.72140000  0.67320000  0.19170000  1.0 0.110198684
H  H52  1  0.27860000  0.32680000  0.19170000  1.0 0.110198684
H  H53  1  0.82680000  0.77860000  0.30830000  1.0 0.110198684
H  H54  1  0.17320000  0.22140000  0.30830000  1.0 0.110198684
H  H55  1  0.77860000  0.17320000  0.69170000  1.0 0.110198684
H  H56  1  0.22140000  0.82680000  0.69170000  1.0 0.110198684
H  H57  1  0.75670000  0.36890000  0.80500000  1.0 0.110198684
H  H58  1  0.24330000  0.63110000  0.80500000  1.0 0.110198684
H  H59  1  0.63110000  0.75670000  0.19500000  1.0 0.110198684
H  H60  1  0.36890000  0.24330000  0.19500000  1.0 0.110198684
H  H61  1  0.74330000  0.86890000  0.30500000  1.0 0.110198684
H  H62  1  0.25670000  0.13110000  0.30500000  1.0 0.110198684
H  H63  1  0.86890000  0.25670000  0.69500000  1.0 0.110198684
H  H64  1  0.13110000  0.74330000  0.69500000  1.0 0.110198684
C  C1  1  0.63380000  0.42110000  0.32590000  1.0 0.5340820699
C  C2  1  0.36620000  0.57890000  0.32590000  1.0 0.5340820699
C  C3  1  0.57890000  0.63380000  0.67410000  1.0 0.5340820699
C  C4  1  0.42110000  0.36620000  0.67410000  1.0 0.5340820699
C  C5  1  0.86620000  0.92110000  0.82590000  1.0 0.5340820699
C  C6  1  0.13380000  0.07890000  0.82590000  1.0 0.5340820699
C  C7  1  0.92110000  0.13380000  0.17410000  1.0 0.5340820699
C  C8  1  0.07890000  0.86620000  0.17410000  1.0 0.5340820699
C  C9  1  0.67460000  0.37580000  0.21330000  1.0 0.0398074147
C  C10  1  0.32540000  0.62420000  0.21330000  1.0 0.0398074147
C  C11  1  0.62420000  0.67460000  0.78670000  1.0 0.0398074147
C  C12  1  0.37580000  0.32540000  0.78670000  1.0 0.0398074147
C  C13  1  0.82540000  0.87580000  0.71330000  1.0 0.0398074147
C  C14  1  0.17460000  0.12420000  0.71330000  1.0 0.0398074147
C  C15  1  0.87580000  0.17460000  0.28670000  1.0 0.0398074147
C  C16  1  0.12420000  0.82540000  0.28670000  1.0 0.0398074147
C  C17  1  0.63430000  0.28370000  0.16930000  1.0 -0.1384586543
C  C18  1  0.36570000  0.71630000  0.16930000  1.0 -0.1384586543
C  C19  1  0.71630000  0.63430000  0.83070000  1.0 -0.1384586543
C  C20  1  0.28370000  0.36570000  0.83070000  1.0 -0.1384586543
C  C21  1  0.86570000  0.78370000  0.66930000  1.0 -0.1384586543
C  C22  1  0.13430000  0.21630000  0.66930000  1.0 -0.1384586543
C  C23  1  0.78370000  0.13430000  0.33070000  1.0 -0.1384586543
C  C24  1  0.21630000  0.86570000  0.33070000  1.0 -0.1384586543
C  C25  1  0.67740000  0.24220000  0.07070000  1.0 0.0398074147
C  C26  1  0.32260000  0.75780000  0.07070000  1.0 0.0398074147
C  C27  1  0.75780000  0.67740000  0.92930000  1.0 0.0398074147
C  C28  1  0.24220000  0.32260000  0.92930000  1.0 0.0398074147
C  C29  1  0.82260000  0.74220000  0.57070000  1.0 0.0398074147
C  C30  1  0.17740000  0.25780000  0.57070000  1.0 0.0398074147
C  C31  1  0.74220000  0.17740000  0.42930000  1.0 0.0398074147
C  C32  1  0.25780000  0.82260000  0.42930000  1.0 0.0398074147
C  C33  1  0.79360000  0.38280000  0.05540000  1.0 0.0398074147
C  C34  1  0.20640000  0.61720000  0.05540000  1.0 0.0398074147
C  C35  1  0.61720000  0.79360000  0.94460000  1.0 0.0398074147
C  C36  1  0.38280000  0.20640000  0.94460000  1.0 0.0398074147
C  C37  1  0.70640000  0.88280000  0.55540000  1.0 0.0398074147
C  C38  1  0.29360000  0.11720000  0.55540000  1.0 0.0398074147
C  C39  1  0.88280000  0.29360000  0.44460000  1.0 0.0398074147
C  C40  1  0.11720000  0.70640000  0.44460000  1.0 0.0398074147
C  C41  1  0.75410000  0.42600000  0.15510000  1.0 -0.1495758035
C  C42  1  0.24590000  0.57400000  0.15510000  1.0 -0.1495758035
C  C43  1  0.57400000  0.75410000  0.84490000  1.0 -0.1495758035
C  C44  1  0.42600000  0.24590000  0.84490000  1.0 -0.1495758035
C  C45  1  0.74590000  0.92600000  0.65510000  1.0 -0.1495758035
C  C46  1  0.25410000  0.07400000  0.65510000  1.0 -0.1495758035
C  C47  1  0.92600000  0.25410000  0.34490000  1.0 -0.1495758035
C  C48  1  0.07400000  0.74590000  0.34490000  1.0 -0.1495758035
C  C49  1  0.80140000  0.24690000  0.90887000  1.0 -0.1303743199
C  C50  1  0.19860000  0.75310000  0.90887000  1.0 -0.1303743199
C  C51  1  0.75310000  0.80140000  0.09113000  1.0 -0.1303743199
C  C52  1  0.24690000  0.19860000  0.09113000  1.0 -0.1303743199
C  C53  1  0.69860000  0.74690000  0.40887000  1.0 -0.1303743199
C  C54  1  0.30140000  0.25310000  0.40887000  1.0 -0.1303743199
C  C55  1  0.74690000  0.30140000  0.59113000  1.0 -0.1303743199
C  C56  1  0.25310000  0.69860000  0.59113000  1.0 -0.1303743199
C  C57  1  0.74760000  0.29350000  0.80490000  1.0 -0.1668167711
C  C58  1  0.25240000  0.70650000  0.80490000  1.0 -0.1668167711
C  C59  1  0.70650000  0.74760000  0.19510000  1.0 -0.1668167711
C  C60  1  0.29350000  0.25240000  0.19510000  1.0 -0.1668167711
C  C61  1  0.75240000  0.79350000  0.30490000  1.0 -0.1668167711
C  C62  1  0.24760000  0.20650000  0.30490000  1.0 -0.1668167711
C  C63  1  0.79350000  0.24760000  0.69510000  1.0 -0.1668167711
C  C64  1  0.20650000  0.75240000  0.69510000  1.0 -0.1668167711
N  N1  1  0.75660000  0.29119000  0.01659000  1.0 0.1011027479
N  N2  1  0.24340000  0.70881000  0.01659000  1.0 0.1011027479
N  N3  1  0.70881000  0.75660000  0.98341000  1.0 0.1011027479
N  N4  1  0.29119000  0.24340000  0.98341000  1.0 0.1011027479
N  N5  1  0.74340000  0.79119000  0.51659000  1.0 0.1011027479
N  N6  1  0.25660000  0.20881000  0.51659000  1.0 0.1011027479
N  N7  1  0.79119000  0.25660000  0.48341000  1.0 0.1011027479
N  N8  1  0.20881000  0.74340000  0.48341000  1.0 0.1011027479
Cl  Cl1  1  0.00000000  0.50000000  0.75000000  1.0 1.2403675665
Cl  Cl2  1  0.50000000  0.00000000  0.25000000  1.0 1.2403675665
Cl  Cl3  1  0.00000000  0.00000000  0.50000000  1.0 1.2469309121
Cl  Cl4  1  0.50000000  0.50000000  0.00000000  1.0 1.2403675665
O  O1  1  0.54880000  0.38658000  0.36202000  1.0 -0.5155597553
O  O2  1  0.45120000  0.61342000  0.36202000  1.0 -0.5155597553
O  O3  1  0.61342000  0.54880000  0.63798000  1.0 -0.5155597553
O  O4  1  0.38658000  0.45120000  0.63798000  1.0 -0.5155597553
O  O5  1  0.95120000  0.88658000  0.86202000  1.0 -0.5155597553
O  O6  1  0.04880000  0.11342000  0.86202000  1.0 -0.5155597553
O  O7  1  0.88658000  0.04880000  0.13798000  1.0 -0.5155597553
O  O8  1  0.11342000  0.95120000  0.13798000  1.0 -0.5155597553
O  O9  1  0.68840000  0.48800000  0.37550000  1.0 -0.5460955948
O  O10  1  0.31160000  0.51200000  0.37550000  1.0 -0.5460955948
O  O11  1  0.51200000  0.68840000  0.62450000  1.0 -0.5460955948
O  O12  1  0.48800000  0.31160000  0.62450000  1.0 -0.5460955948
O  O13  1  0.81160000  0.98800000  0.87550000  1.0 -0.5460955948
O  O14  1  0.18840000  0.01200000  0.87550000  1.0 -0.5460955948
O  O15  1  0.98800000  0.18840000  0.12450000  1.0 -0.5460955948
O  O16  1  0.01200000  0.81160000  0.12450000  1.0 -0.5460955948
O  O17  1  0.00210000  0.40920000  0.82050000  1.0 -0.4854542167
O  O18  1  0.99790000  0.59080000  0.82050000  1.0 -0.4854542167
O  O19  1  0.09080000  0.49790000  0.67950000  1.0 -0.4854542167
O  O20  1  0.90920000  0.50210000  0.67950000  1.0 -0.4848128409
O  O21  1  0.40920000  0.99790000  0.17950000  1.0 -0.4848128409
O  O22  1  0.59080000  0.00210000  0.17950000  1.0 -0.4848128409
O  O23  1  0.49790000  0.90920000  0.32050000  1.0 -0.4848128409
O  O24  1  0.50210000  0.09080000  0.32050000  1.0 -0.4848128409
O  O25  1  0.94130000  0.07140000  0.57009000  1.0 -0.5019230694
O  O26  1  0.05870000  0.92860000  0.57009000  1.0 -0.5019230694
O  O27  1  0.07140000  0.05870000  0.42991000  1.0 -0.5019230694
O  O28  1  0.92860000  0.94130000  0.42991000  1.0 -0.5019230694
O  O29  1  0.55870000  0.57140000  0.07009000  1.0 -0.5019230694
O  O30  1  0.44130000  0.42860000  0.07009000  1.0 -0.5019230694
O  O31  1  0.42860000  0.55870000  0.92991000  1.0 -0.5019230694
O  O32  1  0.57140000  0.44130000  0.92991000  1.0 -0.5019230694
