# DDEC6 charges by PACMAN v1.1 (https://github.com/mtap-research/PACMAN-charge/)
data_FEGFEF_ASR_pacman
_symmetry_space_group_name_H-M   'P 1'
_cell_length_a   18.54440000
_cell_length_b   18.54440000
_cell_length_c   6.75570000
_cell_angle_alpha   90.00000000
_cell_angle_beta   90.00000000
_cell_angle_gamma   120.00000000
_symmetry_Int_Tables_number   1
_chemical_formula_structural   CuH9C12O5
_chemical_formula_sum   'Cu6 H54 C72 O30'
_cell_volume   2011.99343870
_cell_formula_units_Z   6
loop_
 _symmetry_equiv_pos_site_id
 _symmetry_equiv_pos_as_xyz
  1  'x, y, z'
loop_
 _atom_site_type_symbol
 _atom_site_label
 _atom_site_symmetry_multiplicity
 _atom_site_fract_x
 _atom_site_fract_y
 _atom_site_fract_z
 _atom_site_occupancy
 _atom_site_charge
Cu  Cu1  1  0.47651000  0.52349000  0.84360000  1.0 0.8164402704
Cu  Cu2  1  0.04697000  0.52349000  0.84360000  1.0 0.8164402704
Cu  Cu3  1  0.47651000  0.95303000  0.84360000  1.0 0.8149798075
Cu  Cu4  1  0.95303000  0.47651000  0.15640000  1.0 0.8164402704
Cu  Cu5  1  0.52349000  0.47651000  0.15640000  1.0 0.8149798075
Cu  Cu6  1  0.52349000  0.04697000  0.15640000  1.0 0.8164402704
H  H1  1  0.29319000  0.36990000  0.49190000  1.0 0.1499008844
H  H2  1  0.04319000  0.30110000  0.74070000  1.0 0.099220004
H  H3  1  0.07379000  0.26510000  0.08190000  1.0 0.1181912606
H  H4  1  0.03289000  0.18330000  0.95240000  1.0 0.099220004
H  H5  1  0.07670000  0.70681000  0.49190000  1.0 0.1499008844
H  H6  1  0.25790000  0.95681000  0.74070000  1.0 0.099220004
H  H7  1  0.19130000  0.92621000  0.08190000  1.0 0.1181912606
H  H8  1  0.15040000  0.96711000  0.95240000  1.0 0.099220004
H  H9  1  0.63010000  0.92330000  0.49190000  1.0 0.1499008844
H  H10  1  0.69890000  0.74210000  0.74070000  1.0 0.099220004
H  H11  1  0.73490000  0.80870000  0.08190000  1.0 0.1181912606
H  H12  1  0.81670000  0.84960000  0.95240000  1.0 0.099220004
H  H13  1  0.92330000  0.63010000  0.50810000  1.0 0.1499008844
H  H14  1  0.74210000  0.69890000  0.25930000  1.0 0.099220004
H  H15  1  0.80870000  0.73490000  0.91810000  1.0 0.1181912606
H  H16  1  0.84960000  0.81670000  0.04760000  1.0 0.099220004
H  H17  1  0.36990000  0.29319000  0.50810000  1.0 0.1499008844
H  H18  1  0.30110000  0.04319000  0.25930000  1.0 0.099220004
H  H19  1  0.26510000  0.07379000  0.91810000  1.0 0.1181912606
H  H20  1  0.18330000  0.03289000  0.04760000  1.0 0.099220004
H  H21  1  0.70681000  0.07670000  0.50810000  1.0 0.1499008844
H  H22  1  0.95681000  0.25790000  0.25930000  1.0 0.099220004
H  H23  1  0.92621000  0.19130000  0.91810000  1.0 0.1181912606
H  H24  1  0.96711000  0.15040000  0.04760000  1.0 0.099220004
H  H25  1  0.70681000  0.63010000  0.50810000  1.0 0.1499008844
H  H26  1  0.95681000  0.69890000  0.25930000  1.0 0.099220004
H  H27  1  0.92621000  0.73490000  0.91810000  1.0 0.1181912606
H  H28  1  0.96711000  0.81670000  0.04760000  1.0 0.099220004
H  H29  1  0.92330000  0.29319000  0.50810000  1.0 0.1499008844
H  H30  1  0.74210000  0.04319000  0.25930000  1.0 0.099220004
H  H31  1  0.80870000  0.07379000  0.91810000  1.0 0.1181912606
H  H32  1  0.84960000  0.03289000  0.04760000  1.0 0.099220004
H  H33  1  0.36990000  0.07670000  0.50810000  1.0 0.1499008844
H  H34  1  0.30110000  0.25790000  0.25930000  1.0 0.099220004
H  H35  1  0.26510000  0.19130000  0.91810000  1.0 0.1181912606
H  H36  1  0.18330000  0.15040000  0.04760000  1.0 0.099220004
H  H37  1  0.07670000  0.36990000  0.49190000  1.0 0.1499008844
H  H38  1  0.25790000  0.30110000  0.74070000  1.0 0.099220004
H  H39  1  0.19130000  0.26510000  0.08190000  1.0 0.1181912606
H  H40  1  0.15040000  0.18330000  0.95240000  1.0 0.099220004
H  H41  1  0.63010000  0.70681000  0.49190000  1.0 0.1499008844
H  H42  1  0.69890000  0.95681000  0.74070000  1.0 0.099220004
H  H43  1  0.73490000  0.92621000  0.08190000  1.0 0.1181912606
H  H44  1  0.81670000  0.96711000  0.95240000  1.0 0.099220004
H  H45  1  0.29319000  0.92330000  0.49190000  1.0 0.1499008844
H  H46  1  0.04319000  0.74210000  0.74070000  1.0 0.099220004
H  H47  1  0.07379000  0.80870000  0.08190000  1.0 0.1181912606
H  H48  1  0.03289000  0.84960000  0.95240000  1.0 0.099220004
H  H49  1  0.23690000  0.47380000  0.03880000  1.0 0.143928648
H  H50  1  0.23690000  0.76310000  0.03880000  1.0 0.143928648
H  H51  1  0.52620000  0.76310000  0.03880000  1.0 0.143928648
H  H52  1  0.76310000  0.52620000  0.96120000  1.0 0.143928648
H  H53  1  0.47380000  0.23690000  0.96120000  1.0 0.143928648
H  H54  1  0.76310000  0.23690000  0.96120000  1.0 0.143928648
C  C1  1  0.35949000  0.45070000  0.15650000  1.0 0.5534334342
C  C2  1  0.27739000  0.42540000  0.25070000  1.0 0.0064257305
C  C3  1  0.25639000  0.38320000  0.43060000  1.0 -0.2257088028
C  C4  1  0.08449000  0.29000000  0.78230000  1.0 -0.0819753113
C  C5  1  0.07969000  0.23970000  0.96220000  1.0 -0.2119410637
C  C6  1  0.09120000  0.64051000  0.15650000  1.0 0.5534334342
C  C7  1  0.14800000  0.72261000  0.25070000  1.0 0.0064257305
C  C8  1  0.12680000  0.74361000  0.43060000  1.0 -0.2257088028
C  C9  1  0.20550000  0.91551000  0.78230000  1.0 -0.0819753113
C  C10  1  0.16000000  0.92031000  0.96220000  1.0 -0.2119410637
C  C11  1  0.54930000  0.90880000  0.15650000  1.0 0.5534334342
C  C12  1  0.57460000  0.85200000  0.25070000  1.0 0.0064257305
C  C13  1  0.61680000  0.87320000  0.43060000  1.0 -0.2257088028
C  C14  1  0.71000000  0.79450000  0.78230000  1.0 -0.0819753113
C  C15  1  0.76030000  0.84000000  0.96220000  1.0 -0.2119410637
C  C16  1  0.90880000  0.54930000  0.84350000  1.0 0.5534334342
C  C17  1  0.85200000  0.57460000  0.74930000  1.0 0.0064257305
C  C18  1  0.87320000  0.61680000  0.56940000  1.0 -0.2257088028
C  C19  1  0.79450000  0.71000000  0.21770000  1.0 -0.0819753113
C  C20  1  0.84000000  0.76030000  0.03780000  1.0 -0.2119410637
C  C21  1  0.45070000  0.35949000  0.84350000  1.0 0.5534334342
C  C22  1  0.42540000  0.27739000  0.74930000  1.0 0.0064257305
C  C23  1  0.38320000  0.25639000  0.56940000  1.0 -0.2257088028
C  C24  1  0.29000000  0.08449000  0.21770000  1.0 -0.0819753113
C  C25  1  0.23970000  0.07969000  0.03780000  1.0 -0.2119410637
C  C26  1  0.64051000  0.09120000  0.84350000  1.0 0.5534334342
C  C27  1  0.72261000  0.14800000  0.74930000  1.0 0.0064257305
C  C28  1  0.74361000  0.12680000  0.56940000  1.0 -0.2257088028
C  C29  1  0.91551000  0.20550000  0.21770000  1.0 -0.0819753113
C  C30  1  0.92031000  0.16000000  0.03780000  1.0 -0.2119410637
C  C31  1  0.64051000  0.54930000  0.84350000  1.0 0.5534334342
C  C32  1  0.72261000  0.57460000  0.74930000  1.0 0.0064257305
C  C33  1  0.74361000  0.61680000  0.56940000  1.0 -0.2257088028
C  C34  1  0.91551000  0.71000000  0.21770000  1.0 -0.0819753113
C  C35  1  0.92031000  0.76030000  0.03780000  1.0 -0.2119410637
C  C36  1  0.90880000  0.35949000  0.84350000  1.0 0.5534334342
C  C37  1  0.85200000  0.27739000  0.74930000  1.0 0.0064257305
C  C38  1  0.87320000  0.25639000  0.56940000  1.0 -0.2257088028
C  C39  1  0.79450000  0.08449000  0.21770000  1.0 -0.0819753113
C  C40  1  0.84000000  0.07969000  0.03780000  1.0 -0.2119410637
C  C41  1  0.45070000  0.09120000  0.84350000  1.0 0.5534334342
C  C42  1  0.42540000  0.14800000  0.74930000  1.0 0.0064257305
C  C43  1  0.38320000  0.12680000  0.56940000  1.0 -0.2257088028
C  C44  1  0.29000000  0.20550000  0.21770000  1.0 -0.0819753113
C  C45  1  0.23970000  0.16000000  0.03780000  1.0 -0.2119410637
C  C46  1  0.09120000  0.45070000  0.15650000  1.0 0.5534334342
C  C47  1  0.14800000  0.42540000  0.25070000  1.0 0.0064257305
C  C48  1  0.12680000  0.38320000  0.43060000  1.0 -0.2257088028
C  C49  1  0.20550000  0.29000000  0.78230000  1.0 -0.0819753113
C  C50  1  0.16000000  0.23970000  0.96220000  1.0 -0.2119410637
C  C51  1  0.54930000  0.64051000  0.15650000  1.0 0.5534334342
C  C52  1  0.57460000  0.72261000  0.25070000  1.0 0.0064257305
C  C53  1  0.61680000  0.74361000  0.43060000  1.0 -0.2257088028
C  C54  1  0.71000000  0.91551000  0.78230000  1.0 -0.0819753113
C  C55  1  0.76030000  0.92031000  0.96220000  1.0 -0.2119410637
C  C56  1  0.35949000  0.90880000  0.15650000  1.0 0.5534334342
C  C57  1  0.27739000  0.85200000  0.25070000  1.0 0.0064257305
C  C58  1  0.25639000  0.87320000  0.43060000  1.0 -0.2257088028
C  C59  1  0.08449000  0.79450000  0.78230000  1.0 -0.0819753113
C  C60  1  0.07969000  0.84000000  0.96220000  1.0 -0.2119410637
C  C61  1  0.22309000  0.44618000  0.15980000  1.0 -0.1423174779
C  C62  1  0.18040000  0.36080000  0.51820000  1.0 0.2223807807
C  C63  1  0.22309000  0.77691000  0.15980000  1.0 -0.1423174779
C  C64  1  0.18040000  0.81960000  0.51820000  1.0 0.2223807807
C  C65  1  0.55382000  0.77691000  0.15980000  1.0 -0.1423174779
C  C66  1  0.63920000  0.81960000  0.51820000  1.0 0.2223807807
C  C67  1  0.77691000  0.55382000  0.84020000  1.0 -0.1423174779
C  C68  1  0.81960000  0.63920000  0.48180000  1.0 0.2223807807
C  C69  1  0.44618000  0.22309000  0.84020000  1.0 -0.1423174779
C  C70  1  0.36080000  0.18040000  0.48180000  1.0 0.2223807807
C  C71  1  0.77691000  0.22309000  0.84020000  1.0 -0.1423174779
C  C72  1  0.81960000  0.18040000  0.48180000  1.0 0.2223807807
O  O1  1  0.37156000  0.48007000  0.98530000  1.0 -0.5021375955
O  O2  1  0.41129000  0.44160000  0.25560000  1.0 -0.4897427276
O  O3  1  0.10850000  0.62844000  0.98530000  1.0 -0.5021375955
O  O4  1  0.03030000  0.58871000  0.25560000  1.0 -0.4897427276
O  O5  1  0.51993000  0.89150000  0.98530000  1.0 -0.5021375955
O  O6  1  0.55840000  0.96970000  0.25560000  1.0 -0.4897427276
O  O7  1  0.89150000  0.51993000  0.01470000  1.0 -0.5021375955
O  O8  1  0.96970000  0.55840000  0.74440000  1.0 -0.4897427276
O  O9  1  0.48007000  0.37156000  0.01470000  1.0 -0.5021375955
O  O10  1  0.44160000  0.41129000  0.74440000  1.0 -0.4897427276
O  O11  1  0.62844000  0.10850000  0.01470000  1.0 -0.5021375955
O  O12  1  0.58871000  0.03030000  0.74440000  1.0 -0.4897427276
O  O13  1  0.62844000  0.51993000  0.01470000  1.0 -0.5021375955
O  O14  1  0.58871000  0.55840000  0.74440000  1.0 -0.4897427276
O  O15  1  0.89150000  0.37156000  0.01470000  1.0 -0.5021375955
O  O16  1  0.96970000  0.41129000  0.74440000  1.0 -0.4897427276
O  O17  1  0.48007000  0.10850000  0.01470000  1.0 -0.5021375955
O  O18  1  0.44160000  0.03030000  0.74440000  1.0 -0.4897427276
O  O19  1  0.10850000  0.48007000  0.98530000  1.0 -0.5021375955
O  O20  1  0.03030000  0.44160000  0.25560000  1.0 -0.4897427276
O  O21  1  0.51993000  0.62844000  0.98530000  1.0 -0.5021375955
O  O22  1  0.55840000  0.58871000  0.25560000  1.0 -0.4897427276
O  O23  1  0.37156000  0.89150000  0.98530000  1.0 -0.5021375955
O  O24  1  0.41129000  0.96970000  0.25560000  1.0 -0.4897427276
O  O25  1  0.15832000  0.31664000  0.69140000  1.0 -0.0697170337
O  O26  1  0.15832000  0.84168000  0.69140000  1.0 -0.0697170337
O  O27  1  0.68336000  0.84168000  0.69140000  1.0 -0.0697170337
O  O28  1  0.84168000  0.68336000  0.30860000  1.0 -0.0697170337
O  O29  1  0.31664000  0.15832000  0.30860000  1.0 -0.0697170337
O  O30  1  0.84168000  0.15832000  0.30860000  1.0 -0.0697170337
