# DDEC6 charges by PACMAN v1.1 (https://github.com/mtap-research/PACMAN-charge/)
data_FEGLAI_ASR_pacman
_symmetry_space_group_name_H-M   'P 1'
_cell_length_a   16.83760000
_cell_length_b   16.83760000
_cell_length_c   16.83760000
_cell_angle_alpha   68.19450000
_cell_angle_beta   68.19450000
_cell_angle_gamma   68.19450000
_symmetry_Int_Tables_number   1
_chemical_formula_structural   ZnH15C27O4
_chemical_formula_sum   'Zn6 H90 C162 O24'
_cell_volume   3961.07945689
_cell_formula_units_Z   6
loop_
 _symmetry_equiv_pos_site_id
 _symmetry_equiv_pos_as_xyz
  1  'x, y, z'
loop_
 _atom_site_type_symbol
 _atom_site_label
 _atom_site_symmetry_multiplicity
 _atom_site_fract_x
 _atom_site_fract_y
 _atom_site_fract_z
 _atom_site_occupancy
 _atom_site_charge
Zn  Zn1  1  0.99383000  0.99383000  0.41694000  1.0 0.9807544993
Zn  Zn2  1  0.41694000  0.99383000  0.99383000  1.0 0.9807544993
Zn  Zn3  1  0.99383000  0.41694000  0.99383000  1.0 0.9807544993
Zn  Zn4  1  0.00617000  0.00617000  0.58306000  1.0 0.9807544993
Zn  Zn5  1  0.00617000  0.58306000  0.00617000  1.0 0.9807544993
Zn  Zn6  1  0.58306000  0.00617000  0.00617000  1.0 0.9807544993
H  H1  1  0.98714000  0.28484000  0.49649000  1.0 0.1517092706
H  H2  1  0.81491000  0.42540000  0.52072000  1.0 0.111371554
H  H3  1  0.70313000  0.45216000  0.64713000  1.0 0.099983282
H  H4  1  0.71813000  0.52563000  0.73099000  1.0 0.1316379454
H  H5  1  0.84493000  0.57234000  0.68842000  1.0 0.1188609745
H  H6  1  0.08465000  0.48407000  0.37691000  1.0 0.0907975059
H  H7  1  0.09966000  0.55754000  0.46077000  1.0 0.0835126616
H  H8  1  0.49649000  0.98714000  0.28484000  1.0 0.1517092706
H  H9  1  0.52072000  0.81491000  0.42540000  1.0 0.111371554
H  H10  1  0.64713000  0.70313000  0.45216000  1.0 0.099983282
H  H11  1  0.73099000  0.71813000  0.52563000  1.0 0.1316379454
H  H12  1  0.68842000  0.84493000  0.57234000  1.0 0.1188609745
H  H13  1  0.37691000  0.08465000  0.48407000  1.0 0.0907975059
H  H14  1  0.46077000  0.09966000  0.55754000  1.0 0.0835126616
H  H15  1  0.28484000  0.49649000  0.98714000  1.0 0.1517092706
H  H16  1  0.42540000  0.52072000  0.81491000  1.0 0.111371554
H  H17  1  0.45216000  0.64713000  0.70313000  1.0 0.099983282
H  H18  1  0.52563000  0.73099000  0.71813000  1.0 0.1316379454
H  H19  1  0.57234000  0.68842000  0.84493000  1.0 0.1188609745
H  H20  1  0.48407000  0.37691000  0.08465000  1.0 0.0907975059
H  H21  1  0.55754000  0.46077000  0.09966000  1.0 0.0835126616
H  H22  1  0.71516000  0.01286000  0.50351000  1.0 0.1517092706
H  H23  1  0.57460000  0.18509000  0.47928000  1.0 0.111371554
H  H24  1  0.54784000  0.29687000  0.35287000  1.0 0.099983282
H  H25  1  0.47437000  0.28187000  0.26901000  1.0 0.1316379454
H  H26  1  0.42766000  0.15507000  0.31158000  1.0 0.1188609745
H  H27  1  0.51593000  0.91535000  0.62309000  1.0 0.0907975059
H  H28  1  0.44246000  0.90034000  0.53923000  1.0 0.0835126616
H  H29  1  0.01286000  0.50351000  0.71516000  1.0 0.1517092706
H  H30  1  0.18509000  0.47928000  0.57460000  1.0 0.111371554
H  H31  1  0.29687000  0.35287000  0.54784000  1.0 0.099983282
H  H32  1  0.28187000  0.26901000  0.47437000  1.0 0.1316379454
H  H33  1  0.15507000  0.31158000  0.42766000  1.0 0.1188609745
H  H34  1  0.91535000  0.62309000  0.51593000  1.0 0.0907975059
H  H35  1  0.90034000  0.53923000  0.44246000  1.0 0.0835126616
H  H36  1  0.50351000  0.71516000  0.01286000  1.0 0.1517092706
H  H37  1  0.47928000  0.57460000  0.18509000  1.0 0.111371554
H  H38  1  0.35287000  0.54784000  0.29687000  1.0 0.099983282
H  H39  1  0.26901000  0.47437000  0.28187000  1.0 0.1316379454
H  H40  1  0.31158000  0.42766000  0.15507000  1.0 0.1188609745
H  H41  1  0.62309000  0.51593000  0.91535000  1.0 0.0907975059
H  H42  1  0.53923000  0.44246000  0.90034000  1.0 0.0835126616
H  H43  1  0.01286000  0.71516000  0.50351000  1.0 0.1517092706
H  H44  1  0.18509000  0.57460000  0.47928000  1.0 0.111371554
H  H45  1  0.29687000  0.54784000  0.35287000  1.0 0.099983282
H  H46  1  0.28187000  0.47437000  0.26901000  1.0 0.1316379454
H  H47  1  0.15507000  0.42766000  0.31158000  1.0 0.1188609745
H  H48  1  0.91535000  0.51593000  0.62309000  1.0 0.0907975059
H  H49  1  0.90034000  0.44246000  0.53923000  1.0 0.0835126616
H  H50  1  0.50351000  0.01286000  0.71516000  1.0 0.1517092706
H  H51  1  0.47928000  0.18509000  0.57460000  1.0 0.111371554
H  H52  1  0.35287000  0.29687000  0.54784000  1.0 0.099983282
H  H53  1  0.26901000  0.28187000  0.47437000  1.0 0.1316379454
H  H54  1  0.31158000  0.15507000  0.42766000  1.0 0.1188609745
H  H55  1  0.62309000  0.91535000  0.51593000  1.0 0.0907975059
H  H56  1  0.53923000  0.90034000  0.44246000  1.0 0.0835126616
H  H57  1  0.71516000  0.50351000  0.01286000  1.0 0.1517092706
H  H58  1  0.57460000  0.47928000  0.18509000  1.0 0.111371554
H  H59  1  0.54784000  0.35287000  0.29687000  1.0 0.099983282
H  H60  1  0.47437000  0.26901000  0.28187000  1.0 0.1316379454
H  H61  1  0.42766000  0.31158000  0.15507000  1.0 0.1188609745
H  H62  1  0.51593000  0.62309000  0.91535000  1.0 0.0907975059
H  H63  1  0.44246000  0.53923000  0.90034000  1.0 0.0835126616
H  H64  1  0.28484000  0.98714000  0.49649000  1.0 0.1517092706
H  H65  1  0.42540000  0.81491000  0.52072000  1.0 0.111371554
H  H66  1  0.45216000  0.70313000  0.64713000  1.0 0.099983282
H  H67  1  0.52563000  0.71813000  0.73099000  1.0 0.1316379454
H  H68  1  0.57234000  0.84493000  0.68842000  1.0 0.1188609745
H  H69  1  0.48407000  0.08465000  0.37691000  1.0 0.0907975059
H  H70  1  0.55754000  0.09966000  0.46077000  1.0 0.0835126616
H  H71  1  0.98714000  0.49649000  0.28484000  1.0 0.1517092706
H  H72  1  0.81491000  0.52072000  0.42540000  1.0 0.111371554
H  H73  1  0.70313000  0.64713000  0.45216000  1.0 0.099983282
H  H74  1  0.71813000  0.73099000  0.52563000  1.0 0.1316379454
H  H75  1  0.84493000  0.68842000  0.57234000  1.0 0.1188609745
H  H76  1  0.08465000  0.37691000  0.48407000  1.0 0.0907975059
H  H77  1  0.09966000  0.46077000  0.55754000  1.0 0.0835126616
H  H78  1  0.49649000  0.28484000  0.98714000  1.0 0.1517092706
H  H79  1  0.52072000  0.42540000  0.81491000  1.0 0.111371554
H  H80  1  0.64713000  0.45216000  0.70313000  1.0 0.099983282
H  H81  1  0.73099000  0.52563000  0.71813000  1.0 0.1316379454
H  H82  1  0.68842000  0.57234000  0.84493000  1.0 0.1188609745
H  H83  1  0.37691000  0.48407000  0.08465000  1.0 0.0907975059
H  H84  1  0.46077000  0.55754000  0.09966000  1.0 0.0835126616
H  H85  1  0.97272000  0.27102000  0.27102000  1.0 0.1517092706
H  H86  1  0.27102000  0.97272000  0.27102000  1.0 0.1517092706
H  H87  1  0.27102000  0.27102000  0.97272000  1.0 0.1517092706
H  H88  1  0.72898000  0.02728000  0.72898000  1.0 0.1517092706
H  H89  1  0.02728000  0.72898000  0.72898000  1.0 0.1517092706
H  H90  1  0.72898000  0.72898000  0.02728000  1.0 0.1517092706
C  C1  1  0.98070000  0.16782000  0.43290000  1.0 0.6044330643
C  C2  1  0.97761000  0.26349000  0.39105000  1.0 -0.0104898677
C  C3  1  0.98342000  0.31205000  0.43829000  1.0 -0.2100697313
C  C4  1  0.96382000  0.46682000  0.45312000  1.0 -0.0345196055
C  C5  1  0.03990000  0.49480000  0.42760000  1.0 -0.0151297271
C  C6  1  0.04879000  0.53879000  0.47789000  1.0 -0.0345196055
C  C7  1  0.90591000  0.52691000  0.57901000  1.0 0.0027042426
C  C8  1  0.89689000  0.48289000  0.52879000  1.0 -0.0104898677
C  C9  1  0.82094000  0.45484000  0.55434000  1.0 -0.133178648
C  C10  1  0.75390000  0.47090000  0.63010000  1.0 -0.1210711615
C  C11  1  0.76290000  0.51490000  0.68030000  1.0 -0.1053621829
C  C12  1  0.83887000  0.54287000  0.65487000  1.0 -0.2201344014
C  C13  1  0.43290000  0.98070000  0.16782000  1.0 0.6044330643
C  C14  1  0.39105000  0.97761000  0.26349000  1.0 -0.0104898677
C  C15  1  0.43829000  0.98342000  0.31205000  1.0 -0.2100697313
C  C16  1  0.45312000  0.96382000  0.46682000  1.0 -0.0345196055
C  C17  1  0.42760000  0.03990000  0.49480000  1.0 -0.0151297271
C  C18  1  0.47789000  0.04879000  0.53879000  1.0 -0.0345196055
C  C19  1  0.57901000  0.90591000  0.52691000  1.0 0.0027042426
C  C20  1  0.52879000  0.89689000  0.48289000  1.0 -0.0104898677
C  C21  1  0.55434000  0.82094000  0.45484000  1.0 -0.133178648
C  C22  1  0.63010000  0.75390000  0.47090000  1.0 -0.1210711615
C  C23  1  0.68030000  0.76290000  0.51490000  1.0 -0.1053621829
C  C24  1  0.65487000  0.83887000  0.54287000  1.0 -0.2201344014
C  C25  1  0.16782000  0.43290000  0.98070000  1.0 0.6044330643
C  C26  1  0.26349000  0.39105000  0.97761000  1.0 -0.0104898677
C  C27  1  0.31205000  0.43829000  0.98342000  1.0 -0.2100697313
C  C28  1  0.46682000  0.45312000  0.96382000  1.0 -0.0345196055
C  C29  1  0.49480000  0.42760000  0.03990000  1.0 -0.0151297271
C  C30  1  0.53879000  0.47789000  0.04879000  1.0 -0.0345196055
C  C31  1  0.52691000  0.57901000  0.90591000  1.0 0.0027042426
C  C32  1  0.48289000  0.52879000  0.89689000  1.0 -0.0104898677
C  C33  1  0.45484000  0.55434000  0.82094000  1.0 -0.133178648
C  C34  1  0.47090000  0.63010000  0.75390000  1.0 -0.1210711615
C  C35  1  0.51490000  0.68030000  0.76290000  1.0 -0.1053621829
C  C36  1  0.54287000  0.65487000  0.83887000  1.0 -0.2201344014
C  C37  1  0.83218000  0.01930000  0.56710000  1.0 0.6044330643
C  C38  1  0.73651000  0.02239000  0.60895000  1.0 -0.0104898677
C  C39  1  0.68795000  0.01658000  0.56171000  1.0 -0.2100697313
C  C40  1  0.53318000  0.03618000  0.54688000  1.0 -0.0345196055
C  C41  1  0.50520000  0.96010000  0.57240000  1.0 -0.0151297271
C  C42  1  0.46121000  0.95121000  0.52211000  1.0 -0.0345196055
C  C43  1  0.47309000  0.09409000  0.42099000  1.0 0.0027042426
C  C44  1  0.51711000  0.10311000  0.47121000  1.0 -0.0104898677
C  C45  1  0.54516000  0.17906000  0.44566000  1.0 -0.133178648
C  C46  1  0.52910000  0.24610000  0.36990000  1.0 -0.1210711615
C  C47  1  0.48510000  0.23710000  0.31970000  1.0 -0.1053621829
C  C48  1  0.45713000  0.16113000  0.34513000  1.0 -0.2201344014
C  C49  1  0.01930000  0.56710000  0.83218000  1.0 0.6044330643
C  C50  1  0.02239000  0.60895000  0.73651000  1.0 -0.0104898677
C  C51  1  0.01658000  0.56171000  0.68795000  1.0 -0.2100697313
C  C52  1  0.03618000  0.54688000  0.53318000  1.0 -0.0355584253
C  C53  1  0.96010000  0.57240000  0.50520000  1.0 -0.0151297271
C  C54  1  0.95121000  0.52211000  0.46121000  1.0 -0.0345196055
C  C55  1  0.09409000  0.42099000  0.47309000  1.0 0.0027042426
C  C56  1  0.10311000  0.47121000  0.51711000  1.0 -0.0104898677
C  C57  1  0.17906000  0.44566000  0.54516000  1.0 -0.133178648
C  C58  1  0.24610000  0.36990000  0.52910000  1.0 -0.1210711615
C  C59  1  0.23710000  0.31970000  0.48510000  1.0 -0.1053621829
C  C60  1  0.16113000  0.34513000  0.45713000  1.0 -0.2201344014
C  C61  1  0.56710000  0.83218000  0.01930000  1.0 0.6044330643
C  C62  1  0.60895000  0.73651000  0.02239000  1.0 -0.0104898677
C  C63  1  0.56171000  0.68795000  0.01658000  1.0 -0.2100697313
C  C64  1  0.54688000  0.53318000  0.03618000  1.0 -0.0345196055
C  C65  1  0.57240000  0.50520000  0.96010000  1.0 -0.0151297271
C  C66  1  0.52211000  0.46121000  0.95121000  1.0 -0.0345196055
C  C67  1  0.42099000  0.47309000  0.09409000  1.0 0.0027042426
C  C68  1  0.47121000  0.51711000  0.10311000  1.0 -0.0104898677
C  C69  1  0.44566000  0.54516000  0.17906000  1.0 -0.133178648
C  C70  1  0.36990000  0.52910000  0.24610000  1.0 -0.1210711615
C  C71  1  0.31970000  0.48510000  0.23710000  1.0 -0.1053621829
C  C72  1  0.34513000  0.45713000  0.16113000  1.0 -0.2201344014
C  C73  1  0.01930000  0.83218000  0.56710000  1.0 0.6044330643
C  C74  1  0.02239000  0.73651000  0.60895000  1.0 -0.0104898677
C  C75  1  0.01658000  0.68795000  0.56171000  1.0 -0.2100697313
C  C76  1  0.03618000  0.53318000  0.54688000  1.0 -0.0355584253
C  C77  1  0.96010000  0.50520000  0.57240000  1.0 -0.0151297271
C  C78  1  0.95121000  0.46121000  0.52211000  1.0 -0.0345196055
C  C79  1  0.09409000  0.47309000  0.42099000  1.0 0.0027042426
C  C80  1  0.10311000  0.51711000  0.47121000  1.0 -0.0104898677
C  C81  1  0.17906000  0.54516000  0.44566000  1.0 -0.133178648
C  C82  1  0.24610000  0.52910000  0.36990000  1.0 -0.1210711615
C  C83  1  0.23710000  0.48510000  0.31970000  1.0 -0.1053621829
C  C84  1  0.16113000  0.45713000  0.34513000  1.0 -0.2201344014
C  C85  1  0.56710000  0.01930000  0.83218000  1.0 0.6044330643
C  C86  1  0.60895000  0.02239000  0.73651000  1.0 -0.0104898677
C  C87  1  0.56171000  0.01658000  0.68795000  1.0 -0.2100697313
C  C88  1  0.54688000  0.03618000  0.53318000  1.0 -0.0345196055
C  C89  1  0.57240000  0.96010000  0.50520000  1.0 -0.0151297271
C  C90  1  0.52211000  0.95121000  0.46121000  1.0 -0.0345196055
C  C91  1  0.42099000  0.09409000  0.47309000  1.0 0.0027042426
C  C92  1  0.47121000  0.10311000  0.51711000  1.0 -0.0104898677
C  C93  1  0.44566000  0.17906000  0.54516000  1.0 -0.133178648
C  C94  1  0.36990000  0.24610000  0.52910000  1.0 -0.1210711615
C  C95  1  0.31970000  0.23710000  0.48510000  1.0 -0.1053621829
C  C96  1  0.34513000  0.16113000  0.45713000  1.0 -0.2201344014
C  C97  1  0.83218000  0.56710000  0.01930000  1.0 0.6044330643
C  C98  1  0.73651000  0.60895000  0.02239000  1.0 -0.0104898677
C  C99  1  0.68795000  0.56171000  0.01658000  1.0 -0.2100697313
C  C100  1  0.53318000  0.54688000  0.03618000  1.0 -0.0345196055
C  C101  1  0.50520000  0.57240000  0.96010000  1.0 -0.0151297271
C  C102  1  0.46121000  0.52211000  0.95121000  1.0 -0.0345196055
C  C103  1  0.47309000  0.42099000  0.09409000  1.0 0.0027042426
C  C104  1  0.51711000  0.47121000  0.10311000  1.0 -0.0104898677
C  C105  1  0.54516000  0.44566000  0.17906000  1.0 -0.133178648
C  C106  1  0.52910000  0.36990000  0.24610000  1.0 -0.1210711615
C  C107  1  0.48510000  0.31970000  0.23710000  1.0 -0.1053621829
C  C108  1  0.45713000  0.34513000  0.16113000  1.0 -0.2201344014
C  C109  1  0.16782000  0.98070000  0.43290000  1.0 0.6044330643
C  C110  1  0.26349000  0.97761000  0.39105000  1.0 -0.0104898677
C  C111  1  0.31205000  0.98342000  0.43829000  1.0 -0.2100697313
C  C112  1  0.46682000  0.96382000  0.45312000  1.0 -0.0345196055
C  C113  1  0.49480000  0.03990000  0.42760000  1.0 -0.0151297271
C  C114  1  0.53879000  0.04879000  0.47789000  1.0 -0.0345196055
C  C115  1  0.52691000  0.90591000  0.57901000  1.0 0.0027042426
C  C116  1  0.48289000  0.89689000  0.52879000  1.0 -0.0104898677
C  C117  1  0.45484000  0.82094000  0.55434000  1.0 -0.133178648
C  C118  1  0.47090000  0.75390000  0.63010000  1.0 -0.1210711615
C  C119  1  0.51490000  0.76290000  0.68030000  1.0 -0.1053621829
C  C120  1  0.54287000  0.83887000  0.65487000  1.0 -0.2201344014
C  C121  1  0.98070000  0.43290000  0.16782000  1.0 0.6044330643
C  C122  1  0.97761000  0.39105000  0.26349000  1.0 -0.0104898677
C  C123  1  0.98342000  0.43829000  0.31205000  1.0 -0.2100697313
C  C124  1  0.96382000  0.45312000  0.46682000  1.0 -0.0345196055
C  C125  1  0.03990000  0.42760000  0.49480000  1.0 -0.0151297271
C  C126  1  0.04879000  0.47789000  0.53879000  1.0 -0.0345196055
C  C127  1  0.90591000  0.57901000  0.52691000  1.0 0.0027042426
C  C128  1  0.89689000  0.52879000  0.48289000  1.0 -0.0104898677
C  C129  1  0.82094000  0.55434000  0.45484000  1.0 -0.133178648
C  C130  1  0.75390000  0.63010000  0.47090000  1.0 -0.1210711615
C  C131  1  0.76290000  0.68030000  0.51490000  1.0 -0.1053621829
C  C132  1  0.83887000  0.65487000  0.54287000  1.0 -0.2201344014
C  C133  1  0.43290000  0.16782000  0.98070000  1.0 0.6044330643
C  C134  1  0.39105000  0.26349000  0.97761000  1.0 -0.0104898677
C  C135  1  0.43829000  0.31205000  0.98342000  1.0 -0.2100697313
C  C136  1  0.45312000  0.46682000  0.96382000  1.0 -0.0355584253
C  C137  1  0.42760000  0.49480000  0.03990000  1.0 -0.0151297271
C  C138  1  0.47789000  0.53879000  0.04879000  1.0 -0.0345196055
C  C139  1  0.57901000  0.52691000  0.90591000  1.0 0.0027042426
C  C140  1  0.52879000  0.48289000  0.89689000  1.0 -0.0104898677
C  C141  1  0.55434000  0.45484000  0.82094000  1.0 -0.133178648
C  C142  1  0.63010000  0.47090000  0.75390000  1.0 -0.1210711615
C  C143  1  0.68030000  0.51490000  0.76290000  1.0 -0.1053621829
C  C144  1  0.65487000  0.54287000  0.83887000  1.0 -0.2201344014
C  C145  1  0.98383000  0.40063000  0.40063000  1.0 0.0907975059
C  C146  1  0.97556000  0.30356000  0.30356000  1.0 -0.0883995857
C  C147  1  0.98186000  0.55421000  0.55421000  1.0 -0.0104898677
C  C148  1  0.40063000  0.98383000  0.40063000  1.0 0.0907975059
C  C149  1  0.30356000  0.97556000  0.30356000  1.0 -0.0883995857
C  C150  1  0.55421000  0.98186000  0.55421000  1.0 -0.0104898677
C  C151  1  0.40063000  0.40063000  0.98383000  1.0 0.0907975059
C  C152  1  0.30356000  0.30356000  0.97556000  1.0 -0.0883995857
C  C153  1  0.55421000  0.55421000  0.98186000  1.0 -0.0104898677
C  C154  1  0.59937000  0.01617000  0.59937000  1.0 0.0907975059
C  C155  1  0.69644000  0.02444000  0.69644000  1.0 -0.0883995857
C  C156  1  0.44579000  0.01814000  0.44579000  1.0 -0.0104898677
C  C157  1  0.01617000  0.59937000  0.59937000  1.0 0.0907975059
C  C158  1  0.02444000  0.69644000  0.69644000  1.0 -0.0883995857
C  C159  1  0.01814000  0.44579000  0.44579000  1.0 -0.0104898677
C  C160  1  0.59937000  0.59937000  0.01617000  1.0 0.0907975059
C  C161  1  0.69644000  0.69644000  0.02444000  1.0 -0.0883995857
C  C162  1  0.44579000  0.44579000  0.01814000  1.0 -0.0104898677
O  O1  1  0.97841000  0.12632000  0.38486000  1.0 -0.5365935021
O  O2  1  0.98686000  0.13527000  0.51074000  1.0 -0.5253784064
O  O3  1  0.38486000  0.97841000  0.12632000  1.0 -0.5365935021
O  O4  1  0.51074000  0.98686000  0.13527000  1.0 -0.5253784064
O  O5  1  0.12632000  0.38486000  0.97841000  1.0 -0.5365935021
O  O6  1  0.13527000  0.51074000  0.98686000  1.0 -0.5253784064
O  O7  1  0.87368000  0.02159000  0.61514000  1.0 -0.5365935021
O  O8  1  0.86473000  0.01314000  0.48926000  1.0 -0.5253784064
O  O9  1  0.02159000  0.61514000  0.87368000  1.0 -0.5365935021
O  O10  1  0.01314000  0.48926000  0.86473000  1.0 -0.5253784064
O  O11  1  0.61514000  0.87368000  0.02159000  1.0 -0.5365935021
O  O12  1  0.48926000  0.86473000  0.01314000  1.0 -0.5253784064
O  O13  1  0.02159000  0.87368000  0.61514000  1.0 -0.5365935021
O  O14  1  0.01314000  0.86473000  0.48926000  1.0 -0.5253784064
O  O15  1  0.61514000  0.02159000  0.87368000  1.0 -0.5365935021
O  O16  1  0.48926000  0.01314000  0.86473000  1.0 -0.5253784064
O  O17  1  0.87368000  0.61514000  0.02159000  1.0 -0.5365935021
O  O18  1  0.86473000  0.48926000  0.01314000  1.0 -0.5253784064
O  O19  1  0.12632000  0.97841000  0.38486000  1.0 -0.5365935021
O  O20  1  0.13527000  0.98686000  0.51074000  1.0 -0.5253784064
O  O21  1  0.97841000  0.38486000  0.12632000  1.0 -0.5365935021
O  O22  1  0.98686000  0.51074000  0.13527000  1.0 -0.5253784064
O  O23  1  0.38486000  0.12632000  0.97841000  1.0 -0.5365935021
O  O24  1  0.51074000  0.13527000  0.98686000  1.0 -0.5253784064
