# DDEC6 charges by PACMAN v1.1 (https://github.com/mtap-research/PACMAN-charge/)
data_FEGNEO_ASR_pacman
_symmetry_space_group_name_H-M   'P 1'
_cell_length_a   26.08900000
_cell_length_b   26.08900000
_cell_length_c   26.08900000
_cell_angle_alpha   109.47100000
_cell_angle_beta   109.47100000
_cell_angle_gamma   109.47100000
_symmetry_Int_Tables_number   1
_chemical_formula_structural   Zr3H12(C12O5)2
_chemical_formula_sum   'Zr24 H96 C192 O80'
_cell_volume   13669.54173073
_cell_formula_units_Z   8
loop_
 _symmetry_equiv_pos_site_id
 _symmetry_equiv_pos_as_xyz
  1  'x, y, z'
loop_
 _atom_site_type_symbol
 _atom_site_label
 _atom_site_symmetry_multiplicity
 _atom_site_fract_x
 _atom_site_fract_y
 _atom_site_fract_z
 _atom_site_occupancy
 _atom_site_charge
Zr  Zr1  1  0.08279000  0.47275000  0.00000000  1.0 2.4140611237
Zr  Zr2  1  0.52725000  0.52725000  0.61004000  1.0 2.4193224768
Zr  Zr3  1  0.91721000  0.91721000  0.38996000  1.0 2.4193224768
Zr  Zr4  1  0.47275000  0.08279000  0.00000000  1.0 2.4193224768
Zr  Zr5  1  0.61004000  0.52725000  0.52725000  1.0 2.4193224768
Zr  Zr6  1  0.00000000  0.08279000  0.47275000  1.0 2.4193224768
Zr  Zr7  1  0.00000000  0.47275000  0.08279000  1.0 2.4193224768
Zr  Zr8  1  0.38996000  0.91721000  0.91721000  1.0 2.4193224768
Zr  Zr9  1  0.08279000  0.00000000  0.47275000  1.0 2.4193224768
Zr  Zr10  1  0.91721000  0.38996000  0.91721000  1.0 2.4140611237
Zr  Zr11  1  0.52725000  0.61004000  0.52725000  1.0 2.4193224768
Zr  Zr12  1  0.47275000  0.00000000  0.08279000  1.0 2.4193224768
Zr  Zr13  1  0.00000000  0.52725000  0.91721000  1.0 2.4140611237
Zr  Zr14  1  0.38996000  0.47275000  0.47275000  1.0 2.4193224768
Zr  Zr15  1  0.61004000  0.08279000  0.08279000  1.0 2.4193224768
Zr  Zr16  1  0.00000000  0.91721000  0.52725000  1.0 2.4193224768
Zr  Zr17  1  0.47275000  0.47275000  0.38996000  1.0 2.4193224768
Zr  Zr18  1  0.52725000  0.91721000  0.00000000  1.0 2.4193224768
Zr  Zr19  1  0.91721000  0.52725000  0.00000000  1.0 2.4193224768
Zr  Zr20  1  0.08279000  0.08279000  0.61004000  1.0 2.4193224768
Zr  Zr21  1  0.52725000  0.00000000  0.91721000  1.0 2.4193224768
Zr  Zr22  1  0.08279000  0.61004000  0.08279000  1.0 2.4193224768
Zr  Zr23  1  0.47275000  0.38996000  0.47275000  1.0 2.4193224768
Zr  Zr24  1  0.91721000  0.00000000  0.52725000  1.0 2.4193224768
H  H1  1  0.39840000  0.76860000  0.26440000  1.0 0.0991532371
H  H2  1  0.28890000  0.71340000  0.21050000  1.0 0.1052112304
H  H3  1  0.49580000  0.23140000  0.62980000  1.0 0.0991532371
H  H4  1  0.49710000  0.28660000  0.57550000  1.0 0.1052112304
H  H5  1  0.60160000  0.86600000  0.37020000  1.0 0.0991532371
H  H6  1  0.71110000  0.92160000  0.42450000  1.0 0.1052112304
H  H7  1  0.50420000  0.13400000  0.73560000  1.0 0.0991532371
H  H8  1  0.50290000  0.07840000  0.78950000  1.0 0.1052112304
H  H9  1  0.62980000  0.49580000  0.23140000  1.0 0.0991532371
H  H10  1  0.57550000  0.49710000  0.28660000  1.0 0.1052112304
H  H11  1  0.26440000  0.39840000  0.76860000  1.0 0.0991532371
H  H12  1  0.21050000  0.28890000  0.71340000  1.0 0.1052112304
H  H13  1  0.73560000  0.50420000  0.13400000  1.0 0.0991532371
H  H14  1  0.78950000  0.50290000  0.07840000  1.0 0.1052112304
H  H15  1  0.37020000  0.60160000  0.86600000  1.0 0.0991532371
H  H16  1  0.42450000  0.71110000  0.92160000  1.0 0.1052112304
H  H17  1  0.13400000  0.73560000  0.50420000  1.0 0.0991532371
H  H18  1  0.07840000  0.78950000  0.50290000  1.0 0.1052112304
H  H19  1  0.86600000  0.37020000  0.60160000  1.0 0.0991532371
H  H20  1  0.92160000  0.42450000  0.71110000  1.0 0.1052112304
H  H21  1  0.23140000  0.62980000  0.49580000  1.0 0.0991532371
H  H22  1  0.28660000  0.57550000  0.49710000  1.0 0.0991532371
H  H23  1  0.76860000  0.26440000  0.39840000  1.0 0.0991532371
H  H24  1  0.71340000  0.21050000  0.28890000  1.0 0.1052112304
H  H25  1  0.73560000  0.23140000  0.60160000  1.0 0.0991532371
H  H26  1  0.78950000  0.28660000  0.71110000  1.0 0.1052112304
H  H27  1  0.37020000  0.76860000  0.50420000  1.0 0.0991532371
H  H28  1  0.42450000  0.71340000  0.50290000  1.0 0.1052112304
H  H29  1  0.62980000  0.13400000  0.39840000  1.0 0.0991532371
H  H30  1  0.57550000  0.07840000  0.28890000  1.0 0.1052112304
H  H31  1  0.26440000  0.86600000  0.49580000  1.0 0.0991532371
H  H32  1  0.21050000  0.92160000  0.49710000  1.0 0.0991532371
H  H33  1  0.76860000  0.50420000  0.37020000  1.0 0.0991532371
H  H34  1  0.71340000  0.50290000  0.42450000  1.0 0.1052112304
H  H35  1  0.23140000  0.60160000  0.73560000  1.0 0.0991532371
H  H36  1  0.28660000  0.71110000  0.78950000  1.0 0.1052112304
H  H37  1  0.86600000  0.49580000  0.26440000  1.0 0.0991532371
H  H38  1  0.92160000  0.49710000  0.21050000  1.0 0.0991532371
H  H39  1  0.13400000  0.39840000  0.62980000  1.0 0.0991532371
H  H40  1  0.07840000  0.28890000  0.57550000  1.0 0.1052112304
H  H41  1  0.49580000  0.26440000  0.86600000  1.0 0.0991532371
H  H42  1  0.49710000  0.21050000  0.92160000  1.0 0.1052112304
H  H43  1  0.39840000  0.62980000  0.13400000  1.0 0.0991532371
H  H44  1  0.28890000  0.57550000  0.07840000  1.0 0.1052112304
H  H45  1  0.50420000  0.37020000  0.76860000  1.0 0.0991532371
H  H46  1  0.50290000  0.42450000  0.71340000  1.0 0.1052112304
H  H47  1  0.60160000  0.73560000  0.23140000  1.0 0.0991532371
H  H48  1  0.71110000  0.78950000  0.28660000  1.0 0.1052112304
H  H49  1  0.60160000  0.23140000  0.73560000  1.0 0.0991532371
H  H50  1  0.71110000  0.28660000  0.78950000  1.0 0.1052112304
H  H51  1  0.50420000  0.76860000  0.37020000  1.0 0.0991532371
H  H52  1  0.50290000  0.71340000  0.42450000  1.0 0.1052112304
H  H53  1  0.39840000  0.13400000  0.62980000  1.0 0.0991532371
H  H54  1  0.28890000  0.07840000  0.57550000  1.0 0.1052112304
H  H55  1  0.49580000  0.86600000  0.26440000  1.0 0.0991532371
H  H56  1  0.49710000  0.92160000  0.21050000  1.0 0.1052112304
H  H57  1  0.37020000  0.50420000  0.76860000  1.0 0.0991532371
H  H58  1  0.42450000  0.50290000  0.71340000  1.0 0.1052112304
H  H59  1  0.73560000  0.60160000  0.23140000  1.0 0.0991532371
H  H60  1  0.78950000  0.71110000  0.28660000  1.0 0.0991532371
H  H61  1  0.26440000  0.49580000  0.86600000  1.0 0.0991532371
H  H62  1  0.21050000  0.49710000  0.92160000  1.0 0.1052112304
H  H63  1  0.62980000  0.39840000  0.13400000  1.0 0.0991532371
H  H64  1  0.57550000  0.28890000  0.07840000  1.0 0.1052112304
H  H65  1  0.86600000  0.26440000  0.49580000  1.0 0.0991532371
H  H66  1  0.92160000  0.21050000  0.49710000  1.0 0.1052112304
H  H67  1  0.13400000  0.62980000  0.39840000  1.0 0.0991532371
H  H68  1  0.07840000  0.57550000  0.28890000  1.0 0.1052112304
H  H69  1  0.76860000  0.37020000  0.50420000  1.0 0.0991532371
H  H70  1  0.71340000  0.42450000  0.50290000  1.0 0.1052112304
H  H71  1  0.23140000  0.73560000  0.60160000  1.0 0.0991532371
H  H72  1  0.28660000  0.78950000  0.71110000  1.0 0.1052112304
H  H73  1  0.26440000  0.76860000  0.39840000  1.0 0.0991532371
H  H74  1  0.21050000  0.71340000  0.28890000  1.0 0.1052112304
H  H75  1  0.62980000  0.23140000  0.49580000  1.0 0.0991532371
H  H76  1  0.57550000  0.28660000  0.49710000  1.0 0.1052112304
H  H77  1  0.37020000  0.86600000  0.60160000  1.0 0.0991532371
H  H78  1  0.42450000  0.92160000  0.71110000  1.0 0.1052112304
H  H79  1  0.73560000  0.13400000  0.50420000  1.0 0.0991532371
H  H80  1  0.78950000  0.07840000  0.50290000  1.0 0.1052112304
H  H81  1  0.23140000  0.49580000  0.62980000  1.0 0.0991532371
H  H82  1  0.28660000  0.49710000  0.57550000  1.0 0.1052112304
H  H83  1  0.76860000  0.39840000  0.26440000  1.0 0.0991532371
H  H84  1  0.71340000  0.28890000  0.21050000  1.0 0.1052112304
H  H85  1  0.13400000  0.50420000  0.73560000  1.0 0.0991532371
H  H86  1  0.07840000  0.50290000  0.78950000  1.0 0.1052112304
H  H87  1  0.86600000  0.60160000  0.37020000  1.0 0.0991532371
H  H88  1  0.92160000  0.71110000  0.42450000  1.0 0.0991532371
H  H89  1  0.50420000  0.73560000  0.13400000  1.0 0.0991532371
H  H90  1  0.50290000  0.78950000  0.07840000  1.0 0.1052112304
H  H91  1  0.60160000  0.37020000  0.86600000  1.0 0.0991532371
H  H92  1  0.71110000  0.42450000  0.92160000  1.0 0.1052112304
H  H93  1  0.49580000  0.62980000  0.23140000  1.0 0.0991532371
H  H94  1  0.49710000  0.57550000  0.28660000  1.0 0.1052112304
H  H95  1  0.39840000  0.26440000  0.76860000  1.0 0.0991532371
H  H96  1  0.28890000  0.21050000  0.71340000  1.0 0.1052112304
C  C1  1  0.37650000  0.72930000  0.22700000  1.0 -0.1997389707
C  C2  1  0.31110000  0.69670000  0.19480000  1.0 -0.0894792184
C  C3  1  0.49770000  0.27070000  0.64720000  1.0 -0.1997389707
C  C4  1  0.49810000  0.30330000  0.61440000  1.0 -0.0894792184
C  C5  1  0.62350000  0.85050000  0.35280000  1.0 -0.1997389707
C  C6  1  0.68890000  0.88370000  0.38560000  1.0 -0.0894792184
C  C7  1  0.50230000  0.14950000  0.77300000  1.0 -0.1997389707
C  C8  1  0.50190000  0.11630000  0.80520000  1.0 -0.0894792184
C  C9  1  0.64720000  0.49770000  0.27070000  1.0 -0.1997389707
C  C10  1  0.61440000  0.49810000  0.30330000  1.0 -0.0894792184
C  C11  1  0.22700000  0.37650000  0.72930000  1.0 -0.1997389707
C  C12  1  0.19480000  0.31110000  0.69670000  1.0 -0.0894792184
C  C13  1  0.77300000  0.50230000  0.14950000  1.0 -0.1997389707
C  C14  1  0.80520000  0.50190000  0.11630000  1.0 -0.0894792184
C  C15  1  0.35280000  0.62350000  0.85050000  1.0 -0.1997389707
C  C16  1  0.38560000  0.68890000  0.88370000  1.0 -0.0894792184
C  C17  1  0.14950000  0.77300000  0.50230000  1.0 -0.1997389707
C  C18  1  0.11630000  0.80520000  0.50190000  1.0 -0.0894792184
C  C19  1  0.85050000  0.35280000  0.62350000  1.0 -0.1997389707
C  C20  1  0.88370000  0.38560000  0.68890000  1.0 -0.0894792184
C  C21  1  0.27070000  0.64720000  0.49770000  1.0 -0.1997389707
C  C22  1  0.30330000  0.61440000  0.49810000  1.0 -0.0894792184
C  C23  1  0.72930000  0.22700000  0.37650000  1.0 -0.1997389707
C  C24  1  0.69670000  0.19480000  0.31110000  1.0 -0.0894792184
C  C25  1  0.77300000  0.27070000  0.62350000  1.0 -0.1997389707
C  C26  1  0.80520000  0.30330000  0.68890000  1.0 -0.0894792184
C  C27  1  0.35280000  0.72930000  0.50230000  1.0 -0.1997389707
C  C28  1  0.38560000  0.69670000  0.50190000  1.0 -0.0894792184
C  C29  1  0.64720000  0.14950000  0.37650000  1.0 -0.1997389707
C  C30  1  0.61440000  0.11630000  0.31110000  1.0 -0.0894792184
C  C31  1  0.22700000  0.85050000  0.49770000  1.0 -0.1997389707
C  C32  1  0.19480000  0.88370000  0.49810000  1.0 -0.0894792184
C  C33  1  0.72930000  0.50230000  0.35280000  1.0 -0.1997389707
C  C34  1  0.69670000  0.50190000  0.38560000  1.0 -0.0894792184
C  C35  1  0.27070000  0.62350000  0.77300000  1.0 -0.1997389707
C  C36  1  0.30330000  0.68890000  0.80520000  1.0 -0.0894792184
C  C37  1  0.85050000  0.49770000  0.22700000  1.0 -0.1997389707
C  C38  1  0.88370000  0.49810000  0.19480000  1.0 -0.0894792184
C  C39  1  0.14950000  0.37650000  0.64720000  1.0 -0.1997389707
C  C40  1  0.11630000  0.31110000  0.61440000  1.0 -0.0894792184
C  C41  1  0.49770000  0.22700000  0.85050000  1.0 -0.1997389707
C  C42  1  0.49810000  0.19480000  0.88370000  1.0 -0.0894792184
C  C43  1  0.37650000  0.64720000  0.14950000  1.0 -0.1997389707
C  C44  1  0.31110000  0.61440000  0.11630000  1.0 -0.0894792184
C  C45  1  0.50230000  0.35280000  0.72930000  1.0 -0.1997389707
C  C46  1  0.50190000  0.38560000  0.69670000  1.0 -0.0894792184
C  C47  1  0.62350000  0.77300000  0.27070000  1.0 -0.1997389707
C  C48  1  0.68890000  0.80520000  0.30330000  1.0 -0.0894792184
C  C49  1  0.62350000  0.27070000  0.77300000  1.0 -0.1997389707
C  C50  1  0.68890000  0.30330000  0.80520000  1.0 -0.0894792184
C  C51  1  0.50230000  0.72930000  0.35280000  1.0 -0.1997389707
C  C52  1  0.50190000  0.69670000  0.38560000  1.0 -0.0894792184
C  C53  1  0.37650000  0.14950000  0.64720000  1.0 -0.1997389707
C  C54  1  0.31110000  0.11630000  0.61440000  1.0 -0.0894792184
C  C55  1  0.49770000  0.85050000  0.22700000  1.0 -0.1997389707
C  C56  1  0.49810000  0.88370000  0.19480000  1.0 -0.0894792184
C  C57  1  0.35280000  0.50230000  0.72930000  1.0 -0.1997389707
C  C58  1  0.38560000  0.50190000  0.69670000  1.0 -0.0894792184
C  C59  1  0.77300000  0.62350000  0.27070000  1.0 -0.1997389707
C  C60  1  0.80520000  0.68890000  0.30330000  1.0 -0.0894792184
C  C61  1  0.22700000  0.49770000  0.85050000  1.0 -0.1997389707
C  C62  1  0.19480000  0.49810000  0.88370000  1.0 -0.0894792184
C  C63  1  0.64720000  0.37650000  0.14950000  1.0 -0.1997389707
C  C64  1  0.61440000  0.31110000  0.11630000  1.0 -0.0894792184
C  C65  1  0.85050000  0.22700000  0.49770000  1.0 -0.1997389707
C  C66  1  0.88370000  0.19480000  0.49810000  1.0 -0.0894792184
C  C67  1  0.14950000  0.64720000  0.37650000  1.0 -0.1997389707
C  C68  1  0.11630000  0.61440000  0.31110000  1.0 -0.0894792184
C  C69  1  0.72930000  0.35280000  0.50230000  1.0 -0.1997389707
C  C70  1  0.69670000  0.38560000  0.50190000  1.0 -0.0894792184
C  C71  1  0.27070000  0.77300000  0.62350000  1.0 -0.1997389707
C  C72  1  0.30330000  0.80520000  0.68890000  1.0 -0.0894792184
C  C73  1  0.22700000  0.72930000  0.37650000  1.0 -0.1997389707
C  C74  1  0.19480000  0.69670000  0.31110000  1.0 -0.0894792184
C  C75  1  0.64720000  0.27070000  0.49770000  1.0 -0.1997389707
C  C76  1  0.61440000  0.30330000  0.49810000  1.0 -0.0894792184
C  C77  1  0.35280000  0.85050000  0.62350000  1.0 -0.1997389707
C  C78  1  0.38560000  0.88370000  0.68890000  1.0 -0.0894792184
C  C79  1  0.77300000  0.14950000  0.50230000  1.0 -0.1997389707
C  C80  1  0.80520000  0.11630000  0.50190000  1.0 -0.0894792184
C  C81  1  0.27070000  0.49770000  0.64720000  1.0 -0.1997389707
C  C82  1  0.30330000  0.49810000  0.61440000  1.0 -0.0894792184
C  C83  1  0.72930000  0.37650000  0.22700000  1.0 -0.1997389707
C  C84  1  0.69670000  0.31110000  0.19480000  1.0 -0.0894792184
C  C85  1  0.14950000  0.50230000  0.77300000  1.0 -0.1997389707
C  C86  1  0.11630000  0.50190000  0.80520000  1.0 -0.0894792184
C  C87  1  0.85050000  0.62350000  0.35280000  1.0 -0.1997389707
C  C88  1  0.88370000  0.68890000  0.38560000  1.0 -0.0894792184
C  C89  1  0.50230000  0.77300000  0.14950000  1.0 -0.1997389707
C  C90  1  0.50190000  0.80520000  0.11630000  1.0 -0.0894792184
C  C91  1  0.62350000  0.35280000  0.85050000  1.0 -0.1997389707
C  C92  1  0.68890000  0.38560000  0.88370000  1.0 -0.0894792184
C  C93  1  0.49770000  0.64720000  0.27070000  1.0 -0.1997389707
C  C94  1  0.49810000  0.61440000  0.30330000  1.0 -0.0894792184
C  C95  1  0.37650000  0.22700000  0.72930000  1.0 -0.1997389707
C  C96  1  0.31110000  0.19480000  0.69670000  1.0 -0.0894792184
C  C97  1  0.41080000  0.70540000  0.20540000  1.0 0.0875727664
C  C98  1  0.27840000  0.63920000  0.13920000  1.0 -0.0736883126
C  C99  1  0.21000000  0.60500000  0.10500000  1.0 0.617762369
C  C100  1  0.50000000  0.29460000  0.70540000  1.0 0.0875727664
C  C101  1  0.50000000  0.36080000  0.63920000  1.0 -0.0736883126
C  C102  1  0.50000000  0.39500000  0.60500000  1.0 0.617762369
C  C103  1  0.58920000  0.79460000  0.29460000  1.0 0.0875727664
C  C104  1  0.72160000  0.86080000  0.36080000  1.0 -0.0753660948
C  C105  1  0.79000000  0.89500000  0.39500000  1.0 0.617762369
C  C106  1  0.50000000  0.20540000  0.79460000  1.0 0.0875727664
C  C107  1  0.50000000  0.13920000  0.86080000  1.0 -0.0736883126
C  C108  1  0.50000000  0.10500000  0.89500000  1.0 0.617762369
C  C109  1  0.70540000  0.50000000  0.29460000  1.0 0.0875727664
C  C110  1  0.63920000  0.50000000  0.36080000  1.0 -0.0736883126
C  C111  1  0.60500000  0.50000000  0.39500000  1.0 0.617762369
C  C112  1  0.20540000  0.41080000  0.70540000  1.0 0.0875727664
C  C113  1  0.13920000  0.27840000  0.63920000  1.0 -0.0736883126
C  C114  1  0.10500000  0.21000000  0.60500000  1.0 0.617762369
C  C115  1  0.79460000  0.50000000  0.20540000  1.0 0.0875727664
C  C116  1  0.86080000  0.50000000  0.13920000  1.0 -0.0753660948
C  C117  1  0.89500000  0.50000000  0.10500000  1.0 0.617762369
C  C118  1  0.29460000  0.58920000  0.79460000  1.0 0.0875727664
C  C119  1  0.36080000  0.72160000  0.86080000  1.0 -0.0736883126
C  C120  1  0.39500000  0.79000000  0.89500000  1.0 0.617762369
C  C121  1  0.20540000  0.79460000  0.50000000  1.0 0.0875727664
C  C122  1  0.13920000  0.86080000  0.50000000  1.0 -0.0753660948
C  C123  1  0.10500000  0.89500000  0.50000000  1.0 0.617762369
C  C124  1  0.79460000  0.29460000  0.58920000  1.0 0.0875727664
C  C125  1  0.86080000  0.36080000  0.72160000  1.0 -0.0736883126
C  C126  1  0.89500000  0.39500000  0.79000000  1.0 0.617762369
C  C127  1  0.29460000  0.70540000  0.50000000  1.0 0.0875727664
C  C128  1  0.36080000  0.63920000  0.50000000  1.0 -0.0736883126
C  C129  1  0.39500000  0.60500000  0.50000000  1.0 0.617762369
C  C130  1  0.70540000  0.20540000  0.41080000  1.0 0.0875727664
C  C131  1  0.63920000  0.13920000  0.27840000  1.0 -0.0736883126
C  C132  1  0.60500000  0.10500000  0.21000000  1.0 0.617762369
C  C133  1  0.58920000  0.29460000  0.79460000  1.0 0.0875727664
C  C134  1  0.72160000  0.36080000  0.86080000  1.0 -0.0736883126
C  C135  1  0.79000000  0.39500000  0.89500000  1.0 0.617762369
C  C136  1  0.50000000  0.70540000  0.29460000  1.0 0.0875727664
C  C137  1  0.50000000  0.63920000  0.36080000  1.0 -0.0753660948
C  C138  1  0.50000000  0.60500000  0.39500000  1.0 0.617762369
C  C139  1  0.41080000  0.20540000  0.70540000  1.0 0.0875727664
C  C140  1  0.27840000  0.13920000  0.63920000  1.0 -0.0736883126
C  C141  1  0.21000000  0.10500000  0.60500000  1.0 0.617762369
C  C142  1  0.50000000  0.79460000  0.20540000  1.0 0.0875727664
C  C143  1  0.50000000  0.86080000  0.13920000  1.0 -0.0753660948
C  C144  1  0.50000000  0.89500000  0.10500000  1.0 0.617762369
C  C145  1  0.29460000  0.50000000  0.70540000  1.0 0.0875727664
C  C146  1  0.36080000  0.50000000  0.63920000  1.0 -0.0736883126
C  C147  1  0.39500000  0.50000000  0.60500000  1.0 0.617762369
C  C148  1  0.79460000  0.58920000  0.29460000  1.0 0.0875727664
C  C149  1  0.86080000  0.72160000  0.36080000  1.0 -0.0753660948
C  C150  1  0.89500000  0.79000000  0.39500000  1.0 0.617762369
C  C151  1  0.20540000  0.50000000  0.79460000  1.0 0.0875727664
C  C152  1  0.13920000  0.50000000  0.86080000  1.0 -0.0736883126
C  C153  1  0.10500000  0.50000000  0.89500000  1.0 0.617762369
C  C154  1  0.70540000  0.41080000  0.20540000  1.0 0.0875727664
C  C155  1  0.63920000  0.27840000  0.13920000  1.0 -0.0753660948
C  C156  1  0.60500000  0.21000000  0.10500000  1.0 0.617762369
C  C157  1  0.79460000  0.20540000  0.50000000  1.0 0.0875727664
C  C158  1  0.86080000  0.13920000  0.50000000  1.0 -0.0736883126
C  C159  1  0.89500000  0.10500000  0.50000000  1.0 0.617762369
C  C160  1  0.20540000  0.70540000  0.41080000  1.0 0.0875727664
C  C161  1  0.13920000  0.63920000  0.27840000  1.0 -0.0736883126
C  C162  1  0.10500000  0.60500000  0.21000000  1.0 0.617762369
C  C163  1  0.70540000  0.29460000  0.50000000  1.0 0.0875727664
C  C164  1  0.63920000  0.36080000  0.50000000  1.0 -0.0736883126
C  C165  1  0.60500000  0.39500000  0.50000000  1.0 0.617762369
C  C166  1  0.29460000  0.79460000  0.58920000  1.0 0.0875727664
C  C167  1  0.36080000  0.86080000  0.72160000  1.0 -0.0736883126
C  C168  1  0.39500000  0.89500000  0.79000000  1.0 0.617762369
C  C169  1  0.47840000  0.74230000  0.22070000  1.0 -0.0218816068
C  C170  1  0.47840000  0.25770000  0.73610000  1.0 -0.0218816068
C  C171  1  0.52160000  0.74230000  0.26390000  1.0 -0.0218816068
C  C172  1  0.52160000  0.25770000  0.77930000  1.0 -0.0218816068
C  C173  1  0.73610000  0.47840000  0.25770000  1.0 -0.0218816068
C  C174  1  0.22070000  0.47840000  0.74230000  1.0 -0.0218816068
C  C175  1  0.77930000  0.52160000  0.25770000  1.0 -0.0218816068
C  C176  1  0.26390000  0.52160000  0.74230000  1.0 -0.0218816068
C  C177  1  0.25770000  0.77930000  0.52160000  1.0 -0.0218816068
C  C178  1  0.74230000  0.26390000  0.52160000  1.0 -0.0218816068
C  C179  1  0.25770000  0.73610000  0.47840000  1.0 -0.0218816068
C  C180  1  0.74230000  0.22070000  0.47840000  1.0 -0.0218816068
C  C181  1  0.77930000  0.25770000  0.52160000  1.0 -0.0218816068
C  C182  1  0.26390000  0.74230000  0.52160000  1.0 -0.0218816068
C  C183  1  0.73610000  0.25770000  0.47840000  1.0 -0.0218816068
C  C184  1  0.22070000  0.74230000  0.47840000  1.0 -0.0218816068
C  C185  1  0.74230000  0.52160000  0.26390000  1.0 -0.0218816068
C  C186  1  0.25770000  0.52160000  0.77930000  1.0 -0.0218816068
C  C187  1  0.74230000  0.47840000  0.22070000  1.0 -0.0218816068
C  C188  1  0.25770000  0.47840000  0.73610000  1.0 -0.0218816068
C  C189  1  0.47840000  0.22070000  0.74230000  1.0 -0.0218816068
C  C190  1  0.47840000  0.73610000  0.25770000  1.0 -0.0218816068
C  C191  1  0.52160000  0.26390000  0.74230000  1.0 -0.0218816068
C  C192  1  0.52160000  0.77930000  0.25770000  1.0 -0.0218816068
O  O1  1  0.18282000  0.54782000  0.06400000  1.0 -0.6137668033
O  O2  1  0.51618000  0.45218000  0.63500000  1.0 -0.6160060715
O  O3  1  0.81718000  0.88118000  0.36500000  1.0 -0.6160060715
O  O4  1  0.48382000  0.11882000  0.93600000  1.0 -0.6160060715
O  O5  1  0.63500000  0.51618000  0.45218000  1.0 -0.6160060715
O  O6  1  0.06400000  0.18282000  0.54782000  1.0 -0.6160060715
O  O7  1  0.93600000  0.48382000  0.11882000  1.0 -0.6160060715
O  O8  1  0.36500000  0.81718000  0.88118000  1.0 -0.6160060715
O  O9  1  0.11882000  0.93600000  0.48382000  1.0 -0.6160060715
O  O10  1  0.88118000  0.36500000  0.81718000  1.0 -0.6160060715
O  O11  1  0.45218000  0.63500000  0.51618000  1.0 -0.6137668033
O  O12  1  0.54782000  0.06400000  0.18282000  1.0 -0.6160060715
O  O13  1  0.93600000  0.45218000  0.81718000  1.0 -0.6160060715
O  O14  1  0.36500000  0.54782000  0.48382000  1.0 -0.6137668033
O  O15  1  0.63500000  0.11882000  0.18282000  1.0 -0.6160060715
O  O16  1  0.06400000  0.88118000  0.51618000  1.0 -0.6160060715
O  O17  1  0.54782000  0.48382000  0.36500000  1.0 -0.6137668033
O  O18  1  0.45218000  0.81718000  0.93600000  1.0 -0.6160060715
O  O19  1  0.88118000  0.51618000  0.06400000  1.0 -0.6160060715
O  O20  1  0.11882000  0.18282000  0.63500000  1.0 -0.6160060715
O  O21  1  0.51618000  0.06400000  0.88118000  1.0 -0.6160060715
O  O22  1  0.18282000  0.63500000  0.11882000  1.0 -0.6160060715
O  O23  1  0.48382000  0.36500000  0.54782000  1.0 -0.6160060715
O  O24  1  0.81718000  0.93600000  0.45218000  1.0 -0.6160060715
O  O25  1  0.81718000  0.45218000  0.93600000  1.0 -0.6160060715
O  O26  1  0.48382000  0.54782000  0.36500000  1.0 -0.6160060715
O  O27  1  0.18282000  0.11882000  0.63500000  1.0 -0.6137668033
O  O28  1  0.51618000  0.88118000  0.06400000  1.0 -0.6160060715
O  O29  1  0.36500000  0.48382000  0.54782000  1.0 -0.6160060715
O  O30  1  0.93600000  0.81718000  0.45218000  1.0 -0.6160060715
O  O31  1  0.06400000  0.51618000  0.88118000  1.0 -0.6160060715
O  O32  1  0.63500000  0.18282000  0.11882000  1.0 -0.6160060715
O  O33  1  0.88118000  0.06400000  0.51618000  1.0 -0.6160060715
O  O34  1  0.11882000  0.63500000  0.18282000  1.0 -0.6160060715
O  O35  1  0.54782000  0.36500000  0.48382000  1.0 -0.6160060715
O  O36  1  0.45218000  0.93600000  0.81718000  1.0 -0.6137668033
O  O37  1  0.06400000  0.54782000  0.18282000  1.0 -0.6160060715
O  O38  1  0.63500000  0.45218000  0.51618000  1.0 -0.6160060715
O  O39  1  0.36500000  0.88118000  0.81718000  1.0 -0.6160060715
O  O40  1  0.93600000  0.11882000  0.48382000  1.0 -0.6160060715
O  O41  1  0.45218000  0.51618000  0.63500000  1.0 -0.6137668033
O  O42  1  0.54782000  0.18282000  0.06400000  1.0 -0.6160060715
O  O43  1  0.11882000  0.48382000  0.93600000  1.0 -0.6160060715
O  O44  1  0.88118000  0.81718000  0.36500000  1.0 -0.6160060715
O  O45  1  0.48382000  0.93600000  0.11882000  1.0 -0.6160060715
O  O46  1  0.81718000  0.36500000  0.88118000  1.0 -0.6160060715
O  O47  1  0.51618000  0.63500000  0.45218000  1.0 -0.6160060715
O  O48  1  0.18282000  0.06400000  0.54782000  1.0 -0.6160060715
O  O49  1  0.00000000  0.41680000  0.00000000  1.0 -1.2520343516
O  O50  1  0.58320000  0.58320000  0.58320000  1.0 -1.2520343516
O  O51  1  0.00000000  0.00000000  0.41680000  1.0 -1.2520343516
O  O52  1  0.41680000  0.00000000  0.00000000  1.0 -1.258079713
O  O53  1  0.00000000  0.58320000  0.00000000  1.0 -1.2520343516
O  O54  1  0.41680000  0.41680000  0.41680000  1.0 -1.2449981624
O  O55  1  0.58320000  0.00000000  0.00000000  1.0 -1.2520343516
O  O56  1  0.00000000  0.00000000  0.58320000  1.0 -1.2520343516
O  O57  1  0.08070000  0.52120000  0.08070000  1.0 -1.2097478196
O  O58  1  0.55950000  0.47880000  0.55950000  1.0 -1.2030996287
O  O59  1  0.91930000  0.00000000  0.44050000  1.0 -1.2097478196
O  O60  1  0.44050000  0.00000000  0.91930000  1.0 -1.2030996287
O  O61  1  0.55950000  0.55950000  0.47880000  1.0 -1.2030996287
O  O62  1  0.08070000  0.08070000  0.52120000  1.0 -1.2097478196
O  O63  1  0.91930000  0.44050000  0.00000000  1.0 -1.2097478196
O  O64  1  0.44050000  0.91930000  0.00000000  1.0 -1.2030996287
O  O65  1  0.00000000  0.91930000  0.44050000  1.0 -1.2097478196
O  O66  1  0.00000000  0.44050000  0.91930000  1.0 -1.2030996287
O  O67  1  0.47880000  0.55950000  0.55950000  1.0 -1.2097478196
O  O68  1  0.52120000  0.08070000  0.08070000  1.0 -1.2030996287
O  O69  1  0.91930000  0.47880000  0.91930000  1.0 -1.2030996287
O  O70  1  0.44050000  0.52120000  0.44050000  1.0 -1.2097478196
O  O71  1  0.55950000  0.00000000  0.08070000  1.0 -1.2030996287
O  O72  1  0.08070000  0.00000000  0.55950000  1.0 -1.2159627531
O  O73  1  0.52120000  0.44050000  0.44050000  1.0 -1.2159627531
O  O74  1  0.47880000  0.91930000  0.91930000  1.0 -1.2097478196
O  O75  1  0.00000000  0.55950000  0.08070000  1.0 -1.2097478196
O  O76  1  0.00000000  0.08070000  0.55950000  1.0 -1.2097478196
O  O77  1  0.55950000  0.08070000  0.00000000  1.0 -1.2097478196
O  O78  1  0.08070000  0.55950000  0.00000000  1.0 -1.2097478196
O  O79  1  0.44050000  0.44050000  0.52120000  1.0 -1.2097478196
O  O80  1  0.91930000  0.91930000  0.47880000  1.0 -1.2159627531
