# DDEC6 charges by PACMAN v1.1 (https://github.com/mtap-research/PACMAN-charge/)
data_FEHCIG_FSR_pacman
_symmetry_space_group_name_H-M   'P 1'
_cell_length_a   18.08020000
_cell_length_b   18.08020000
_cell_length_c   18.08020000
_cell_angle_alpha   134.59400000
_cell_angle_beta   98.57630000
_cell_angle_gamma   98.55700000
_symmetry_Int_Tables_number   1
_chemical_formula_structural   ZnH10C12(NO)2
_chemical_formula_sum   'Zn8 H80 C96 N16 O16'
_cell_volume   3882.62719340
_cell_formula_units_Z   8
loop_
 _symmetry_equiv_pos_site_id
 _symmetry_equiv_pos_as_xyz
  1  'x, y, z'
loop_
 _atom_site_type_symbol
 _atom_site_label
 _atom_site_symmetry_multiplicity
 _atom_site_fract_x
 _atom_site_fract_y
 _atom_site_fract_z
 _atom_site_occupancy
 _atom_site_charge
Zn  Zn1  1  0.26672000  0.39575000  0.61399000  1.0 0.7726509751
Zn  Zn2  1  0.21824000  0.10425000  0.37097000  1.0 0.7726509751
Zn  Zn3  1  0.28176000  0.65273000  0.88601000  1.0 0.7726509751
Zn  Zn4  1  0.23328000  0.84727000  0.12903000  1.0 0.7726509751
Zn  Zn5  1  0.73328000  0.60425000  0.38601000  1.0 0.7726509751
Zn  Zn6  1  0.78176000  0.89575000  0.62903000  1.0 0.7726509751
Zn  Zn7  1  0.71824000  0.34727000  0.11399000  1.0 0.7726509751
Zn  Zn8  1  0.76672000  0.15273000  0.87097000  1.0 0.7726509751
H  H1  1  0.12180000  0.41690000  0.43750000  1.0 0.1223982809
H  H2  1  0.02060000  0.08310000  0.20490000  1.0 0.1223982809
H  H3  1  0.47940000  0.68430000  0.06250000  1.0 0.1223982809
H  H4  1  0.37820000  0.81570000  0.29510000  1.0 0.1223982809
H  H5  1  0.87820000  0.58310000  0.56250000  1.0 0.1223982809
H  H6  1  0.97940000  0.91690000  0.79510000  1.0 0.1223982809
H  H7  1  0.52060000  0.31570000  0.93750000  1.0 0.1223982809
H  H8  1  0.62180000  0.18430000  0.70490000  1.0 0.1223982809
H  H9  1  0.00750000  0.41060000  0.34350000  1.0 0.1135247279
H  H10  1  0.93290000  0.08940000  0.09690000  1.0 0.1135247279
H  H11  1  0.56710000  0.66400000  0.15650000  1.0 0.1135247279
H  H12  1  0.49250000  0.83600000  0.40310000  1.0 0.1135247279
H  H13  1  0.99250000  0.58940000  0.65650000  1.0 0.1135247279
H  H14  1  0.06710000  0.91060000  0.90310000  1.0 0.1135247279
H  H15  1  0.43290000  0.33600000  0.84350000  1.0 0.1135247279
H  H16  1  0.50750000  0.16400000  0.59690000  1.0 0.1135247279
H  H17  1  0.81430000  0.43410000  0.31280000  1.0 0.1512069044
H  H18  1  0.87870000  0.06590000  0.88020000  1.0 0.1512069044
H  H19  1  0.62130000  0.50150000  0.18720000  1.0 0.1512069044
H  H20  1  0.68570000  0.99850000  0.61980000  1.0 0.1512069044
H  H21  1  0.18570000  0.56590000  0.68720000  1.0 0.1512069044
H  H22  1  0.12130000  0.93410000  0.11980000  1.0 0.1512069044
H  H23  1  0.37870000  0.49850000  0.81280000  1.0 0.1512069044
H  H24  1  0.31430000  0.00150000  0.38020000  1.0 0.1512069044
H  H25  1  0.90750000  0.45880000  0.35750000  1.0 0.158355336
H  H26  1  0.89870000  0.04120000  0.94870000  1.0 0.158355336
H  H27  1  0.60130000  0.55000000  0.14250000  1.0 0.158355336
H  H28  1  0.59250000  0.95000000  0.55130000  1.0 0.158355336
H  H29  1  0.09250000  0.54120000  0.64250000  1.0 0.158355336
H  H30  1  0.10130000  0.95880000  0.05130000  1.0 0.158355336
H  H31  1  0.39870000  0.45000000  0.85750000  1.0 0.158355336
H  H32  1  0.40750000  0.05000000  0.44870000  1.0 0.158355336
H  H33  1  0.84160000  0.36500000  0.32940000  1.0 0.158355336
H  H34  1  0.96440000  0.13500000  0.97660000  1.0 0.158355336
H  H35  1  0.53560000  0.51220000  0.17060000  1.0 0.158355336
H  H36  1  0.65840000  0.98780000  0.52340000  1.0 0.158355336
H  H37  1  0.15840000  0.63500000  0.67060000  1.0 0.158355336
H  H38  1  0.03560000  0.86500000  0.02340000  1.0 0.158355336
H  H39  1  0.46440000  0.48780000  0.82940000  1.0 0.158355336
H  H40  1  0.34160000  0.01220000  0.47660000  1.0 0.158355336
H  H41  1  0.05390000  0.24500000  0.58530000  1.0 0.1261026592
H  H42  1  0.34030000  0.25500000  0.30890000  1.0 0.1261026592
H  H43  1  0.15970000  0.46860000  0.91470000  1.0 0.1261026592
H  H44  1  0.44610000  0.03140000  0.19110000  1.0 0.1261026592
H  H45  1  0.94610000  0.75500000  0.41470000  1.0 0.1261026592
H  H46  1  0.65970000  0.74500000  0.69110000  1.0 0.1261026592
H  H47  1  0.84030000  0.53140000  0.08530000  1.0 0.1261026592
H  H48  1  0.55390000  0.96860000  0.80890000  1.0 0.1261026592
H  H49  1  0.95330000  0.14470000  0.58240000  1.0 0.1135247279
H  H50  1  0.43770000  0.35530000  0.30860000  1.0 0.1135247279
H  H51  1  0.06230000  0.37090000  0.91760000  1.0 0.1135247279
H  H52  1  0.54670000  0.12910000  0.19140000  1.0 0.1135247279
H  H53  1  0.04670000  0.85530000  0.41760000  1.0 0.1135247279
H  H54  1  0.56230000  0.64470000  0.69140000  1.0 0.1135247279
H  H55  1  0.93770000  0.62910000  0.08240000  1.0 0.1135247279
H  H56  1  0.45330000  0.87090000  0.80860000  1.0 0.1135247279
H  H57  1  0.89290000  0.90750000  0.54980000  1.0 0.1512069044
H  H58  1  0.64230000  0.59250000  0.48540000  1.0 0.1512069044
H  H59  1  0.85770000  0.34310000  0.95020000  1.0 0.1512069044
H  H60  1  0.60710000  0.15690000  0.01460000  1.0 0.1512069044
H  H61  1  0.10710000  0.09250000  0.45020000  1.0 0.1512069044
H  H62  1  0.35770000  0.40750000  0.51460000  1.0 0.1512069044
H  H63  1  0.14230000  0.65690000  0.04980000  1.0 0.1512069044
H  H64  1  0.39290000  0.84310000  0.98540000  1.0 0.1512069044
H  H65  1  0.98280000  0.99310000  0.61190000  1.0 0.1512069044
H  H66  1  0.61880000  0.50690000  0.48970000  1.0 0.1512069044
H  H67  1  0.88120000  0.37090000  0.88810000  1.0 0.1512069044
H  H68  1  0.51720000  0.12910000  0.01030000  1.0 0.1512069044
H  H69  1  0.01720000  0.00690000  0.38810000  1.0 0.1512069044
H  H70  1  0.38120000  0.49310000  0.51030000  1.0 0.1512069044
H  H71  1  0.11880000  0.62910000  0.11190000  1.0 0.1512069044
H  H72  1  0.48280000  0.87090000  0.98970000  1.0 0.1512069044
H  H73  1  0.91710000  0.97930000  0.52940000  1.0 0.1512069044
H  H74  1  0.55010000  0.52070000  0.43780000  1.0 0.1512069044
H  H75  1  0.94990000  0.38770000  0.97060000  1.0 0.1512069044
H  H76  1  0.58290000  0.11230000  0.06220000  1.0 0.1512069044
H  H77  1  0.08290000  0.02070000  0.47060000  1.0 0.1512069044
H  H78  1  0.44990000  0.47930000  0.56220000  1.0 0.1512069044
H  H79  1  0.05010000  0.61230000  0.02940000  1.0 0.1512069044
H  H80  1  0.41710000  0.88770000  0.93780000  1.0 0.1512069044
C  C1  1  0.14610000  0.25000000  0.39610000  1.0 0.5765119525
C  C2  1  0.35390000  0.75000000  0.10390000  1.0 0.5765119525
C  C3  1  0.85390000  0.75000000  0.60390000  1.0 0.5765119525
C  C4  1  0.64610000  0.25000000  0.89610000  1.0 0.5765119525
C  C5  1  0.08332000  0.25000000  0.33333333  1.0 -0.0485975488
C  C6  1  0.41668000  0.75000000  0.16668000  1.0 -0.0485975488
C  C7  1  0.91668000  0.75000000  0.66666667  1.0 -0.0485975488
C  C8  1  0.58332000  0.25000000  0.83332000  1.0 -0.0485975488
C  C9  1  0.08070000  0.34760000  0.37190000  1.0 -0.0899709879
C  C10  1  0.02430000  0.15240000  0.23310000  1.0 -0.0899709879
C  C11  1  0.47570000  0.70880000  0.12810000  1.0 -0.0899709879
C  C12  1  0.41930000  0.79120000  0.26690000  1.0 -0.0899709879
C  C13  1  0.91930000  0.65240000  0.62810000  1.0 -0.0899709879
C  C14  1  0.97570000  0.84760000  0.76690000  1.0 -0.0899709879
C  C15  1  0.52430000  0.29120000  0.87190000  1.0 -0.0899709879
C  C16  1  0.58070000  0.20880000  0.73310000  1.0 -0.0899709879
C  C17  1  0.01410000  0.34330000  0.31100000  1.0 -0.1535736813
C  C18  1  0.96770000  0.15670000  0.17080000  1.0 -0.1535736813
C  C19  1  0.53230000  0.70310000  0.18900000  1.0 -0.1535736813
C  C20  1  0.48590000  0.79690000  0.32920000  1.0 -0.1535736813
C  C21  1  0.98590000  0.65670000  0.68900000  1.0 -0.1535736813
C  C22  1  0.03230000  0.84330000  0.82920000  1.0 -0.1535736813
C  C23  1  0.46770000  0.29690000  0.81100000  1.0 -0.1535736813
C  C24  1  0.51410000  0.20310000  0.67080000  1.0 -0.1535736813
C  C25  1  0.96400000  0.25000000  0.21400000  1.0 0.0941928731
C  C26  1  0.53600000  0.75000000  0.28600000  1.0 0.0941928731
C  C27  1  0.03600000  0.75000000  0.78600000  1.0 0.0941928731
C  C28  1  0.46400000  0.25000000  0.71400000  1.0 0.0941928731
C  C29  1  0.90160000  0.25000000  0.15160000  1.0 -0.1387966989
C  C30  1  0.59840000  0.75000000  0.34840000  1.0 -0.1387966989
C  C31  1  0.09840000  0.75000000  0.84840000  1.0 -0.1387966989
C  C32  1  0.40160000  0.25000000  0.65160000  1.0 -0.1387966989
C  C33  1  0.85190000  0.31760000  0.19330000  1.0 0.2656777682
C  C34  1  0.87570000  0.18240000  0.03430000  1.0 0.2656777682
C  C35  1  0.62430000  0.65860000  0.30670000  1.0 0.2656777682
C  C36  1  0.64810000  0.84140000  0.46570000  1.0 0.2656777682
C  C37  1  0.14810000  0.68240000  0.80670000  1.0 0.2656777682
C  C38  1  0.12430000  0.81760000  0.96570000  1.0 0.2656777682
C  C39  1  0.37570000  0.34140000  0.69330000  1.0 0.2656777682
C  C40  1  0.35190000  0.15860000  0.53430000  1.0 0.2656777682
C  C41  1  0.85400000  0.40070000  0.30770000  1.0 -0.5091813324
C  C42  1  0.90700000  0.09930000  0.95330000  1.0 -0.5091813324
C  C43  1  0.59300000  0.54630000  0.19230000  1.0 -0.5091813324
C  C44  1  0.64600000  0.95370000  0.54670000  1.0 -0.5091813324
C  C45  1  0.14600000  0.59930000  0.69230000  1.0 -0.5091813324
C  C46  1  0.09300000  0.90070000  0.04670000  1.0 -0.5091813324
C  C47  1  0.40700000  0.45370000  0.80770000  1.0 -0.5091813324
C  C48  1  0.35400000  0.04630000  0.45330000  1.0 -0.5091813324
C  C49  1  0.17800000  0.42800000  0.75000000  1.0 0.5853114159
C  C50  1  0.32200000  0.07200000  0.25000000  1.0 0.5853114159
C  C51  1  0.82200000  0.57200000  0.25000000  1.0 0.5853114159
C  C52  1  0.67800000  0.92800000  0.75000000  1.0 0.5853114159
C  C53  1  0.11490000  0.36490000  0.75000000  1.0 -0.0433455814
C  C54  1  0.38510000  0.13510000  0.25000000  1.0 -0.0433455814
C  C55  1  0.88510000  0.63510000  0.25000000  1.0 -0.0433455814
C  C56  1  0.61490000  0.86490000  0.75000000  1.0 -0.0433455814
C  C57  1  0.05500000  0.27040000  0.65280000  1.0 -0.0991843926
C  C58  1  0.38240000  0.22960000  0.28460000  1.0 -0.0991843926
C  C59  1  0.11760000  0.40220000  0.84720000  1.0 -0.0991843926
C  C60  1  0.44500000  0.09780000  0.21540000  1.0 -0.0991843926
C  C61  1  0.94500000  0.72960000  0.34720000  1.0 -0.0991843926
C  C62  1  0.61760000  0.77040000  0.71540000  1.0 -0.0991843926
C  C63  1  0.88240000  0.59780000  0.15280000  1.0 -0.0991843926
C  C64  1  0.55500000  0.90220000  0.78460000  1.0 -0.0991843926
C  C65  1  0.99500000  0.21020000  0.65080000  1.0 -0.1581273681
C  C66  1  0.44060000  0.28980000  0.28480000  1.0 -0.1581273681
C  C67  1  0.05940000  0.34420000  0.84920000  1.0 -0.1581273681
C  C68  1  0.50500000  0.15580000  0.21520000  1.0 -0.1581273681
C  C69  1  0.00500000  0.78980000  0.34920000  1.0 -0.1581273681
C  C70  1  0.55940000  0.71020000  0.71520000  1.0 -0.1581273681
C  C71  1  0.94060000  0.65580000  0.15080000  1.0 -0.1581273681
C  C72  1  0.49500000  0.84420000  0.78480000  1.0 -0.1581273681
C  C73  1  0.99590000  0.24590000  0.75000000  1.0 0.1223982809
C  C74  1  0.50410000  0.25410000  0.25000000  1.0 0.1223982809
C  C75  1  0.00410000  0.75410000  0.25000000  1.0 0.1223982809
C  C76  1  0.49590000  0.74590000  0.75000000  1.0 0.1223982809
C  C77  1  0.93330000  0.18330000  0.75000000  1.0 -0.1860808401
C  C78  1  0.56670000  0.31670000  0.25000000  1.0 -0.1860808401
C  C79  1  0.06670000  0.81670000  0.25000000  1.0 -0.1860808401
C  C80  1  0.43330000  0.68330000  0.75000000  1.0 -0.1860808401
C  C81  1  0.90410000  0.06950000  0.67920000  1.0 0.21509223
C  C82  1  0.60970000  0.43050000  0.33460000  1.0 0.21509223
C  C83  1  0.89030000  0.22490000  0.82080000  1.0 0.21509223
C  C84  1  0.59590000  0.27510000  0.16540000  1.0 0.21509223
C  C85  1  0.09590000  0.93050000  0.32080000  1.0 0.21509223
C  C86  1  0.39030000  0.56950000  0.66540000  1.0 0.21509223
C  C87  1  0.10970000  0.77510000  0.17920000  1.0 0.21509223
C  C88  1  0.40410000  0.72490000  0.83460000  1.0 0.21509223
C  C89  1  0.92620000  0.97970000  0.58450000  1.0 -0.5016269429
C  C90  1  0.60480000  0.52030000  0.44650000  1.0 -0.5016269429
C  C91  1  0.89520000  0.34170000  0.91550000  1.0 -0.5016269429
C  C92  1  0.57380000  0.15830000  0.05350000  1.0 -0.5016269429
C  C93  1  0.07380000  0.02030000  0.41550000  1.0 -0.5016269429
C  C94  1  0.39520000  0.47970000  0.55350000  1.0 -0.5016269429
C  C95  1  0.10480000  0.65830000  0.08450000  1.0 -0.5016269429
C  C96  1  0.42620000  0.84170000  0.94650000  1.0 -0.5016269429
N  N1  1  0.80170000  0.28930000  0.10940000  1.0 -0.2881239584
N  N2  1  0.82010000  0.21070000  0.01240000  1.0 -0.2881239584
N  N3  1  0.67990000  0.69230000  0.39060000  1.0 -0.2881239584
N  N4  1  0.69830000  0.80770000  0.48760000  1.0 -0.2881239584
N  N5  1  0.19830000  0.71070000  0.89060000  1.0 -0.2881239584
N  N6  1  0.17990000  0.78930000  0.98760000  1.0 -0.2881239584
N  N7  1  0.32010000  0.30770000  0.60940000  1.0 -0.2881239584
N  N8  1  0.30170000  0.19230000  0.51240000  1.0 -0.2881239584
N  N9  1  0.84700000  0.04430000  0.70470000  1.0 -0.2697048864
N  N10  1  0.66040000  0.45570000  0.30270000  1.0 -0.2697048864
N  N11  1  0.83960000  0.14230000  0.79530000  1.0 -0.2697048864
N  N12  1  0.65300000  0.35770000  0.19730000  1.0 -0.2697048864
N  N13  1  0.15300000  0.95570000  0.29530000  1.0 -0.2697048864
N  N14  1  0.33960000  0.54430000  0.69730000  1.0 -0.2697048864
N  N15  1  0.16040000  0.85770000  0.20470000  1.0 -0.2697048864
N  N16  1  0.34700000  0.64230000  0.80270000  1.0 -0.2697048864
O  O1  1  0.20500000  0.33690000  0.47210000  1.0 -0.5091813324
O  O2  1  0.13520000  0.16310000  0.36810000  1.0 -0.5091813324
O  O3  1  0.36480000  0.73290000  0.02790000  1.0 -0.5091813324
O  O4  1  0.29500000  0.76710000  0.13190000  1.0 -0.5091813324
O  O5  1  0.79500000  0.66310000  0.52790000  1.0 -0.5091813324
O  O6  1  0.86480000  0.83690000  0.63190000  1.0 -0.5091813324
O  O7  1  0.63520000  0.26710000  0.97210000  1.0 -0.5091813324
O  O8  1  0.70500000  0.23290000  0.86810000  1.0 -0.5091813324
O  O9  1  0.17540000  0.38780000  0.65560000  1.0 -0.5526317029
O  O10  1  0.26780000  0.11220000  0.28760000  1.0 -0.5526317029
O  O11  1  0.23220000  0.51980000  0.84440000  1.0 -0.5526317029
O  O12  1  0.32460000  0.98020000  0.21240000  1.0 -0.5526317029
O  O13  1  0.82460000  0.61220000  0.34440000  1.0 -0.5526317029
O  O14  1  0.73220000  0.88780000  0.71240000  1.0 -0.5526317029
O  O15  1  0.76780000  0.48020000  0.15560000  1.0 -0.5526317029
O  O16  1  0.67540000  0.01980000  0.78760000  1.0 -0.5526317029
