# DDEC6 charges by PACMAN v1.1 (https://github.com/mtap-research/PACMAN-charge/)
data_FEJDEE_ASR_pacman
_symmetry_space_group_name_H-M   'P 1'
_cell_length_a   7.77030000
_cell_length_b   9.14990000
_cell_length_c   14.46850000
_cell_angle_alpha   89.96500000
_cell_angle_beta   92.95000000
_cell_angle_gamma   114.66800000
_symmetry_Int_Tables_number   1
_chemical_formula_structural   Zn3P4(HO3)4
_chemical_formula_sum   'Zn6 P8 H8 O24'
_cell_volume   933.31279903
_cell_formula_units_Z   2
loop_
 _symmetry_equiv_pos_site_id
 _symmetry_equiv_pos_as_xyz
  1  'x, y, z'
loop_
 _atom_site_type_symbol
 _atom_site_label
 _atom_site_symmetry_multiplicity
 _atom_site_fract_x
 _atom_site_fract_y
 _atom_site_fract_z
 _atom_site_occupancy
 _atom_site_charge
Zn  Zn1  1  0.21857000  0.03110000  0.88934000  1.0 1.1285614069
Zn  Zn2  1  0.78143000  0.96890000  0.11066000  1.0 1.1172384318
Zn  Zn3  1  0.40719000  0.06083000  0.62075000  1.0 1.1172384318
Zn  Zn4  1  0.59281000  0.93917000  0.37925000  1.0 1.1172384318
Zn  Zn5  1  0.70314000  0.69095000  0.76418000  1.0 1.1172384318
Zn  Zn6  1  0.29686000  0.30905000  0.23582000  1.0 1.1172384318
P  P1  1  0.52300000  0.32130000  0.78993000  1.0 1.1688512858
P  P2  1  0.47700000  0.67870000  0.21007000  1.0 1.1688512858
P  P3  1  0.13750000  0.76370000  0.72988000  1.0 1.2516036328
P  P4  1  0.86250000  0.23630000  0.27012000  1.0 1.2516036328
P  P5  1  0.32210000  0.10960000  0.40645000  1.0 1.1172384318
P  P6  1  0.67790000  0.89040000  0.59355000  1.0 1.1172384318
P  P7  1  0.19930000  0.00010000  0.11099000  1.0 1.1285614069
P  P8  1  0.80070000  0.99990000  0.88901000  1.0 1.1285614069
H  H1  1  0.69800000  0.34700000  0.78800000  1.0 -0.119366229
H  H2  1  0.30200000  0.65300000  0.21200000  1.0 -0.119366229
H  H3  1  0.20900000  0.64600000  0.72300000  1.0 -0.061742485
H  H4  1  0.79100000  0.35400000  0.27700000  1.0 -0.061742485
H  H5  1  0.15300000  0.07000000  0.39790000  1.0 -0.0412908601
H  H6  1  0.84700000  0.93000000  0.60210000  1.0 -0.0412908601
H  H7  1  0.29700000  0.94700000  0.16300000  1.0 -0.0412908601
H  H8  1  0.70300000  0.05300000  0.83700000  1.0 -0.0412908601
O  O1  1  0.45040000  0.22210000  0.87550000  1.0 -0.616413087
O  O2  1  0.54960000  0.77790000  0.12450000  1.0 -0.616413087
O  O3  1  0.22800000  0.85350000  0.82040000  1.0 -0.6842037742
O  O4  1  0.77200000  0.14650000  0.17960000  1.0 -0.6842037742
O  O5  1  0.22500000  0.95590000  0.01400000  1.0 -0.616413087
O  O6  1  0.77500000  0.04410000  0.98600000  1.0 -0.616413087
O  O7  1  0.99940000  0.91990000  0.14150000  1.0 -0.6619542444
O  O8  1  0.00060000  0.08010000  0.85850000  1.0 -0.6619542444
O  O9  1  0.41980000  0.23320000  0.70200000  1.0 -0.6426071975
O  O10  1  0.58020000  0.76680000  0.29800000  1.0 -0.6426071975
O  O11  1  0.19140000  0.86670000  0.64510000  1.0 -0.6842037742
O  O12  1  0.80860000  0.13330000  0.35490000  1.0 -0.6842037742
O  O13  1  0.38090000  0.16030000  0.50590000  1.0 -0.6115611498
O  O14  1  0.61910000  0.83970000  0.49410000  1.0 -0.6115611498
O  O15  1  0.35660000  0.96400000  0.37700000  1.0 -0.6619542444
O  O16  1  0.64340000  0.03600000  0.62300000  1.0 -0.6619542444
O  O17  1  0.41390000  0.25450000  0.34560000  1.0 -0.6426071975
O  O18  1  0.58610000  0.74550000  0.65440000  1.0 -0.6426071975
O  O19  1  0.92610000  0.67010000  0.73090000  1.0 -0.6735289995
O  O20  1  0.07390000  0.32990000  0.26910000  1.0 -0.6735289995
O  O21  1  0.51690000  0.48560000  0.79800000  1.0 -0.602540106
O  O22  1  0.48310000  0.51440000  0.20200000  1.0 -0.602540106
O  O23  1  0.28250000  0.18230000  0.12670000  1.0 -0.6619542444
O  O24  1  0.71750000  0.81770000  0.87330000  1.0 -0.6619542444
