# DDEC6 charges by PACMAN v1.1 (https://github.com/mtap-research/PACMAN-charge/)
data_FEJDII_ASR_pacman
_symmetry_space_group_name_H-M   'P 1'
_cell_length_a   9.02380000
_cell_length_b   9.03920000
_cell_length_c   13.80710000
_cell_angle_alpha   95.96500000
_cell_angle_beta   96.04900000
_cell_angle_gamma   110.22800000
_symmetry_Int_Tables_number   1
_chemical_formula_structural   Zn3P4(HO3)4
_chemical_formula_sum   'Zn6 P8 H8 O24'
_cell_volume   1038.91582963
_cell_formula_units_Z   2
loop_
 _symmetry_equiv_pos_site_id
 _symmetry_equiv_pos_as_xyz
  1  'x, y, z'
loop_
 _atom_site_type_symbol
 _atom_site_label
 _atom_site_symmetry_multiplicity
 _atom_site_fract_x
 _atom_site_fract_y
 _atom_site_fract_z
 _atom_site_occupancy
 _atom_site_charge
Zn  Zn1  1  0.97132000  0.13261000  0.89652000  1.0 1.095592601
Zn  Zn2  1  0.02868000  0.86739000  0.10348000  1.0 1.0938295751
Zn  Zn3  1  0.28221000  0.71760000  0.75007000  1.0 1.1397565037
Zn  Zn4  1  0.71779000  0.28240000  0.24993000  1.0 1.1397565037
Zn  Zn5  1  0.86704000  0.02871000  0.60324000  1.0 1.095592601
Zn  Zn6  1  0.13296000  0.97129000  0.39676000  1.0 1.095592601
P  P1  1  0.05630000  0.81780000  0.88412000  1.0 1.2574985653
P  P2  1  0.94370000  0.18220000  0.11588000  1.0 1.2574985653
P  P3  1  0.18160000  0.94330000  0.61577000  1.0 1.2986761361
P  P4  1  0.81840000  0.05670000  0.38423000  1.0 1.2986761361
P  P5  1  0.05480000  0.36620000  0.73236000  1.0 1.228911224
P  P6  1  0.94520000  0.63380000  0.26764000  1.0 1.228911224
P  P7  1  0.63340000  0.94490000  0.76714000  1.0 1.2671204238
P  P8  1  0.36660000  0.05510000  0.23286000  1.0 1.2671204238
H  H1  1  0.94200000  0.74900000  0.80000000  1.0 -0.1089442231
H  H2  1  0.05800000  0.25100000  0.20000000  1.0 -0.1089442231
H  H3  1  0.25900000  0.05700000  0.70300000  1.0 -0.1089442231
H  H4  1  0.74100000  0.94300000  0.29700000  1.0 -0.1089442231
H  H5  1  0.95600000  0.44100000  0.75600000  1.0 -0.1510834218
H  H6  1  0.04400000  0.55900000  0.24400000  1.0 -0.1510834218
H  H7  1  0.55500000  0.04500000  0.74200000  1.0 -0.1510834218
H  H8  1  0.44500000  0.95500000  0.25800000  1.0 -0.1510834218
O  O1  1  0.09400000  0.99480000  0.89200000  1.0 -0.6798052759
O  O2  1  0.90600000  0.00520000  0.10800000  1.0 -0.6798052759
O  O3  1  0.98960000  0.74870000  0.97240000  1.0 -0.627622214
O  O4  1  0.01040000  0.25130000  0.02760000  1.0 -0.627622214
O  O5  1  0.20340000  0.77820000  0.86680000  1.0 -0.6696570337
O  O6  1  0.79660000  0.22180000  0.13320000  1.0 -0.6696570337
O  O7  1  0.22140000  0.79670000  0.63340000  1.0 -0.6798052759
O  O8  1  0.77860000  0.20330000  0.36660000  1.0 -0.6798052759
O  O9  1  0.00400000  0.90470000  0.60750000  1.0 -0.6896364957
O  O10  1  0.99600000  0.09530000  0.39250000  1.0 -0.6896364957
O  O11  1  0.25040000  0.01030000  0.52720000  1.0 -0.6415163845
O  O12  1  0.74960000  0.98970000  0.47280000  1.0 -0.6415163845
O  O13  1  0.97000000  0.25400000  0.64020000  1.0 -0.6593588561
O  O14  1  0.03000000  0.74600000  0.35980000  1.0 -0.6593588561
O  O15  1  0.20700000  0.48940000  0.71460000  1.0 -0.6169419856
O  O16  1  0.79300000  0.51060000  0.28540000  1.0 -0.6169419856
O  O17  1  0.09000000  0.28550000  0.81810000  1.0 -0.6502942413
O  O18  1  0.91000000  0.71450000  0.18190000  1.0 -0.6502942413
O  O19  1  0.71400000  0.91040000  0.68130000  1.0 -0.6502942413
O  O20  1  0.28600000  0.08960000  0.31870000  1.0 -0.6502942413
O  O21  1  0.51030000  0.79130000  0.78500000  1.0 -0.627622214
O  O22  1  0.48970000  0.20870000  0.21500000  1.0 -0.627622214
O  O23  1  0.74600000  0.03150000  0.86010000  1.0 -0.6696570337
O  O24  1  0.25400000  0.96850000  0.13990000  1.0 -0.6696570337
