# DDEC6 charges by PACMAN v1.1 (https://github.com/mtap-research/PACMAN-charge/)
data_FEJDII01_ASR_pacman
_symmetry_space_group_name_H-M   'P 1'
_cell_length_a   9.01196000
_cell_length_b   9.01196000
_cell_length_c   13.77260000
_cell_angle_alpha   83.86650000
_cell_angle_beta   96.13350000
_cell_angle_gamma   70.01250000
_symmetry_Int_Tables_number   1
_chemical_formula_structural   Zn3P4(HO3)4
_chemical_formula_sum   'Zn6 P8 H8 O24'
_cell_volume   1032.78119944
_cell_formula_units_Z   2
loop_
 _symmetry_equiv_pos_site_id
 _symmetry_equiv_pos_as_xyz
  1  'x, y, z'
loop_
 _atom_site_type_symbol
 _atom_site_label
 _atom_site_symmetry_multiplicity
 _atom_site_fract_x
 _atom_site_fract_y
 _atom_site_fract_z
 _atom_site_occupancy
 _atom_site_charge
Zn  Zn1  1  0.02486000  0.13308000  0.60234000  1.0 1.0966658327
Zn  Zn2  1  0.13308000  0.02486000  0.89766000  1.0 1.0966658327
Zn  Zn3  1  0.97514000  0.86692000  0.39766000  1.0 1.0898141596
Zn  Zn4  1  0.86692000  0.97514000  0.10234000  1.0 1.0898141596
Zn  Zn5  1  0.71529000  0.71529000  0.75000000  1.0 1.1509245965
Zn  Zn6  1  0.28471000  0.28471000  0.25000000  1.0 1.1509245965
P  P1  1  0.94236000  0.36396000  0.76830000  1.0 1.2905661496
P  P2  1  0.36396000  0.94236000  0.73170000  1.0 1.2905661496
P  P3  1  0.05764000  0.63604000  0.23170000  1.0 1.2905661496
P  P4  1  0.63604000  0.05764000  0.26830000  1.0 1.2905661496
P  P5  1  0.81469000  0.94381000  0.88396000  1.0 1.3069016072
P  P6  1  0.94381000  0.81469000  0.61604000  1.0 1.3069016072
P  P7  1  0.18531000  0.05619000  0.11604000  1.0 1.3069016072
P  P8  1  0.05619000  0.18531000  0.38396000  1.0 1.3069016072
H  H1  1  0.04800000  0.43600000  0.73900000  1.0 -0.1575442669
H  H2  1  0.43600000  0.04800000  0.76100000  1.0 -0.1575442669
H  H3  1  0.95200000  0.56400000  0.26100000  1.0 -0.1575442669
H  H4  1  0.56400000  0.95200000  0.23900000  1.0 -0.1575442669
H  H5  1  0.74080000  0.06080000  0.79740000  1.0 -0.1159918872
H  H6  1  0.06080000  0.74080000  0.70260000  1.0 -0.1146969614
H  H7  1  0.25920000  0.93920000  0.20260000  1.0 -0.1146969614
H  H8  1  0.93920000  0.25920000  0.29740000  1.0 -0.1159918872
O  O1  1  0.90570000  0.28190000  0.68390000  1.0 -0.657067698
O  O2  1  0.28190000  0.90570000  0.81610000  1.0 -0.657067698
O  O3  1  0.09430000  0.71810000  0.31610000  1.0 -0.657067698
O  O4  1  0.71810000  0.09430000  0.18390000  1.0 -0.657067698
O  O5  1  0.99259000  0.90339000  0.89240000  1.0 -0.6908906765
O  O6  1  0.90339000  0.99259000  0.60760000  1.0 -0.6908906765
O  O7  1  0.00741000  0.09661000  0.10760000  1.0 -0.6908906765
O  O8  1  0.09661000  0.00741000  0.39240000  1.0 -0.6908906765
O  O9  1  0.03310000  0.25090000  0.86070000  1.0 -0.6695975927
O  O10  1  0.25090000  0.03310000  0.63930000  1.0 -0.6695975927
O  O11  1  0.96690000  0.74910000  0.13930000  1.0 -0.6695975927
O  O12  1  0.74910000  0.96690000  0.36070000  1.0 -0.6695975927
O  O13  1  0.74470000  0.01430000  0.97116000  1.0 -0.6417791811
O  O14  1  0.01430000  0.74470000  0.52884000  1.0 -0.6417791811
O  O15  1  0.25530000  0.98570000  0.02884000  1.0 -0.6417791811
O  O16  1  0.98570000  0.25530000  0.47116000  1.0 -0.6417791811
O  O17  1  0.77213000  0.79793000  0.86729000  1.0 -0.6908906765
O  O18  1  0.79793000  0.77213000  0.63271000  1.0 -0.6908906765
O  O19  1  0.22787000  0.20207000  0.13271000  1.0 -0.6846246985
O  O20  1  0.20207000  0.22787000  0.36729000  1.0 -0.6846246985
O  O21  1  0.78929000  0.48769000  0.78770000  1.0 -0.6461885241
O  O22  1  0.48769000  0.78929000  0.71230000  1.0 -0.6461885241
O  O23  1  0.21071000  0.51231000  0.21230000  1.0 -0.6461885241
O  O24  1  0.51231000  0.21071000  0.28770000  1.0 -0.6461885241
