# DDEC6 charges by PACMAN v1.1 (https://github.com/mtap-research/PACMAN-charge/)
data_FEJHEL01_ASR_pacman
_symmetry_space_group_name_H-M   'P 1'
_cell_length_a   11.53480000
_cell_length_b   11.53480000
_cell_length_c   11.53480000
_cell_angle_alpha   105.01900000
_cell_angle_beta   105.01900000
_cell_angle_gamma   105.01900000
_symmetry_Int_Tables_number   1
_chemical_formula_structural   Zn3H54C36(N2O3)4
_chemical_formula_sum   'Zn3 H54 C36 N8 O12'
_cell_volume   1341.22589879
_cell_formula_units_Z   1
loop_
 _symmetry_equiv_pos_site_id
 _symmetry_equiv_pos_as_xyz
  1  'x, y, z'
loop_
 _atom_site_type_symbol
 _atom_site_label
 _atom_site_symmetry_multiplicity
 _atom_site_fract_x
 _atom_site_fract_y
 _atom_site_fract_z
 _atom_site_occupancy
 _atom_site_charge
Zn  Zn1  1  0.50000000  0.50000000  0.50000000  1.0 1.0547198318
Zn  Zn2  1  0.24034000  0.24034000  0.24034000  1.0 0.7197576725
Zn  Zn3  1  0.75966000  0.75966000  0.75966000  1.0 0.7197576725
H  H1  1  0.65500000  0.69890000  0.05360000  1.0 0.1130424627
H  H2  1  0.56120000  0.69250000  0.28520000  1.0 0.1834198994
H  H3  1  0.66780000  0.63310000  0.30610000  1.0 0.1874845115
H  H4  1  0.60490000  0.63560000  0.21710000  1.0 0.0407554681
H  H5  1  0.68200000  0.74390000  0.25190000  1.0 0.1958076619
H  H6  1  0.97340000  0.06260000  0.18980000  1.0 0.1130424627
H  H7  1  0.06650000  0.98710000  0.20370000  1.0 0.0733823267
H  H8  1  0.17838000  0.96000000  0.06912000  1.0 0.1130424627
H  H9  1  0.11200000  0.95710000  0.16990000  1.0 0.0733823267
H  H10  1  0.69890000  0.05360000  0.65500000  1.0 0.1130424627
H  H11  1  0.69250000  0.28520000  0.56120000  1.0 0.1834198994
H  H12  1  0.63310000  0.30610000  0.66780000  1.0 0.1874845115
H  H13  1  0.63560000  0.21710000  0.60490000  1.0 0.0407554681
H  H14  1  0.74390000  0.25190000  0.68200000  1.0 0.1958076619
H  H15  1  0.06260000  0.18980000  0.97340000  1.0 0.1130424627
H  H16  1  0.98710000  0.20370000  0.06650000  1.0 0.0733823267
H  H17  1  0.96000000  0.06912000  0.17838000  1.0 0.1130424627
H  H18  1  0.95710000  0.16990000  0.11200000  1.0 0.0733823267
H  H19  1  0.05360000  0.65500000  0.69890000  1.0 0.1130424627
H  H20  1  0.28520000  0.56120000  0.69250000  1.0 0.1834198994
H  H21  1  0.30610000  0.66780000  0.63310000  1.0 0.1874845115
H  H22  1  0.21710000  0.60490000  0.63560000  1.0 0.0407554681
H  H23  1  0.25190000  0.68200000  0.74390000  1.0 0.1958076619
H  H24  1  0.18980000  0.97340000  0.06260000  1.0 0.1130424627
H  H25  1  0.20370000  0.06650000  0.98710000  1.0 0.0733823267
H  H26  1  0.06912000  0.17838000  0.96000000  1.0 0.1130424627
H  H27  1  0.16990000  0.11200000  0.95710000  1.0 0.0733823267
H  H28  1  0.34500000  0.30110000  0.94640000  1.0 0.1130424627
H  H29  1  0.43880000  0.30750000  0.71480000  1.0 0.1834198994
H  H30  1  0.33220000  0.36690000  0.69390000  1.0 0.1874845115
H  H31  1  0.39510000  0.36440000  0.78290000  1.0 0.0407554681
H  H32  1  0.31800000  0.25610000  0.74810000  1.0 0.1958076619
H  H33  1  0.02660000  0.93740000  0.81020000  1.0 0.1130424627
H  H34  1  0.93350000  0.01290000  0.79630000  1.0 0.0733823267
H  H35  1  0.82162000  0.04000000  0.93088000  1.0 0.1130424627
H  H36  1  0.88800000  0.04290000  0.83010000  1.0 0.0733823267
H  H37  1  0.30110000  0.94640000  0.34500000  1.0 0.1130424627
H  H38  1  0.30750000  0.71480000  0.43880000  1.0 0.1834198994
H  H39  1  0.36690000  0.69390000  0.33220000  1.0 0.1874845115
H  H40  1  0.36440000  0.78290000  0.39510000  1.0 0.0407554681
H  H41  1  0.25610000  0.74810000  0.31800000  1.0 0.1958076619
H  H42  1  0.93740000  0.81020000  0.02660000  1.0 0.1130424627
H  H43  1  0.01290000  0.79630000  0.93350000  1.0 0.0733823267
H  H44  1  0.04000000  0.93088000  0.82162000  1.0 0.1130424627
H  H45  1  0.04290000  0.83010000  0.88800000  1.0 0.0733823267
H  H46  1  0.94640000  0.34500000  0.30110000  1.0 0.1130424627
H  H47  1  0.71480000  0.43880000  0.30750000  1.0 0.1834198994
H  H48  1  0.69390000  0.33220000  0.36690000  1.0 0.1874845115
H  H49  1  0.78290000  0.39510000  0.36440000  1.0 0.0407554681
H  H50  1  0.74810000  0.31800000  0.25610000  1.0 0.1958076619
H  H51  1  0.81020000  0.02660000  0.93740000  1.0 0.1130424627
H  H52  1  0.79630000  0.93350000  0.01290000  1.0 0.0733823267
H  H53  1  0.93088000  0.82162000  0.04000000  1.0 0.1130424627
H  H54  1  0.83010000  0.88800000  0.04290000  1.0 0.0733823267
C  C1  1  0.43111000  0.41423000  0.19598000  1.0 0.52893977
C  C2  1  0.46950000  0.46006000  0.09661000  1.0 -0.0731233681
C  C3  1  0.56288000  0.58086000  0.13005000  1.0 0.1165104919
C  C4  1  0.59208000  0.61834000  0.03181000  1.0 -0.2573897478
C  C5  1  0.01381000  0.01375000  0.14583000  1.0 -0.1388660855
C  C6  1  0.10415000  0.96486000  0.08851000  1.0 -0.1071780044
C  C7  1  0.41423000  0.19598000  0.43111000  1.0 0.52893977
C  C8  1  0.46006000  0.09661000  0.46950000  1.0 -0.0731233681
C  C9  1  0.58086000  0.13005000  0.56288000  1.0 0.1165104919
C  C10  1  0.61834000  0.03181000  0.59208000  1.0 -0.2573897478
C  C11  1  0.01375000  0.14583000  0.01381000  1.0 -0.1388660855
C  C12  1  0.96486000  0.08851000  0.10415000  1.0 -0.1071780044
C  C13  1  0.19598000  0.43111000  0.41423000  1.0 0.52893977
C  C14  1  0.09661000  0.46950000  0.46006000  1.0 -0.0731233681
C  C15  1  0.13005000  0.56288000  0.58086000  1.0 0.1165104919
C  C16  1  0.03181000  0.59208000  0.61834000  1.0 -0.2573897478
C  C17  1  0.14583000  0.01381000  0.01375000  1.0 -0.1388660855
C  C18  1  0.08851000  0.10415000  0.96486000  1.0 -0.1071780044
C  C19  1  0.56889000  0.58577000  0.80402000  1.0 0.52893977
C  C20  1  0.53050000  0.53994000  0.90339000  1.0 -0.0731233681
C  C21  1  0.43712000  0.41914000  0.86995000  1.0 0.1165104919
C  C22  1  0.40792000  0.38166000  0.96819000  1.0 -0.2573897478
C  C23  1  0.98619000  0.98625000  0.85417000  1.0 -0.1388660855
C  C24  1  0.89585000  0.03514000  0.91149000  1.0 -0.1071780044
C  C25  1  0.58577000  0.80402000  0.56889000  1.0 0.52893977
C  C26  1  0.53994000  0.90339000  0.53050000  1.0 -0.0731233681
C  C27  1  0.41914000  0.86995000  0.43712000  1.0 0.1165104919
C  C28  1  0.38166000  0.96819000  0.40792000  1.0 -0.2573897478
C  C29  1  0.98625000  0.85417000  0.98619000  1.0 -0.1388660855
C  C30  1  0.03514000  0.91149000  0.89585000  1.0 -0.1071780044
C  C31  1  0.80402000  0.56889000  0.58577000  1.0 0.52893977
C  C32  1  0.90339000  0.53050000  0.53994000  1.0 -0.0731233681
C  C33  1  0.86995000  0.43712000  0.41914000  1.0 0.1165104919
C  C34  1  0.96819000  0.40792000  0.38166000  1.0 -0.2573897478
C  C35  1  0.85417000  0.98619000  0.98625000  1.0 -0.1388660855
C  C36  1  0.91149000  0.89585000  0.03514000  1.0 -0.1071780044
N  N1  1  0.62309000  0.66966000  0.25287000  1.0 -0.4131323285
N  N2  1  0.66966000  0.25287000  0.62309000  1.0 -0.4131323285
N  N3  1  0.25287000  0.62309000  0.66966000  1.0 -0.4131323285
N  N4  1  0.37691000  0.33034000  0.74713000  1.0 -0.4131323285
N  N5  1  0.33034000  0.74713000  0.37691000  1.0 -0.4131323285
N  N6  1  0.74713000  0.37691000  0.33034000  1.0 -0.4131323285
N  N7  1  0.09259000  0.09259000  0.09259000  1.0 -0.1071780044
N  N8  1  0.90741000  0.90741000  0.90741000  1.0 -0.1071780044
O  O1  1  0.47209000  0.48975000  0.30907000  1.0 -0.5457235314
O  O2  1  0.35471000  0.29894000  0.15562000  1.0 -0.5835837461
O  O3  1  0.48975000  0.30907000  0.47209000  1.0 -0.5457235314
O  O4  1  0.29894000  0.15562000  0.35471000  1.0 -0.5835837461
O  O5  1  0.30907000  0.47209000  0.48975000  1.0 -0.5457235314
O  O6  1  0.15562000  0.35471000  0.29894000  1.0 -0.5835837461
O  O7  1  0.52791000  0.51025000  0.69093000  1.0 -0.5457235314
O  O8  1  0.64529000  0.70106000  0.84438000  1.0 -0.5835837461
O  O9  1  0.51025000  0.69093000  0.52791000  1.0 -0.5444808937
O  O10  1  0.70106000  0.84438000  0.64529000  1.0 -0.5835837461
O  O11  1  0.69093000  0.52791000  0.51025000  1.0 -0.5457235314
O  O12  1  0.84438000  0.64529000  0.70106000  1.0 -0.5835837461
