# DDEC6 charges by PACMAN v1.1 (https://github.com/mtap-research/PACMAN-charge/)
data_FEJHEL_FSR_pacman
_symmetry_space_group_name_H-M   'P 1'
_cell_length_a   11.56870000
_cell_length_b   11.56870000
_cell_length_c   11.56870000
_cell_angle_alpha   104.86600000
_cell_angle_beta   104.86600000
_cell_angle_gamma   104.86600000
_symmetry_Int_Tables_number   1
_chemical_formula_structural   Zn3H54C36(N4O9)2
_chemical_formula_sum   'Zn3 H54 C36 N8 O18'
_cell_volume   1357.52633723
_cell_formula_units_Z   1
loop_
 _symmetry_equiv_pos_site_id
 _symmetry_equiv_pos_as_xyz
  1  'x, y, z'
loop_
 _atom_site_type_symbol
 _atom_site_label
 _atom_site_symmetry_multiplicity
 _atom_site_fract_x
 _atom_site_fract_y
 _atom_site_fract_z
 _atom_site_occupancy
 _atom_site_charge
Zn  Zn1  1  0.50000000  0.50000000  0.50000000  1.0 1.0475594896
Zn  Zn2  1  0.76081000  0.76081000  0.76081000  1.0 0.93632101
Zn  Zn3  1  0.23919000  0.23919000  0.23919000  1.0 0.93632101
H  H1  1  0.94830000  0.30030000  0.34700000  1.0 0.1368093563
H  H2  1  0.72730000  0.31680000  0.28720000  1.0 0.177898223
H  H3  1  0.74090000  0.25850000  0.39460000  1.0 0.177898223
H  H4  1  0.92640000  0.03820000  0.82080000  1.0 0.1121171574
H  H5  1  0.94190000  0.02060000  0.80610000  1.0 0.1121171574
H  H6  1  0.78460000  0.36650000  0.39710000  1.0 0.0306334218
H  H7  1  0.69090000  0.37160000  0.40440000  1.0 0.1924604796
H  H8  1  0.83150000  0.04390000  0.89380000  1.0 0.0779120939
H  H9  1  0.01980000  0.92950000  0.80310000  1.0 0.0779120939
H  H10  1  0.30030000  0.34700000  0.94830000  1.0 0.1368093563
H  H11  1  0.31680000  0.28720000  0.72730000  1.0 0.177898223
H  H12  1  0.25850000  0.39460000  0.74090000  1.0 0.177898223
H  H13  1  0.03820000  0.82080000  0.92640000  1.0 0.1121171574
H  H14  1  0.02060000  0.80610000  0.94190000  1.0 0.1121171574
H  H15  1  0.36650000  0.39710000  0.78460000  1.0 0.0306334218
H  H16  1  0.37160000  0.40440000  0.69090000  1.0 0.1924604796
H  H17  1  0.04390000  0.89380000  0.83150000  1.0 0.0779120939
H  H18  1  0.92950000  0.80310000  0.01980000  1.0 0.0779120939
H  H19  1  0.34700000  0.94830000  0.30030000  1.0 0.1368093563
H  H20  1  0.28720000  0.72730000  0.31680000  1.0 0.177898223
H  H21  1  0.39460000  0.74090000  0.25850000  1.0 0.177898223
H  H22  1  0.82080000  0.92640000  0.03820000  1.0 0.1121171574
H  H23  1  0.80610000  0.94190000  0.02060000  1.0 0.1121171574
H  H24  1  0.39710000  0.78460000  0.36650000  1.0 0.0306334218
H  H25  1  0.40440000  0.69090000  0.37160000  1.0 0.1924604796
H  H26  1  0.89380000  0.83150000  0.04390000  1.0 0.0779120939
H  H27  1  0.80310000  0.01980000  0.92950000  1.0 0.0779120939
H  H28  1  0.05170000  0.69970000  0.65300000  1.0 0.1368093563
H  H29  1  0.27270000  0.68320000  0.71280000  1.0 0.177898223
H  H30  1  0.25910000  0.74150000  0.60540000  1.0 0.177898223
H  H31  1  0.07360000  0.96180000  0.17920000  1.0 0.1121171574
H  H32  1  0.05810000  0.97940000  0.19390000  1.0 0.1121171574
H  H33  1  0.21540000  0.63350000  0.60290000  1.0 0.0306334218
H  H34  1  0.30910000  0.62840000  0.59560000  1.0 0.1924604796
H  H35  1  0.16850000  0.95610000  0.10620000  1.0 0.0779120939
H  H36  1  0.98020000  0.07050000  0.19690000  1.0 0.0779120939
H  H37  1  0.69970000  0.65300000  0.05170000  1.0 0.1368093563
H  H38  1  0.68320000  0.71280000  0.27270000  1.0 0.177898223
H  H39  1  0.74150000  0.60540000  0.25910000  1.0 0.177898223
H  H40  1  0.96180000  0.17920000  0.07360000  1.0 0.1121171574
H  H41  1  0.97940000  0.19390000  0.05810000  1.0 0.1121171574
H  H42  1  0.63350000  0.60290000  0.21540000  1.0 0.0306334218
H  H43  1  0.62840000  0.59560000  0.30910000  1.0 0.1924604796
H  H44  1  0.95610000  0.10620000  0.16850000  1.0 0.0779120939
H  H45  1  0.07050000  0.19690000  0.98020000  1.0 0.0779120939
H  H46  1  0.65300000  0.05170000  0.69970000  1.0 0.1368093563
H  H47  1  0.71280000  0.27270000  0.68320000  1.0 0.177898223
H  H48  1  0.60540000  0.25910000  0.74150000  1.0 0.177898223
H  H49  1  0.17920000  0.07360000  0.96180000  1.0 0.1121171574
H  H50  1  0.19390000  0.05810000  0.97940000  1.0 0.1121171574
H  H51  1  0.60290000  0.21540000  0.63350000  1.0 0.0306334218
H  H52  1  0.59560000  0.30910000  0.62840000  1.0 0.1924604796
H  H53  1  0.10620000  0.16850000  0.95610000  1.0 0.0779120939
H  H54  1  0.19690000  0.98020000  0.07050000  1.0 0.0779120939
C  C1  1  0.80506000  0.58679000  0.56942000  1.0 0.5879936515
C  C2  1  0.90406000  0.54055000  0.53070000  1.0 0.0068173218
C  C3  1  0.87119000  0.42073000  0.43844000  1.0 0.1021138328
C  C4  1  0.96858000  0.38269000  0.40960000  1.0 -0.1288114589
C  C5  1  0.91144000  0.03484000  0.89714000  1.0 -0.0688558686
C  C6  1  0.98978000  0.98341000  0.85544000  1.0 -0.1060364832
C  C7  1  0.58679000  0.56942000  0.80506000  1.0 0.5879936515
C  C8  1  0.54055000  0.53070000  0.90406000  1.0 0.0068173218
C  C9  1  0.42073000  0.43844000  0.87119000  1.0 0.1021138328
C  C10  1  0.38269000  0.40960000  0.96858000  1.0 -0.1288114589
C  C11  1  0.03484000  0.89714000  0.91144000  1.0 -0.0688558686
C  C12  1  0.98341000  0.85544000  0.98978000  1.0 -0.1060364832
C  C13  1  0.56942000  0.80506000  0.58679000  1.0 0.5879936515
C  C14  1  0.53070000  0.90406000  0.54055000  1.0 0.0068173218
C  C15  1  0.43844000  0.87119000  0.42073000  1.0 0.1021138328
C  C16  1  0.40960000  0.96858000  0.38269000  1.0 -0.1288114589
C  C17  1  0.89714000  0.91144000  0.03484000  1.0 -0.0688558686
C  C18  1  0.85544000  0.98978000  0.98341000  1.0 -0.1060364832
C  C19  1  0.19494000  0.41321000  0.43058000  1.0 0.5879936515
C  C20  1  0.09594000  0.45945000  0.46930000  1.0 0.0068173218
C  C21  1  0.12881000  0.57927000  0.56156000  1.0 0.1021138328
C  C22  1  0.03142000  0.61731000  0.59040000  1.0 -0.1288114589
C  C23  1  0.08856000  0.96516000  0.10286000  1.0 -0.0688558686
C  C24  1  0.01022000  0.01659000  0.14456000  1.0 -0.1060364832
C  C25  1  0.41321000  0.43058000  0.19494000  1.0 0.5879936515
C  C26  1  0.45945000  0.46930000  0.09594000  1.0 0.0068173218
C  C27  1  0.57927000  0.56156000  0.12881000  1.0 0.1021138328
C  C28  1  0.61731000  0.59040000  0.03142000  1.0 -0.1288114589
C  C29  1  0.96516000  0.10286000  0.08856000  1.0 -0.0688558686
C  C30  1  0.01659000  0.14456000  0.01022000  1.0 -0.1060364832
C  C31  1  0.43058000  0.19494000  0.41321000  1.0 0.5879936515
C  C32  1  0.46930000  0.09594000  0.45945000  1.0 0.0068173218
C  C33  1  0.56156000  0.12881000  0.57927000  1.0 0.1021138328
C  C34  1  0.59040000  0.03142000  0.61731000  1.0 -0.1288114589
C  C35  1  0.10286000  0.08856000  0.96516000  1.0 -0.0688558686
C  C36  1  0.14456000  0.01022000  0.01659000  1.0 -0.1060364832
N  N1  1  0.74800000  0.33500000  0.37640000  1.0 -0.3921037268
N  N2  1  0.33500000  0.37640000  0.74800000  1.0 -0.3921037268
N  N3  1  0.37640000  0.74800000  0.33500000  1.0 -0.3921037268
N  N4  1  0.25200000  0.66500000  0.62360000  1.0 -0.3921037268
N  N5  1  0.66500000  0.62360000  0.25200000  1.0 -0.3921037268
N  N6  1  0.62360000  0.25200000  0.66500000  1.0 -0.3921037268
N  N7  1  0.90804000  0.90804000  0.90804000  1.0 -0.0688558686
N  N8  1  0.09196000  0.09196000  0.09196000  1.0 -0.0688558686
O  O1  1  0.69157000  0.51535000  0.52296000  1.0 -0.4613411776
O  O2  1  0.84600000  0.70130000  0.64470000  1.0 -0.5438251894
O  O3  1  0.84710000  0.69010000  0.66410000  1.0 -0.5554574035
O  O4  1  0.51535000  0.52296000  0.69157000  1.0 -0.4613411776
O  O5  1  0.70130000  0.64470000  0.84600000  1.0 -0.5438251894
O  O6  1  0.69010000  0.66410000  0.84710000  1.0 -0.5554574035
O  O7  1  0.52296000  0.69157000  0.51535000  1.0 -0.4613411776
O  O8  1  0.64470000  0.84600000  0.70130000  1.0 -0.5438251894
O  O9  1  0.66410000  0.84710000  0.69010000  1.0 -0.5554574035
O  O10  1  0.30843000  0.48465000  0.47704000  1.0 -0.4613411776
O  O11  1  0.15400000  0.29870000  0.35530000  1.0 -0.5438251894
O  O12  1  0.15290000  0.30990000  0.33590000  1.0 -0.5554574035
O  O13  1  0.48465000  0.47704000  0.30843000  1.0 -0.4613411776
O  O14  1  0.29870000  0.35530000  0.15400000  1.0 -0.5438251894
O  O15  1  0.30990000  0.33590000  0.15290000  1.0 -0.5554574035
O  O16  1  0.47704000  0.30843000  0.48465000  1.0 -0.4613411776
O  O17  1  0.35530000  0.15400000  0.29870000  1.0 -0.5438251894
O  O18  1  0.33590000  0.15290000  0.30990000  1.0 -0.5554574035
