# DDEC6 charges by PACMAN v1.1 (https://github.com/mtap-research/PACMAN-charge/)
data_FEMFIQ01_ASR_pacman
_symmetry_space_group_name_H-M   'P 1'
_cell_length_a   15.89670000
_cell_length_b   15.89670000
_cell_length_c   20.16000000
_cell_angle_alpha   87.03110000
_cell_angle_beta   92.96890000
_cell_angle_gamma   122.92000000
_symmetry_Int_Tables_number   1
_chemical_formula_structural   Zn2H10C21SNO8
_chemical_formula_sum   'Zn8 H40 C84 S4 N4 O32'
_cell_volume   4269.06672955
_cell_formula_units_Z   4
loop_
 _symmetry_equiv_pos_site_id
 _symmetry_equiv_pos_as_xyz
  1  'x, y, z'
loop_
 _atom_site_type_symbol
 _atom_site_label
 _atom_site_symmetry_multiplicity
 _atom_site_fract_x
 _atom_site_fract_y
 _atom_site_fract_z
 _atom_site_occupancy
 _atom_site_charge
Zn  Zn1  1  0.06519000  0.72861000  0.88430000  1.0 0.9600451925
Zn  Zn2  1  0.72861000  0.06519000  0.11570000  1.0 0.9600451925
Zn  Zn3  1  0.93481000  0.27139000  0.11570000  1.0 0.9600451925
Zn  Zn4  1  0.27139000  0.93481000  0.88430000  1.0 0.9600451925
Zn  Zn5  1  0.15020000  0.84980000  0.74680000  1.0 0.9125941136
Zn  Zn6  1  0.84980000  0.15020000  0.25320000  1.0 0.9125941136
Zn  Zn7  1  0.73990000  0.26010000  0.17820000  1.0 0.9797221759
Zn  Zn8  1  0.26010000  0.73990000  0.82180000  1.0 0.9797221759
H  H1  1  0.41944000  0.91280000  0.06181000  1.0 0.1303251853
H  H2  1  0.42762000  0.14282000  0.15057000  1.0 0.1303251853
H  H3  1  0.26102000  0.04792000  0.16574000  1.0 0.1303251853
H  H4  1  0.95784000  0.61304000  0.60717000  1.0 0.1303251853
H  H5  1  0.83190000  0.48294000  0.54573000  1.0 0.1208187343
H  H6  1  0.87230000  0.46636000  0.77494000  1.0 0.1303251853
H  H7  1  0.91280000  0.41944000  0.93819000  1.0 0.1303251853
H  H8  1  0.14282000  0.42762000  0.84943000  1.0 0.1303251853
H  H9  1  0.04792000  0.26102000  0.83426000  1.0 0.1303251853
H  H10  1  0.61304000  0.95784000  0.39283000  1.0 0.1303251853
H  H11  1  0.48294000  0.83190000  0.45427000  1.0 0.1208187343
H  H12  1  0.46636000  0.87230000  0.22506000  1.0 0.1303251853
H  H13  1  0.58056000  0.08720000  0.93819000  1.0 0.1303251853
H  H14  1  0.57238000  0.85718000  0.84943000  1.0 0.1303251853
H  H15  1  0.73898000  0.95208000  0.83426000  1.0 0.1303251853
H  H16  1  0.04216000  0.38696000  0.39283000  1.0 0.1303251853
H  H17  1  0.16810000  0.51706000  0.45427000  1.0 0.1208187343
H  H18  1  0.12770000  0.53364000  0.22506000  1.0 0.1303251853
H  H19  1  0.08720000  0.58056000  0.06181000  1.0 0.1303251853
H  H20  1  0.85718000  0.57238000  0.15057000  1.0 0.1303251853
H  H21  1  0.95208000  0.73898000  0.16574000  1.0 0.1303251853
H  H22  1  0.38696000  0.04216000  0.60717000  1.0 0.1303251853
H  H23  1  0.51706000  0.16810000  0.54573000  1.0 0.1208187343
H  H24  1  0.53364000  0.12770000  0.77494000  1.0 0.1303251853
H  H25  1  0.08699000  0.91301000  0.24045000  1.0 0.1519982754
H  H26  1  0.00518000  0.99482000  0.25453000  1.0 0.1303251853
H  H27  1  0.97826000  0.02174000  0.05721000  1.0 0.1208187343
H  H28  1  0.06011000  0.93989000  0.04206000  1.0 0.1407602409
H  H29  1  0.91301000  0.08699000  0.75955000  1.0 0.1519982754
H  H30  1  0.99482000  0.00518000  0.74547000  1.0 0.1303251853
H  H31  1  0.02174000  0.97826000  0.94279000  1.0 0.1208187343
H  H32  1  0.93989000  0.06011000  0.95794000  1.0 0.1407602409
H  H33  1  0.77073000  0.22927000  0.39749000  1.0 0.1303251853
H  H34  1  0.62912000  0.37088000  0.50986000  1.0 0.1407602409
H  H35  1  0.77445000  0.22555000  0.51377000  1.0 0.1407602409
H  H36  1  0.62603000  0.37397000  0.39353000  1.0 0.1208187343
H  H37  1  0.22927000  0.77073000  0.60251000  1.0 0.1303251853
H  H38  1  0.37088000  0.62912000  0.49014000  1.0 0.1407602409
H  H39  1  0.22555000  0.77445000  0.48623000  1.0 0.1407602409
H  H40  1  0.37397000  0.62603000  0.60647000  1.0 0.1208187343
C  C1  1  0.39020000  0.94380000  0.08130000  1.0 -0.1394890558
C  C2  1  0.56290000  0.09910000  0.10800000  1.0 0.5871328452
C  C3  1  0.23340000  0.93260000  0.11160000  1.0 0.1519982754
C  C4  1  0.39180000  0.07620000  0.13530000  1.0 -0.0732825025
C  C5  1  0.29140000  0.02260000  0.14100000  1.0 -0.1737443021
C  C6  1  0.28150000  0.89450000  0.08610000  1.0 -0.0903008486
C  C7  1  0.44840000  0.04160000  0.10830000  1.0 0.0005783281
C  C8  1  0.91040000  0.55560000  0.63200000  1.0 -0.0821480545
C  C9  1  0.79320000  0.38680000  0.63000000  1.0 0.1407602409
C  C10  1  0.99010000  0.65590000  0.73800000  1.0 0.5817961582
C  C11  1  0.84310000  0.47690000  0.59200000  1.0 -0.1854456922
C  C12  1  0.86620000  0.46980000  0.72800000  1.0 -0.1539633354
C  C13  1  0.79970000  0.37430000  0.69400000  1.0 -0.0732825025
C  C14  1  0.92530000  0.57070000  0.69600000  1.0 -0.034703072
C  C15  1  0.94380000  0.39020000  0.91870000  1.0 -0.1394890558
C  C16  1  0.09910000  0.56290000  0.89200000  1.0 0.5871328452
C  C17  1  0.93260000  0.23340000  0.88840000  1.0 0.1519982754
C  C18  1  0.07620000  0.39180000  0.86470000  1.0 -0.0732825025
C  C19  1  0.02260000  0.29140000  0.85900000  1.0 -0.1805636546
C  C20  1  0.89450000  0.28150000  0.91390000  1.0 -0.0970729588
C  C21  1  0.04160000  0.44840000  0.89170000  1.0 0.0005783281
C  C22  1  0.55560000  0.91040000  0.36800000  1.0 -0.0821480545
C  C23  1  0.38680000  0.79320000  0.37000000  1.0 0.1407602409
C  C24  1  0.65590000  0.99010000  0.26200000  1.0 0.5817961582
C  C25  1  0.47690000  0.84310000  0.40800000  1.0 -0.1805636546
C  C26  1  0.46980000  0.86620000  0.27200000  1.0 -0.1539633354
C  C27  1  0.37430000  0.79970000  0.30600000  1.0 -0.0732825025
C  C28  1  0.57070000  0.92530000  0.30400000  1.0 -0.034703072
C  C29  1  0.60980000  0.05620000  0.91870000  1.0 -0.1394890558
C  C30  1  0.43710000  0.90090000  0.89200000  1.0 0.5871328452
C  C31  1  0.76660000  0.06740000  0.88840000  1.0 0.1519982754
C  C32  1  0.60820000  0.92380000  0.86470000  1.0 -0.0732825025
C  C33  1  0.70860000  0.97740000  0.85900000  1.0 -0.1805636546
C  C34  1  0.71850000  0.10550000  0.91390000  1.0 -0.0970729588
C  C35  1  0.55160000  0.95840000  0.89170000  1.0 0.0005783281
C  C36  1  0.08960000  0.44440000  0.36800000  1.0 -0.0821480545
C  C37  1  0.20680000  0.61320000  0.37000000  1.0 0.1407602409
C  C38  1  0.00990000  0.34410000  0.26200000  1.0 0.5817961582
C  C39  1  0.15690000  0.52310000  0.40800000  1.0 -0.1805636546
C  C40  1  0.13380000  0.53020000  0.27200000  1.0 -0.1539633354
C  C41  1  0.20030000  0.62570000  0.30600000  1.0 -0.0732825025
C  C42  1  0.07470000  0.42930000  0.30400000  1.0 -0.034703072
C  C43  1  0.05620000  0.60980000  0.08130000  1.0 -0.1394890558
C  C44  1  0.90090000  0.43710000  0.10800000  1.0 0.5871328452
C  C45  1  0.06740000  0.76660000  0.11160000  1.0 0.1519982754
C  C46  1  0.92380000  0.60820000  0.13530000  1.0 -0.0732825025
C  C47  1  0.97740000  0.70860000  0.14100000  1.0 -0.1737443021
C  C48  1  0.10550000  0.71850000  0.08610000  1.0 -0.0903008486
C  C49  1  0.95840000  0.55160000  0.10830000  1.0 0.0005783281
C  C50  1  0.44440000  0.08960000  0.63200000  1.0 -0.0821480545
C  C51  1  0.61320000  0.20680000  0.63000000  1.0 0.1407602409
C  C52  1  0.34410000  0.00990000  0.73800000  1.0 0.5817961582
C  C53  1  0.52310000  0.15690000  0.59200000  1.0 -0.1805636546
C  C54  1  0.53020000  0.13380000  0.72800000  1.0 -0.1539633354
C  C55  1  0.62570000  0.20030000  0.69400000  1.0 -0.0732825025
C  C56  1  0.42930000  0.07470000  0.69600000  1.0 -0.034703072
C  C57  1  0.93230000  0.06770000  0.17300000  1.0 0.5412167945
C  C58  1  0.08120000  0.91880000  0.14000000  1.0 0.1725925618
C  C59  1  0.06490000  0.93510000  0.20280000  1.0 -0.1591482968
C  C60  1  0.01640000  0.98360000  0.21100000  1.0 -0.0821480545
C  C61  1  0.98420000  0.01580000  0.15700000  1.0 -0.0486311837
C  C62  1  0.00050000  0.99950000  0.09470000  1.0 -0.0821480545
C  C63  1  0.04890000  0.95110000  0.08570000  1.0 -0.1591482968
C  C64  1  0.06770000  0.93230000  0.82700000  1.0 0.5412167945
C  C65  1  0.91880000  0.08120000  0.86000000  1.0 0.1725925618
C  C66  1  0.93510000  0.06490000  0.79720000  1.0 -0.1539633354
C  C67  1  0.98360000  0.01640000  0.78900000  1.0 -0.0821480545
C  C68  1  0.01580000  0.98420000  0.84300000  1.0 -0.0486311837
C  C69  1  0.99950000  0.00050000  0.90530000  1.0 -0.0821480545
C  C70  1  0.95110000  0.04890000  0.91430000  1.0 -0.1591482968
C  C71  1  0.70210000  0.29790000  0.52350000  1.0 0.195289571
C  C72  1  0.74210000  0.25790000  0.42100000  1.0 -0.0970729588
C  C73  1  0.65800000  0.34200000  0.48700000  1.0 -0.1805636546
C  C74  1  0.74420000  0.25580000  0.49000000  1.0 -0.1805636546
C  C75  1  0.65600000  0.34400000  0.41800000  1.0 -0.0903008486
C  C76  1  0.70700000  0.29300000  0.31400000  1.0 0.5249980429
C  C77  1  0.69810000  0.30190000  0.38640000  1.0 -0.023687369
C  C78  1  0.29790000  0.70210000  0.47650000  1.0 0.1939243862
C  C79  1  0.25790000  0.74210000  0.57900000  1.0 -0.0970729588
C  C80  1  0.34200000  0.65800000  0.51300000  1.0 -0.1805636546
C  C81  1  0.25580000  0.74420000  0.51000000  1.0 -0.1805636546
C  C82  1  0.34400000  0.65600000  0.58200000  1.0 -0.0903008486
C  C83  1  0.29300000  0.70700000  0.68600000  1.0 0.5256344417
C  C84  1  0.30190000  0.69810000  0.61360000  1.0 -0.023687369
S  S1  1  0.21630000  0.78370000  0.03490000  1.0 0.4514760712
S  S2  1  0.78370000  0.21630000  0.96510000  1.0 0.464511607
S  S3  1  0.73420000  0.26580000  0.75070000  1.0 0.3324383983
S  S4  1  0.26580000  0.73420000  0.24930000  1.0 0.3324383983
N  N1  1  0.13020000  0.86980000  0.12300000  1.0 -0.1394890558
N  N2  1  0.86980000  0.13020000  0.87700000  1.0 -0.1394890558
N  N3  1  0.70540000  0.29460000  0.59800000  1.0 -0.2025797477
N  N4  1  0.29460000  0.70540000  0.40200000  1.0 -0.2053821644
O  O1  1  0.60690000  0.06050000  0.09020000  1.0 -0.5288846901
O  O2  1  0.04720000  0.72020000  0.69690000  1.0 -0.4861497542
O  O3  1  0.59640000  0.18400000  0.14050000  1.0 -0.5780693552
O  O4  1  0.99010000  0.65070000  0.79640000  1.0 -0.4620521073
O  O5  1  0.85210000  0.05190000  0.13800000  1.0 -0.2871749065
O  O6  1  0.06050000  0.60690000  0.90980000  1.0 -0.5288846901
O  O7  1  0.72020000  0.04720000  0.30310000  1.0 -0.4861497542
O  O8  1  0.18400000  0.59640000  0.85950000  1.0 -0.5780693552
O  O9  1  0.65070000  0.99010000  0.20360000  1.0 -0.4620521073
O  O10  1  0.05190000  0.85210000  0.86200000  1.0 -0.2822121939
O  O11  1  0.39310000  0.93950000  0.90980000  1.0 -0.5288846901
O  O12  1  0.95280000  0.27980000  0.30310000  1.0 -0.4861497542
O  O13  1  0.40360000  0.81600000  0.85950000  1.0 -0.5780693552
O  O14  1  0.00990000  0.34930000  0.20360000  1.0 -0.4620521073
O  O15  1  0.14790000  0.94810000  0.86200000  1.0 -0.2871749065
O  O16  1  0.93950000  0.39310000  0.09020000  1.0 -0.5288846901
O  O17  1  0.27980000  0.95280000  0.69690000  1.0 -0.4861497542
O  O18  1  0.81600000  0.40360000  0.14050000  1.0 -0.5780693552
O  O19  1  0.34930000  0.00990000  0.79640000  1.0 -0.4620521073
O  O20  1  0.94810000  0.14790000  0.13800000  1.0 -0.2822121939
O  O21  1  0.18940000  0.81060000  0.83400000  1.0 -0.9445311091
O  O22  1  0.91930000  0.08070000  0.23560000  1.0 -0.4816312602
O  O23  1  0.17940000  0.82060000  0.97500000  1.0 -0.5780693552
O  O24  1  0.81060000  0.18940000  0.16600000  1.0 -0.9445311091
O  O25  1  0.08070000  0.91930000  0.76440000  1.0 -0.4816312602
O  O26  1  0.82060000  0.17940000  0.02500000  1.0 -0.5780693552
O  O27  1  0.78600000  0.21400000  0.73900000  1.0 -0.4620521073
O  O28  1  0.73790000  0.26210000  0.26600000  1.0 -0.5092875621
O  O29  1  0.66380000  0.33620000  0.27200000  1.0 -0.4659718832
O  O30  1  0.21400000  0.78600000  0.26100000  1.0 -0.4620521073
O  O31  1  0.26210000  0.73790000  0.73400000  1.0 -0.5092875621
O  O32  1  0.33620000  0.66380000  0.72800000  1.0 -0.4620521073
