# DDEC6 charges by PACMAN v1.1 (https://github.com/mtap-research/PACMAN-charge/)
data_FEMVOM_ASR_pacman
_symmetry_space_group_name_H-M   'P 1'
_cell_length_a   11.98840000
_cell_length_b   12.15920000
_cell_length_c   13.00670000
_cell_angle_alpha   101.73900000
_cell_angle_beta   101.68900000
_cell_angle_gamma   108.71300000
_symmetry_Int_Tables_number   1
_chemical_formula_structural   TbH5C14S5O6
_chemical_formula_sum   'Tb2 H10 C28 S10 O12'
_cell_volume   1683.24085271
_cell_formula_units_Z   2
loop_
 _symmetry_equiv_pos_site_id
 _symmetry_equiv_pos_as_xyz
  1  'x, y, z'
loop_
 _atom_site_type_symbol
 _atom_site_label
 _atom_site_symmetry_multiplicity
 _atom_site_fract_x
 _atom_site_fract_y
 _atom_site_fract_z
 _atom_site_occupancy
 _atom_site_charge
Tb  Tb1  1  0.45672000  0.31843000  0.45130000  1.0 2.0704715614
Tb  Tb2  1  0.54328000  0.68157000  0.54870000  1.0 2.0704715614
H  H1  1  0.30396000  0.00877000  0.05248000  1.0 0.1015165301
H  H2  1  0.23731000  0.63727000  0.54945000  1.0 0.1312754292
H  H3  1  0.43834000  0.32549000  0.09396000  1.0 0.1015165301
H  H4  1  0.31948000  0.86688000  0.82425000  1.0 0.1177956749
H  H5  1  0.43745000  0.32592000  0.83983000  1.0 0.1561854099
H  H6  1  0.69604000  0.99123000  0.94752000  1.0 0.1015165301
H  H7  1  0.76269000  0.36273000  0.45055000  1.0 0.1312754292
H  H8  1  0.56166000  0.67451000  0.90604000  1.0 0.1015165301
H  H9  1  0.68052000  0.13312000  0.17575000  1.0 0.1177956749
H  H10  1  0.56255000  0.67408000  0.16017000  1.0 0.1561854099
C  C1  1  0.47090000  0.17070000  0.26200000  1.0 0.5130840306
C  C2  1  0.48240000  0.10440000  0.15850000  1.0 -0.0045294437
C  C3  1  0.43760000  0.97940000  0.98070000  1.0 -0.0080950932
C  C4  1  0.38920000  0.02700000  0.06190000  1.0 -0.0910874914
C  C5  1  0.26540000  0.41980000  0.45040000  1.0 0.6164609556
C  C6  1  0.16020000  0.45170000  0.46490000  1.0 -0.1251604344
C  C7  1  0.16520000  0.56540000  0.51990000  1.0 -0.1688077684
C  C8  1  0.04580000  0.55660000  0.52450000  1.0 -0.0334795538
C  C9  1  0.50480000  0.51210000  0.29300000  1.0 0.6001426045
C  C10  1  0.50220000  0.50990000  0.17840000  1.0 -0.0402851833
C  C11  1  0.47700000  0.43860000  0.99210000  1.0 -0.0402851833
C  C12  1  0.46620000  0.40640000  0.08950000  1.0 -0.1078983147
C  C13  1  0.40100000  0.90500000  0.87140000  1.0 -0.2071847331
C  C14  1  0.46800000  0.41000000  0.87900000  1.0 -0.07207149
C  C15  1  0.52910000  0.82930000  0.73800000  1.0 0.5130840306
C  C16  1  0.51760000  0.89560000  0.84150000  1.0 -0.0080950932
C  C17  1  0.56240000  0.02060000  0.01930000  1.0 -0.0080950932
C  C18  1  0.61080000  0.97300000  0.93810000  1.0 -0.0989870142
C  C19  1  0.73460000  0.58020000  0.54960000  1.0 0.6164609556
C  C20  1  0.83980000  0.54830000  0.53510000  1.0 -0.1226642068
C  C21  1  0.83480000  0.43460000  0.48010000  1.0 -0.1688077684
C  C22  1  0.95420000  0.44340000  0.47550000  1.0 -0.0334795538
C  C23  1  0.49520000  0.48790000  0.70700000  1.0 0.6001426045
C  C24  1  0.49780000  0.49010000  0.82160000  1.0 -0.0402851833
C  C25  1  0.52300000  0.56140000  0.00790000  1.0 -0.0402851833
C  C26  1  0.53380000  0.59360000  0.91050000  1.0 -0.1078983147
C  C27  1  0.59900000  0.09500000  0.12860000  1.0 -0.2071847331
C  C28  1  0.53200000  0.59000000  0.12100000  1.0 -0.07207149
S  S1  1  0.37400000  0.88210000  0.85240000  1.0 0.0369280743
S  S2  1  0.01366000  0.34070000  0.41955000  1.0 0.1403157551
S  S3  1  0.44850000  0.35793000  0.85842000  1.0 0.1015165301
S  S4  1  0.35350000  0.01940000  0.05580000  1.0 0.0498389814
S  S5  1  0.44500000  0.36760000  0.08280000  1.0 0.0369280743
S  S6  1  0.62600000  0.11790000  0.14760000  1.0 0.0369280743
S  S7  1  0.98634000  0.65930000  0.58045000  1.0 0.1403157551
S  S8  1  0.55150000  0.64207000  0.14158000  1.0 0.1015165301
S  S9  1  0.64650000  0.98060000  0.94420000  1.0 0.0498389814
S  S10  1  0.55500000  0.63240000  0.91720000  1.0 0.0369280743
O  O1  1  0.56870000  0.23750000  0.33830000  1.0 -0.6068724926
O  O2  1  0.36690000  0.15870000  0.27210000  1.0 -0.5869432624
O  O3  1  0.24590000  0.30880000  0.41210000  1.0 -0.6270247336
O  O4  1  0.37160000  0.50120000  0.48130000  1.0 -0.7499473925
O  O5  1  0.45880000  0.41080000  0.30800000  1.0 -0.6241878505
O  O6  1  0.55120000  0.61530000  0.36360000  1.0 -0.6756312485
O  O7  1  0.43130000  0.76250000  0.66170000  1.0 -0.6068724926
O  O8  1  0.63310000  0.84130000  0.72790000  1.0 -0.5869432624
O  O9  1  0.75410000  0.69120000  0.58790000  1.0 -0.6270247336
O  O10  1  0.62840000  0.49880000  0.51870000  1.0 -0.7499473925
O  O11  1  0.54120000  0.58920000  0.69200000  1.0 -0.6241878505
O  O12  1  0.44880000  0.38470000  0.63640000  1.0 -0.6756312485
