# DDEC6 charges by PACMAN v1.1 (https://github.com/mtap-research/PACMAN-charge/)
data_FEMVAY_ASR_pacman
_symmetry_space_group_name_H-M   'P 1'
_cell_length_a   11.94430000
_cell_length_b   12.17490000
_cell_length_c   12.91630000
_cell_angle_alpha   101.82000000
_cell_angle_beta   101.59200000
_cell_angle_gamma   108.52400000
_symmetry_Int_Tables_number   1
_chemical_formula_structural   YH5C14S5O6
_chemical_formula_sum   'Y2 H10 C28 S10 O12'
_cell_volume   1670.07553670
_cell_formula_units_Z   2
loop_
 _symmetry_equiv_pos_site_id
 _symmetry_equiv_pos_as_xyz
  1  'x, y, z'
loop_
 _atom_site_type_symbol
 _atom_site_label
 _atom_site_symmetry_multiplicity
 _atom_site_fract_x
 _atom_site_fract_y
 _atom_site_fract_z
 _atom_site_occupancy
 _atom_site_charge
Y  Y1  1  0.45745000  0.31834000  0.45165000  1.0 1.7882290258
Y  Y2  1  0.54255000  0.68166000  0.54835000  1.0 1.7882290258
H  H1  1  0.30351000  0.00075000  0.05611000  1.0 0.1082571769
H  H2  1  0.23629000  0.63865000  0.54864000  1.0 0.1276252641
H  H3  1  0.44600000  0.32447000  0.09366000  1.0 0.1039789467
H  H4  1  0.33118000  0.86063000  0.82415000  1.0 0.1039789467
H  H5  1  0.44381000  0.33053000  0.83593000  1.0 0.1852940692
H  H6  1  0.69649000  0.99925000  0.94389000  1.0 0.1082571769
H  H7  1  0.76371000  0.36135000  0.45136000  1.0 0.1276252641
H  H8  1  0.55400000  0.67553000  0.90634000  1.0 0.1039789467
H  H9  1  0.66882000  0.13937000  0.17585000  1.0 0.1039789467
H  H10  1  0.55619000  0.66947000  0.16407000  1.0 0.1852940692
C  C1  1  0.47140000  0.17150000  0.26350000  1.0 0.5126428976
C  C2  1  0.48240000  0.10530000  0.15980000  1.0 -0.0318733227
C  C3  1  0.43870000  0.97920000  0.98030000  1.0 -0.047309457
C  C4  1  0.38920000  0.02350000  0.06380000  1.0 -0.1200922338
C  C5  1  0.26830000  0.42320000  0.45230000  1.0 0.5913805737
C  C6  1  0.16080000  0.45330000  0.46590000  1.0 -0.1325920151
C  C7  1  0.16470000  0.56650000  0.51970000  1.0 -0.1773759053
C  C8  1  0.04420000  0.55650000  0.52420000  1.0 -0.0404723399
C  C9  1  0.50350000  0.51080000  0.29330000  1.0 0.5769034995
C  C10  1  0.50160000  0.50780000  0.17770000  1.0 -0.0578659401
C  C11  1  0.47710000  0.43900000  0.99030000  1.0 -0.047309457
C  C12  1  0.46950000  0.40510000  0.08900000  1.0 -0.0984888003
C  C13  1  0.41300000  0.90290000  0.87180000  1.0 -0.1200922338
C  C14  1  0.47100000  0.41300000  0.87630000  1.0 -0.0684875325
C  C15  1  0.52860000  0.82850000  0.73650000  1.0 0.5126428976
C  C16  1  0.51760000  0.89470000  0.84020000  1.0 -0.0318733227
C  C17  1  0.56130000  0.02080000  0.01970000  1.0 -0.047309457
C  C18  1  0.61080000  0.97650000  0.93620000  1.0 -0.1200922338
C  C19  1  0.73170000  0.57680000  0.54770000  1.0 0.5913805737
C  C20  1  0.83920000  0.54670000  0.53410000  1.0 -0.1325920151
C  C21  1  0.83530000  0.43350000  0.48030000  1.0 -0.1773759053
C  C22  1  0.95580000  0.44350000  0.47580000  1.0 -0.0404723399
C  C23  1  0.49650000  0.48920000  0.70670000  1.0 0.5769034995
C  C24  1  0.49840000  0.49220000  0.82230000  1.0 -0.0578659401
C  C25  1  0.52290000  0.56100000  0.00970000  1.0 -0.047309457
C  C26  1  0.53050000  0.59490000  0.91100000  1.0 -0.0984888003
C  C27  1  0.58700000  0.09710000  0.12820000  1.0 -0.1200922338
C  C28  1  0.52900000  0.58700000  0.12370000  1.0 -0.0684875325
S  S1  1  0.37400000  0.88270000  0.85223000  1.0 0.066865675
S  S2  1  0.01664000  0.34155000  0.42200000  1.0 0.1276252641
S  S3  1  0.44886000  0.35882000  0.85727000  1.0 0.1039789467
S  S4  1  0.35260000  0.02190000  0.05520000  1.0 0.049338281
S  S5  1  0.43420000  0.36960000  0.08290000  1.0 0.0339921078
S  S6  1  0.62600000  0.11730000  0.14777000  1.0 0.066865675
S  S7  1  0.98336000  0.65845000  0.57800000  1.0 0.1276252641
S  S8  1  0.55114000  0.64118000  0.14273000  1.0 0.1082571769
S  S9  1  0.64740000  0.97810000  0.94480000  1.0 0.049338281
S  S10  1  0.56580000  0.63040000  0.91710000  1.0 0.0339921078
O  O1  1  0.56800000  0.23750000  0.33930000  1.0 -0.575852208
O  O2  1  0.36700000  0.16050000  0.27360000  1.0 -0.5431352184
O  O3  1  0.25200000  0.31410000  0.41480000  1.0 -0.5737325774
O  O4  1  0.37280000  0.50600000  0.48190000  1.0 -0.638479136
O  O5  1  0.45730000  0.40970000  0.30870000  1.0 -0.5892269836
O  O6  1  0.55030000  0.61290000  0.36520000  1.0 -0.6198444293
O  O7  1  0.43200000  0.76250000  0.66070000  1.0 -0.575852208
O  O8  1  0.63300000  0.83950000  0.72640000  1.0 -0.5431352184
O  O9  1  0.74800000  0.68590000  0.58520000  1.0 -0.5737325774
O  O10  1  0.62720000  0.49400000  0.51810000  1.0 -0.638479136
O  O11  1  0.54270000  0.59030000  0.69130000  1.0 -0.5892269836
O  O12  1  0.44970000  0.38710000  0.63480000  1.0 -0.6198444293
