# DDEC6 charges by PACMAN v1.1 (https://github.com/mtap-research/PACMAN-charge/)
data_FEQQAW_FSR_pacman
_symmetry_space_group_name_H-M   'P 1'
_cell_length_a   15.98300000
_cell_length_b   10.39300000
_cell_length_c   25.70230000
_cell_angle_alpha   90.00000000
_cell_angle_beta   126.24100000
_cell_angle_gamma   90.00000000
_symmetry_Int_Tables_number   1
_chemical_formula_structural   CoH26C25N2O5F6
_chemical_formula_sum   'Co4 H104 C100 N8 O20 F24'
_cell_volume   3443.46574867
_cell_formula_units_Z   4
loop_
 _symmetry_equiv_pos_site_id
 _symmetry_equiv_pos_as_xyz
  1  'x, y, z'
loop_
 _atom_site_type_symbol
 _atom_site_label
 _atom_site_symmetry_multiplicity
 _atom_site_fract_x
 _atom_site_fract_y
 _atom_site_fract_z
 _atom_site_occupancy
 _atom_site_charge
Co  Co1  1  0.94577000  0.12228000  0.48058000  1.0 0.8916458064
Co  Co2  1  0.05423000  0.62228000  0.01942000  1.0 0.8916458064
Co  Co3  1  0.05423000  0.87772000  0.51942000  1.0 0.8916458064
Co  Co4  1  0.94577000  0.37772000  0.98058000  1.0 0.8916458064
H  H1  1  0.27670000  0.97340000  0.72150000  1.0 0.1285035037
H  H2  1  0.37980000  0.04160000  0.82750000  1.0 0.109992871
H  H3  1  0.18940000  0.33970000  0.78010000  1.0 0.109992871
H  H4  1  0.09040000  0.27620000  0.67360000  1.0 0.1223507746
H  H5  1  0.37240000  0.47420000  0.94500000  1.0 0.109992871
H  H6  1  0.27500000  0.53390000  0.98050000  1.0 0.1285035037
H  H7  1  0.11600000  0.20540000  0.91300000  1.0 0.1223507746
H  H8  1  0.21020000  0.14850000  0.87490000  1.0 0.109992871
H  H9  1  0.86950000  0.25000000  0.35540000  1.0 0.1223507746
H  H10  1  0.78750000  0.35840000  0.31480000  1.0 0.090568204
H  H11  1  0.90590000  0.39260000  0.36090000  1.0 0.0788007647
H  H12  1  0.83640000  0.43670000  0.49750000  1.0 0.0788007647
H  H13  1  0.85880000  0.58210000  0.49400000  1.0 0.0788007647
H  H14  1  0.74430000  0.53120000  0.45260000  1.0 0.0995360767
H  H15  1  0.79070000  0.58210000  0.34380000  1.0 0.0788007647
H  H16  1  0.72000000  0.61920000  0.36510000  1.0 0.109992871
H  H17  1  0.83540000  0.66640000  0.40550000  1.0 0.0683894989
H  H18  1  0.98480000  0.40280000  0.42580000  1.0 0.0788007647
H  H19  1  0.88600000  0.46400000  0.36400000  1.0 0.0683894989
H  H20  1  0.94570000  0.53820000  0.42980000  1.0 0.0788007647
H  H21  1  0.75970000  0.55560000  0.33200000  1.0 0.0788007647
H  H22  1  0.65270000  0.52420000  0.31870000  1.0 0.0683894989
H  H23  1  0.72040000  0.63830000  0.36460000  1.0 0.109992871
H  H24  1  0.74150000  0.38540000  0.45870000  1.0 0.090568204
H  H25  1  0.71140000  0.53150000  0.44600000  1.0 0.109992871
H  H26  1  0.64260000  0.42980000  0.39170000  1.0 0.0995360767
H  H27  1  0.72330000  0.47340000  0.77850000  1.0 0.1285035037
H  H28  1  0.62020000  0.54160000  0.67250000  1.0 0.109992871
H  H29  1  0.81060000  0.83970000  0.71990000  1.0 0.109992871
H  H30  1  0.90960000  0.77620000  0.82640000  1.0 0.1223507746
H  H31  1  0.62760000  0.97420000  0.55500000  1.0 0.109992871
H  H32  1  0.72500000  0.03390000  0.51950000  1.0 0.1285035037
H  H33  1  0.88400000  0.70540000  0.58700000  1.0 0.1223507746
H  H34  1  0.78980000  0.64850000  0.62510000  1.0 0.109992871
H  H35  1  0.13050000  0.75000000  0.14460000  1.0 0.1223507746
H  H36  1  0.21250000  0.85840000  0.18520000  1.0 0.090568204
H  H37  1  0.09410000  0.89260000  0.13910000  1.0 0.0788007647
H  H38  1  0.16360000  0.93670000  0.00250000  1.0 0.0788007647
H  H39  1  0.14120000  0.08210000  0.00600000  1.0 0.0788007647
H  H40  1  0.25570000  0.03120000  0.04740000  1.0 0.0995360767
H  H41  1  0.20930000  0.08210000  0.15620000  1.0 0.0788007647
H  H42  1  0.28000000  0.11920000  0.13490000  1.0 0.109992871
H  H43  1  0.16460000  0.16640000  0.09450000  1.0 0.0683894989
H  H44  1  0.01520000  0.90280000  0.07420000  1.0 0.0788007647
H  H45  1  0.11400000  0.96400000  0.13600000  1.0 0.0683894989
H  H46  1  0.05430000  0.03820000  0.07020000  1.0 0.0788007647
H  H47  1  0.24030000  0.05560000  0.16800000  1.0 0.0788007647
H  H48  1  0.34730000  0.02420000  0.18130000  1.0 0.0683894989
H  H49  1  0.27960000  0.13830000  0.13540000  1.0 0.109992871
H  H50  1  0.25850000  0.88540000  0.04130000  1.0 0.090568204
H  H51  1  0.28860000  0.03150000  0.05400000  1.0 0.109992871
H  H52  1  0.35740000  0.92980000  0.10830000  1.0 0.0995360767
H  H53  1  0.72330000  0.02660000  0.27850000  1.0 0.1285035037
H  H54  1  0.62020000  0.95840000  0.17250000  1.0 0.109992871
H  H55  1  0.81060000  0.66030000  0.21990000  1.0 0.109992871
H  H56  1  0.90960000  0.72380000  0.32640000  1.0 0.1223507746
H  H57  1  0.62760000  0.52580000  0.05500000  1.0 0.109992871
H  H58  1  0.72500000  0.46610000  0.01950000  1.0 0.1285035037
H  H59  1  0.88400000  0.79460000  0.08700000  1.0 0.1223507746
H  H60  1  0.78980000  0.85150000  0.12510000  1.0 0.109992871
H  H61  1  0.13050000  0.75000000  0.64460000  1.0 0.1223507746
H  H62  1  0.21250000  0.64160000  0.68520000  1.0 0.090568204
H  H63  1  0.09410000  0.60740000  0.63910000  1.0 0.0788007647
H  H64  1  0.16360000  0.56330000  0.50250000  1.0 0.0788007647
H  H65  1  0.14120000  0.41790000  0.50600000  1.0 0.0788007647
H  H66  1  0.25570000  0.46880000  0.54740000  1.0 0.0995360767
H  H67  1  0.20930000  0.41790000  0.65620000  1.0 0.0788007647
H  H68  1  0.28000000  0.38080000  0.63490000  1.0 0.109992871
H  H69  1  0.16460000  0.33360000  0.59450000  1.0 0.0683894989
H  H70  1  0.01520000  0.59720000  0.57420000  1.0 0.0788007647
H  H71  1  0.11400000  0.53600000  0.63600000  1.0 0.0683894989
H  H72  1  0.05430000  0.46180000  0.57020000  1.0 0.0788007647
H  H73  1  0.24030000  0.44440000  0.66800000  1.0 0.0788007647
H  H74  1  0.34730000  0.47580000  0.68130000  1.0 0.0683894989
H  H75  1  0.27960000  0.36170000  0.63540000  1.0 0.109992871
H  H76  1  0.25850000  0.61460000  0.54130000  1.0 0.090568204
H  H77  1  0.28860000  0.46850000  0.55400000  1.0 0.109992871
H  H78  1  0.35740000  0.57020000  0.60830000  1.0 0.0995360767
H  H79  1  0.27670000  0.52660000  0.22150000  1.0 0.1285035037
H  H80  1  0.37980000  0.45840000  0.32750000  1.0 0.109992871
H  H81  1  0.18940000  0.16030000  0.28010000  1.0 0.109992871
H  H82  1  0.09040000  0.22380000  0.17360000  1.0 0.1223507746
H  H83  1  0.37240000  0.02580000  0.44500000  1.0 0.109992871
H  H84  1  0.27500000  0.96610000  0.48050000  1.0 0.1285035037
H  H85  1  0.11600000  0.29460000  0.41300000  1.0 0.1223507746
H  H86  1  0.21020000  0.35150000  0.37490000  1.0 0.109992871
H  H87  1  0.86950000  0.25000000  0.85540000  1.0 0.1223507746
H  H88  1  0.78750000  0.14160000  0.81480000  1.0 0.090568204
H  H89  1  0.90590000  0.10740000  0.86090000  1.0 0.0788007647
H  H90  1  0.83640000  0.06330000  0.99750000  1.0 0.0788007647
H  H91  1  0.85880000  0.91790000  0.99400000  1.0 0.0788007647
H  H92  1  0.74430000  0.96880000  0.95260000  1.0 0.0995360767
H  H93  1  0.79070000  0.91790000  0.84380000  1.0 0.0788007647
H  H94  1  0.72000000  0.88080000  0.86510000  1.0 0.109992871
H  H95  1  0.83540000  0.83360000  0.90550000  1.0 0.0683894989
H  H96  1  0.98480000  0.09720000  0.92580000  1.0 0.0788007647
H  H97  1  0.88600000  0.03600000  0.86400000  1.0 0.0683894989
H  H98  1  0.94570000  0.96180000  0.92980000  1.0 0.0788007647
H  H99  1  0.75970000  0.94440000  0.83200000  1.0 0.0788007647
H  H100  1  0.65270000  0.97580000  0.81870000  1.0 0.0683894989
H  H101  1  0.72040000  0.86170000  0.86460000  1.0 0.109992871
H  H102  1  0.74150000  0.11460000  0.95870000  1.0 0.090568204
H  H103  1  0.71140000  0.96850000  0.94600000  1.0 0.109992871
H  H104  1  0.64260000  0.07020000  0.89170000  1.0 0.0995360767
C  C1  1  0.11238000  0.07850000  0.61743000  1.0 0.5585681223
C  C2  1  0.17473000  0.11910000  0.68656000  1.0 -0.033026922
C  C3  1  0.26002000  0.04870000  0.73301000  1.0 -0.0950718741
C  C4  1  0.32142000  0.08890000  0.79673000  1.0 -0.172728892
C  C5  1  0.29601000  0.19930000  0.81471000  1.0 0.0683894989
C  C6  1  0.20840000  0.26700000  0.76826000  1.0 -0.1608556634
C  C7  1  0.14843000  0.22850000  0.70447000  1.0 -0.117551954
C  C8  1  0.36614000  0.25690000  0.88309000  1.0 -0.2801172263
C  C9  1  0.42690000  0.36620000  0.87920000  1.0 0.6375438297
C  C10  1  0.44240000  0.15760000  0.93360000  1.0 0.6375438297
C  C11  1  0.30108000  0.30510000  0.90577000  1.0 0.0683894989
C  C12  1  0.32023000  0.42010000  0.93788000  1.0 -0.1608556634
C  C13  1  0.26221000  0.45550000  0.95964000  1.0 -0.0931348628
C  C14  1  0.18581000  0.37610000  0.95072000  1.0 -0.0195702636
C  C15  1  0.16700000  0.26040000  0.91913000  1.0 -0.117551954
C  C16  1  0.22408000  0.22610000  0.89658000  1.0 -0.1538690901
C  C17  1  0.12312000  0.41680000  0.97442000  1.0 0.5585681223
C  C18  1  0.84320000  0.36160000  0.40910000  1.0 0.2474410855
C  C19  1  0.85230000  0.33860000  0.35520000  1.0 -0.3269042349
C  C20  1  0.81480000  0.51030000  0.46980000  1.0 -0.172728892
C  C21  1  0.78930000  0.59710000  0.38010000  1.0 -0.1794678601
C  C22  1  0.85820000  0.39200000  0.42570000  1.0 0.2264939272
C  C23  1  0.92460000  0.45500000  0.40990000  1.0 -0.2415035493
C  C24  1  0.72220000  0.55400000  0.35050000  1.0 -0.1794678601
C  C25  1  0.71220000  0.45260000  0.42690000  1.0 -0.2511132485
C  C26  1  0.88762000  0.57850000  0.88257000  1.0 0.5585681223
C  C27  1  0.82527000  0.61910000  0.81344000  1.0 -0.033026922
C  C28  1  0.73998000  0.54870000  0.76699000  1.0 -0.0950718741
C  C29  1  0.67858000  0.58890000  0.70327000  1.0 -0.172728892
C  C30  1  0.70399000  0.69930000  0.68529000  1.0 0.0683894989
C  C31  1  0.79160000  0.76700000  0.73174000  1.0 -0.1608556634
C  C32  1  0.85157000  0.72850000  0.79553000  1.0 -0.117551954
C  C33  1  0.63386000  0.75690000  0.61691000  1.0 -0.2801172263
C  C34  1  0.57310000  0.86620000  0.62080000  1.0 0.6375438297
C  C35  1  0.55760000  0.65760000  0.56640000  1.0 0.6375438297
C  C36  1  0.69892000  0.80510000  0.59423000  1.0 0.0683894989
C  C37  1  0.67977000  0.92010000  0.56212000  1.0 -0.1608556634
C  C38  1  0.73779000  0.95550000  0.54036000  1.0 -0.0931348628
C  C39  1  0.81419000  0.87610000  0.54928000  1.0 -0.0195702636
C  C40  1  0.83300000  0.76040000  0.58087000  1.0 -0.117551954
C  C41  1  0.77592000  0.72610000  0.60342000  1.0 -0.1538690901
C  C42  1  0.87688000  0.91680000  0.52558000  1.0 0.5585681223
C  C43  1  0.15680000  0.86160000  0.09090000  1.0 0.2474410855
C  C44  1  0.14770000  0.83860000  0.14480000  1.0 -0.3269042349
C  C45  1  0.18520000  0.01030000  0.03020000  1.0 -0.172728892
C  C46  1  0.21070000  0.09710000  0.11990000  1.0 -0.1794678601
C  C47  1  0.14180000  0.89200000  0.07430000  1.0 0.2264939272
C  C48  1  0.07540000  0.95500000  0.09010000  1.0 -0.2415035493
C  C49  1  0.27780000  0.05400000  0.14950000  1.0 -0.1794678601
C  C50  1  0.28780000  0.95260000  0.07310000  1.0 -0.2511132485
C  C51  1  0.88762000  0.92150000  0.38257000  1.0 0.5585681223
C  C52  1  0.82527000  0.88090000  0.31344000  1.0 -0.033026922
C  C53  1  0.73998000  0.95130000  0.26699000  1.0 -0.0950718741
C  C54  1  0.67858000  0.91110000  0.20327000  1.0 -0.172728892
C  C55  1  0.70399000  0.80070000  0.18529000  1.0 0.0683894989
C  C56  1  0.79160000  0.73300000  0.23174000  1.0 -0.1608556634
C  C57  1  0.85157000  0.77150000  0.29553000  1.0 -0.117551954
C  C58  1  0.63386000  0.74310000  0.11691000  1.0 -0.2801172263
C  C59  1  0.57310000  0.63380000  0.12080000  1.0 0.6375438297
C  C60  1  0.55760000  0.84240000  0.06640000  1.0 0.6375438297
C  C61  1  0.69892000  0.69490000  0.09423000  1.0 0.0683894989
C  C62  1  0.67977000  0.57990000  0.06212000  1.0 -0.1608556634
C  C63  1  0.73779000  0.54450000  0.04036000  1.0 -0.0931348628
C  C64  1  0.81419000  0.62390000  0.04928000  1.0 -0.0195702636
C  C65  1  0.83300000  0.73960000  0.08087000  1.0 -0.117551954
C  C66  1  0.77592000  0.77390000  0.10342000  1.0 -0.1538690901
C  C67  1  0.87688000  0.58320000  0.02558000  1.0 0.5585681223
C  C68  1  0.15680000  0.63840000  0.59090000  1.0 0.2474410855
C  C69  1  0.14770000  0.66140000  0.64480000  1.0 -0.3269042349
C  C70  1  0.18520000  0.48970000  0.53020000  1.0 -0.172728892
C  C71  1  0.21070000  0.40290000  0.61990000  1.0 -0.1794678601
C  C72  1  0.14180000  0.60800000  0.57430000  1.0 0.2264939272
C  C73  1  0.07540000  0.54500000  0.59010000  1.0 -0.2415035493
C  C74  1  0.27780000  0.44600000  0.64950000  1.0 -0.1794678601
C  C75  1  0.28780000  0.54740000  0.57310000  1.0 -0.2511132485
C  C76  1  0.11238000  0.42150000  0.11743000  1.0 0.5585681223
C  C77  1  0.17473000  0.38090000  0.18656000  1.0 -0.033026922
C  C78  1  0.26002000  0.45130000  0.23301000  1.0 -0.0950718741
C  C79  1  0.32142000  0.41110000  0.29673000  1.0 -0.172728892
C  C80  1  0.29601000  0.30070000  0.31471000  1.0 0.0683894989
C  C81  1  0.20840000  0.23300000  0.26826000  1.0 -0.1608556634
C  C82  1  0.14843000  0.27150000  0.20447000  1.0 -0.117551954
C  C83  1  0.36614000  0.24310000  0.38309000  1.0 -0.2801172263
C  C84  1  0.42690000  0.13380000  0.37920000  1.0 0.6375438297
C  C85  1  0.44240000  0.34240000  0.43360000  1.0 0.6375438297
C  C86  1  0.30108000  0.19490000  0.40577000  1.0 0.0683894989
C  C87  1  0.32023000  0.07990000  0.43788000  1.0 -0.1608556634
C  C88  1  0.26221000  0.04450000  0.45964000  1.0 -0.0931348628
C  C89  1  0.18581000  0.12390000  0.45072000  1.0 -0.0195702636
C  C90  1  0.16700000  0.23960000  0.41913000  1.0 -0.117551954
C  C91  1  0.22408000  0.27390000  0.39658000  1.0 -0.1538690901
C  C92  1  0.12312000  0.08320000  0.47442000  1.0 0.5585681223
C  C93  1  0.84320000  0.13840000  0.90910000  1.0 0.2474410855
C  C94  1  0.85230000  0.16140000  0.85520000  1.0 -0.3269042349
C  C95  1  0.81480000  0.98970000  0.96980000  1.0 -0.172728892
C  C96  1  0.78930000  0.90290000  0.88010000  1.0 -0.1794678601
C  C97  1  0.85820000  0.10800000  0.92570000  1.0 0.2264939272
C  C98  1  0.92460000  0.04500000  0.90990000  1.0 -0.2415035493
C  C99  1  0.72220000  0.94600000  0.85050000  1.0 -0.1794678601
C  C100  1  0.71220000  0.04740000  0.92690000  1.0 -0.2511132485
N  N1  1  0.82150000  0.48230000  0.41880000  1.0 0.1285035037
N  N2  1  0.77230000  0.46850000  0.40390000  1.0 0.159916284
N  N3  1  0.17850000  0.98230000  0.08120000  1.0 0.1285035037
N  N4  1  0.22770000  0.96850000  0.09610000  1.0 0.159916284
N  N5  1  0.17850000  0.51770000  0.58120000  1.0 0.1285035037
N  N6  1  0.22770000  0.53150000  0.59610000  1.0 0.159916284
N  N7  1  0.82150000  0.01770000  0.91880000  1.0 0.1285035037
N  N8  1  0.77230000  0.03150000  0.90390000  1.0 0.159916284
O  O1  1  0.04749000  0.15680000  0.57608000  1.0 -0.5704749799
O  O2  1  0.12949000  0.96870000  0.60548000  1.0 -0.5704749799
O  O3  1  0.05820000  0.33840000  0.96788000  1.0 -0.5848171092
O  O4  1  0.14054000  0.52710000  0.99840000  1.0 -0.5483614332
O  O5  1  0.87132000  0.28930000  0.45360000  1.0 -0.3707722998
O  O6  1  0.95251000  0.65680000  0.92392000  1.0 -0.5704749799
O  O7  1  0.87051000  0.46870000  0.89452000  1.0 -0.5704749799
O  O8  1  0.94180000  0.83840000  0.53212000  1.0 -0.5848171092
O  O9  1  0.85946000  0.02710000  0.50160000  1.0 -0.5483614332
O  O10  1  0.12868000  0.78930000  0.04640000  1.0 -0.3707722998
O  O11  1  0.95251000  0.84320000  0.42392000  1.0 -0.5704749799
O  O12  1  0.87051000  0.03130000  0.39452000  1.0 -0.5704749799
O  O13  1  0.94180000  0.66160000  0.03212000  1.0 -0.5848171092
O  O14  1  0.85946000  0.47290000  0.00160000  1.0 -0.5483614332
O  O15  1  0.12868000  0.71070000  0.54640000  1.0 -0.3707722998
O  O16  1  0.04749000  0.34320000  0.07608000  1.0 -0.5704749799
O  O17  1  0.12949000  0.53130000  0.10548000  1.0 -0.5704749799
O  O18  1  0.05820000  0.16160000  0.46788000  1.0 -0.5848171092
O  O19  1  0.14054000  0.97290000  0.49840000  1.0 -0.5483614332
O  O20  1  0.87132000  0.21070000  0.95360000  1.0 -0.3707722998
F  F1  1  0.36802000  0.46480000  0.84602000  1.0 -0.2205080665
F  F2  1  0.50541000  0.41010000  0.93716000  1.0 -0.2074518876
F  F3  1  0.47039000  0.32590000  0.85065000  1.0 -0.2415035493
F  F4  1  0.49201000  0.20490000  0.99331000  1.0 -0.2074518876
F  F5  1  0.39602000  0.05100000  0.93092000  1.0 -0.2074518876
F  F6  1  0.51743000  0.12490000  0.92716000  1.0 -0.2292072563
F  F7  1  0.63198000  0.96480000  0.65398000  1.0 -0.2205080665
F  F8  1  0.49459000  0.91010000  0.56284000  1.0 -0.2074518876
F  F9  1  0.52961000  0.82590000  0.64935000  1.0 -0.2415035493
F  F10  1  0.50799000  0.70490000  0.50669000  1.0 -0.2074518876
F  F11  1  0.60398000  0.55100000  0.56908000  1.0 -0.2074518876
F  F12  1  0.48257000  0.62490000  0.57284000  1.0 -0.2292072563
F  F13  1  0.63198000  0.53520000  0.15398000  1.0 -0.2205080665
F  F14  1  0.49459000  0.58990000  0.06284000  1.0 -0.2074518876
F  F15  1  0.52961000  0.67410000  0.14935000  1.0 -0.2415035493
F  F16  1  0.50799000  0.79510000  0.00669000  1.0 -0.2074518876
F  F17  1  0.60398000  0.94900000  0.06908000  1.0 -0.2074518876
F  F18  1  0.48257000  0.87510000  0.07284000  1.0 -0.2292072563
F  F19  1  0.36802000  0.03520000  0.34602000  1.0 -0.2205080665
F  F20  1  0.50541000  0.08990000  0.43716000  1.0 -0.2074518876
F  F21  1  0.47039000  0.17410000  0.35065000  1.0 -0.2415035493
F  F22  1  0.49201000  0.29510000  0.49331000  1.0 -0.2074518876
F  F23  1  0.39602000  0.44900000  0.43092000  1.0 -0.2074518876
F  F24  1  0.51743000  0.37510000  0.42716000  1.0 -0.2292072563
