# DDEC6 charges by PACMAN v1.1 (https://github.com/mtap-research/PACMAN-charge/)
data_FERBUC_ASR_pacman
_symmetry_space_group_name_H-M   'P 1'
_cell_length_a   16.00560000
_cell_length_b   18.47780000
_cell_length_c   31.02060000
_cell_angle_alpha   89.58360000
_cell_angle_beta   99.59650000
_cell_angle_gamma   110.99000000
_symmetry_Int_Tables_number   1
_chemical_formula_structural   Ca5H70C85(NO2)14
_chemical_formula_sum   'Ca10 H140 C170 N28 O56'
_cell_volume   8431.92821459
_cell_formula_units_Z   2
loop_
 _symmetry_equiv_pos_site_id
 _symmetry_equiv_pos_as_xyz
  1  'x, y, z'
loop_
 _atom_site_type_symbol
 _atom_site_label
 _atom_site_symmetry_multiplicity
 _atom_site_fract_x
 _atom_site_fract_y
 _atom_site_fract_z
 _atom_site_occupancy
 _atom_site_charge
Ca  Ca1  1  0.89948000  0.80258000  0.23600000  1.0 1.3888249596
Ca  Ca2  1  0.64769000  0.66895000  0.21245000  1.0 1.3779965837
Ca  Ca3  1  0.72149000  0.26382000  0.77246000  1.0 1.3509903748
Ca  Ca4  1  0.48382000  0.70244000  0.28103000  1.0 1.3026009996
Ca  Ca5  1  0.92448000  0.28941000  0.72008000  1.0 1.3689393003
Ca  Ca6  1  0.10052000  0.19742000  0.76400000  1.0 1.3888249596
Ca  Ca7  1  0.35231000  0.33105000  0.78755000  1.0 1.3779965837
Ca  Ca8  1  0.27851000  0.73618000  0.22754000  1.0 1.3509903748
Ca  Ca9  1  0.51618000  0.29756000  0.71897000  1.0 1.3026009996
Ca  Ca10  1  0.07552000  0.71059000  0.27992000  1.0 1.3689393003
H  H1  1  0.92426000  0.07739000  0.40707000  1.0 0.2722651809
H  H2  1  0.63361000  0.33192000  0.42147000  1.0 0.1002182423
H  H3  1  0.33965000  0.64613000  0.98698000  1.0 0.2722651809
H  H4  1  0.29837000  0.08972000  0.10600000  1.0 0.2722651809
H  H5  1  0.75350000  0.19222000  0.29507000  1.0 0.2613822345
H  H6  1  0.98637000  0.11179000  0.47363000  1.0 0.2722651809
H  H7  1  0.66743000  0.29679000  0.48460000  1.0 0.1383808975
H  H8  1  0.25369000  0.61361000  0.92678000  1.0 0.2722651809
H  H9  1  0.31528000  0.15630000  0.05357000  1.0 0.2722651809
H  H10  1  0.80424000  0.31043000  0.30077000  1.0 0.2613822345
H  H11  1  0.67617000  0.80899000  0.35878000  1.0 0.1002182423
H  H12  1  0.48133000  0.51714000  0.36219000  1.0 0.109405902
H  H13  1  0.26329000  0.61901000  0.14167000  1.0 0.1172864842
H  H14  1  0.01825000  0.87430000  0.14780000  1.0 0.1172864842
H  H15  1  0.42241000  0.00639000  0.25339000  1.0 0.1172864842
H  H16  1  0.73748000  0.90596000  0.41351000  1.0 0.1294286449
H  H17  1  0.51325000  0.44859000  0.42079000  1.0 0.0688111289
H  H18  1  0.20722000  0.59659000  0.06851000  1.0 0.1294286449
H  H19  1  0.07001000  0.96977000  0.09918000  1.0 0.1294286449
H  H20  1  0.52054000  0.13393000  0.25642000  1.0 0.1383808975
H  H21  1  0.90882000  0.03560000  0.33644000  1.0 0.1172864842
H  H22  1  0.72581000  0.43651000  0.36563000  1.0 0.0688111289
H  H23  1  0.46137000  0.68506000  0.04346000  1.0 0.109405902
H  H24  1  0.32615000  0.01337000  0.16005000  1.0 0.1172864842
H  H25  1  0.72979000  0.06188000  0.29217000  1.0 0.1172864842
H  H26  1  0.84503000  0.93637000  0.28225000  1.0 0.109405902
H  H27  1  0.67955000  0.49796000  0.30595000  1.0 0.1002182423
H  H28  1  0.51736000  0.70432000  0.11816000  1.0 0.1172864842
H  H29  1  0.27496000  0.91392000  0.20545000  1.0 0.1172864842
H  H30  1  0.62955000  0.93555000  0.28913000  1.0 0.109405902
H  H31  1  0.47758000  0.82034000  0.37057000  1.0 0.0921485762
H  H32  1  0.49060000  0.86789000  0.43743000  1.0 0.0688111289
H  H33  1  0.48729000  0.81037000  0.47506000  1.0 0.0494274155
H  H34  1  0.58011000  0.87420000  0.46939000  1.0 0.0688111289
H  H35  1  0.81489000  0.10743000  0.52485000  1.0 0.1294286449
H  H36  1  0.63121000  0.41929000  0.56203000  1.0 0.109405902
H  H37  1  0.03378000  0.50037000  0.94145000  1.0 0.1383808975
H  H38  1  0.12084000  0.08173000  0.97178000  1.0 0.1383808975
H  H39  1  0.67855000  0.37876000  0.21965000  1.0 0.1294286449
H  H40  1  0.59592000  0.75217000  0.47546000  1.0 0.1172864842
H  H41  1  0.54485000  0.68732000  0.43797000  1.0 0.0649659012
H  H42  1  0.63779000  0.75194000  0.43325000  1.0 0.1002182423
H  H43  1  0.82595000  0.13840000  0.59817000  1.0 0.109405902
H  H44  1  0.65130000  0.40355000  0.63623000  1.0 0.109405902
H  H45  1  0.91802000  0.43348000  0.88477000  1.0 0.109405902
H  H46  1  0.11680000  0.11837000  0.90087000  1.0 0.109405902
H  H47  1  0.71332000  0.51014000  0.20687000  1.0 0.1172864842
H  H48  1  0.07753000  0.13058000  0.62168000  1.0 0.1002182423
H  H49  1  0.75834000  0.24237000  0.61941000  1.0 0.1172864842
H  H50  1  0.09353000  0.49237000  0.80082000  1.0 0.109405902
H  H51  1  0.36832000  0.27553000  0.93185000  1.0 0.109405902
H  H52  1  0.91699000  0.56544000  0.30963000  1.0 0.109405902
H  H53  1  0.06799000  0.10572000  0.54841000  1.0 0.1172864842
H  H54  1  0.73625000  0.25594000  0.54450000  1.0 0.1002182423
H  H55  1  0.20554000  0.56345000  0.85600000  1.0 0.109405902
H  H56  1  0.37494000  0.23860000  0.00226000  1.0 0.109405902
H  H57  1  0.87582000  0.43781000  0.32627000  1.0 0.1172864842
H  H58  1  0.70425000  0.38439000  0.43108000  1.0 0.1294286449
H  H59  1  0.72288000  0.34135000  0.48940000  1.0 0.1596460839
H  H60  1  0.52424000  0.55841000  0.37365000  1.0 0.0921485762
H  H61  1  0.56727000  0.49747000  0.43238000  1.0 0.0688111289
H  H62  1  0.66423000  0.38240000  0.35461000  1.0 0.0688111289
H  H63  1  0.63793000  0.45596000  0.29755000  1.0 0.1002182423
H  H64  1  0.50664000  0.71768000  0.41303000  1.0 0.1002182423
H  H65  1  0.52419000  0.89130000  0.45643000  1.0 0.0494274155
H  H66  1  0.46963000  0.80444000  0.46422000  1.0 0.0822744195
H  H67  1  0.57613000  0.83554000  0.47195000  1.0 0.0649659012
H  H68  1  0.48929000  0.91334000  0.39873000  1.0 0.1002182423
H  H69  1  0.51591000  0.88393000  0.35765000  1.0 0.0921485762
H  H70  1  0.41990000  0.84054000  0.36993000  1.0 0.0921485762
H  H71  1  0.07574000  0.92261000  0.59293000  1.0 0.2722651809
H  H72  1  0.36639000  0.66808000  0.57853000  1.0 0.1002182423
H  H73  1  0.66035000  0.35387000  0.01302000  1.0 0.2722651809
H  H74  1  0.70163000  0.91028000  0.89400000  1.0 0.2722651809
H  H75  1  0.24650000  0.80778000  0.70493000  1.0 0.2613822345
H  H76  1  0.01363000  0.88821000  0.52637000  1.0 0.2722651809
H  H77  1  0.33257000  0.70321000  0.51540000  1.0 0.1383808975
H  H78  1  0.74631000  0.38639000  0.07322000  1.0 0.2722651809
H  H79  1  0.68472000  0.84370000  0.94643000  1.0 0.2722651809
H  H80  1  0.19576000  0.68957000  0.69923000  1.0 0.2613822345
H  H81  1  0.32383000  0.19101000  0.64122000  1.0 0.1002182423
H  H82  1  0.51867000  0.48286000  0.63781000  1.0 0.109405902
H  H83  1  0.73671000  0.38099000  0.85833000  1.0 0.1172864842
H  H84  1  0.98175000  0.12570000  0.85220000  1.0 0.1172864842
H  H85  1  0.57759000  0.99361000  0.74661000  1.0 0.109405902
H  H86  1  0.26252000  0.09404000  0.58649000  1.0 0.1294286449
H  H87  1  0.48675000  0.55141000  0.57921000  1.0 0.0688111289
H  H88  1  0.79278000  0.40341000  0.93149000  1.0 0.1294286449
H  H89  1  0.92999000  0.03023000  0.90082000  1.0 0.1294286449
H  H90  1  0.47946000  0.86607000  0.74358000  1.0 0.1383808975
H  H91  1  0.09118000  0.96440000  0.66356000  1.0 0.1172864842
H  H92  1  0.27419000  0.56349000  0.63437000  1.0 0.0688111289
H  H93  1  0.53863000  0.31494000  0.95654000  1.0 0.109405902
H  H94  1  0.67385000  0.98663000  0.83995000  1.0 0.1172864842
H  H95  1  0.27021000  0.93812000  0.70783000  1.0 0.1172864842
H  H96  1  0.15497000  0.06363000  0.71775000  1.0 0.109405902
H  H97  1  0.32045000  0.50204000  0.69405000  1.0 0.1002182423
H  H98  1  0.48264000  0.29568000  0.88184000  1.0 0.1172864842
H  H99  1  0.72504000  0.08608000  0.79455000  1.0 0.1172864842
H  H100  1  0.37045000  0.06445000  0.71087000  1.0 0.109405902
H  H101  1  0.52242000  0.17966000  0.62943000  1.0 0.0921485762
H  H102  1  0.50940000  0.13211000  0.56257000  1.0 0.0688111289
H  H103  1  0.51271000  0.18963000  0.52494000  1.0 0.0494274155
H  H104  1  0.41989000  0.12580000  0.53061000  1.0 0.0688111289
H  H105  1  0.18511000  0.89257000  0.47515000  1.0 0.1294286449
H  H106  1  0.36879000  0.58071000  0.43797000  1.0 0.109405902
H  H107  1  0.96622000  0.49963000  0.05855000  1.0 0.1383808975
H  H108  1  0.87916000  0.91827000  0.02822000  1.0 0.1383808975
H  H109  1  0.32145000  0.62124000  0.78035000  1.0 0.1294286449
H  H110  1  0.40408000  0.24783000  0.52454000  1.0 0.1172864842
H  H111  1  0.45515000  0.31268000  0.56203000  1.0 0.0649659012
H  H112  1  0.36221000  0.24806000  0.56675000  1.0 0.1002182423
H  H113  1  0.17405000  0.86160000  0.40183000  1.0 0.1172864842
H  H114  1  0.34870000  0.59645000  0.36377000  1.0 0.109405902
H  H115  1  0.08198000  0.56652000  0.11523000  1.0 0.109405902
H  H116  1  0.88320000  0.88163000  0.09913000  1.0 0.109405902
H  H117  1  0.28668000  0.48986000  0.79313000  1.0 0.1172864842
H  H118  1  0.92247000  0.86942000  0.37832000  1.0 0.109405902
H  H119  1  0.24166000  0.75763000  0.38059000  1.0 0.1172864842
H  H120  1  0.90647000  0.50763000  0.19918000  1.0 0.109405902
H  H121  1  0.63168000  0.72447000  0.06815000  1.0 0.109405902
H  H122  1  0.08301000  0.43456000  0.69037000  1.0 0.109405902
H  H123  1  0.93201000  0.89428000  0.45159000  1.0 0.1172864842
H  H124  1  0.26375000  0.74406000  0.45550000  1.0 0.1002182423
H  H125  1  0.79446000  0.43655000  0.14400000  1.0 0.109405902
H  H126  1  0.62506000  0.76140000  0.99774000  1.0 0.109405902
H  H127  1  0.12418000  0.56219000  0.67373000  1.0 0.1172864842
H  H128  1  0.29575000  0.61561000  0.56892000  1.0 0.1294286449
H  H129  1  0.27712000  0.65865000  0.51060000  1.0 0.1596460839
H  H130  1  0.47576000  0.44159000  0.62635000  1.0 0.0921485762
H  H131  1  0.43273000  0.50253000  0.56762000  1.0 0.0688111289
H  H132  1  0.33577000  0.61760000  0.64539000  1.0 0.0688111289
H  H133  1  0.36207000  0.54404000  0.70245000  1.0 0.1002182423
H  H134  1  0.49336000  0.28232000  0.58697000  1.0 0.1002182423
H  H135  1  0.47581000  0.10870000  0.54357000  1.0 0.0494274155
H  H136  1  0.53037000  0.19556000  0.53578000  1.0 0.0822744195
H  H137  1  0.42387000  0.16446000  0.52805000  1.0 0.0649659012
H  H138  1  0.51071000  0.08666000  0.60127000  1.0 0.1002182423
H  H139  1  0.48409000  0.11607000  0.64235000  1.0 0.0921485762
H  H140  1  0.58010000  0.15946000  0.63007000  1.0 0.0921485762
C  C1  1  0.71540000  0.79700000  0.28073000  1.0 0.609970661
C  C2  1  0.55140000  0.55800000  0.29114000  1.0 0.5502101381
C  C3  1  0.42990000  0.67590000  0.18597000  1.0 0.609970661
C  C4  1  0.10870000  0.81740000  0.20952000  1.0 0.6182533105
C  C5  1  0.45220000  0.87530000  0.26680000  1.0 0.5749204357
C  C6  1  0.75530000  0.86280000  0.31485000  1.0 -0.0564872546
C  C7  1  0.57390000  0.51410000  0.32801000  1.0 -0.0297667978
C  C8  1  0.39570000  0.66160000  0.13774000  1.0 -0.0508142264
C  C9  1  0.13990000  0.88250000  0.18019000  1.0 -0.0508142264
C  C10  1  0.51580000  0.95730000  0.27066000  1.0 -0.0564872546
C  C11  1  0.72320000  0.85430000  0.35457000  1.0 -0.1452280979
C  C12  1  0.52870000  0.49900000  0.36270000  1.0 -0.0508142264
C  C13  1  0.30350000  0.63120000  0.12195000  1.0 -0.089397608
C  C14  1  0.08040000  0.90080000  0.14957000  1.0 -0.0806535603
C  C15  1  0.48460000  0.01780000  0.26140000  1.0 -0.089397608
C  C16  1  0.76010000  0.91200000  0.38745000  1.0 -0.2169103871
C  C17  1  0.54760000  0.45900000  0.39850000  1.0 -0.0408144134
C  C18  1  0.26970000  0.61850000  0.07808000  1.0 -0.1825980719
C  C19  1  0.11130000  0.95910000  0.12070000  1.0 -0.1898870568
C  C20  1  0.54280000  0.09460000  0.26380000  1.0 -0.1992191076
C  C21  1  0.82970000  0.97770000  0.38179000  1.0 0.2203056067
C  C22  1  0.62160000  0.43500000  0.39940000  1.0 0.0118422073
C  C23  1  0.32680000  0.63760000  0.04807000  1.0 0.2478513059
C  C24  1  0.20350000  0.00080000  0.12429000  1.0 0.2427310596
C  C25  1  0.63590000  0.11150000  0.27750000  1.0 0.2478513059
C  C26  1  0.86290000  0.98970000  0.34094000  1.0 -0.2169103871
C  C27  1  0.67560000  0.45100000  0.36440000  1.0 -0.0691304247
C  C28  1  0.42150000  0.67090000  0.06333000  1.0 -0.2108935351
C  C29  1  0.26430000  0.98430000  0.15684000  1.0 -0.2108935351
C  C30  1  0.66760000  0.05120000  0.28520000  1.0 -0.2169103871
C  C31  1  0.82410000  0.93040000  0.30876000  1.0 -0.0806535603
C  C32  1  0.64830000  0.48880000  0.32940000  1.0 -0.0408144134
C  C33  1  0.45500000  0.68250000  0.10811000  1.0 -0.089397608
C  C34  1  0.23380000  0.92540000  0.18426000  1.0 -0.089397608
C  C35  1  0.60730000  0.97520000  0.28260000  1.0 -0.089397608
C  C36  1  0.50670000  0.78670000  0.38120000  1.0 0.2203056067
C  C37  1  0.86410000  0.04020000  0.45690000  1.0 0.5898207161
C  C38  1  0.61990000  0.37930000  0.47300000  1.0 0.2427310596
C  C39  1  0.21420000  0.58200000  0.98073000  1.0 0.5898207161
C  C40  1  0.20130000  0.07480000  0.05778000  1.0 0.5898207161
C  C41  1  0.68680000  0.25270000  0.26890000  1.0 0.5108518501
C  C42  1  0.94150000  0.10370000  0.52929000  1.0 0.2299843331
C  C43  1  0.68040000  0.33890000  0.54577000  1.0 0.179948469
C  C44  1  0.13250000  0.53970000  0.90449000  1.0 0.2427310596
C  C45  1  0.25150000  0.15440000  0.99437000  1.0 0.2478513059
C  C46  1  0.77560000  0.39470000  0.27280000  1.0 0.2136101921
C  C47  1  0.52270000  0.83900000  0.45420000  1.0 -0.2590088646
C  C48  1  0.86800000  0.11330000  0.54440000  1.0 -0.1992191076
C  C49  1  0.65590000  0.38320000  0.57339000  1.0 -0.3511253397
C  C50  1  0.04560000  0.49960000  0.91314000  1.0 -0.1898870568
C  C51  1  0.17130000  0.11950000  0.96365000  1.0 -0.1825980719
C  C52  1  0.72590000  0.41630000  0.23800000  1.0 -0.2108935351
C  C53  1  0.58230000  0.74110000  0.44430000  1.0 -0.3571740489
C  C54  1  0.87440000  0.13140000  0.58823000  1.0 -0.1030235341
C  C55  1  0.66820000  0.37370000  0.61785000  1.0 -0.1697997029
C  C56  1  0.97650000  0.45820000  0.87908000  1.0 -0.089397608
C  C57  1  0.16910000  0.14240000  0.92142000  1.0 -0.089397608
C  C58  1  0.74680000  0.49530000  0.23031000  1.0 -0.1095312188
C  C59  1  0.95390000  0.13920000  0.61762000  1.0 -0.0297667978
C  C60  1  0.70510000  0.32050000  0.63565000  1.0 -0.0806535603
C  C61  1  0.99280000  0.45300000  0.83691000  1.0 -0.0408144134
C  C62  1  0.24260000  0.20060000  0.90808000  1.0 -0.0508142264
C  C63  1  0.81770000  0.55120000  0.25772000  1.0 -0.0564872546
C  C64  1  0.02530000  0.12750000  0.60219000  1.0 -0.089397608
C  C65  1  0.73180000  0.27720000  0.60780000  1.0 -0.1095312188
C  C66  1  0.08080000  0.49400000  0.82889000  1.0 -0.089397608
C  C67  1  0.31890000  0.23590000  0.93951000  1.0 -0.089397608
C  C68  1  0.86740000  0.52820000  0.29230000  1.0 -0.089397608
C  C69  1  0.01900000  0.11140000  0.55845000  1.0 -0.2169103871
C  C70  1  0.71920000  0.28550000  0.56296000  1.0 -0.281489427
C  C71  1  0.14790000  0.53620000  0.86207000  1.0 -0.2108935351
C  C72  1  0.32300000  0.21350000  0.98170000  1.0 -0.2108935351
C  C73  1  0.84530000  0.45190000  0.30140000  1.0 -0.2262654106
C  C74  1  0.96190000  0.15970000  0.66545000  1.0 0.5898207161
C  C75  1  0.71530000  0.30800000  0.68330000  1.0 0.5898207161
C  C76  1  0.92150000  0.40230000  0.80138000  1.0 0.609970661
C  C77  1  0.23760000  0.22320000  0.86151000  1.0 0.609970661
C  C78  1  0.84330000  0.63570000  0.24953000  1.0 0.609970661
C  C79  1  0.55450000  0.52490000  0.37000000  1.0 -0.0564872546
C  C80  1  0.57880000  0.48800000  0.40500000  1.0 -0.0508142264
C  C81  1  0.63960000  0.42000000  0.35840000  1.0 -0.0691304247
C  C82  1  0.62040000  0.46170000  0.32400000  1.0 -0.0408144134
C  C83  1  0.51690000  0.75100000  0.39030000  1.0 0.2203056067
C  C84  1  0.65420000  0.40520000  0.47870000  1.0 0.2478513059
C  C85  1  0.48300000  0.86800000  0.38140000  1.0 -0.3024289112
C  C86  1  0.28460000  0.20300000  0.71927000  1.0 0.609970661
C  C87  1  0.44860000  0.44200000  0.70886000  1.0 0.5502101381
C  C88  1  0.57010000  0.32410000  0.81403000  1.0 0.609970661
C  C89  1  0.89130000  0.18260000  0.79048000  1.0 0.6182533105
C  C90  1  0.54780000  0.12470000  0.73320000  1.0 0.5749204357
C  C91  1  0.24470000  0.13720000  0.68515000  1.0 -0.0508142264
C  C92  1  0.42610000  0.48590000  0.67199000  1.0 -0.0297667978
C  C93  1  0.60430000  0.33840000  0.86226000  1.0 -0.0508142264
C  C94  1  0.86010000  0.11750000  0.81981000  1.0 -0.0508142264
C  C95  1  0.48420000  0.04270000  0.72934000  1.0 -0.0564872546
C  C96  1  0.27680000  0.14570000  0.64543000  1.0 -0.1452280979
C  C97  1  0.47130000  0.50100000  0.63730000  1.0 -0.0508142264
C  C98  1  0.69650000  0.36880000  0.87805000  1.0 -0.089397608
C  C99  1  0.91960000  0.09920000  0.85043000  1.0 -0.0806535603
C  C100  1  0.51540000  0.98220000  0.73860000  1.0 -0.089397608
C  C101  1  0.23990000  0.08800000  0.61255000  1.0 -0.2169103871
C  C102  1  0.45240000  0.54100000  0.60150000  1.0 -0.0408144134
C  C103  1  0.73030000  0.38150000  0.92192000  1.0 -0.1825980719
C  C104  1  0.88870000  0.04090000  0.87930000  1.0 -0.1898870568
C  C105  1  0.45720000  0.90540000  0.73620000  1.0 -0.1992191076
C  C106  1  0.17030000  0.02230000  0.61821000  1.0 0.2203056067
C  C107  1  0.37840000  0.56500000  0.60060000  1.0 0.0118422073
C  C108  1  0.67320000  0.36240000  0.95193000  1.0 0.2478513059
C  C109  1  0.79650000  0.99920000  0.87571000  1.0 0.2427310596
C  C110  1  0.36410000  0.88850000  0.72250000  1.0 0.2478513059
C  C111  1  0.13710000  0.01030000  0.65906000  1.0 -0.2169103871
C  C112  1  0.32440000  0.54900000  0.63560000  1.0 -0.0691304247
C  C113  1  0.57850000  0.32910000  0.93667000  1.0 -0.2108935351
C  C114  1  0.73570000  0.01570000  0.84316000  1.0 -0.2108935351
C  C115  1  0.33240000  0.94880000  0.71480000  1.0 -0.2169103871
C  C116  1  0.17590000  0.06960000  0.69124000  1.0 -0.0806535603
C  C117  1  0.35170000  0.51120000  0.67060000  1.0 -0.0408144134
C  C118  1  0.54500000  0.31750000  0.89189000  1.0 -0.089397608
C  C119  1  0.76620000  0.07460000  0.81574000  1.0 -0.089397608
C  C120  1  0.39270000  0.02480000  0.71740000  1.0 -0.089397608
C  C121  1  0.49330000  0.21330000  0.61880000  1.0 0.2203056067
C  C122  1  0.13590000  0.95980000  0.54310000  1.0 0.5898207161
C  C123  1  0.38010000  0.62070000  0.52700000  1.0 0.2427310596
C  C124  1  0.78580000  0.41800000  0.01927000  1.0 0.584781607
C  C125  1  0.79870000  0.92520000  0.94222000  1.0 0.5898207161
C  C126  1  0.31320000  0.74730000  0.73110000  1.0 0.5108518501
C  C127  1  0.05850000  0.89630000  0.47071000  1.0 0.2299843331
C  C128  1  0.31960000  0.66110000  0.45423000  1.0 0.179948469
C  C129  1  0.86750000  0.46030000  0.09551000  1.0 0.2427310596
C  C130  1  0.74850000  0.84560000  0.00563000  1.0 0.2478513059
C  C131  1  0.22440000  0.60530000  0.72720000  1.0 0.2136101921
C  C132  1  0.47730000  0.16100000  0.54580000  1.0 -0.2590088646
C  C133  1  0.13200000  0.88670000  0.45560000  1.0 -0.1992191076
C  C134  1  0.34410000  0.61680000  0.42661000  1.0 -0.3511253397
C  C135  1  0.95440000  0.50040000  0.08686000  1.0 -0.1898870568
C  C136  1  0.82870000  0.88050000  0.03635000  1.0 -0.1825980719
C  C137  1  0.27410000  0.58370000  0.76200000  1.0 -0.2108935351
C  C138  1  0.41770000  0.25890000  0.55570000  1.0 -0.3571740489
C  C139  1  0.12560000  0.86860000  0.41177000  1.0 -0.1030235341
C  C140  1  0.33180000  0.62630000  0.38215000  1.0 -0.1697997029
C  C141  1  0.02350000  0.54180000  0.12092000  1.0 -0.089397608
C  C142  1  0.83090000  0.85760000  0.07858000  1.0 -0.089397608
C  C143  1  0.25320000  0.50470000  0.76969000  1.0 -0.1095312188
C  C144  1  0.04610000  0.86080000  0.38238000  1.0 -0.0297667978
C  C145  1  0.29490000  0.67950000  0.36435000  1.0 -0.0806535603
C  C146  1  0.00720000  0.54700000  0.16309000  1.0 -0.0408144134
C  C147  1  0.75740000  0.79940000  0.09192000  1.0 -0.0508142264
C  C148  1  0.18230000  0.44880000  0.74228000  1.0 -0.0564872546
C  C149  1  0.97470000  0.87250000  0.39781000  1.0 -0.089397608
C  C150  1  0.26820000  0.72280000  0.39220000  1.0 -0.1095312188
C  C151  1  0.91920000  0.50600000  0.17111000  1.0 -0.089397608
C  C152  1  0.68110000  0.76410000  0.06049000  1.0 -0.089397608
C  C153  1  0.13260000  0.47180000  0.70770000  1.0 -0.089397608
C  C154  1  0.98100000  0.88860000  0.44155000  1.0 -0.2169103871
C  C155  1  0.28080000  0.71450000  0.43704000  1.0 -0.281489427
C  C156  1  0.85210000  0.46380000  0.13793000  1.0 -0.2108935351
C  C157  1  0.67700000  0.78650000  0.01830000  1.0 -0.2108935351
C  C158  1  0.15470000  0.54810000  0.69860000  1.0 -0.2262654106
C  C159  1  0.03810000  0.84030000  0.33455000  1.0 0.5898207161
C  C160  1  0.28470000  0.69200000  0.31670000  1.0 0.5898207161
C  C161  1  0.07850000  0.59770000  0.19862000  1.0 0.609970661
C  C162  1  0.76240000  0.77680000  0.13849000  1.0 0.609970661
C  C163  1  0.15670000  0.36430000  0.75047000  1.0 0.609970661
C  C164  1  0.44550000  0.47510000  0.63000000  1.0 -0.0564872546
C  C165  1  0.42120000  0.51200000  0.59500000  1.0 -0.0508142264
C  C166  1  0.36040000  0.58000000  0.64160000  1.0 -0.0806535603
C  C167  1  0.37960000  0.53830000  0.67600000  1.0 -0.0408144134
C  C168  1  0.48310000  0.24900000  0.60970000  1.0 0.2203056067
C  C169  1  0.34580000  0.59480000  0.52130000  1.0 0.2478513059
C  C170  1  0.51700000  0.13200000  0.61860000  1.0 -0.3024289112
N  N1  1  0.88060000  0.03880000  0.41430000  1.0 -0.4306159086
N  N2  1  0.62650000  0.37260000  0.43100000  1.0 -0.1030235341
N  N3  1  0.29890000  0.62470000  0.00274000  1.0 -0.4306159086
N  N4  1  0.24280000  0.06000000  0.09703000  1.0 -0.4374007782
N  N5  1  0.69950000  0.18680000  0.28220000  1.0 -0.4097586523
N  N6  1  0.93810000  0.08860000  0.48440000  1.0 -0.4306159086
N  N7  1  0.65720000  0.33240000  0.49810000  1.0 -0.1030235341
N  N8  1  0.20700000  0.58290000  0.93643000  1.0 -0.4374007782
N  N9  1  0.26330000  0.13180000  0.03758000  1.0 -0.4306159086
N  N10  1  0.76080000  0.31760000  0.28310000  1.0 -0.4180705945
N  N11  1  0.53770000  0.78570000  0.42520000  1.0 0.0261554991
N  N12  1  0.66630000  0.40470000  0.43670000  1.0 -0.1095312188
N  N13  1  0.69030000  0.36000000  0.50190000  1.0 -0.089397608
N  N14  1  0.51970000  0.81760000  0.40890000  1.0 0.0688111289
N  N15  1  0.11940000  0.96120000  0.58570000  1.0 -0.4306159086
N  N16  1  0.37350000  0.62740000  0.56900000  1.0 -0.1030235341
N  N17  1  0.70110000  0.37530000  0.99726000  1.0 -0.4306159086
N  N18  1  0.75720000  0.94000000  0.90297000  1.0 -0.4306159086
N  N19  1  0.30050000  0.81320000  0.71780000  1.0 -0.4097586523
N  N20  1  0.06190000  0.91140000  0.51560000  1.0 -0.4306159086
N  N21  1  0.34280000  0.66760000  0.50190000  1.0 -0.1030235341
N  N22  1  0.79300000  0.41710000  0.06357000  1.0 -0.4374007782
N  N23  1  0.73670000  0.86820000  0.96242000  1.0 -0.4306159086
N  N24  1  0.23920000  0.68240000  0.71690000  1.0 -0.4180705945
N  N25  1  0.46230000  0.21430000  0.57480000  1.0 0.0261554991
N  N26  1  0.33370000  0.59530000  0.56330000  1.0 -0.1095312188
N  N27  1  0.30970000  0.64000000  0.49810000  1.0 -0.089397608
N  N28  1  0.48030000  0.18240000  0.59110000  1.0 0.0688111289
O  O1  1  0.79100000  0.00370000  0.46754000  1.0 -0.5067668359
O  O2  1  0.57670000  0.41300000  0.48690000  1.0 -0.1992191076
O  O3  1  0.15050000  0.54740000  0.99840000  1.0 -0.4761943917
O  O4  1  0.12380000  0.04160000  0.04136000  1.0 -0.4672871779
O  O5  1  0.62070000  0.25450000  0.24400000  1.0 -0.4672871779
O  O6  1  0.64170000  0.74390000  0.28314000  1.0 -0.6515728434
O  O7  1  0.48500000  0.58030000  0.29163000  1.0 -0.6096815865
O  O8  1  0.37530000  0.67280000  0.21097000  1.0 -0.6416168909
O  O9  1  0.02710000  0.79250000  0.21564000  1.0 -0.6602197253
O  O10  1  0.36790000  0.86250000  0.26082000  1.0 -0.6096815865
O  O11  1  0.75940000  0.79740000  0.24987000  1.0 -0.6848396461
O  O12  1  0.59710000  0.57140000  0.26160000  1.0 -0.5976234476
O  O13  1  0.51320000  0.69110000  0.20077000  1.0 -0.6602197253
O  O14  1  0.16400000  0.78820000  0.22805000  1.0 -0.6416168909
O  O15  1  0.48480000  0.82330000  0.27010000  1.0 -0.6515728434
O  O16  1  0.90120000  0.18040000  0.67664000  1.0 -0.6515728434
O  O17  1  0.66666667  0.32650000  0.70585000  1.0 -0.6602197253
O  O18  1  0.84260000  0.36920000  0.80932000  1.0 -0.6277067165
O  O19  1  0.16060000  0.19660000  0.83698000  1.0 -0.6602197253
O  O20  1  0.79120000  0.65910000  0.22278000  1.0 -0.6602197253
O  O21  1  0.02960000  0.15620000  0.69137000  1.0 -0.6515728434
O  O22  1  0.77190000  0.27859000  0.70011000  1.0 -0.6515728434
O  O23  1  0.94570000  0.39360000  0.76579000  1.0 -0.6515728434
O  O24  1  0.31040000  0.26700000  0.84995000  1.0 -0.6515728434
O  O25  1  0.91770000  0.68267000  0.27040000  1.0 -0.6602197253
O  O26  1  0.51890000  0.74120000  0.35640000  1.0 -0.0691304247
O  O27  1  0.61780000  0.44500000  0.49260000  1.0 -0.1898870568
O  O28  1  0.52000000  0.70800000  0.36020000  1.0 -0.1697997029
O  O29  1  0.20900000  0.99630000  0.53246000  1.0 -0.5067668359
O  O30  1  0.42330000  0.58700000  0.51310000  1.0 -0.1992191076
O  O31  1  0.84950000  0.45260000  0.00160000  1.0 -0.4761943917
O  O32  1  0.87620000  0.95840000  0.95864000  1.0 -0.4672871779
O  O33  1  0.37930000  0.74550000  0.75600000  1.0 -0.4672871779
O  O34  1  0.35830000  0.25610000  0.71686000  1.0 -0.6515728434
O  O35  1  0.51500000  0.41970000  0.70837000  1.0 -0.6096815865
O  O36  1  0.62470000  0.32720000  0.78903000  1.0 -0.6416168909
O  O37  1  0.97290000  0.20750000  0.78436000  1.0 -0.6602197253
O  O38  1  0.63210000  0.13750000  0.73918000  1.0 -0.6096815865
O  O39  1  0.24060000  0.20260000  0.75013000  1.0 -0.6848396461
O  O40  1  0.40290000  0.42860000  0.73840000  1.0 -0.5976234476
O  O41  1  0.48680000  0.30890000  0.79923000  1.0 -0.6602197253
O  O42  1  0.83600000  0.21180000  0.77195000  1.0 -0.6416168909
O  O43  1  0.51520000  0.17670000  0.72990000  1.0 -0.6515728434
O  O44  1  0.09880000  0.81960000  0.32336000  1.0 -0.6515728434
O  O45  1  0.33333333  0.67350000  0.29415000  1.0 -0.6602197253
O  O46  1  0.15740000  0.63080000  0.19068000  1.0 -0.6277067165
O  O47  1  0.83940000  0.80340000  0.16302000  1.0 -0.6515728434
O  O48  1  0.20880000  0.34090000  0.77722000  1.0 -0.6602197253
O  O49  1  0.97040000  0.84380000  0.30863000  1.0 -0.6515728434
O  O50  1  0.22810000  0.72141000  0.29989000  1.0 -0.6515728434
O  O51  1  0.05430000  0.60640000  0.23421000  1.0 -0.6515728434
O  O52  1  0.68960000  0.73300000  0.15005000  1.0 -0.6515728434
O  O53  1  0.08230000  0.31733000  0.72960000  1.0 -0.6602197253
O  O54  1  0.48110000  0.25880000  0.64360000  1.0 -0.0691304247
O  O55  1  0.38220000  0.55500000  0.50740000  1.0 -0.1898870568
O  O56  1  0.48000000  0.29200000  0.63980000  1.0 -0.1697997029
