# DDEC6 charges by PACMAN v1.1 (https://github.com/mtap-research/PACMAN-charge/)
data_FERVUV_FSR_pacman
_symmetry_space_group_name_H-M   'P 1'
_cell_length_a   15.48260000
_cell_length_b   15.48260000
_cell_length_c   15.48260000
_cell_angle_alpha   115.87400000
_cell_angle_beta   115.87400000
_cell_angle_gamma   115.87400000
_symmetry_Int_Tables_number   1
_chemical_formula_structural   FeAg2H8(C2N)8
_chemical_formula_sum   'Fe3 Ag6 H24 C48 N24'
_cell_volume   1901.38798129
_cell_formula_units_Z   3
loop_
 _symmetry_equiv_pos_site_id
 _symmetry_equiv_pos_as_xyz
  1  'x, y, z'
loop_
 _atom_site_type_symbol
 _atom_site_label
 _atom_site_symmetry_multiplicity
 _atom_site_fract_x
 _atom_site_fract_y
 _atom_site_fract_z
 _atom_site_occupancy
 _atom_site_charge
Fe  Fe1  1  0.00000000  0.50000000  0.00000000  1.0 0.5645471102
Fe  Fe2  1  0.50000000  0.00000000  0.00000000  1.0 0.5659906155
Fe  Fe3  1  0.00000000  0.00000000  0.50000000  1.0 0.5645471102
Ag  Ag1  1  0.50000000  0.79860000  0.20140000  1.0 0.1031268325
Ag  Ag2  1  0.79860000  0.20140000  0.50000000  1.0 0.1031268325
Ag  Ag3  1  0.20140000  0.50000000  0.79860000  1.0 0.1031268325
Ag  Ag4  1  0.50000000  0.20140000  0.79860000  1.0 0.1031268325
Ag  Ag5  1  0.20140000  0.79860000  0.50000000  1.0 0.1031268325
Ag  Ag6  1  0.79860000  0.50000000  0.20140000  1.0 0.1031268325
H  H1  1  0.03480000  0.60550000  0.88500000  1.0 0.1255442387
H  H2  1  0.60550000  0.88500000  0.03480000  1.0 0.1255442387
H  H3  1  0.88500000  0.03480000  0.60550000  1.0 0.1255442387
H  H4  1  0.39450000  0.96520000  0.11500000  1.0 0.1255442387
H  H5  1  0.11500000  0.39450000  0.96520000  1.0 0.1255442387
H  H6  1  0.96520000  0.11500000  0.39450000  1.0 0.1255442387
H  H7  1  0.96520000  0.39450000  0.11500000  1.0 0.1255442387
H  H8  1  0.39450000  0.11500000  0.96520000  1.0 0.1255442387
H  H9  1  0.11500000  0.96520000  0.39450000  1.0 0.1255442387
H  H10  1  0.60550000  0.03480000  0.88500000  1.0 0.1255442387
H  H11  1  0.88500000  0.60550000  0.03480000  1.0 0.1255442387
H  H12  1  0.03480000  0.88500000  0.60550000  1.0 0.1255442387
H  H13  1  0.98100000  0.70310000  0.82740000  1.0 0.1407398767
H  H14  1  0.70310000  0.82740000  0.98100000  1.0 0.1407398767
H  H15  1  0.82740000  0.98100000  0.70310000  1.0 0.1407398767
H  H16  1  0.29690000  0.01900000  0.17260000  1.0 0.1407398767
H  H17  1  0.17260000  0.29690000  0.01900000  1.0 0.1407398767
H  H18  1  0.01900000  0.17260000  0.29690000  1.0 0.1407398767
H  H19  1  0.01900000  0.29690000  0.17260000  1.0 0.1407398767
H  H20  1  0.29690000  0.17260000  0.01900000  1.0 0.1407398767
H  H21  1  0.17260000  0.01900000  0.29690000  1.0 0.1407398767
H  H22  1  0.70310000  0.98100000  0.82740000  1.0 0.1407398767
H  H23  1  0.82740000  0.70310000  0.98100000  1.0 0.1407398767
H  H24  1  0.98100000  0.82740000  0.70310000  1.0 0.1407398767
C  C1  1  0.99230000  0.62470000  0.90350000  1.0 0.0861555747
C  C2  1  0.62470000  0.90350000  0.99230000  1.0 0.0861555747
C  C3  1  0.90350000  0.99230000  0.62470000  1.0 0.0861555747
C  C4  1  0.37530000  0.00770000  0.09650000  1.0 0.0861555747
C  C5  1  0.09650000  0.37530000  0.00770000  1.0 0.0861555747
C  C6  1  0.00770000  0.09650000  0.37530000  1.0 0.0861555747
C  C7  1  0.00770000  0.37530000  0.09650000  1.0 0.0861555747
C  C8  1  0.37530000  0.09650000  0.00770000  1.0 0.0861555747
C  C9  1  0.09650000  0.00770000  0.37530000  1.0 0.0861555747
C  C10  1  0.62470000  0.99230000  0.90350000  1.0 0.0861555747
C  C11  1  0.90350000  0.62470000  0.99230000  1.0 0.0861555747
C  C12  1  0.99230000  0.90350000  0.62470000  1.0 0.0861555747
C  C13  1  0.96080000  0.68400000  0.86910000  1.0 -0.1721108334
C  C14  1  0.68400000  0.86910000  0.96080000  1.0 -0.1721108334
C  C15  1  0.86910000  0.96080000  0.68400000  1.0 -0.1721108334
C  C16  1  0.31600000  0.03920000  0.13090000  1.0 -0.1721108334
C  C17  1  0.13090000  0.31600000  0.03920000  1.0 -0.1721108334
C  C18  1  0.03920000  0.13090000  0.31600000  1.0 -0.1721108334
C  C19  1  0.03920000  0.31600000  0.13090000  1.0 -0.1721108334
C  C20  1  0.31600000  0.13090000  0.03920000  1.0 -0.1721108334
C  C21  1  0.13090000  0.03920000  0.31600000  1.0 -0.1721108334
C  C22  1  0.68400000  0.96080000  0.86910000  1.0 -0.1721108334
C  C23  1  0.86910000  0.68400000  0.96080000  1.0 -0.1721108334
C  C24  1  0.96080000  0.86910000  0.68400000  1.0 -0.1721108334
C  C25  1  0.89830000  0.71400000  0.89830000  1.0 0.0547658055
C  C26  1  0.71400000  0.89830000  0.89830000  1.0 0.0547658055
C  C27  1  0.89830000  0.89830000  0.71400000  1.0 0.0550929381
C  C28  1  0.28600000  0.10170000  0.10170000  1.0 0.0547658055
C  C29  1  0.10170000  0.28600000  0.10170000  1.0 0.0547658055
C  C30  1  0.10170000  0.10170000  0.28600000  1.0 0.0547658055
C  C31  1  0.86005000  0.77340000  0.86005000  1.0 0.3677679783
C  C32  1  0.77340000  0.86005000  0.86005000  1.0 0.3677679783
C  C33  1  0.86005000  0.86005000  0.77340000  1.0 0.3677679783
C  C34  1  0.22660000  0.13995000  0.13995000  1.0 0.3677679783
C  C35  1  0.13995000  0.22660000  0.13995000  1.0 0.3677679783
C  C36  1  0.13995000  0.13995000  0.22660000  1.0 0.3677679783
C  C37  1  0.30620000  0.70840000  0.12990000  1.0 -0.026519591
C  C38  1  0.70840000  0.12990000  0.30620000  1.0 -0.026519591
C  C39  1  0.12990000  0.30620000  0.70840000  1.0 -0.026519591
C  C40  1  0.29160000  0.69380000  0.87010000  1.0 -0.026519591
C  C41  1  0.87010000  0.29160000  0.69380000  1.0 -0.026519591
C  C42  1  0.69380000  0.87010000  0.29160000  1.0 -0.026519591
C  C43  1  0.69380000  0.29160000  0.87010000  1.0 -0.026519591
C  C44  1  0.29160000  0.87010000  0.69380000  1.0 -0.026519591
C  C45  1  0.87010000  0.69380000  0.29160000  1.0 -0.026519591
C  C46  1  0.70840000  0.30620000  0.12990000  1.0 -0.026519591
C  C47  1  0.12990000  0.70840000  0.30620000  1.0 -0.026519591
C  C48  1  0.30620000  0.12990000  0.70840000  1.0 -0.026519591
N  N1  1  0.96280000  0.59430000  0.96280000  1.0 -0.1321545183
N  N2  1  0.59430000  0.96280000  0.96280000  1.0 -0.1321545183
N  N3  1  0.96280000  0.96280000  0.59430000  1.0 -0.1321545183
N  N4  1  0.40570000  0.03720000  0.03720000  1.0 -0.1321545183
N  N5  1  0.03720000  0.40570000  0.03720000  1.0 -0.1321545183
N  N6  1  0.03720000  0.03720000  0.40570000  1.0 -0.1321545183
N  N7  1  0.19470000  0.63930000  0.08880000  1.0 -0.2830461899
N  N8  1  0.63930000  0.08880000  0.19470000  1.0 -0.2830461899
N  N9  1  0.08880000  0.19470000  0.63930000  1.0 -0.2830461899
N  N10  1  0.36070000  0.80530000  0.91120000  1.0 -0.2830461899
N  N11  1  0.91120000  0.36070000  0.80530000  1.0 -0.2830461899
N  N12  1  0.80530000  0.91120000  0.36070000  1.0 -0.2830461899
N  N13  1  0.80530000  0.36070000  0.91120000  1.0 -0.2830461899
N  N14  1  0.36070000  0.91120000  0.80530000  1.0 -0.2830461899
N  N15  1  0.91120000  0.80530000  0.36070000  1.0 -0.2830461899
N  N16  1  0.63930000  0.19470000  0.08880000  1.0 -0.2830461899
N  N17  1  0.08880000  0.63930000  0.19470000  1.0 -0.2830461899
N  N18  1  0.19470000  0.08880000  0.63930000  1.0 -0.2830461899
N  N19  1  0.89312000  0.80154000  0.80154000  1.0 -0.4176009112
N  N20  1  0.80154000  0.80154000  0.89312000  1.0 -0.4176009112
N  N21  1  0.80154000  0.89312000  0.80154000  1.0 -0.4176009112
N  N22  1  0.19846000  0.10688000  0.19846000  1.0 -0.4176009112
N  N23  1  0.19846000  0.19846000  0.10688000  1.0 -0.4176009112
N  N24  1  0.10688000  0.19846000  0.19846000  1.0 -0.4176009112
