# DDEC6 charges by PACMAN v1.1 (https://github.com/mtap-research/PACMAN-charge/)
data_FERVEF_FSR_pacman
_symmetry_space_group_name_H-M   'P 1'
_cell_length_a   15.45990000
_cell_length_b   15.45990000
_cell_length_c   15.45990000
_cell_angle_alpha   116.03900000
_cell_angle_beta   116.03900000
_cell_angle_gamma   116.03900000
_symmetry_Int_Tables_number   1
_chemical_formula_structural   FeH8Au2(C2N)8
_chemical_formula_sum   'Fe3 H24 Au6 C48 N24'
_cell_volume   1857.44800551
_cell_formula_units_Z   3
loop_
 _symmetry_equiv_pos_site_id
 _symmetry_equiv_pos_as_xyz
  1  'x, y, z'
loop_
 _atom_site_type_symbol
 _atom_site_label
 _atom_site_symmetry_multiplicity
 _atom_site_fract_x
 _atom_site_fract_y
 _atom_site_fract_z
 _atom_site_occupancy
 _atom_site_charge
Fe  Fe1  1  0.50000000  0.50000000  0.00000000  1.0 0.5758191829
Fe  Fe2  1  0.50000000  0.00000000  0.50000000  1.0 0.5758191829
Fe  Fe3  1  0.00000000  0.50000000  0.50000000  1.0 0.5758191829
H  H1  1  0.38580000  0.53430000  0.10570000  1.0 0.1276341662
H  H2  1  0.53430000  0.10570000  0.38580000  1.0 0.1276341662
H  H3  1  0.10570000  0.38580000  0.53430000  1.0 0.1276341662
H  H4  1  0.46570000  0.61420000  0.89430000  1.0 0.1276341662
H  H5  1  0.89430000  0.46570000  0.61420000  1.0 0.1276341662
H  H6  1  0.61420000  0.89430000  0.46570000  1.0 0.1276341662
H  H7  1  0.61420000  0.46570000  0.89430000  1.0 0.1276341662
H  H8  1  0.46570000  0.89430000  0.61420000  1.0 0.1276341662
H  H9  1  0.89430000  0.61420000  0.46570000  1.0 0.1276341662
H  H10  1  0.53430000  0.38580000  0.10570000  1.0 0.1276341662
H  H11  1  0.10570000  0.53430000  0.38580000  1.0 0.1276341662
H  H12  1  0.38580000  0.10570000  0.53430000  1.0 0.1276341662
H  H13  1  0.32760000  0.48200000  0.20300000  1.0 0.1428365394
H  H14  1  0.48200000  0.20300000  0.32760000  1.0 0.1428365394
H  H15  1  0.20300000  0.32760000  0.48200000  1.0 0.1428365394
H  H16  1  0.51800000  0.67240000  0.79700000  1.0 0.1428365394
H  H17  1  0.79700000  0.51800000  0.67240000  1.0 0.1428365394
H  H18  1  0.67240000  0.79700000  0.51800000  1.0 0.1428365394
H  H19  1  0.67240000  0.51800000  0.79700000  1.0 0.1428365394
H  H20  1  0.51800000  0.79700000  0.67240000  1.0 0.1428365394
H  H21  1  0.79700000  0.67240000  0.51800000  1.0 0.1428365394
H  H22  1  0.48200000  0.32760000  0.20300000  1.0 0.1428365394
H  H23  1  0.20300000  0.48200000  0.32760000  1.0 0.1428365394
H  H24  1  0.32760000  0.20300000  0.48200000  1.0 0.1428365394
Au  Au1  1  0.00000000  0.29292000  0.70708000  1.0 -0.0510140362
Au  Au2  1  0.29292000  0.70708000  0.00000000  1.0 -0.0510140362
Au  Au3  1  0.70708000  0.00000000  0.29292000  1.0 -0.0510140362
Au  Au4  1  0.00000000  0.70708000  0.29292000  1.0 -0.0510140362
Au  Au5  1  0.70708000  0.29292000  0.00000000  1.0 -0.0510140362
Au  Au6  1  0.29292000  0.00000000  0.70708000  1.0 -0.0510140362
C  C1  1  0.40360000  0.49130000  0.12460000  1.0 0.0903577578
C  C2  1  0.49130000  0.12460000  0.40360000  1.0 0.0903577578
C  C3  1  0.12460000  0.40360000  0.49130000  1.0 0.0903577578
C  C4  1  0.50870000  0.59640000  0.87540000  1.0 0.0903577578
C  C5  1  0.87540000  0.50870000  0.59640000  1.0 0.0903577578
C  C6  1  0.59640000  0.87540000  0.50870000  1.0 0.0903577578
C  C7  1  0.59640000  0.50870000  0.87540000  1.0 0.0903577578
C  C8  1  0.50870000  0.87540000  0.59640000  1.0 0.0903577578
C  C9  1  0.87540000  0.59640000  0.50870000  1.0 0.0903577578
C  C10  1  0.49130000  0.40360000  0.12460000  1.0 0.0903577578
C  C11  1  0.12460000  0.49130000  0.40360000  1.0 0.0903577578
C  C12  1  0.40360000  0.12460000  0.49130000  1.0 0.0903577578
C  C13  1  0.36820000  0.46020000  0.18360000  1.0 -0.1701279297
C  C14  1  0.46020000  0.18360000  0.36820000  1.0 -0.1701279297
C  C15  1  0.18360000  0.36820000  0.46020000  1.0 -0.1701279297
C  C16  1  0.53980000  0.63180000  0.81640000  1.0 -0.1701279297
C  C17  1  0.81640000  0.53980000  0.63180000  1.0 -0.1701279297
C  C18  1  0.63180000  0.81640000  0.53980000  1.0 -0.1701279297
C  C19  1  0.63180000  0.53980000  0.81640000  1.0 -0.1701279297
C  C20  1  0.53980000  0.81640000  0.63180000  1.0 -0.1701279297
C  C21  1  0.81640000  0.63180000  0.53980000  1.0 -0.1701279297
C  C22  1  0.46020000  0.36820000  0.18360000  1.0 -0.1701279297
C  C23  1  0.18360000  0.46020000  0.36820000  1.0 -0.1701279297
C  C24  1  0.36820000  0.18360000  0.46020000  1.0 -0.1701279297
C  C25  1  0.39490000  0.39490000  0.21320000  1.0 0.0531182829
C  C26  1  0.39490000  0.21320000  0.39490000  1.0 0.0531182829
C  C27  1  0.21320000  0.39490000  0.39490000  1.0 0.0531182829
C  C28  1  0.60510000  0.60510000  0.78680000  1.0 0.0531182829
C  C29  1  0.78680000  0.60510000  0.60510000  1.0 0.0531182829
C  C30  1  0.60510000  0.78680000  0.60510000  1.0 0.0531182829
C  C31  1  0.35720000  0.35720000  0.27090000  1.0 0.3479606494
C  C32  1  0.35720000  0.27090000  0.35720000  1.0 0.3479606494
C  C33  1  0.27090000  0.35720000  0.35720000  1.0 0.3479606494
C  C34  1  0.64280000  0.64280000  0.72910000  1.0 0.3479606494
C  C35  1  0.72910000  0.64280000  0.64280000  1.0 0.3479606494
C  C36  1  0.64280000  0.72910000  0.64280000  1.0 0.3479606494
C  C37  1  0.18900000  0.36600000  0.79340000  1.0 0.0531182829
C  C38  1  0.36600000  0.79340000  0.18900000  1.0 0.0531182829
C  C39  1  0.79340000  0.18900000  0.36600000  1.0 0.0531182829
C  C40  1  0.63400000  0.81100000  0.20660000  1.0 0.0531182829
C  C41  1  0.20660000  0.63400000  0.81100000  1.0 0.0531182829
C  C42  1  0.81100000  0.20660000  0.63400000  1.0 0.0531182829
C  C43  1  0.81100000  0.63400000  0.20660000  1.0 0.0531182829
C  C44  1  0.63400000  0.20660000  0.81100000  1.0 0.0531182829
C  C45  1  0.20660000  0.81100000  0.63400000  1.0 0.0531182829
C  C46  1  0.36600000  0.18900000  0.79340000  1.0 0.0531182829
C  C47  1  0.79340000  0.36600000  0.18900000  1.0 0.0531182829
C  C48  1  0.18900000  0.79340000  0.36600000  1.0 0.0531182829
N  N1  1  0.46190000  0.46190000  0.09390000  1.0 -0.1275413796
N  N2  1  0.46190000  0.09390000  0.46190000  1.0 -0.1275413796
N  N3  1  0.09390000  0.46190000  0.46190000  1.0 -0.1275413796
N  N4  1  0.53810000  0.53810000  0.90610000  1.0 -0.1275413796
N  N5  1  0.90610000  0.53810000  0.53810000  1.0 -0.1275413796
N  N6  1  0.53810000  0.90610000  0.53810000  1.0 -0.1275413796
N  N7  1  0.30130000  0.40800000  0.85840000  1.0 -0.2998621578
N  N8  1  0.40800000  0.85840000  0.30130000  1.0 -0.2998621578
N  N9  1  0.85840000  0.30130000  0.40800000  1.0 -0.2998621578
N  N10  1  0.59200000  0.69870000  0.14160000  1.0 -0.2998621578
N  N11  1  0.14160000  0.59200000  0.69870000  1.0 -0.2998621578
N  N12  1  0.69870000  0.14160000  0.59200000  1.0 -0.2998621578
N  N13  1  0.69870000  0.59200000  0.14160000  1.0 -0.2998621578
N  N14  1  0.59200000  0.14160000  0.69870000  1.0 -0.2998621578
N  N15  1  0.14160000  0.69870000  0.59200000  1.0 -0.2998621578
N  N16  1  0.40800000  0.30130000  0.85840000  1.0 -0.2998621578
N  N17  1  0.85840000  0.40800000  0.30130000  1.0 -0.2998621578
N  N18  1  0.30130000  0.85840000  0.40800000  1.0 -0.2998621578
N  N19  1  0.29950000  0.39020000  0.29950000  1.0 -0.3983464256
N  N20  1  0.39020000  0.29950000  0.29950000  1.0 -0.3983464256
N  N21  1  0.29950000  0.29950000  0.39020000  1.0 -0.3983464256
N  N22  1  0.60980000  0.70050000  0.70050000  1.0 -0.3983464256
N  N23  1  0.70050000  0.60980000  0.70050000  1.0 -0.3983464256
N  N24  1  0.70050000  0.70050000  0.60980000  1.0 -0.3983464256
