# DDEC6 charges by PACMAN v1.1 (https://github.com/mtap-research/PACMAN-charge/)
data_FERVOP_FSR_pacman
_symmetry_space_group_name_H-M   'P 1'
_cell_length_a   15.45370000
_cell_length_b   15.45370000
_cell_length_c   15.45370000
_cell_angle_alpha   116.24200000
_cell_angle_beta   116.24200000
_cell_angle_gamma   116.24200000
_symmetry_Int_Tables_number   1
_chemical_formula_structural   FeAg2H8(C2N)8
_chemical_formula_sum   'Fe3 Ag6 H24 C48 N24'
_cell_volume   1810.20630310
_cell_formula_units_Z   3
loop_
 _symmetry_equiv_pos_site_id
 _symmetry_equiv_pos_as_xyz
  1  'x, y, z'
loop_
 _atom_site_type_symbol
 _atom_site_label
 _atom_site_symmetry_multiplicity
 _atom_site_fract_x
 _atom_site_fract_y
 _atom_site_fract_z
 _atom_site_occupancy
 _atom_site_charge
Fe  Fe1  1  0.50000000  0.50000000  0.00000000  1.0 0.560638713
Fe  Fe2  1  0.50000000  0.00000000  0.50000000  1.0 0.560638713
Fe  Fe3  1  0.00000000  0.50000000  0.50000000  1.0 0.560638713
Ag  Ag1  1  0.69563000  0.00000000  0.30437000  1.0 0.1096106591
Ag  Ag2  1  0.00000000  0.30437000  0.69563000  1.0 0.1096106591
Ag  Ag3  1  0.30437000  0.69563000  0.00000000  1.0 0.1096106591
Ag  Ag4  1  0.30437000  0.00000000  0.69563000  1.0 0.1096106591
Ag  Ag5  1  0.00000000  0.69563000  0.30437000  1.0 0.1096106591
Ag  Ag6  1  0.69563000  0.30437000  0.00000000  1.0 0.1096106591
H  H1  1  0.52270000  0.37410000  0.09540000  1.0 0.1260260117
H  H2  1  0.37410000  0.09540000  0.52270000  1.0 0.1260260117
H  H3  1  0.09540000  0.52270000  0.37410000  1.0 0.1260260117
H  H4  1  0.62590000  0.47730000  0.90460000  1.0 0.1260260117
H  H5  1  0.90460000  0.62590000  0.47730000  1.0 0.1260260117
H  H6  1  0.47730000  0.90460000  0.62590000  1.0 0.1260260117
H  H7  1  0.47730000  0.62590000  0.90460000  1.0 0.1260260117
H  H8  1  0.62590000  0.90460000  0.47730000  1.0 0.1260260117
H  H9  1  0.90460000  0.47730000  0.62590000  1.0 0.1260260117
H  H10  1  0.37410000  0.52270000  0.09540000  1.0 0.1260260117
H  H11  1  0.09540000  0.37410000  0.52270000  1.0 0.1260260117
H  H12  1  0.52270000  0.09540000  0.37410000  1.0 0.1260260117
H  H13  1  0.47040000  0.31600000  0.19050000  1.0 0.1395679337
H  H14  1  0.31600000  0.19050000  0.47040000  1.0 0.1395679337
H  H15  1  0.19050000  0.47040000  0.31600000  1.0 0.1395679337
H  H16  1  0.68400000  0.52960000  0.80950000  1.0 0.1395679337
H  H17  1  0.80950000  0.68400000  0.52960000  1.0 0.1395679337
H  H18  1  0.52960000  0.80950000  0.68400000  1.0 0.1395679337
H  H19  1  0.52960000  0.68400000  0.80950000  1.0 0.1395679337
H  H20  1  0.68400000  0.80950000  0.52960000  1.0 0.1395679337
H  H21  1  0.80950000  0.52960000  0.68400000  1.0 0.1395679337
H  H22  1  0.31600000  0.47040000  0.19050000  1.0 0.1395679337
H  H23  1  0.19050000  0.31600000  0.47040000  1.0 0.1395679337
H  H24  1  0.47040000  0.19050000  0.31600000  1.0 0.1395679337
C  C1  1  0.38500000  0.38500000  0.20300000  1.0 0.0630404562
C  C2  1  0.38500000  0.20300000  0.38500000  1.0 0.0630404562
C  C3  1  0.20300000  0.38500000  0.38500000  1.0 0.0630404562
C  C4  1  0.61500000  0.61500000  0.79700000  1.0 0.0630404562
C  C5  1  0.79700000  0.61500000  0.61500000  1.0 0.0630404562
C  C6  1  0.61500000  0.79700000  0.61500000  1.0 0.0630404562
C  C7  1  0.47860000  0.39100000  0.11300000  1.0 0.0795814168
C  C8  1  0.39100000  0.11300000  0.47860000  1.0 0.0795814168
C  C9  1  0.11300000  0.47860000  0.39100000  1.0 0.0795814168
C  C10  1  0.60900000  0.52140000  0.88700000  1.0 0.0795814168
C  C11  1  0.88700000  0.60900000  0.52140000  1.0 0.0795814168
C  C12  1  0.52140000  0.88700000  0.60900000  1.0 0.0795814168
C  C13  1  0.52140000  0.60900000  0.88700000  1.0 0.0795814168
C  C14  1  0.60900000  0.88700000  0.52140000  1.0 0.0795814168
C  C15  1  0.88700000  0.52140000  0.60900000  1.0 0.0795814168
C  C16  1  0.39100000  0.47860000  0.11300000  1.0 0.0795814168
C  C17  1  0.11300000  0.39100000  0.47860000  1.0 0.0795814168
C  C18  1  0.47860000  0.11300000  0.39100000  1.0 0.0795814168
C  C19  1  0.44900000  0.35720000  0.17160000  1.0 -0.1767367314
C  C20  1  0.35720000  0.17160000  0.44900000  1.0 -0.1767367314
C  C21  1  0.17160000  0.44900000  0.35720000  1.0 -0.1767367314
C  C22  1  0.64280000  0.55100000  0.82840000  1.0 -0.1767367314
C  C23  1  0.82840000  0.64280000  0.55100000  1.0 -0.1767367314
C  C24  1  0.55100000  0.82840000  0.64280000  1.0 -0.1767367314
C  C25  1  0.55100000  0.64280000  0.82840000  1.0 -0.1767367314
C  C26  1  0.64280000  0.82840000  0.55100000  1.0 -0.1767367314
C  C27  1  0.82840000  0.55100000  0.64280000  1.0 -0.1767367314
C  C28  1  0.35720000  0.44900000  0.17160000  1.0 -0.1767367314
C  C29  1  0.17160000  0.35720000  0.44900000  1.0 -0.1767367314
C  C30  1  0.44900000  0.17160000  0.35720000  1.0 -0.1767367314
C  C31  1  0.34890000  0.34890000  0.26320000  1.0 0.3441012275
C  C32  1  0.34890000  0.26320000  0.34890000  1.0 0.3441012275
C  C33  1  0.26320000  0.34890000  0.34890000  1.0 0.3441012275
C  C34  1  0.65110000  0.65110000  0.73680000  1.0 0.3441012275
C  C35  1  0.73680000  0.65110000  0.65110000  1.0 0.3441012275
C  C36  1  0.65110000  0.73680000  0.65110000  1.0 0.3441012275
C  C37  1  0.63540000  0.81220000  0.22140000  1.0 -0.0268384145
C  C38  1  0.81220000  0.22140000  0.63540000  1.0 -0.0268384145
C  C39  1  0.22140000  0.63540000  0.81220000  1.0 -0.0268384145
C  C40  1  0.18780000  0.36460000  0.77860000  1.0 -0.0268384145
C  C41  1  0.77860000  0.18780000  0.36460000  1.0 -0.0268384145
C  C42  1  0.36460000  0.77860000  0.18780000  1.0 -0.0268384145
C  C43  1  0.36460000  0.18780000  0.77860000  1.0 -0.0268384145
C  C44  1  0.18780000  0.77860000  0.36460000  1.0 -0.0268384145
C  C45  1  0.77860000  0.36460000  0.18780000  1.0 -0.0268384145
C  C46  1  0.81220000  0.63540000  0.22140000  1.0 -0.0268384145
C  C47  1  0.22140000  0.81220000  0.63540000  1.0 -0.0268384145
C  C48  1  0.63540000  0.22140000  0.81220000  1.0 -0.0268384145
N  N1  1  0.44730000  0.44730000  0.07930000  1.0 -0.1307958517
N  N2  1  0.44730000  0.07930000  0.44730000  1.0 -0.1307958517
N  N3  1  0.07930000  0.44730000  0.44730000  1.0 -0.1307958517
N  N4  1  0.55270000  0.55270000  0.92070000  1.0 -0.1307958517
N  N5  1  0.92070000  0.55270000  0.55270000  1.0 -0.1307958517
N  N6  1  0.55270000  0.92070000  0.55270000  1.0 -0.1307958517
N  N7  1  0.59340000  0.70020000  0.14950000  1.0 -0.2792600322
N  N8  1  0.70020000  0.14950000  0.59340000  1.0 -0.2792600322
N  N9  1  0.14950000  0.59340000  0.70020000  1.0 -0.2792600322
N  N10  1  0.29980000  0.40660000  0.85050000  1.0 -0.2792600322
N  N11  1  0.85050000  0.29980000  0.40660000  1.0 -0.2792600322
N  N12  1  0.40660000  0.85050000  0.29980000  1.0 -0.2792600322
N  N13  1  0.40660000  0.29980000  0.85050000  1.0 -0.2792600322
N  N14  1  0.29980000  0.85050000  0.40660000  1.0 -0.2792600322
N  N15  1  0.85050000  0.40660000  0.29980000  1.0 -0.2792600322
N  N16  1  0.70020000  0.59340000  0.14950000  1.0 -0.2792600322
N  N17  1  0.14950000  0.70020000  0.59340000  1.0 -0.2792600322
N  N18  1  0.59340000  0.14950000  0.70020000  1.0 -0.2792600322
N  N19  1  0.29445000  0.38410000  0.29445000  1.0 -0.3909562159
N  N20  1  0.38410000  0.29445000  0.29445000  1.0 -0.3909562159
N  N21  1  0.29445000  0.29445000  0.38410000  1.0 -0.3909562159
N  N22  1  0.61590000  0.70555000  0.70555000  1.0 -0.3909562159
N  N23  1  0.70555000  0.61590000  0.70555000  1.0 -0.3909562159
N  N24  1  0.70555000  0.70555000  0.61590000  1.0 -0.3909562159
