# DDEC6 charges by PACMAN v1.1 (https://github.com/mtap-research/PACMAN-charge/)
data_FEVNOL_ASR_pacman
_symmetry_space_group_name_H-M   'P 1'
_cell_length_a   12.05090000
_cell_length_b   12.05090000
_cell_length_c   12.05090000
_cell_angle_alpha   109.47100000
_cell_angle_beta   109.47100000
_cell_angle_gamma   109.47100000
_symmetry_Int_Tables_number   1
_chemical_formula_structural   Cu4C36I3N4
_chemical_formula_sum   'Cu8 C72 I6 N8'
_cell_volume   1347.22491147
_cell_formula_units_Z   2
loop_
 _symmetry_equiv_pos_site_id
 _symmetry_equiv_pos_as_xyz
  1  'x, y, z'
loop_
 _atom_site_type_symbol
 _atom_site_label
 _atom_site_symmetry_multiplicity
 _atom_site_fract_x
 _atom_site_fract_y
 _atom_site_fract_z
 _atom_site_occupancy
 _atom_site_charge
Cu  Cu1  1  0.78312000  0.00000000  0.00000000  1.0 0.269419043
Cu  Cu2  1  0.00000000  0.78312000  0.00000000  1.0 0.269419043
Cu  Cu3  1  0.00000000  0.00000000  0.78312000  1.0 0.269419043
Cu  Cu4  1  0.21688000  0.21688000  0.21688000  1.0 0.269419043
Cu  Cu5  1  0.21688000  0.00000000  0.00000000  1.0 0.269419043
Cu  Cu6  1  0.00000000  0.21688000  0.00000000  1.0 0.269419043
Cu  Cu7  1  0.78312000  0.78312000  0.78312000  1.0 0.269419043
Cu  Cu8  1  0.00000000  0.00000000  0.21688000  1.0 0.269419043
C  C1  1  0.49790000  0.86250000  0.94400000  1.0 0.0160529404
C  C2  1  0.91850000  0.55390000  0.05600000  1.0 0.0160529404
C  C3  1  0.08150000  0.13750000  0.63540000  1.0 0.0160529404
C  C4  1  0.50210000  0.44610000  0.36460000  1.0 0.0160529404
C  C5  1  0.94400000  0.49790000  0.86250000  1.0 0.0160529404
C  C6  1  0.05600000  0.91850000  0.55390000  1.0 0.0147793764
C  C7  1  0.63540000  0.08150000  0.13750000  1.0 0.0160529404
C  C8  1  0.36460000  0.50210000  0.44610000  1.0 0.0147793764
C  C9  1  0.86250000  0.94400000  0.49790000  1.0 0.0160529404
C  C10  1  0.55390000  0.05600000  0.91850000  1.0 0.0160529404
C  C11  1  0.13750000  0.63540000  0.08150000  1.0 0.0160529404
C  C12  1  0.44610000  0.36460000  0.50210000  1.0 0.0147793764
C  C13  1  0.44610000  0.08150000  0.94400000  1.0 0.0147793764
C  C14  1  0.13750000  0.50210000  0.05600000  1.0 0.0160529404
C  C15  1  0.55390000  0.49790000  0.63540000  1.0 0.0160529404
C  C16  1  0.86250000  0.91850000  0.36460000  1.0 0.0147793764
C  C17  1  0.91850000  0.36460000  0.86250000  1.0 0.0160529404
C  C18  1  0.49790000  0.63540000  0.55390000  1.0 0.0160529404
C  C19  1  0.50210000  0.05600000  0.13750000  1.0 0.0147793764
C  C20  1  0.08150000  0.94400000  0.44610000  1.0 0.0160529404
C  C21  1  0.63540000  0.55390000  0.49790000  1.0 0.0160529404
C  C22  1  0.36460000  0.86250000  0.91850000  1.0 0.0160529404
C  C23  1  0.94400000  0.44610000  0.08150000  1.0 0.0160529404
C  C24  1  0.05600000  0.13750000  0.50210000  1.0 0.0160529404
C  C25  1  0.50210000  0.13750000  0.05600000  1.0 0.0160529404
C  C26  1  0.08150000  0.44610000  0.94400000  1.0 0.0160529404
C  C27  1  0.91850000  0.86250000  0.36460000  1.0 0.0160529404
C  C28  1  0.49790000  0.55390000  0.63540000  1.0 0.0160529404
C  C29  1  0.05600000  0.50210000  0.13750000  1.0 0.0147793764
C  C30  1  0.94400000  0.08150000  0.44610000  1.0 0.0160529404
C  C31  1  0.36460000  0.91850000  0.86250000  1.0 0.0160529404
C  C32  1  0.63540000  0.49790000  0.55390000  1.0 0.0160529404
C  C33  1  0.13750000  0.05600000  0.50210000  1.0 0.0160529404
C  C34  1  0.44610000  0.94400000  0.08150000  1.0 0.0160529404
C  C35  1  0.86250000  0.36460000  0.91850000  1.0 0.0160529404
C  C36  1  0.55390000  0.63540000  0.49790000  1.0 0.0160529404
C  C37  1  0.55390000  0.91850000  0.05600000  1.0 0.0160529404
C  C38  1  0.86250000  0.49790000  0.94400000  1.0 0.0160529404
C  C39  1  0.44610000  0.50210000  0.36460000  1.0 0.0160529404
C  C40  1  0.13750000  0.08150000  0.63540000  1.0 0.0160529404
C  C41  1  0.08150000  0.63540000  0.13750000  1.0 0.0160529404
C  C42  1  0.50210000  0.36460000  0.44610000  1.0 0.0147793764
C  C43  1  0.49790000  0.94400000  0.86250000  1.0 0.0160529404
C  C44  1  0.91850000  0.05600000  0.55390000  1.0 0.0160529404
C  C45  1  0.36460000  0.44610000  0.50210000  1.0 0.0160529404
C  C46  1  0.63540000  0.13750000  0.08150000  1.0 0.0160529404
C  C47  1  0.05600000  0.55390000  0.91850000  1.0 0.0147793764
C  C48  1  0.94400000  0.86250000  0.49790000  1.0 0.0160529404
C  C49  1  0.61500000  0.12100000  0.00000000  1.0 -0.0228843469
C  C50  1  0.12100000  0.61500000  0.00000000  1.0 -0.0264834213
C  C51  1  0.87900000  0.87900000  0.49400000  1.0 -0.0264834213
C  C52  1  0.38500000  0.38500000  0.50600000  1.0 -0.0264834213
C  C53  1  0.00000000  0.61500000  0.12100000  1.0 -0.0264834213
C  C54  1  0.00000000  0.12100000  0.61500000  1.0 -0.0228843469
C  C55  1  0.49400000  0.87900000  0.87900000  1.0 -0.0264834213
C  C56  1  0.50600000  0.38500000  0.38500000  1.0 -0.0228843469
C  C57  1  0.12100000  0.00000000  0.61500000  1.0 -0.0264834213
C  C58  1  0.61500000  0.00000000  0.12100000  1.0 -0.0264834213
C  C59  1  0.87900000  0.49400000  0.87900000  1.0 -0.0264834213
C  C60  1  0.38500000  0.50600000  0.38500000  1.0 -0.0228843469
C  C61  1  0.38500000  0.87900000  0.00000000  1.0 -0.0228843469
C  C62  1  0.87900000  0.38500000  0.00000000  1.0 -0.0228843469
C  C63  1  0.61500000  0.61500000  0.49400000  1.0 -0.0264834213
C  C64  1  0.12100000  0.12100000  0.50600000  1.0 -0.0228843469
C  C65  1  0.12100000  0.50600000  0.12100000  1.0 -0.0228843469
C  C66  1  0.61500000  0.49400000  0.61500000  1.0 -0.0228843469
C  C67  1  0.38500000  0.00000000  0.87900000  1.0 -0.0264834213
C  C68  1  0.87900000  0.00000000  0.38500000  1.0 -0.0264834213
C  C69  1  0.49400000  0.61500000  0.61500000  1.0 -0.0264834213
C  C70  1  0.50600000  0.12100000  0.12100000  1.0 -0.0228843469
C  C71  1  0.00000000  0.38500000  0.87900000  1.0 -0.0264834213
C  C72  1  0.00000000  0.87900000  0.38500000  1.0 -0.0264834213
I  I1  1  0.00000000  0.22216000  0.22216000  1.0 -0.4445361061
I  I2  1  0.00000000  0.77784000  0.77784000  1.0 -0.4464855654
I  I3  1  0.22216000  0.00000000  0.22216000  1.0 -0.4445361061
I  I4  1  0.77784000  0.00000000  0.77784000  1.0 -0.4445361061
I  I5  1  0.22216000  0.22216000  0.00000000  1.0 -0.4464855654
I  I6  1  0.77784000  0.77784000  0.00000000  1.0 -0.4464855654
N  N1  1  0.60960000  0.00000000  0.00000000  1.0 0.0475122444
N  N2  1  0.00000000  0.60960000  0.00000000  1.0 0.0431416484
N  N3  1  0.00000000  0.00000000  0.60960000  1.0 0.0431416484
N  N4  1  0.39040000  0.39040000  0.39040000  1.0 0.0475122444
N  N5  1  0.39040000  0.00000000  0.00000000  1.0 0.0475122444
N  N6  1  0.00000000  0.39040000  0.00000000  1.0 0.0431416484
N  N7  1  0.60960000  0.60960000  0.60960000  1.0 0.0431416484
N  N8  1  0.00000000  0.00000000  0.39040000  1.0 0.0431416484
