# DDEC6 charges by PACMAN v1.1 (https://github.com/mtap-research/PACMAN-charge/)
data_FEVVIM_FSR_pacman
_symmetry_space_group_name_H-M   'P 1'
_cell_length_a   13.43860000
_cell_length_b   13.43860000
_cell_length_c   21.16000000
_cell_angle_alpha   78.81640000
_cell_angle_beta   101.18400000
_cell_angle_gamma   130.45500000
_symmetry_Int_Tables_number   1
_chemical_formula_structural   MnH30C15Br2(NO)3
_chemical_formula_sum   'Mn4 H120 C60 Br8 N12 O12'
_cell_volume   2840.65503387
_cell_formula_units_Z   4
loop_
 _symmetry_equiv_pos_site_id
 _symmetry_equiv_pos_as_xyz
  1  'x, y, z'
loop_
 _atom_site_type_symbol
 _atom_site_label
 _atom_site_symmetry_multiplicity
 _atom_site_fract_x
 _atom_site_fract_y
 _atom_site_fract_z
 _atom_site_occupancy
 _atom_site_charge
Mn  Mn1  1  0.17860000  0.17860000  0.25000000  1.0 0.598976975
Mn  Mn2  1  0.82140000  0.82140000  0.75000000  1.0 0.598976975
Mn  Mn3  1  0.50000000  0.00000000  0.00000000  1.0 1.0513187103
Mn  Mn4  1  0.00000000  0.50000000  0.50000000  1.0 1.0513187103
H  H1  1  0.77330000  0.09890000  0.85730000  1.0 0.1601447152
H  H2  1  0.09890000  0.77330000  0.64270000  1.0 0.1601447152
H  H3  1  0.22670000  0.90110000  0.14270000  1.0 0.1601447152
H  H4  1  0.90110000  0.22670000  0.35730000  1.0 0.1601447152
H  H5  1  0.67150000  0.11950000  0.85890000  1.0 0.1776663043
H  H6  1  0.11950000  0.67150000  0.64110000  1.0 0.1776663043
H  H7  1  0.32850000  0.88050000  0.14110000  1.0 0.1776663043
H  H8  1  0.88050000  0.32850000  0.35890000  1.0 0.1776663043
H  H9  1  0.76610000  0.13770000  0.92060000  1.0 0.1601447152
H  H10  1  0.13770000  0.76610000  0.57940000  1.0 0.1601447152
H  H11  1  0.23390000  0.86230000  0.07940000  1.0 0.1601447152
H  H12  1  0.86230000  0.23390000  0.42060000  1.0 0.1601447152
H  H13  1  0.68660000  0.89720000  0.86200000  1.0 0.2712533998
H  H14  1  0.89720000  0.68660000  0.63800000  1.0 0.2712533998
H  H15  1  0.31340000  0.10280000  0.13800000  1.0 0.2712533998
H  H16  1  0.10280000  0.31340000  0.36200000  1.0 0.2712533998
H  H17  1  0.44790000  0.70210000  0.90400000  1.0 0.1013424572
H  H18  1  0.70210000  0.44790000  0.59600000  1.0 0.1013424572
H  H19  1  0.55210000  0.29790000  0.09600000  1.0 0.1013424572
H  H20  1  0.29790000  0.55210000  0.40400000  1.0 0.1013424572
H  H21  1  0.52080000  0.68440000  0.86350000  1.0 0.1080229421
H  H22  1  0.68440000  0.52080000  0.63650000  1.0 0.1080229421
H  H23  1  0.47920000  0.31560000  0.13650000  1.0 0.1080229421
H  H24  1  0.31560000  0.47920000  0.36350000  1.0 0.1080229421
H  H25  1  0.66130000  0.70750000  0.95850000  1.0 0.1080229421
H  H26  1  0.70750000  0.66130000  0.54150000  1.0 0.1080229421
H  H27  1  0.33870000  0.29250000  0.04150000  1.0 0.1080229421
H  H28  1  0.29250000  0.33870000  0.45850000  1.0 0.1080229421
H  H29  1  0.57780000  0.71320000  0.99810000  1.0 0.1080229421
H  H30  1  0.71320000  0.57780000  0.50190000  1.0 0.1080229421
H  H31  1  0.42220000  0.28680000  0.00190000  1.0 0.1080229421
H  H32  1  0.28680000  0.42220000  0.49810000  1.0 0.1080229421
H  H33  1  0.46840000  0.49060000  0.93340000  1.0 0.1080229421
H  H34  1  0.49060000  0.46840000  0.56660000  1.0 0.1080229421
H  H35  1  0.53160000  0.50940000  0.06660000  1.0 0.1080229421
H  H36  1  0.50940000  0.53160000  0.43340000  1.0 0.1080229421
H  H37  1  0.39300000  0.49680000  0.97840000  1.0 0.1080229421
H  H38  1  0.49680000  0.39300000  0.52160000  1.0 0.1080229421
H  H39  1  0.60700000  0.50320000  0.02160000  1.0 0.1080229421
H  H40  1  0.50320000  0.60700000  0.47840000  1.0 0.1080229421
H  H41  1  0.74390000  0.45190000  0.95000000  1.0 0.1601447152
H  H42  1  0.45190000  0.74390000  0.55000000  1.0 0.1601447152
H  H43  1  0.25610000  0.54810000  0.05000000  1.0 0.1601447152
H  H44  1  0.54810000  0.25610000  0.45000000  1.0 0.1601447152
H  H45  1  0.78630000  0.36530000  0.95750000  1.0 0.1776663043
H  H46  1  0.36530000  0.78630000  0.54250000  1.0 0.1776663043
H  H47  1  0.21370000  0.63470000  0.04250000  1.0 0.1776663043
H  H48  1  0.63470000  0.21370000  0.45750000  1.0 0.1776663043
H  H49  1  0.69800000  0.34080000  0.00700000  1.0 0.172477273
H  H50  1  0.34080000  0.69800000  0.49300000  1.0 0.172477273
H  H51  1  0.30200000  0.65920000  0.99300000  1.0 0.172477273
H  H52  1  0.65920000  0.30200000  0.50700000  1.0 0.172477273
H  H53  1  0.58500000  0.39920000  0.87150000  1.0 0.2712533998
H  H54  1  0.39920000  0.58500000  0.62850000  1.0 0.2712533998
H  H55  1  0.41500000  0.60080000  0.12850000  1.0 0.2712533998
H  H56  1  0.60080000  0.41500000  0.37150000  1.0 0.2712533998
H  H57  1  0.36650000  0.14510000  0.85590000  1.0 0.1013424572
H  H58  1  0.14510000  0.36650000  0.64410000  1.0 0.1013424572
H  H59  1  0.63350000  0.85490000  0.14410000  1.0 0.1013424572
H  H60  1  0.85490000  0.63350000  0.35590000  1.0 0.1013424572
H  H61  1  0.45340000  0.21400000  0.79640000  1.0 0.1013424572
H  H62  1  0.21400000  0.45340000  0.70360000  1.0 0.1013424572
H  H63  1  0.54660000  0.78600000  0.20360000  1.0 0.1013424572
H  H64  1  0.78600000  0.54660000  0.29640000  1.0 0.1013424572
H  H65  1  0.34220000  0.30380000  0.84540000  1.0 0.1013424572
H  H66  1  0.30380000  0.34220000  0.65460000  1.0 0.1013424572
H  H67  1  0.65780000  0.69620000  0.15460000  1.0 0.1013424572
H  H68  1  0.69620000  0.65780000  0.34540000  1.0 0.1013424572
H  H69  1  0.46200000  0.40280000  0.80180000  1.0 0.1013424572
H  H70  1  0.40280000  0.46200000  0.69820000  1.0 0.1013424572
H  H71  1  0.53800000  0.59720000  0.19820000  1.0 0.1013424572
H  H72  1  0.59720000  0.53800000  0.30180000  1.0 0.1013424572
H  H73  1  0.14430000  0.24010000  0.73460000  1.0 0.1080229421
H  H74  1  0.24010000  0.14430000  0.76540000  1.0 0.1080229421
H  H75  1  0.85570000  0.75990000  0.26540000  1.0 0.1013424572
H  H76  1  0.75990000  0.85570000  0.23460000  1.0 0.1080229421
H  H77  1  0.26000000  0.35020000  0.78050000  1.0 0.08049993
H  H78  1  0.35020000  0.26000000  0.71950000  1.0 0.08049993
H  H79  1  0.74000000  0.64980000  0.21950000  1.0 0.08049993
H  H80  1  0.64980000  0.74000000  0.28050000  1.0 0.08049993
H  H81  1  0.23070000  0.86510000  0.81050000  1.0 0.151522135
H  H82  1  0.86510000  0.23070000  0.68950000  1.0 0.151522135
H  H83  1  0.76930000  0.13490000  0.18950000  1.0 0.151522135
H  H84  1  0.13490000  0.76930000  0.31050000  1.0 0.151522135
H  H85  1  0.29750000  0.81150000  0.85510000  1.0 0.172477273
H  H86  1  0.81150000  0.29750000  0.64490000  1.0 0.172477273
H  H87  1  0.70250000  0.18850000  0.14490000  1.0 0.172477273
H  H88  1  0.18850000  0.70250000  0.35510000  1.0 0.172477273
H  H89  1  0.37480000  0.96320000  0.84190000  1.0 0.1601447152
H  H90  1  0.96320000  0.37480000  0.65810000  1.0 0.1601447152
H  H91  1  0.62520000  0.03680000  0.15810000  1.0 0.1601447152
H  H92  1  0.03680000  0.62520000  0.34190000  1.0 0.1601447152
H  H93  1  0.08550000  0.83990000  0.85950000  1.0 0.2712533998
H  H94  1  0.83990000  0.08550000  0.64050000  1.0 0.2712533998
H  H95  1  0.91450000  0.16010000  0.14050000  1.0 0.2712533998
H  H96  1  0.16010000  0.91450000  0.35950000  1.0 0.2712533998
H  H97  1  0.09620000  0.82620000  0.99070000  1.0 0.1013424572
H  H98  1  0.82620000  0.09620000  0.50930000  1.0 0.1013424572
H  H99  1  0.90380000  0.17380000  0.00930000  1.0 0.1013424572
H  H100  1  0.17380000  0.90380000  0.49070000  1.0 0.1013424572
H  H101  1  0.96710000  0.76650000  0.94420000  1.0 0.1013424572
H  H102  1  0.76650000  0.96710000  0.55580000  1.0 0.1013424572
H  H103  1  0.03290000  0.23350000  0.05580000  1.0 0.1013424572
H  H104  1  0.23350000  0.03290000  0.44420000  1.0 0.1013424572
H  H105  1  0.04290000  0.97890000  0.90720000  1.0 0.1186989636
H  H106  1  0.97890000  0.04290000  0.59280000  1.0 0.1186989636
H  H107  1  0.95710000  0.02110000  0.09280000  1.0 0.1186989636
H  H108  1  0.02110000  0.95710000  0.40720000  1.0 0.1186989636
H  H109  1  0.16790000  0.03550000  0.95670000  1.0 0.1186989636
H  H110  1  0.03550000  0.16790000  0.54330000  1.0 0.1186989636
H  H111  1  0.83210000  0.96450000  0.04330000  1.0 0.1186989636
H  H112  1  0.96450000  0.83210000  0.45670000  1.0 0.1186989636
H  H113  1  0.08920000  0.13540000  0.00260000  1.0 0.1080229421
H  H114  1  0.13540000  0.08920000  0.49740000  1.0 0.1080229421
H  H115  1  0.91080000  0.86460000  0.99740000  1.0 0.1080229421
H  H116  1  0.86460000  0.91080000  0.50260000  1.0 0.1080229421
H  H117  1  0.95940000  0.06160000  0.95620000  1.0 0.1080229421
H  H118  1  0.06160000  0.95940000  0.54380000  1.0 0.1080229421
H  H119  1  0.04060000  0.93840000  0.04380000  1.0 0.1080229421
H  H120  1  0.93840000  0.04060000  0.45620000  1.0 0.1080229421
C  C1  1  0.71570000  0.08830000  0.88370000  1.0 -0.6005186833
C  C2  1  0.08830000  0.71570000  0.61630000  1.0 -0.6005186833
C  C3  1  0.28430000  0.91170000  0.11630000  1.0 -0.6005186833
C  C4  1  0.91170000  0.28430000  0.38370000  1.0 -0.6005186833
C  C5  1  0.62000000  0.95100000  0.90510000  1.0 0.5504053288
C  C6  1  0.95100000  0.62000000  0.59490000  1.0 0.5504053288
C  C7  1  0.38000000  0.04900000  0.09490000  1.0 0.5504053288
C  C8  1  0.04900000  0.38000000  0.40510000  1.0 0.5504053288
C  C9  1  0.53210000  0.72690000  0.89950000  1.0 -0.0542384557
C  C10  1  0.72690000  0.53210000  0.60050000  1.0 -0.0542384557
C  C11  1  0.46790000  0.27310000  0.10050000  1.0 -0.0542384557
C  C12  1  0.27310000  0.46790000  0.39950000  1.0 -0.0542384557
C  C13  1  0.57410000  0.67710000  0.96130000  1.0 -0.2008847914
C  C14  1  0.67710000  0.57410000  0.53870000  1.0 -0.2008847914
C  C15  1  0.42590000  0.32290000  0.03870000  1.0 -0.2008847914
C  C16  1  0.32290000  0.42590000  0.46130000  1.0 -0.2008847914
C  C17  1  0.47830000  0.52630000  0.97200000  1.0 -0.1588713921
C  C18  1  0.52630000  0.47830000  0.52800000  1.0 -0.1588713921
C  C19  1  0.52170000  0.47370000  0.02800000  1.0 -0.1588713921
C  C20  1  0.47370000  0.52170000  0.47200000  1.0 -0.1588713921
C  C21  1  0.71700000  0.36560000  0.96260000  1.0 -0.6005186833
C  C22  1  0.36560000  0.71700000  0.53740000  1.0 -0.6005186833
C  C23  1  0.28300000  0.63440000  0.03740000  1.0 -0.6005186833
C  C24  1  0.63440000  0.28300000  0.46260000  1.0 -0.6005186833
C  C25  1  0.59870000  0.27130000  0.92150000  1.0 0.5850489788
C  C26  1  0.27130000  0.59870000  0.57850000  1.0 0.5850489788
C  C27  1  0.40130000  0.72870000  0.07850000  1.0 0.584884172
C  C28  1  0.72870000  0.40130000  0.42150000  1.0 0.584884172
C  C29  1  0.43200000  0.22860000  0.83300000  1.0 -0.0725563637
C  C30  1  0.22860000  0.43200000  0.66700000  1.0 -0.0725563637
C  C31  1  0.56800000  0.77140000  0.16700000  1.0 -0.0725563637
C  C32  1  0.77140000  0.56800000  0.33300000  1.0 -0.0725563637
C  C33  1  0.38970000  0.31130000  0.81320000  1.0 -0.2084669641
C  C34  1  0.31130000  0.38970000  0.68680000  1.0 -0.2084669641
C  C35  1  0.61030000  0.68870000  0.18680000  1.0 -0.2084669641
C  C36  1  0.68870000  0.61030000  0.31320000  1.0 -0.2084669641
C  C37  1  0.30190000  0.23870000  0.75530000  1.0 -0.1504095349
C  C38  1  0.23870000  0.30190000  0.74470000  1.0 -0.1504095349
C  C39  1  0.69810000  0.76130000  0.24470000  1.0 -0.1504095349
C  C40  1  0.76130000  0.69810000  0.25530000  1.0 -0.1504095349
C  C41  1  0.29000000  0.87920000  0.84810000  1.0 -0.5894390888
C  C42  1  0.87920000  0.29000000  0.65190000  1.0 -0.5894390888
C  C43  1  0.71000000  0.12080000  0.15190000  1.0 -0.5894390888
C  C44  1  0.12080000  0.71000000  0.34810000  1.0 -0.5894390888
C  C45  1  0.23840000  0.87620000  0.90610000  1.0 0.5730662548
C  C46  1  0.87620000  0.23840000  0.59390000  1.0 0.5730662548
C  C47  1  0.76160000  0.12380000  0.09390000  1.0 0.5730662548
C  C48  1  0.12380000  0.76160000  0.40610000  1.0 0.5730662548
C  C49  1  0.05990000  0.84130000  0.94930000  1.0 -0.0627450713
C  C50  1  0.84130000  0.05990000  0.55070000  1.0 -0.0627450713
C  C51  1  0.94010000  0.15870000  0.05070000  1.0 -0.0627450713
C  C52  1  0.15870000  0.94010000  0.44930000  1.0 -0.0627450713
C  C53  1  0.07540000  0.96120000  0.94930000  1.0 -0.1867921412
C  C54  1  0.96120000  0.07540000  0.55070000  1.0 -0.1867921412
C  C55  1  0.92460000  0.03880000  0.05070000  1.0 -0.1867921412
C  C56  1  0.03880000  0.92460000  0.44930000  1.0 -0.1867921412
C  C57  1  0.00070000  0.94570000  0.00160000  1.0 -0.1504095349
C  C58  1  0.94570000  0.00070000  0.49840000  1.0 -0.1504095349
C  C59  1  0.99930000  0.05430000  0.99840000  1.0 -0.1504095349
C  C60  1  0.05430000  0.99930000  0.50160000  1.0 -0.1504095349
Br  Br1  1  0.26117000  0.34199000  0.15401000  1.0 -0.5316557533
Br  Br2  1  0.34199000  0.26117000  0.34599000  1.0 -0.5316557533
Br  Br3  1  0.73883000  0.65801000  0.84599000  1.0 -0.5316557533
Br  Br4  1  0.65801000  0.73883000  0.65401000  1.0 -0.5316557533
Br  Br5  1  0.12793000  0.97639000  0.22303000  1.0 -0.5522610222
Br  Br6  1  0.97639000  0.12793000  0.27697000  1.0 -0.5522610222
Br  Br7  1  0.87207000  0.02361000  0.77697000  1.0 -0.5522610222
Br  Br8  1  0.02361000  0.87207000  0.72303000  1.0 -0.5522610222
N  N1  1  0.62440000  0.86640000  0.88510000  1.0 -0.2999984048
N  N2  1  0.86640000  0.62440000  0.61490000  1.0 -0.2999984048
N  N3  1  0.37560000  0.13360000  0.11490000  1.0 -0.2999984048
N  N4  1  0.13360000  0.37560000  0.38510000  1.0 -0.2999984048
N  N5  1  0.54820000  0.31720000  0.87560000  1.0 -0.3471278123
N  N6  1  0.31720000  0.54820000  0.62440000  1.0 -0.3471278123
N  N7  1  0.45180000  0.68280000  0.12440000  1.0 -0.3471278123
N  N8  1  0.68280000  0.45180000  0.37560000  1.0 -0.3471278123
N  N9  1  0.12440000  0.85120000  0.89800000  1.0 -0.3257676608
N  N10  1  0.85120000  0.12440000  0.60200000  1.0 -0.3257676608
N  N11  1  0.87560000  0.14880000  0.10200000  1.0 -0.3257676608
N  N12  1  0.14880000  0.87560000  0.39800000  1.0 -0.3257676608
O  O1  1  0.53300000  0.90980000  0.94030000  1.0 -0.5522610222
O  O2  1  0.90980000  0.53300000  0.55970000  1.0 -0.5522610222
O  O3  1  0.46700000  0.09020000  0.05970000  1.0 -0.5522610222
O  O4  1  0.09020000  0.46700000  0.44030000  1.0 -0.5522610222
O  O5  1  0.54030000  0.15270000  0.92550000  1.0 -0.5316557533
O  O6  1  0.15270000  0.54030000  0.57450000  1.0 -0.5316557533
O  O7  1  0.45970000  0.84730000  0.07450000  1.0 -0.5316557533
O  O8  1  0.84730000  0.45970000  0.42550000  1.0 -0.5316557533
O  O9  1  0.29930000  0.89250000  0.96050000  1.0 -0.5550756998
O  O10  1  0.89250000  0.29930000  0.53950000  1.0 -0.5522610222
O  O11  1  0.70070000  0.10750000  0.03950000  1.0 -0.5522610222
O  O12  1  0.10750000  0.70070000  0.46050000  1.0 -0.5522610222
