# DDEC6 charges by PACMAN v1.1 (https://github.com/mtap-research/PACMAN-charge/)
data_FEWBES_ASR_pacman
_symmetry_space_group_name_H-M   'P 1'
_cell_length_a   8.11200000
_cell_length_b   17.89730000
_cell_length_c   18.07810000
_cell_angle_alpha   90.00000000
_cell_angle_beta   90.00000000
_cell_angle_gamma   90.00000000
_symmetry_Int_Tables_number   1
_chemical_formula_structural   Tb4H22C32N4O29
_chemical_formula_sum   'Tb8 H44 C64 N8 O58'
_cell_volume   2624.63094110
_cell_formula_units_Z   2
loop_
 _symmetry_equiv_pos_site_id
 _symmetry_equiv_pos_as_xyz
  1  'x, y, z'
loop_
 _atom_site_type_symbol
 _atom_site_label
 _atom_site_symmetry_multiplicity
 _atom_site_fract_x
 _atom_site_fract_y
 _atom_site_fract_z
 _atom_site_occupancy
 _atom_site_charge
Tb  Tb1  1  0.31637000  0.45310000  0.10105000  1.0 1.7108558978
Tb  Tb2  1  0.68363000  0.95310000  0.39895000  1.0 1.7108558978
Tb  Tb3  1  0.68363000  0.95310000  0.60105000  1.0 1.7108558978
Tb  Tb4  1  0.31637000  0.45310000  0.89895000  1.0 1.7108558978
Tb  Tb5  1  0.98040000  0.34390000  0.00000000  1.0 2.1000237133
Tb  Tb6  1  0.97950000  0.56190000  0.00000000  1.0 2.1430356171
Tb  Tb7  1  0.01960000  0.84390000  0.50000000  1.0 2.1000237133
Tb  Tb8  1  0.02050000  0.06190000  0.50000000  1.0 2.1430356171
H  H1  1  0.96754000  0.44857000  0.11078000  1.0 0.4082712795
H  H2  1  0.88987000  0.64870000  0.33623000  1.0 0.1418038759
H  H3  1  0.68389000  0.80401000  0.21670000  1.0 0.1308566708
H  H4  1  0.60820000  0.71480000  0.13463000  1.0 0.1308566708
H  H5  1  0.33220000  0.59884000  0.29448000  1.0 0.1418038759
H  H6  1  0.19555000  0.83616000  0.24512000  1.0 0.1308566708
H  H7  1  0.11693000  0.74924000  0.16119000  1.0 0.1229654517
H  H8  1  0.49741000  0.42604000  0.96206000  1.0 0.1130040999
H  H9  1  0.27153000  0.51284000  0.95944000  1.0 0.2832498517
H  H10  1  0.33200000  0.33045000  0.00603000  1.0 0.4451922443
H  H11  1  0.61993000  0.42471000  0.01565000  1.0 0.1551343765
H  H12  1  0.03246000  0.94857000  0.38922000  1.0 0.4082712795
H  H13  1  0.11013000  0.14870000  0.16377000  1.0 0.1418038759
H  H14  1  0.31611000  0.30401000  0.28330000  1.0 0.1308566708
H  H15  1  0.39180000  0.21480000  0.36537000  1.0 0.1308566708
H  H16  1  0.66780000  0.09884000  0.20552000  1.0 0.1418038759
H  H17  1  0.80445000  0.33616000  0.25488000  1.0 0.1308566708
H  H18  1  0.88307000  0.24924000  0.33881000  1.0 0.1229654517
H  H19  1  0.50259000  0.92604000  0.53794000  1.0 0.1130040999
H  H20  1  0.72847000  0.01284000  0.54056000  1.0 0.2832498517
H  H21  1  0.66800000  0.83045000  0.49397000  1.0 0.4451922443
H  H22  1  0.38007000  0.92471000  0.48435000  1.0 0.1551343765
H  H23  1  0.03246000  0.94857000  0.61078000  1.0 0.4082712795
H  H24  1  0.11013000  0.14870000  0.83623000  1.0 0.1418038759
H  H25  1  0.31611000  0.30401000  0.71670000  1.0 0.1308566708
H  H26  1  0.39180000  0.21480000  0.63463000  1.0 0.1308566708
H  H27  1  0.66780000  0.09884000  0.79448000  1.0 0.1418038759
H  H28  1  0.80445000  0.33616000  0.74512000  1.0 0.1308566708
H  H29  1  0.88307000  0.24924000  0.66119000  1.0 0.1229654517
H  H30  1  0.50259000  0.92604000  0.46206000  1.0 0.1130040999
H  H31  1  0.72847000  0.01284000  0.45944000  1.0 0.2832498517
H  H32  1  0.66800000  0.83045000  0.50603000  1.0 0.4451922443
H  H33  1  0.38007000  0.92471000  0.51565000  1.0 0.1551343765
H  H34  1  0.96754000  0.44857000  0.88922000  1.0 0.4082712795
H  H35  1  0.88987000  0.64870000  0.66377000  1.0 0.1418038759
H  H36  1  0.68389000  0.80401000  0.78330000  1.0 0.1308566708
H  H37  1  0.60820000  0.71480000  0.86537000  1.0 0.1308566708
H  H38  1  0.33220000  0.59884000  0.70552000  1.0 0.1418038759
H  H39  1  0.19555000  0.83616000  0.75488000  1.0 0.1308566708
H  H40  1  0.11693000  0.74924000  0.83881000  1.0 0.1229654517
H  H41  1  0.49741000  0.42604000  0.03794000  1.0 0.1130040999
H  H42  1  0.27153000  0.51284000  0.04056000  1.0 0.2832498517
H  H43  1  0.33200000  0.33045000  0.99397000  1.0 0.4451922443
H  H44  1  0.61993000  0.42471000  0.98435000  1.0 0.1551343765
C  C1  1  0.65100000  0.57400000  0.13200000  1.0 0.5908615406
C  C2  1  0.70300000  0.62510000  0.18500000  1.0 -0.1139874418
C  C3  1  0.79000000  0.60510000  0.24760000  1.0 0.0238011283
C  C4  1  0.83100000  0.66320000  0.29400000  1.0 -0.1809138391
C  C5  1  0.80100000  0.73910000  0.29020000  1.0 -0.0574751796
C  C6  1  0.84700000  0.79460000  0.34010000  1.0 0.5908615406
C  C7  1  0.71300000  0.75500000  0.22640000  1.0 -0.0909630839
C  C8  1  0.66700000  0.70020000  0.17600000  1.0 -0.0909630839
C  C9  1  0.17200000  0.60680000  0.16920000  1.0 0.5977073278
C  C10  1  0.21700000  0.66240000  0.21900000  1.0 -0.0690059472
C  C11  1  0.30300000  0.64800000  0.28370000  1.0 -0.1222786602
C  C12  1  0.34700000  0.70390000  0.33280000  1.0 0.0116888395
C  C13  1  0.30900000  0.77860000  0.32170000  1.0 -0.0994965244
C  C14  1  0.34800000  0.83800000  0.36800000  1.0 0.5841537978
C  C15  1  0.22400000  0.78700000  0.25600000  1.0 -0.0799474079
C  C16  1  0.17500000  0.73570000  0.20400000  1.0 -0.0574751796
C  C17  1  0.34900000  0.07400000  0.36800000  1.0 0.5908615406
C  C18  1  0.29700000  0.12510000  0.31500000  1.0 -0.1139874418
C  C19  1  0.21000000  0.10510000  0.25240000  1.0 0.0238011283
C  C20  1  0.16900000  0.16320000  0.20600000  1.0 -0.1809138391
C  C21  1  0.19900000  0.23910000  0.20980000  1.0 -0.0574751796
C  C22  1  0.15300000  0.29460000  0.15990000  1.0 0.5908615406
C  C23  1  0.28700000  0.25500000  0.27360000  1.0 -0.0909630839
C  C24  1  0.33300000  0.20020000  0.32400000  1.0 -0.0909630839
C  C25  1  0.82800000  0.10680000  0.33080000  1.0 0.5977073278
C  C26  1  0.78300000  0.16240000  0.28100000  1.0 -0.0690059472
C  C27  1  0.69700000  0.14800000  0.21630000  1.0 -0.1222786602
C  C28  1  0.65300000  0.20390000  0.16720000  1.0 0.0116888395
C  C29  1  0.69100000  0.27860000  0.17830000  1.0 -0.0994965244
C  C30  1  0.65200000  0.33800000  0.13200000  1.0 0.5841537978
C  C31  1  0.77600000  0.28700000  0.24400000  1.0 -0.0799474079
C  C32  1  0.82500000  0.23570000  0.29600000  1.0 -0.0574751796
C  C33  1  0.34900000  0.07400000  0.63200000  1.0 0.5908615406
C  C34  1  0.29700000  0.12510000  0.68500000  1.0 -0.1139874418
C  C35  1  0.21000000  0.10510000  0.74760000  1.0 0.0238011283
C  C36  1  0.16900000  0.16320000  0.79400000  1.0 -0.1809138391
C  C37  1  0.19900000  0.23910000  0.79020000  1.0 -0.0574751796
C  C38  1  0.15300000  0.29460000  0.84010000  1.0 0.5908615406
C  C39  1  0.28700000  0.25500000  0.72640000  1.0 -0.0909630839
C  C40  1  0.33300000  0.20020000  0.67600000  1.0 -0.0909630839
C  C41  1  0.82800000  0.10680000  0.66920000  1.0 0.5977073278
C  C42  1  0.78300000  0.16240000  0.71900000  1.0 -0.0690059472
C  C43  1  0.69700000  0.14800000  0.78370000  1.0 -0.1222786602
C  C44  1  0.65300000  0.20390000  0.83280000  1.0 0.0116888395
C  C45  1  0.69100000  0.27860000  0.82170000  1.0 -0.0994965244
C  C46  1  0.65200000  0.33800000  0.86800000  1.0 0.5841537978
C  C47  1  0.77600000  0.28700000  0.75600000  1.0 -0.0799474079
C  C48  1  0.82500000  0.23570000  0.70400000  1.0 -0.0574751796
C  C49  1  0.65100000  0.57400000  0.86800000  1.0 0.5908615406
C  C50  1  0.70300000  0.62510000  0.81500000  1.0 -0.1139874418
C  C51  1  0.79000000  0.60510000  0.75240000  1.0 0.0238011283
C  C52  1  0.83100000  0.66320000  0.70600000  1.0 -0.1809138391
C  C53  1  0.80100000  0.73910000  0.70980000  1.0 -0.0574751796
C  C54  1  0.84700000  0.79460000  0.65990000  1.0 0.5908615406
C  C55  1  0.71300000  0.75500000  0.77360000  1.0 -0.0909630839
C  C56  1  0.66700000  0.70020000  0.82400000  1.0 -0.0909630839
C  C57  1  0.17200000  0.60680000  0.83080000  1.0 0.5977073278
C  C58  1  0.21700000  0.66240000  0.78100000  1.0 -0.0690059472
C  C59  1  0.30300000  0.64800000  0.71630000  1.0 -0.1222786602
C  C60  1  0.34700000  0.70390000  0.66720000  1.0 0.0116888395
C  C61  1  0.30900000  0.77860000  0.67830000  1.0 -0.0994965244
C  C62  1  0.34800000  0.83800000  0.63200000  1.0 0.5841537978
C  C63  1  0.22400000  0.78700000  0.74400000  1.0 -0.0799474079
C  C64  1  0.17500000  0.73570000  0.79600000  1.0 -0.0574751796
N  N1  1  0.82600000  0.53310000  0.26590000  1.0 0.4803163077
N  N2  1  0.44500000  0.68370000  0.39000000  1.0 0.468151119
N  N3  1  0.17400000  0.03310000  0.23410000  1.0 0.4803163077
N  N4  1  0.55500000  0.18370000  0.11000000  1.0 0.468151119
N  N5  1  0.17400000  0.03310000  0.76590000  1.0 0.4803163077
N  N6  1  0.55500000  0.18370000  0.89000000  1.0 0.468151119
N  N7  1  0.82600000  0.53310000  0.73410000  1.0 0.4803163077
N  N8  1  0.44500000  0.68370000  0.61000000  1.0 0.468151119
O  O1  1  0.02600000  0.44900000  0.07180000  1.0 -1.1006219719
O  O2  1  0.50300000  0.54840000  0.13120000  1.0 -0.5980872248
O  O3  1  0.73600000  0.55700000  0.07400000  1.0 -0.6443295215
O  O4  1  0.82500000  0.86420000  0.32200000  1.0 -0.6295360062
O  O5  1  0.92300000  0.77500000  0.40090000  1.0 -0.7196872566
O  O6  1  0.86600000  0.52600000  0.32930000  1.0 -0.2229812825
O  O7  1  0.81200000  0.48940000  0.21620000  1.0 -0.2685863559
O  O8  1  0.20900000  0.53710000  0.18200000  1.0 -0.6520268057
O  O9  1  0.09900000  0.62100000  0.10730000  1.0 -0.6795330777
O  O10  1  0.24600000  0.85300000  0.42100000  1.0 -0.6749451492
O  O11  1  0.46400000  0.88480000  0.35150000  1.0 -0.6295360062
O  O12  1  0.49900000  0.72990000  0.42900000  1.0 -0.2354931568
O  O13  1  0.47600000  0.62160000  0.40500000  1.0 -0.1502866779
O  O14  1  0.97400000  0.94900000  0.42820000  1.0 -1.1006219719
O  O15  1  0.49700000  0.04840000  0.36880000  1.0 -0.5980872248
O  O16  1  0.26400000  0.05700000  0.42600000  1.0 -0.6443295215
O  O17  1  0.17500000  0.36420000  0.17800000  1.0 -0.6295360062
O  O18  1  0.07700000  0.27500000  0.09910000  1.0 -0.7196872566
O  O19  1  0.13400000  0.02600000  0.17070000  1.0 -0.2250214104
O  O20  1  0.18800000  0.98940000  0.28380000  1.0 -0.2685863559
O  O21  1  0.79100000  0.03710000  0.31800000  1.0 -0.6520268057
O  O22  1  0.90100000  0.12100000  0.39270000  1.0 -0.6795330777
O  O23  1  0.75400000  0.35300000  0.07900000  1.0 -0.6795330777
O  O24  1  0.53600000  0.38480000  0.14850000  1.0 -0.6295360062
O  O25  1  0.50100000  0.22990000  0.07100000  1.0 -0.2354931568
O  O26  1  0.52400000  0.12160000  0.09500000  1.0 -0.1502866779
O  O27  1  0.97400000  0.94900000  0.57180000  1.0 -1.1006219719
O  O28  1  0.49700000  0.04840000  0.63120000  1.0 -0.5980872248
O  O29  1  0.26400000  0.05700000  0.57400000  1.0 -0.6443295215
O  O30  1  0.17500000  0.36420000  0.82200000  1.0 -0.6295360062
O  O31  1  0.07700000  0.27500000  0.90090000  1.0 -0.7196872566
O  O32  1  0.13400000  0.02600000  0.82930000  1.0 -0.2229812825
O  O33  1  0.18800000  0.98940000  0.71620000  1.0 -0.2685863559
O  O34  1  0.79100000  0.03710000  0.68200000  1.0 -0.6520268057
O  O35  1  0.90100000  0.12100000  0.60730000  1.0 -0.6795330777
O  O36  1  0.75400000  0.35300000  0.92100000  1.0 -0.6795330777
O  O37  1  0.53600000  0.38480000  0.85150000  1.0 -0.6295360062
O  O38  1  0.50100000  0.22990000  0.92900000  1.0 -0.2354931568
O  O39  1  0.52400000  0.12160000  0.90500000  1.0 -0.1502866779
O  O40  1  0.02600000  0.44900000  0.92820000  1.0 -1.1006219719
O  O41  1  0.50300000  0.54840000  0.86880000  1.0 -0.5980872248
O  O42  1  0.73600000  0.55700000  0.92600000  1.0 -0.6443295215
O  O43  1  0.82500000  0.86420000  0.67800000  1.0 -0.6295360062
O  O44  1  0.92300000  0.77500000  0.59910000  1.0 -0.7196872566
O  O45  1  0.86600000  0.52600000  0.67070000  1.0 -0.2229812825
O  O46  1  0.81200000  0.48940000  0.78380000  1.0 -0.2685863559
O  O47  1  0.20900000  0.53710000  0.81800000  1.0 -0.6520268057
O  O48  1  0.09900000  0.62100000  0.89270000  1.0 -0.6795330777
O  O49  1  0.24600000  0.85300000  0.57900000  1.0 -0.6749451492
O  O50  1  0.46400000  0.88480000  0.64850000  1.0 -0.6295360062
O  O51  1  0.49900000  0.72990000  0.57100000  1.0 -0.2354931568
O  O52  1  0.47600000  0.62160000  0.59500000  1.0 -0.1502866779
O  O53  1  0.53600000  0.44800000  0.00000000  1.0 -0.5703673993
O  O54  1  0.24700000  0.53400000  0.00000000  1.0 -0.8940198456
O  O55  1  0.27700000  0.37000000  0.00000000  1.0 -0.9615355466
O  O56  1  0.46400000  0.94800000  0.50000000  1.0 -0.5703673993
O  O57  1  0.75300000  0.03400000  0.50000000  1.0 -0.8940198456
O  O58  1  0.72300000  0.87000000  0.50000000  1.0 -0.9615355466
