# DDEC6 charges by PACMAN v1.1 (https://github.com/mtap-research/PACMAN-charge/)
data_FEWQIJ_FSR_pacman
_symmetry_space_group_name_H-M   'P 1'
_cell_length_a   15.98700000
_cell_length_b   15.98700000
_cell_length_c   15.98700000
_cell_angle_alpha   117.90400000
_cell_angle_beta   117.90400000
_cell_angle_gamma   117.90400000
_symmetry_Int_Tables_number   1
_chemical_formula_structural   Dy2CuH4C10N4O9
_chemical_formula_sum   'Dy6 Cu3 H12 C30 N12 O27'
_cell_volume   1517.65147947
_cell_formula_units_Z   3
loop_
 _symmetry_equiv_pos_site_id
 _symmetry_equiv_pos_as_xyz
  1  'x, y, z'
loop_
 _atom_site_type_symbol
 _atom_site_label
 _atom_site_symmetry_multiplicity
 _atom_site_fract_x
 _atom_site_fract_y
 _atom_site_fract_z
 _atom_site_occupancy
 _atom_site_charge
Dy  Dy1  1  0.72363000  0.78812000  0.63531000  1.0 2.0335474251
Dy  Dy2  1  0.78812000  0.63531000  0.72363000  1.0 2.0335474251
Dy  Dy3  1  0.63531000  0.72363000  0.78812000  1.0 2.0335474251
Dy  Dy4  1  0.27637000  0.21188000  0.36469000  1.0 2.0335474251
Dy  Dy5  1  0.21188000  0.36469000  0.27637000  1.0 2.0335474251
Dy  Dy6  1  0.36469000  0.27637000  0.21188000  1.0 2.0335474251
Cu  Cu1  1  0.00000000  0.00000000  0.50000000  1.0 0.6460659741
Cu  Cu2  1  0.00000000  0.50000000  0.00000000  1.0 0.6460659741
Cu  Cu3  1  0.50000000  0.00000000  0.00000000  1.0 0.6460659741
H  H1  1  0.43451000  0.34579000  0.92280000  1.0 0.131965343
H  H2  1  0.34579000  0.92280000  0.43451000  1.0 0.131965343
H  H3  1  0.92280000  0.43451000  0.34579000  1.0 0.131965343
H  H4  1  0.56549000  0.65421000  0.07720000  1.0 0.131965343
H  H5  1  0.65421000  0.07720000  0.56549000  1.0 0.131965343
H  H6  1  0.07720000  0.56549000  0.65421000  1.0 0.131965343
H  H7  1  0.58081000  0.45759000  0.17290000  1.0 0.131965343
H  H8  1  0.45759000  0.17290000  0.58081000  1.0 0.131965343
H  H9  1  0.17290000  0.58081000  0.45759000  1.0 0.131965343
H  H10  1  0.41919000  0.54241000  0.82710000  1.0 0.131965343
H  H11  1  0.54241000  0.82710000  0.41919000  1.0 0.131965343
H  H12  1  0.82710000  0.41919000  0.54241000  1.0 0.131965343
C  C1  1  0.05401000  0.04199000  0.71520000  1.0 -0.0752978287
C  C2  1  0.04199000  0.71520000  0.05401000  1.0 -0.0745768509
C  C3  1  0.71520000  0.05401000  0.04199000  1.0 -0.0745768509
C  C4  1  0.94599000  0.95801000  0.28480000  1.0 -0.0752978287
C  C5  1  0.95801000  0.28480000  0.94599000  1.0 -0.0752978287
C  C6  1  0.28480000  0.94599000  0.95801000  1.0 -0.0752978287
C  C7  1  0.35821000  0.28349000  0.90630000  1.0 -0.0239725388
C  C8  1  0.28349000  0.90630000  0.35821000  1.0 -0.0239725388
C  C9  1  0.90630000  0.35821000  0.28349000  1.0 -0.0239725388
C  C10  1  0.64179000  0.71651000  0.09370000  1.0 -0.0239725388
C  C11  1  0.71651000  0.09370000  0.64179000  1.0 -0.0239725388
C  C12  1  0.09370000  0.64179000  0.71651000  1.0 -0.0239725388
C  C13  1  0.83851000  0.87049000  0.51870000  1.0 0.5688661375
C  C14  1  0.87049000  0.51870000  0.83851000  1.0 0.5688661375
C  C15  1  0.51870000  0.83851000  0.87049000  1.0 0.5688661375
C  C16  1  0.16149000  0.12951000  0.48130000  1.0 0.5688661375
C  C17  1  0.12951000  0.48130000  0.16149000  1.0 0.5688661375
C  C18  1  0.48130000  0.16149000  0.12951000  1.0 0.5688661375
C  C19  1  0.44471000  0.35039000  0.05590000  1.0 0.1063838751
C  C20  1  0.35039000  0.05590000  0.44471000  1.0 0.1063838751
C  C21  1  0.05590000  0.44471000  0.35039000  1.0 0.1063838751
C  C22  1  0.55529000  0.64961000  0.94410000  1.0 0.1063838751
C  C23  1  0.64961000  0.94410000  0.55529000  1.0 0.1063838751
C  C24  1  0.94410000  0.55529000  0.64961000  1.0 0.1063838751
C  C25  1  0.14321000  0.11449000  0.87000000  1.0 0.4668495097
C  C26  1  0.11449000  0.87000000  0.14321000  1.0 0.4668495097
C  C27  1  0.87000000  0.14321000  0.11449000  1.0 0.4668495097
C  C28  1  0.85679000  0.88551000  0.13000000  1.0 0.4668495097
C  C29  1  0.88551000  0.13000000  0.85679000  1.0 0.4668495097
C  C30  1  0.13000000  0.85679000  0.88551000  1.0 0.4668495097
N  N1  1  0.16441000  0.12809000  0.73800000  1.0 -0.2085554536
N  N2  1  0.12809000  0.73800000  0.16441000  1.0 -0.2085554536
N  N3  1  0.73800000  0.16441000  0.12809000  1.0 -0.2085554536
N  N4  1  0.83559000  0.87191000  0.26200000  1.0 -0.2085554536
N  N5  1  0.87191000  0.26200000  0.83559000  1.0 -0.2085554536
N  N6  1  0.26200000  0.83559000  0.87191000  1.0 -0.2085554536
N  N7  1  0.34311000  0.26989000  0.04120000  1.0 -0.3779496214
N  N8  1  0.26989000  0.04120000  0.34311000  1.0 -0.3779496214
N  N9  1  0.04120000  0.34311000  0.26989000  1.0 -0.3779496214
N  N10  1  0.65689000  0.73011000  0.95880000  1.0 -0.3779496214
N  N11  1  0.73011000  0.95880000  0.65689000  1.0 -0.3779496214
N  N12  1  0.95880000  0.65689000  0.73011000  1.0 -0.3779496214
O  O1  1  0.50000000  0.50000000  0.50000000  1.0 -0.6547245941
O  O2  1  0.05751000  0.04949000  0.87070000  1.0 -0.6266277096
O  O3  1  0.04949000  0.87070000  0.05751000  1.0 -0.6266277096
O  O4  1  0.87070000  0.05751000  0.04949000  1.0 -0.6266277096
O  O5  1  0.94249000  0.95051000  0.12930000  1.0 -0.6266277096
O  O6  1  0.95051000  0.12930000  0.94249000  1.0 -0.6266277096
O  O7  1  0.12930000  0.94249000  0.95051000  1.0 -0.6266277096
O  O8  1  0.71951000  0.77159000  0.47620000  1.0 -0.5316172998
O  O9  1  0.77159000  0.47620000  0.71951000  1.0 -0.5316172998
O  O10  1  0.47620000  0.71951000  0.77159000  1.0 -0.5316172998
O  O11  1  0.28049000  0.22841000  0.52380000  1.0 -0.5316172998
O  O12  1  0.22841000  0.52380000  0.28049000  1.0 -0.5316172998
O  O13  1  0.52380000  0.28049000  0.22841000  1.0 -0.5316172998
O  O14  1  0.78371000  0.82579000  0.39650000  1.0 -0.5202694994
O  O15  1  0.82579000  0.39650000  0.78371000  1.0 -0.5202694994
O  O16  1  0.39650000  0.78371000  0.82579000  1.0 -0.5202694994
O  O17  1  0.21629000  0.17421000  0.60350000  1.0 -0.5202694994
O  O18  1  0.17421000  0.60350000  0.21629000  1.0 -0.5202694994
O  O19  1  0.60350000  0.21629000  0.17421000  1.0 -0.5202694994
O  O20  1  0.82067000  0.82067000  0.82067000  1.0 -0.9632766804
O  O21  1  0.17933000  0.17933000  0.17933000  1.0 -0.9632766804
O  O22  1  0.70521000  0.60579000  0.52940000  1.0 -0.9664469204
O  O23  1  0.60579000  0.52940000  0.70521000  1.0 -0.9664469204
O  O24  1  0.52940000  0.70521000  0.60579000  1.0 -0.9664469204
O  O25  1  0.29479000  0.39421000  0.47060000  1.0 -0.9664469204
O  O26  1  0.39421000  0.47060000  0.29479000  1.0 -0.9778534136
O  O27  1  0.47060000  0.29479000  0.39421000  1.0 -0.9664469204
