# DDEC6 charges by PACMAN v1.1 (https://github.com/mtap-research/PACMAN-charge/)
data_FEWTUY_FSR_pacman
_symmetry_space_group_name_H-M   'P 1'
_cell_length_a   19.86870000
_cell_length_b   19.86870000
_cell_length_c   12.85380000
_cell_angle_alpha   72.49930000
_cell_angle_beta   107.50100000
_cell_angle_gamma   102.23500000
_symmetry_Int_Tables_number   1
_chemical_formula_structural   Ni9H120C172(N9O25)2
_chemical_formula_sum   'Ni9 H120 C172 N18 O50'
_cell_volume   4574.00251455
_cell_formula_units_Z   1
loop_
 _symmetry_equiv_pos_site_id
 _symmetry_equiv_pos_as_xyz
  1  'x, y, z'
loop_
 _atom_site_type_symbol
 _atom_site_label
 _atom_site_symmetry_multiplicity
 _atom_site_fract_x
 _atom_site_fract_y
 _atom_site_fract_z
 _atom_site_occupancy
 _atom_site_charge
Ni  Ni1  1  0.00000000  0.00000000  0.00000000  1.0 0.2908361756
Ni  Ni2  1  0.72157000  0.27843000  0.07052000  1.0 0.6496682666
Ni  Ni3  1  0.27843000  0.72157000  0.92948000  1.0 0.6496682666
Ni  Ni4  1  0.71312000  0.28688000  0.33777000  1.0 0.745598396
Ni  Ni5  1  0.28688000  0.71312000  0.66223000  1.0 0.745598396
Ni  Ni6  1  0.69124000  0.81678000  0.43910000  1.0 0.6267065161
Ni  Ni7  1  0.81678000  0.69124000  0.56090000  1.0 0.6267065161
Ni  Ni8  1  0.30876000  0.18322000  0.56090000  1.0 0.6267065161
Ni  Ni9  1  0.18322000  0.30876000  0.43910000  1.0 0.6267065161
H  H1  1  0.68320000  0.06160000  0.46170000  1.0 0.1367607944
H  H2  1  0.06160000  0.68320000  0.53830000  1.0 0.1367607944
H  H3  1  0.31680000  0.93840000  0.53830000  1.0 0.1367607944
H  H4  1  0.93840000  0.31680000  0.46170000  1.0 0.1367607944
H  H5  1  0.67650000  0.94050000  0.51970000  1.0 0.1010085248
H  H6  1  0.94050000  0.67650000  0.48030000  1.0 0.1010085248
H  H7  1  0.32350000  0.05950000  0.48030000  1.0 0.1010085248
H  H8  1  0.05950000  0.32350000  0.51970000  1.0 0.1010085248
H  H9  1  0.67440000  0.93220000  0.22050000  1.0 0.1010085248
H  H10  1  0.93220000  0.67440000  0.77950000  1.0 0.1010085248
H  H11  1  0.32560000  0.06780000  0.77950000  1.0 0.1010085248
H  H12  1  0.06780000  0.32560000  0.22050000  1.0 0.1010085248
H  H13  1  0.68290000  0.05410000  0.15800000  1.0 0.1265746656
H  H14  1  0.05410000  0.68290000  0.84200000  1.0 0.1265746656
H  H15  1  0.31710000  0.94590000  0.84200000  1.0 0.1265746656
H  H16  1  0.94590000  0.31710000  0.15800000  1.0 0.1265746656
H  H17  1  0.88500000  0.11500000  0.08510000  1.0 0.108897885
H  H18  1  0.11500000  0.88500000  0.91490000  1.0 0.108897885
H  H19  1  0.82400000  0.17600000  0.14570000  1.0 0.1010085248
H  H20  1  0.17600000  0.82400000  0.85430000  1.0 0.1010085248
H  H21  1  0.73200000  0.26800000  0.83890000  1.0 0.0897641998
H  H22  1  0.26800000  0.73200000  0.16110000  1.0 0.0897641998
H  H23  1  0.79170000  0.20830000  0.77170000  1.0 0.1367607944
H  H24  1  0.20830000  0.79170000  0.22830000  1.0 0.1367607944
H  H25  1  0.84120000  0.95420000  0.26260000  1.0 0.1165369914
H  H26  1  0.95420000  0.84120000  0.73740000  1.0 0.1165369914
H  H27  1  0.15880000  0.04580000  0.73740000  1.0 0.1165369914
H  H28  1  0.04580000  0.15880000  0.26260000  1.0 0.1165369914
H  H29  1  0.91630000  0.01650000  0.15000000  1.0 0.0897641998
H  H30  1  0.01650000  0.91630000  0.85000000  1.0 0.0897641998
H  H31  1  0.08370000  0.98350000  0.85000000  1.0 0.0897641998
H  H32  1  0.98350000  0.08370000  0.15000000  1.0 0.0897641998
H  H33  1  0.96020000  0.84360000  0.12130000  1.0 0.0897641998
H  H34  1  0.84360000  0.96020000  0.87870000  1.0 0.0897641998
H  H35  1  0.03980000  0.15640000  0.87870000  1.0 0.0897641998
H  H36  1  0.15640000  0.03980000  0.12130000  1.0 0.0897641998
H  H37  1  0.90080000  0.77560000  0.25670000  1.0 0.108897885
H  H38  1  0.77560000  0.90080000  0.74330000  1.0 0.108897885
H  H39  1  0.09920000  0.22440000  0.74330000  1.0 0.108897885
H  H40  1  0.22440000  0.09920000  0.25670000  1.0 0.108897885
H  H41  1  0.78270000  0.90530000  0.14790000  1.0 0.1165369914
H  H42  1  0.90530000  0.78270000  0.85210000  1.0 0.1165369914
H  H43  1  0.21730000  0.09470000  0.85210000  1.0 0.1165369914
H  H44  1  0.09470000  0.21730000  0.14790000  1.0 0.1165369914
H  H45  1  0.84800000  0.96180000  0.02160000  1.0 0.1010085248
H  H46  1  0.96180000  0.84800000  0.97840000  1.0 0.1010085248
H  H47  1  0.15200000  0.03820000  0.97840000  1.0 0.1010085248
H  H48  1  0.03820000  0.15200000  0.02160000  1.0 0.1010085248
H  H49  1  0.01980000  0.89700000  0.23410000  1.0 0.108897885
H  H50  1  0.89700000  0.01980000  0.76590000  1.0 0.108897885
H  H51  1  0.98020000  0.10300000  0.76590000  1.0 0.108897885
H  H52  1  0.10300000  0.98020000  0.23410000  1.0 0.108897885
H  H53  1  0.95650000  0.82690000  0.36000000  1.0 0.1165369914
H  H54  1  0.82690000  0.95650000  0.64000000  1.0 0.1165369914
H  H55  1  0.04350000  0.17310000  0.64000000  1.0 0.1165369914
H  H56  1  0.17310000  0.04350000  0.36000000  1.0 0.1165369914
H  H57  1  0.43660000  0.78400000  0.20850000  1.0 0.1010085248
H  H58  1  0.78400000  0.43660000  0.79150000  1.0 0.1010085248
H  H59  1  0.56340000  0.21600000  0.79150000  1.0 0.1010085248
H  H60  1  0.21600000  0.56340000  0.20850000  1.0 0.1010085248
H  H61  1  0.53410000  0.82490000  0.33610000  1.0 0.0608530337
H  H62  1  0.82490000  0.53410000  0.66390000  1.0 0.0608530337
H  H63  1  0.46590000  0.17510000  0.66390000  1.0 0.0608530337
H  H64  1  0.17510000  0.46590000  0.33610000  1.0 0.0608530337
H  H65  1  0.66370000  0.76290000  0.22190000  1.0 0.108897885
H  H66  1  0.76290000  0.66370000  0.77810000  1.0 0.108897885
H  H67  1  0.33630000  0.23710000  0.77810000  1.0 0.108897885
H  H68  1  0.23710000  0.33630000  0.22190000  1.0 0.108897885
H  H69  1  0.57240000  0.72740000  0.08330000  1.0 0.1265746656
H  H70  1  0.72740000  0.57240000  0.91670000  1.0 0.1265746656
H  H71  1  0.42760000  0.27260000  0.91670000  1.0 0.1265746656
H  H72  1  0.27260000  0.42760000  0.08330000  1.0 0.1265746656
H  H73  1  0.50690000  0.63890000  0.19490000  1.0 0.1367607944
H  H74  1  0.63890000  0.50690000  0.80510000  1.0 0.1367607944
H  H75  1  0.49310000  0.36110000  0.80510000  1.0 0.1367607944
H  H76  1  0.36110000  0.49310000  0.19490000  1.0 0.1367607944
H  H77  1  0.39970000  0.63390000  0.06690000  1.0 0.0897641998
H  H78  1  0.63390000  0.39970000  0.93310000  1.0 0.0897641998
H  H79  1  0.60030000  0.36610000  0.93310000  1.0 0.0897641998
H  H80  1  0.36610000  0.60030000  0.06690000  1.0 0.0897641998
H  H81  1  0.39320000  0.83320000  0.04320000  1.0 0.1165369914
H  H82  1  0.83320000  0.39320000  0.95680000  1.0 0.1165369914
H  H83  1  0.60680000  0.16680000  0.95680000  1.0 0.1165369914
H  H84  1  0.16680000  0.60680000  0.04320000  1.0 0.1165369914
H  H85  1  0.50120000  0.84080000  0.17310000  1.0 0.1010085248
H  H86  1  0.84080000  0.50120000  0.82690000  1.0 0.1010085248
H  H87  1  0.49880000  0.15920000  0.82690000  1.0 0.1010085248
H  H88  1  0.15920000  0.49880000  0.17310000  1.0 0.1010085248
H  H89  1  0.41670000  0.27870000  0.21820000  1.0 0.1165369914
H  H90  1  0.27870000  0.41670000  0.78180000  1.0 0.1165369914
H  H91  1  0.58330000  0.72130000  0.78180000  1.0 0.1165369914
H  H92  1  0.72130000  0.58330000  0.21820000  1.0 0.1165369914
H  H93  1  0.32720000  0.24420000  0.30980000  1.0 0.108897885
H  H94  1  0.24420000  0.32720000  0.69020000  1.0 0.108897885
H  H95  1  0.67280000  0.75580000  0.69020000  1.0 0.108897885
H  H96  1  0.75580000  0.67280000  0.30980000  1.0 0.108897885
H  H97  1  0.53740000  0.83500000  0.40910000  1.0 0.0608530337
H  H98  1  0.83500000  0.53740000  0.59090000  1.0 0.0608530337
H  H99  1  0.46260000  0.16500000  0.59090000  1.0 0.0608530337
H  H100  1  0.16500000  0.46260000  0.40910000  1.0 0.0608530337
H  H101  1  0.55440000  0.20280000  0.50690000  1.0 0.0838585176
H  H102  1  0.20280000  0.55440000  0.49310000  1.0 0.0838585176
H  H103  1  0.44560000  0.79720000  0.49310000  1.0 0.0838585176
H  H104  1  0.79720000  0.44560000  0.50690000  1.0 0.0838585176
H  H105  1  0.47410000  0.36110000  0.28170000  1.0 0.1265746656
H  H106  1  0.36110000  0.47410000  0.71830000  1.0 0.1265746656
H  H107  1  0.52590000  0.63890000  0.71830000  1.0 0.1265746656
H  H108  1  0.63890000  0.52590000  0.28170000  1.0 0.1265746656
H  H109  1  0.58470000  0.36850000  0.26030000  1.0 0.0685839457
H  H110  1  0.36850000  0.58470000  0.73970000  1.0 0.0685839457
H  H111  1  0.41530000  0.63150000  0.73970000  1.0 0.0685839457
H  H112  1  0.63150000  0.41530000  0.26030000  1.0 0.0685839457
H  H113  1  0.60250000  0.17690000  0.44210000  1.0 0.1010085248
H  H114  1  0.17690000  0.60250000  0.55790000  1.0 0.1010085248
H  H115  1  0.39750000  0.82310000  0.55790000  1.0 0.1010085248
H  H116  1  0.82310000  0.39750000  0.44210000  1.0 0.1010085248
H  H117  1  0.49090000  0.15790000  0.46400000  1.0 0.108897885
H  H118  1  0.15790000  0.49090000  0.53600000  1.0 0.108897885
H  H119  1  0.50910000  0.84210000  0.53600000  1.0 0.108897885
H  H120  1  0.84210000  0.50910000  0.46400000  1.0 0.108897885
C  C1  1  0.69570000  0.15270000  0.26720000  1.0 0.5438758634
C  C2  1  0.15270000  0.69570000  0.73280000  1.0 0.5438758634
C  C3  1  0.30430000  0.84730000  0.73280000  1.0 0.5438758634
C  C4  1  0.84730000  0.30430000  0.26720000  1.0 0.5438758634
C  C5  1  0.68620000  0.07180000  0.30420000  1.0 0.0320082223
C  C6  1  0.07180000  0.68620000  0.69580000  1.0 0.0320082223
C  C7  1  0.31380000  0.92820000  0.69580000  1.0 0.0320082223
C  C8  1  0.92820000  0.31380000  0.30420000  1.0 0.0320082223
C  C9  1  0.68270000  0.03630000  0.41120000  1.0 -0.1699838905
C  C10  1  0.03630000  0.68270000  0.58880000  1.0 -0.1699838905
C  C11  1  0.31730000  0.96370000  0.58880000  1.0 -0.1699838905
C  C12  1  0.96370000  0.31730000  0.41120000  1.0 -0.1699838905
C  C13  1  0.67840000  0.96320000  0.44570000  1.0 0.0685839457
C  C14  1  0.96320000  0.67840000  0.55430000  1.0 0.0685839457
C  C15  1  0.32160000  0.03680000  0.55430000  1.0 0.0685839457
C  C16  1  0.03680000  0.32160000  0.44570000  1.0 0.0685839457
C  C17  1  0.67740000  0.95840000  0.27110000  1.0 0.0685839457
C  C18  1  0.95840000  0.67740000  0.72890000  1.0 0.0685839457
C  C19  1  0.32260000  0.04160000  0.72890000  1.0 0.0685839457
C  C20  1  0.04160000  0.32260000  0.27110000  1.0 0.0685839457
C  C21  1  0.68230000  0.03190000  0.23260000  1.0 -0.1699838905
C  C22  1  0.03190000  0.68230000  0.76740000  1.0 -0.1699838905
C  C23  1  0.31770000  0.96810000  0.76740000  1.0 -0.1699838905
C  C24  1  0.96810000  0.31770000  0.23260000  1.0 -0.1699838905
C  C25  1  0.88470000  0.11530000  0.87800000  1.0 0.5170592073
C  C26  1  0.11530000  0.88470000  0.12200000  1.0 0.5170592073
C  C27  1  0.84600000  0.15400000  0.92180000  1.0 0.0164213333
C  C28  1  0.15400000  0.84600000  0.07820000  1.0 0.0164213333
C  C29  1  0.85430000  0.14570000  0.03240000  1.0 -0.1926596299
C  C30  1  0.14570000  0.85430000  0.96760000  1.0 -0.1926596299
C  C31  1  0.81720000  0.18280000  0.06870000  1.0 0.0608530337
C  C32  1  0.18280000  0.81720000  0.93130000  1.0 0.0608530337
C  C33  1  0.76300000  0.23700000  0.89030000  1.0 0.0897641998
C  C34  1  0.23700000  0.76300000  0.10970000  1.0 0.0897641998
C  C35  1  0.79930000  0.20070000  0.84920000  1.0 -0.1699838905
C  C36  1  0.20070000  0.79930000  0.15080000  1.0 -0.1699838905
C  C37  1  0.81900000  0.81680000  0.35590000  1.0 0.5170592073
C  C38  1  0.81680000  0.81900000  0.64410000  1.0 0.5170592073
C  C39  1  0.18100000  0.18320000  0.64410000  1.0 0.5170592073
C  C40  1  0.18320000  0.18100000  0.35590000  1.0 0.5170592073
C  C41  1  0.86160000  0.85980000  0.27130000  1.0 0.0085223575
C  C42  1  0.85980000  0.86160000  0.72870000  1.0 0.0085223575
C  C43  1  0.13840000  0.14020000  0.72870000  1.0 0.0085223575
C  C44  1  0.14020000  0.13840000  0.27130000  1.0 0.0085223575
C  C45  1  0.86630000  0.92990000  0.23800000  1.0 -0.079709202
C  C46  1  0.92990000  0.86630000  0.76200000  1.0 -0.079709202
C  C47  1  0.13370000  0.07010000  0.76200000  1.0 -0.0897551089
C  C48  1  0.07010000  0.13370000  0.23800000  1.0 -0.0897551089
C  C49  1  0.90960000  0.96700000  0.16600000  1.0 -0.009184312
C  C50  1  0.96700000  0.90960000  0.83400000  1.0 -0.009184312
C  C51  1  0.09040000  0.03300000  0.83400000  1.0 -0.009184312
C  C52  1  0.03300000  0.09040000  0.16600000  1.0 -0.009184312
C  C53  1  0.93740000  0.86640000  0.15200000  1.0 0.0007967983
C  C54  1  0.86640000  0.93740000  0.84800000  1.0 0.0007967983
C  C55  1  0.06260000  0.13360000  0.84800000  1.0 0.0007967983
C  C56  1  0.13360000  0.06260000  0.15200000  1.0 0.0007967983
C  C57  1  0.90030000  0.82450000  0.23100000  1.0 -0.0897551089
C  C58  1  0.82450000  0.90030000  0.76900000  1.0 -0.0897551089
C  C59  1  0.09970000  0.17550000  0.76900000  1.0 -0.0897551089
C  C60  1  0.17550000  0.09970000  0.23100000  1.0 -0.0897551089
C  C61  1  0.83110000  0.90150000  0.16740000  1.0 -0.0897551089
C  C62  1  0.90150000  0.83110000  0.83260000  1.0 -0.0897551089
C  C63  1  0.16890000  0.09850000  0.83260000  1.0 -0.0897551089
C  C64  1  0.09850000  0.16890000  0.16740000  1.0 -0.0897551089
C  C65  1  0.87090000  0.93710000  0.09300000  1.0 -0.0297703635
C  C66  1  0.93710000  0.87090000  0.90700000  1.0 -0.0297703635
C  C67  1  0.12910000  0.06290000  0.90700000  1.0 -0.0297703635
C  C68  1  0.06290000  0.12910000  0.09300000  1.0 -0.0297703635
C  C69  1  0.97110000  0.89790000  0.21550000  1.0 0.0164213333
C  C70  1  0.89790000  0.97110000  0.78450000  1.0 0.0164213333
C  C71  1  0.02890000  0.10210000  0.78450000  1.0 0.0164213333
C  C72  1  0.10210000  0.02890000  0.21550000  1.0 0.0164213333
C  C73  1  0.93340000  0.85660000  0.29340000  1.0 -0.079709202
C  C74  1  0.85660000  0.93340000  0.70660000  1.0 -0.079709202
C  C75  1  0.06660000  0.14340000  0.70660000  1.0 -0.079709202
C  C76  1  0.14340000  0.06660000  0.29340000  1.0 -0.079709202
C  C77  1  0.43190000  0.74050000  0.02890000  1.0 0.243783211
C  C78  1  0.74050000  0.43190000  0.97110000  1.0 0.243783211
C  C79  1  0.56810000  0.25950000  0.97110000  1.0 0.243783211
C  C80  1  0.25950000  0.56810000  0.02890000  1.0 0.243783211
C  C81  1  0.49290000  0.76210000  0.11950000  1.0 0.0608530337
C  C82  1  0.76210000  0.49290000  0.88050000  1.0 0.0608530337
C  C83  1  0.50710000  0.23790000  0.88050000  1.0 0.0608530337
C  C84  1  0.23790000  0.50710000  0.11950000  1.0 0.0608530337
C  C85  1  0.48230000  0.78310000  0.20500000  1.0 -0.0897551089
C  C86  1  0.78310000  0.48230000  0.79500000  1.0 -0.0897551089
C  C87  1  0.51770000  0.21690000  0.79500000  1.0 -0.0897551089
C  C88  1  0.21690000  0.51770000  0.20500000  1.0 -0.0897551089
C  C89  1  0.54280000  0.80340000  0.28700000  1.0 -0.0492286556
C  C90  1  0.80340000  0.54280000  0.71300000  1.0 -0.0492286556
C  C91  1  0.45720000  0.19660000  0.71300000  1.0 -0.0492286556
C  C92  1  0.19660000  0.45720000  0.28700000  1.0 -0.0492286556
C  C93  1  0.61790000  0.76830000  0.21900000  1.0 -0.009184312
C  C94  1  0.76830000  0.61790000  0.78100000  1.0 -0.009184312
C  C95  1  0.38210000  0.23170000  0.78100000  1.0 -0.009184312
C  C96  1  0.23170000  0.38210000  0.21900000  1.0 -0.009184312
C  C97  1  0.56330000  0.74870000  0.13200000  1.0 -0.1699838905
C  C98  1  0.74870000  0.56330000  0.86800000  1.0 -0.1699838905
C  C99  1  0.43670000  0.25130000  0.86800000  1.0 -0.1699838905
C  C100  1  0.25130000  0.43670000  0.13200000  1.0 -0.1699838905
C  C101  1  0.58780000  0.73920000  0.28610000  1.0 0.2198328335
C  C102  1  0.73920000  0.58780000  0.71390000  1.0 0.2198328335
C  C103  1  0.41220000  0.26080000  0.71390000  1.0 0.2198328335
C  C104  1  0.26080000  0.41220000  0.28610000  1.0 0.2198328335
C  C105  1  0.51470000  0.73830000  0.19500000  1.0 0.0320082223
C  C106  1  0.73830000  0.51470000  0.80500000  1.0 0.0320082223
C  C107  1  0.48530000  0.26170000  0.80500000  1.0 0.0320082223
C  C108  1  0.26170000  0.48530000  0.19500000  1.0 0.0320082223
C  C109  1  0.48390000  0.67930000  0.16400000  1.0 -0.1556901581
C  C110  1  0.67930000  0.48390000  0.83600000  1.0 -0.1556901581
C  C111  1  0.51610000  0.32070000  0.83600000  1.0 -0.1556901581
C  C112  1  0.32070000  0.51610000  0.16400000  1.0 -0.1556901581
C  C113  1  0.41900000  0.67600000  0.08900000  1.0 -0.0720641181
C  C114  1  0.67600000  0.41900000  0.91100000  1.0 -0.0648604281
C  C115  1  0.58100000  0.32400000  0.91100000  1.0 -0.0648604281
C  C116  1  0.32400000  0.58100000  0.08900000  1.0 -0.0720641181
C  C117  1  0.41390000  0.79130000  0.07400000  1.0 0.0454895772
C  C118  1  0.79130000  0.41390000  0.92600000  1.0 0.0454895772
C  C119  1  0.58610000  0.20870000  0.92600000  1.0 0.0454895772
C  C120  1  0.20870000  0.58610000  0.07400000  1.0 0.0454895772
C  C121  1  0.48130000  0.79850000  0.15200000  1.0 -0.079709202
C  C122  1  0.79850000  0.48130000  0.84800000  1.0 -0.079709202
C  C123  1  0.51870000  0.20150000  0.84800000  1.0 -0.079709202
C  C124  1  0.20150000  0.51870000  0.15200000  1.0 -0.079709202
C  C125  1  0.55540000  0.26800000  0.29500000  1.0 0.2198328335
C  C126  1  0.26800000  0.55540000  0.70500000  1.0 0.2198328335
C  C127  1  0.44460000  0.73200000  0.70500000  1.0 0.2198328335
C  C128  1  0.73200000  0.44460000  0.29500000  1.0 0.2198328335
C  C129  1  0.49520000  0.24420000  0.35000000  1.0 0.0391660311
C  C130  1  0.24420000  0.49520000  0.65000000  1.0 0.0391660311
C  C131  1  0.50480000  0.75580000  0.65000000  1.0 0.0391660311
C  C132  1  0.75580000  0.50480000  0.35000000  1.0 0.0391660311
C  C133  1  0.42750000  0.25630000  0.29500000  1.0 -0.1195392064
C  C134  1  0.25630000  0.42750000  0.70500000  1.0 -0.1195392064
C  C135  1  0.57250000  0.74370000  0.70500000  1.0 -0.1195392064
C  C136  1  0.74370000  0.57250000  0.29500000  1.0 -0.1195392064
C  C137  1  0.37310000  0.23570000  0.35200000  1.0 0.0391660311
C  C138  1  0.23570000  0.37310000  0.64800000  1.0 0.0391660311
C  C139  1  0.62690000  0.76430000  0.64800000  1.0 0.0391660311
C  C140  1  0.76430000  0.62690000  0.35200000  1.0 0.0391660311
C  C141  1  0.54780000  0.80960000  0.48400000  1.0 -0.1134059228
C  C142  1  0.80960000  0.54780000  0.51600000  1.0 -0.1134059228
C  C143  1  0.45220000  0.19040000  0.51600000  1.0 -0.1134059228
C  C144  1  0.19040000  0.45220000  0.48400000  1.0 -0.1134059228
C  C145  1  0.50900000  0.21100000  0.46500000  1.0 -0.0720641181
C  C146  1  0.21100000  0.50900000  0.53500000  1.0 -0.0720641181
C  C147  1  0.49100000  0.78900000  0.53500000  1.0 -0.0720641181
C  C148  1  0.78900000  0.49100000  0.46500000  1.0 -0.0720641181
C  C149  1  0.59810000  0.74230000  0.59000000  1.0 0.2323110603
C  C150  1  0.74230000  0.59810000  0.41000000  1.0 0.2323110603
C  C151  1  0.40190000  0.25770000  0.41000000  1.0 0.2323110603
C  C152  1  0.25770000  0.40190000  0.59000000  1.0 0.2323110603
C  C153  1  0.47240000  0.26300000  0.38300000  1.0 0.0085223575
C  C154  1  0.26300000  0.47240000  0.61700000  1.0 0.0085223575
C  C155  1  0.52760000  0.73700000  0.61700000  1.0 0.0164213333
C  C156  1  0.73700000  0.52760000  0.38300000  1.0 0.0164213333
C  C157  1  0.50010000  0.32310000  0.31800000  1.0 -0.1195392064
C  C158  1  0.32310000  0.50010000  0.68200000  1.0 -0.1195392064
C  C159  1  0.49990000  0.67690000  0.68200000  1.0 -0.1195392064
C  C160  1  0.67690000  0.49990000  0.31800000  1.0 -0.1195392064
C  C161  1  0.56700000  0.32660000  0.30600000  1.0 -0.009184312
C  C162  1  0.32660000  0.56700000  0.69400000  1.0 -0.009184312
C  C163  1  0.43300000  0.67340000  0.69400000  1.0 -0.009184312
C  C164  1  0.67340000  0.43300000  0.30600000  1.0 -0.009184312
C  C165  1  0.57720000  0.21560000  0.41000000  1.0 0.0320082223
C  C166  1  0.21560000  0.57720000  0.59000000  1.0 0.0320082223
C  C167  1  0.42280000  0.78440000  0.59000000  1.0 0.0320082223
C  C168  1  0.78440000  0.42280000  0.41000000  1.0 0.0320082223
C  C169  1  0.51000000  0.20200000  0.42700000  1.0 -0.0720641181
C  C170  1  0.20200000  0.51000000  0.57300000  1.0 -0.0720641181
C  C171  1  0.49000000  0.79800000  0.57300000  1.0 -0.0720641181
C  C172  1  0.79800000  0.49000000  0.42700000  1.0 -0.0720641181
N  N1  1  0.67690000  0.92370000  0.37710000  1.0 -0.2146043427
N  N2  1  0.92370000  0.67690000  0.62290000  1.0 -0.2146043427
N  N3  1  0.32310000  0.07630000  0.62290000  1.0 -0.2146043427
N  N4  1  0.07630000  0.32310000  0.37710000  1.0 -0.2146043427
N  N5  1  0.77130000  0.22870000  0.99520000  1.0 -0.2501937397
N  N6  1  0.22870000  0.77130000  0.00480000  1.0 -0.2501937397
N  N7  1  0.94180000  0.93800000  0.11770000  1.0 -0.1259114448
N  N8  1  0.93800000  0.94180000  0.88230000  1.0 -0.1259114448
N  N9  1  0.05820000  0.06200000  0.88230000  1.0 -0.1259114448
N  N10  1  0.06200000  0.05820000  0.11770000  1.0 -0.1259114448
N  N11  1  0.61100000  0.79520000  0.30300000  1.0 -0.2307365037
N  N12  1  0.79520000  0.61100000  0.69700000  1.0 -0.2307365037
N  N13  1  0.38900000  0.20480000  0.69700000  1.0 -0.2307365037
N  N14  1  0.20480000  0.38900000  0.30300000  1.0 -0.2307365037
N  N15  1  0.61650000  0.79690000  0.53310000  1.0 -0.2501937397
N  N16  1  0.79690000  0.61650000  0.46690000  1.0 -0.2501937397
N  N17  1  0.38350000  0.20310000  0.46690000  1.0 -0.2501937397
N  N18  1  0.20310000  0.38350000  0.53310000  1.0 -0.2501937397
O  O1  1  0.69890000  0.18310000  0.33770000  1.0 -0.487972474
O  O2  1  0.18310000  0.69890000  0.66230000  1.0 -0.487972474
O  O3  1  0.30110000  0.81690000  0.66230000  1.0 -0.487972474
O  O4  1  0.81690000  0.30110000  0.33770000  1.0 -0.487972474
O  O5  1  0.69960000  0.17940000  0.16850000  1.0 -0.5325688816
O  O6  1  0.17940000  0.69960000  0.83150000  1.0 -0.5325688816
O  O7  1  0.30040000  0.82060000  0.83150000  1.0 -0.5325688816
O  O8  1  0.82060000  0.30040000  0.16850000  1.0 -0.5325688816
O  O9  1  0.92590000  0.07410000  0.95060000  1.0 -0.5779619313
O  O10  1  0.07410000  0.92590000  0.04940000  1.0 -0.5779619313
O  O11  1  0.87480000  0.12520000  0.77670000  1.0 -0.5325688816
O  O12  1  0.12520000  0.87480000  0.22330000  1.0 -0.5325688816
O  O13  1  0.76110000  0.83790000  0.33960000  1.0 -0.5042055644
O  O14  1  0.83790000  0.76110000  0.66040000  1.0 -0.5042055644
O  O15  1  0.23890000  0.16210000  0.66040000  1.0 -0.5042055644
O  O16  1  0.16210000  0.23890000  0.33960000  1.0 -0.5042055644
O  O17  1  0.84630000  0.76770000  0.42990000  1.0 -0.487972474
O  O18  1  0.76770000  0.84630000  0.57010000  1.0 -0.487972474
O  O19  1  0.15370000  0.23230000  0.57010000  1.0 -0.487972474
O  O20  1  0.23230000  0.15370000  0.42990000  1.0 -0.487972474
O  O21  1  0.74730000  0.25270000  0.51350000  1.0 -0.279078833
O  O22  1  0.25270000  0.74730000  0.48650000  1.0 -0.2749883331
O  O23  1  0.70990000  0.70990000  0.50000000  1.0 -0.1926596299
O  O24  1  0.29010000  0.29010000  0.50000000  1.0 -0.1926596299
O  O25  1  0.67590000  0.32410000  0.16030000  1.0 -0.1195392064
O  O26  1  0.32410000  0.67590000  0.83970000  1.0 -0.1195392064
O  O27  1  0.44510000  0.71350000  0.95940000  1.0 -0.3043042433
O  O28  1  0.71350000  0.44510000  0.04060000  1.0 -0.3043042433
O  O29  1  0.55490000  0.28650000  0.04060000  1.0 -0.3043042433
O  O30  1  0.28650000  0.55490000  0.95940000  1.0 -0.3043042433
O  O31  1  0.37700000  0.73920000  0.03860000  1.0 -0.1482404269
O  O32  1  0.73920000  0.37700000  0.96140000  1.0 -0.1482404269
O  O33  1  0.62300000  0.26080000  0.96140000  1.0 -0.1482404269
O  O34  1  0.26080000  0.62300000  0.03860000  1.0 -0.1482404269
O  O35  1  0.61570000  0.68570000  0.32120000  1.0 -0.279078833
O  O36  1  0.68570000  0.61570000  0.67880000  1.0 -0.279078833
O  O37  1  0.38430000  0.31430000  0.67880000  1.0 -0.279078833
O  O38  1  0.31430000  0.38430000  0.32120000  1.0 -0.279078833
O  O39  1  0.61210000  0.27230000  0.35620000  1.0 -0.1806525685
O  O40  1  0.27230000  0.61210000  0.64380000  1.0 -0.1806525685
O  O41  1  0.38790000  0.72770000  0.64380000  1.0 -0.1806525685
O  O42  1  0.72770000  0.38790000  0.35620000  1.0 -0.1806525685
O  O43  1  0.54390000  0.28810000  0.19030000  1.0 -0.3043042433
O  O44  1  0.28810000  0.54390000  0.80970000  1.0 -0.3051231302
O  O45  1  0.45610000  0.71190000  0.80970000  1.0 -0.3043042433
O  O46  1  0.71190000  0.45610000  0.19030000  1.0 -0.3043042433
O  O47  1  0.37360000  0.31220000  0.37500000  1.0 -0.2620650775
O  O48  1  0.31220000  0.37360000  0.62500000  1.0 -0.2620650775
O  O49  1  0.62640000  0.68780000  0.62500000  1.0 -0.2620650775
O  O50  1  0.68780000  0.62640000  0.37500000  1.0 -0.2620650775
