# DDEC6 charges by PACMAN v1.1 (https://github.com/mtap-research/PACMAN-charge/)
data_FEWWOV_FSR_pacman
_symmetry_space_group_name_H-M   'P 1'
_cell_length_a   19.65200000
_cell_length_b   19.65200000
_cell_length_c   19.07400000
_cell_angle_alpha   90.00000000
_cell_angle_beta   90.00000000
_cell_angle_gamma   120.00000000
_symmetry_Int_Tables_number   1
_chemical_formula_structural   CoH16C26(SN5)2
_chemical_formula_sum   'Co6 H96 C156 S12 N60'
_cell_volume   6379.48941120
_cell_formula_units_Z   6
loop_
 _symmetry_equiv_pos_site_id
 _symmetry_equiv_pos_as_xyz
  1  'x, y, z'
loop_
 _atom_site_type_symbol
 _atom_site_label
 _atom_site_symmetry_multiplicity
 _atom_site_fract_x
 _atom_site_fract_y
 _atom_site_fract_z
 _atom_site_occupancy
 _atom_site_charge
Co  Co1  1  0.00043000  0.66444000  0.39860000  1.0 0.6883737414
Co  Co2  1  0.33556000  0.33599000  0.39860000  1.0 0.6883737414
Co  Co3  1  0.66401000  0.99957000  0.39860000  1.0 0.6883737414
Co  Co4  1  0.33556000  0.99957000  0.89860000  1.0 0.6883737414
Co  Co5  1  0.66401000  0.66444000  0.89860000  1.0 0.6883737414
Co  Co6  1  0.00043000  0.33599000  0.89860000  1.0 0.6883737414
H  H1  1  0.16980000  0.79290000  0.43320000  1.0 0.1110864042
H  H2  1  0.20710000  0.37690000  0.43320000  1.0 0.1110864042
H  H3  1  0.62310000  0.83020000  0.43320000  1.0 0.1110864042
H  H4  1  0.20710000  0.83020000  0.93320000  1.0 0.1110864042
H  H5  1  0.62310000  0.79290000  0.93320000  1.0 0.1110864042
H  H6  1  0.16980000  0.37690000  0.93320000  1.0 0.1110864042
H  H7  1  0.24550000  0.92580000  0.44640000  1.0 0.132558085
H  H8  1  0.07420000  0.31970000  0.44640000  1.0 0.132558085
H  H9  1  0.68030000  0.75450000  0.44640000  1.0 0.132558085
H  H10  1  0.07420000  0.75450000  0.94640000  1.0 0.132558085
H  H11  1  0.68030000  0.92580000  0.94640000  1.0 0.132558085
H  H12  1  0.24550000  0.31970000  0.94640000  1.0 0.132558085
H  H13  1  0.18420000  0.00520000  0.44910000  1.0 0.120194044
H  H14  1  0.99480000  0.17900000  0.44910000  1.0 0.120194044
H  H15  1  0.82100000  0.81580000  0.44910000  1.0 0.120194044
H  H16  1  0.99480000  0.81580000  0.94910000  1.0 0.120194044
H  H17  1  0.82100000  0.00520000  0.94910000  1.0 0.120194044
H  H18  1  0.18420000  0.17900000  0.94910000  1.0 0.120194044
H  H19  1  0.98090000  0.81010000  0.39220000  1.0 0.1110864042
H  H20  1  0.18990000  0.17080000  0.39220000  1.0 0.1110864042
H  H21  1  0.82920000  0.01910000  0.39220000  1.0 0.1110864042
H  H22  1  0.18990000  0.01910000  0.89220000  1.0 0.1110864042
H  H23  1  0.82920000  0.81010000  0.89220000  1.0 0.1110864042
H  H24  1  0.98090000  0.17080000  0.89220000  1.0 0.1110864042
H  H25  1  0.13610000  0.49000000  0.97220000  1.0 0.120194044
H  H26  1  0.51000000  0.64610000  0.97220000  1.0 0.120194044
H  H27  1  0.35390000  0.86390000  0.97220000  1.0 0.120194044
H  H28  1  0.51000000  0.86390000  0.47220000  1.0 0.120194044
H  H29  1  0.35390000  0.49000000  0.47220000  1.0 0.120194044
H  H30  1  0.13610000  0.64610000  0.47220000  1.0 0.120194044
H  H31  1  0.17540000  0.54820000  0.07780000  1.0 0.1451890735
H  H32  1  0.45180000  0.62720000  0.07780000  1.0 0.1446954875
H  H33  1  0.37280000  0.82460000  0.07780000  1.0 0.1451890735
H  H34  1  0.45180000  0.82460000  0.57780000  1.0 0.1451890735
H  H35  1  0.37280000  0.54820000  0.57780000  1.0 0.1446954875
H  H36  1  0.17540000  0.62720000  0.57780000  1.0 0.1451890735
H  H37  1  0.09590000  0.49560000  0.17370000  1.0 0.132558085
H  H38  1  0.50440000  0.60030000  0.17370000  1.0 0.132558085
H  H39  1  0.39970000  0.90410000  0.17370000  1.0 0.132558085
H  H40  1  0.50440000  0.90410000  0.67370000  1.0 0.132558085
H  H41  1  0.39970000  0.49560000  0.67370000  1.0 0.132558085
H  H42  1  0.09590000  0.60030000  0.67370000  1.0 0.132558085
H  H43  1  0.95130000  0.31100000  0.05340000  1.0 0.1110864042
H  H44  1  0.68900000  0.64030000  0.05340000  1.0 0.1110864042
H  H45  1  0.35970000  0.04870000  0.05340000  1.0 0.1110864042
H  H46  1  0.68900000  0.04870000  0.55340000  1.0 0.1110864042
H  H47  1  0.35970000  0.31100000  0.55340000  1.0 0.1110864042
H  H48  1  0.95130000  0.64030000  0.55340000  1.0 0.1110864042
H  H49  1  0.85890000  0.52290000  0.48300000  1.0 0.1033170043
H  H50  1  0.47710000  0.33600000  0.48300000  1.0 0.1033170043
H  H51  1  0.66400000  0.14110000  0.48300000  1.0 0.1033170043
H  H52  1  0.47710000  0.14110000  0.98300000  1.0 0.1033170043
H  H53  1  0.66400000  0.52290000  0.98300000  1.0 0.1033170043
H  H54  1  0.85890000  0.33600000  0.98300000  1.0 0.1033170043
H  H55  1  0.77900000  0.38920000  0.46760000  1.0 0.132558085
H  H56  1  0.61080000  0.38980000  0.46760000  1.0 0.132558085
H  H57  1  0.61020000  0.22100000  0.46760000  1.0 0.132558085
H  H58  1  0.61080000  0.22100000  0.96760000  1.0 0.132558085
H  H59  1  0.61020000  0.38920000  0.96760000  1.0 0.132558085
H  H60  1  0.77900000  0.38980000  0.96760000  1.0 0.132558085
H  H61  1  0.79230000  0.31430000  0.38670000  1.0 0.120194044
H  H62  1  0.68570000  0.47800000  0.38670000  1.0 0.120194044
H  H63  1  0.52200000  0.20770000  0.38670000  1.0 0.120194044
H  H64  1  0.68570000  0.20770000  0.88670000  1.0 0.120194044
H  H65  1  0.52200000  0.31430000  0.88670000  1.0 0.120194044
H  H66  1  0.79230000  0.47800000  0.88670000  1.0 0.120194044
H  H67  1  0.96730000  0.51820000  0.30250000  1.0 0.120194044
H  H68  1  0.48180000  0.44910000  0.30250000  1.0 0.120194044
H  H69  1  0.55090000  0.03270000  0.30250000  1.0 0.120194044
H  H70  1  0.48180000  0.03270000  0.80250000  1.0 0.120194044
H  H71  1  0.55090000  0.51820000  0.80250000  1.0 0.120194044
H  H72  1  0.96730000  0.44910000  0.80250000  1.0 0.120194044
H  H73  1  0.76090000  0.15950000  0.32000000  1.0 0.120194044
H  H74  1  0.84050000  0.60140000  0.32000000  1.0 0.120194044
H  H75  1  0.39860000  0.23910000  0.32000000  1.0 0.120194044
H  H76  1  0.84050000  0.23910000  0.82000000  1.0 0.120194044
H  H77  1  0.39860000  0.15950000  0.82000000  1.0 0.120194044
H  H78  1  0.76090000  0.60140000  0.82000000  1.0 0.120194044
H  H79  1  0.74650000  0.00110000  0.14110000  1.0 0.132558085
H  H80  1  0.99890000  0.74540000  0.14110000  1.0 0.132558085
H  H81  1  0.25460000  0.25350000  0.14110000  1.0 0.132558085
H  H82  1  0.99890000  0.25350000  0.64110000  1.0 0.132558085
H  H83  1  0.25460000  0.00110000  0.64110000  1.0 0.132558085
H  H84  1  0.74650000  0.74540000  0.64110000  1.0 0.132558085
H  H85  1  0.84140000  0.14290000  0.12840000  1.0 0.120194044
H  H86  1  0.85710000  0.69850000  0.12840000  1.0 0.120194044
H  H87  1  0.30150000  0.15860000  0.12840000  1.0 0.120194044
H  H88  1  0.85710000  0.15860000  0.62840000  1.0 0.120194044
H  H89  1  0.30150000  0.14290000  0.62840000  1.0 0.120194044
H  H90  1  0.84140000  0.69850000  0.62840000  1.0 0.120194044
H  H91  1  0.68650000  0.94350000  0.24280000  1.0 0.1110864042
H  H92  1  0.05650000  0.74300000  0.24280000  1.0 0.1110864042
H  H93  1  0.25700000  0.31350000  0.24280000  1.0 0.1110864042
H  H94  1  0.05650000  0.31350000  0.74280000  1.0 0.1110864042
H  H95  1  0.25700000  0.94350000  0.74280000  1.0 0.1110864042
H  H96  1  0.68650000  0.74300000  0.74280000  1.0 0.1110864042
C  C1  1  0.13420000  0.65950000  0.30650000  1.0 0.2365241019
C  C2  1  0.34050000  0.47470000  0.30650000  1.0 0.2365241019
C  C3  1  0.52530000  0.86580000  0.30650000  1.0 0.2365241019
C  C4  1  0.34050000  0.86580000  0.80650000  1.0 0.2365241019
C  C5  1  0.52530000  0.65950000  0.80650000  1.0 0.2365241019
C  C6  1  0.13420000  0.47470000  0.80650000  1.0 0.2365241019
C  C7  1  0.84930000  0.66500000  0.46510000  1.0 0.2631901471
C  C8  1  0.33500000  0.18430000  0.46510000  1.0 0.2631901471
C  C9  1  0.81570000  0.15070000  0.46510000  1.0 0.2631901471
C  C10  1  0.33500000  0.15070000  0.96510000  1.0 0.2631901471
C  C11  1  0.81570000  0.66500000  0.96510000  1.0 0.2631901471
C  C12  1  0.84930000  0.18430000  0.96510000  1.0 0.2631901471
C  C13  1  0.14650000  0.82480000  0.42700000  1.0 0.0673644002
C  C14  1  0.17520000  0.32170000  0.42700000  1.0 0.0673644002
C  C15  1  0.67830000  0.85350000  0.42700000  1.0 0.0673644002
C  C16  1  0.17520000  0.85350000  0.92700000  1.0 0.0673644002
C  C17  1  0.67830000  0.82480000  0.92700000  1.0 0.0673644002
C  C18  1  0.14650000  0.32170000  0.92700000  1.0 0.0673644002
C  C19  1  0.19070000  0.90270000  0.43820000  1.0 -0.1307768858
C  C20  1  0.09730000  0.28800000  0.43820000  1.0 -0.1307768858
C  C21  1  0.71200000  0.80930000  0.43820000  1.0 -0.1307768858
C  C22  1  0.09730000  0.80930000  0.93820000  1.0 -0.1307768858
C  C23  1  0.71200000  0.90270000  0.93820000  1.0 -0.1307768858
C  C24  1  0.19070000  0.28800000  0.93820000  1.0 -0.1307768858
C  C25  1  0.15480000  0.95090000  0.43760000  1.0 -0.0533650592
C  C26  1  0.04910000  0.20390000  0.43760000  1.0 -0.0533650592
C  C27  1  0.79610000  0.84520000  0.43760000  1.0 -0.0533650592
C  C28  1  0.04910000  0.84520000  0.93760000  1.0 -0.0533650592
C  C29  1  0.79610000  0.95090000  0.93760000  1.0 -0.0533650592
C  C30  1  0.15480000  0.20390000  0.93760000  1.0 -0.0533650592
C  C31  1  0.07760000  0.91650000  0.42020000  1.0 -0.02007004
C  C32  1  0.08350000  0.16110000  0.42020000  1.0 -0.02007004
C  C33  1  0.83890000  0.92240000  0.42020000  1.0 -0.02007004
C  C34  1  0.08350000  0.92240000  0.92020000  1.0 -0.02007004
C  C35  1  0.83890000  0.91650000  0.92020000  1.0 -0.02007004
C  C36  1  0.07760000  0.16110000  0.92020000  1.0 -0.02007004
C  C37  1  0.03480000  0.83400000  0.40460000  1.0 0.0764874636
C  C38  1  0.16600000  0.20080000  0.40460000  1.0 0.0764874636
C  C39  1  0.79920000  0.96520000  0.40460000  1.0 0.0764874636
C  C40  1  0.16600000  0.96520000  0.90460000  1.0 0.0764874636
C  C41  1  0.79920000  0.83400000  0.90460000  1.0 0.0764874636
C  C42  1  0.03480000  0.20080000  0.90460000  1.0 0.0764874636
C  C43  1  0.10510000  0.46370000  0.01210000  1.0 0.041422384
C  C44  1  0.53630000  0.64140000  0.01210000  1.0 0.041422384
C  C45  1  0.35860000  0.89490000  0.01210000  1.0 0.041422384
C  C46  1  0.53630000  0.89490000  0.51210000  1.0 0.041422384
C  C47  1  0.35860000  0.46370000  0.51210000  1.0 0.041422384
C  C48  1  0.10510000  0.64140000  0.51210000  1.0 0.041422384
C  C49  1  0.12680000  0.50030000  0.07370000  1.0 -0.1307768858
C  C50  1  0.49970000  0.62650000  0.07370000  1.0 -0.1363657536
C  C51  1  0.37350000  0.87320000  0.07370000  1.0 -0.1363657536
C  C52  1  0.49970000  0.87320000  0.57370000  1.0 -0.1363657536
C  C53  1  0.37350000  0.50030000  0.57370000  1.0 -0.1307768858
C  C54  1  0.12680000  0.62650000  0.57370000  1.0 -0.1363657536
C  C55  1  0.08040000  0.46980000  0.12970000  1.0 -0.0708890684
C  C56  1  0.53020000  0.61060000  0.12970000  1.0 -0.0708890684
C  C57  1  0.38940000  0.91960000  0.12970000  1.0 -0.0708890684
C  C58  1  0.53020000  0.91960000  0.62970000  1.0 -0.0708890684
C  C59  1  0.38940000  0.46980000  0.62970000  1.0 -0.0708890684
C  C60  1  0.08040000  0.61060000  0.62970000  1.0 -0.0708890684
C  C61  1  0.00990000  0.40060000  0.12320000  1.0 -0.0047251781
C  C62  1  0.59940000  0.60930000  0.12320000  1.0 -0.0047251781
C  C63  1  0.39070000  0.99010000  0.12320000  1.0 -0.0065430904
C  C64  1  0.59940000  0.99010000  0.62320000  1.0 -0.0065430904
C  C65  1  0.39070000  0.40060000  0.62320000  1.0 -0.0047251781
C  C66  1  0.00990000  0.60930000  0.62320000  1.0 -0.0065430904
C  C67  1  0.99620000  0.36180000  0.05800000  1.0 0.0618051078
C  C68  1  0.63820000  0.63440000  0.05800000  1.0 0.0546387552
C  C69  1  0.36560000  0.00380000  0.05800000  1.0 0.0546387552
C  C70  1  0.63820000  0.00380000  0.55800000  1.0 0.0618051078
C  C71  1  0.36560000  0.36180000  0.55800000  1.0 0.0546387552
C  C72  1  0.99620000  0.63440000  0.55800000  1.0 0.0546387552
C  C73  1  0.86650000  0.49630000  0.44480000  1.0 0.0618051078
C  C74  1  0.50370000  0.37020000  0.44480000  1.0 0.0618051078
C  C75  1  0.62980000  0.13350000  0.44480000  1.0 0.0618051078
C  C76  1  0.50370000  0.13350000  0.94480000  1.0 0.0618051078
C  C77  1  0.62980000  0.49630000  0.94480000  1.0 0.0618051078
C  C78  1  0.86650000  0.37020000  0.94480000  1.0 0.0618051078
C  C79  1  0.82050000  0.41550000  0.43470000  1.0 -0.1363657536
C  C80  1  0.58450000  0.40500000  0.43470000  1.0 -0.1363657536
C  C81  1  0.59500000  0.17950000  0.43470000  1.0 -0.1363657536
C  C82  1  0.58450000  0.17950000  0.93470000  1.0 -0.1363657536
C  C83  1  0.59500000  0.41550000  0.93470000  1.0 -0.1363657536
C  C84  1  0.82050000  0.40500000  0.93470000  1.0 -0.1363657536
C  C85  1  0.82540000  0.36980000  0.38690000  1.0 -0.0754785643
C  C86  1  0.63020000  0.45560000  0.38690000  1.0 -0.0754785643
C  C87  1  0.54440000  0.17460000  0.38690000  1.0 -0.0754785643
C  C88  1  0.63020000  0.17460000  0.88690000  1.0 -0.0708890684
C  C89  1  0.54440000  0.36980000  0.88690000  1.0 -0.0708890684
C  C90  1  0.82540000  0.45560000  0.88690000  1.0 -0.0754785643
C  C91  1  0.88380000  0.41040000  0.33610000  1.0 -0.0370314525
C  C92  1  0.58960000  0.47340000  0.33610000  1.0 -0.0370314525
C  C93  1  0.52660000  0.11620000  0.33610000  1.0 -0.0370314525
C  C94  1  0.58960000  0.11620000  0.83610000  1.0 -0.0370314525
C  C95  1  0.52660000  0.41040000  0.83610000  1.0 -0.0370314525
C  C96  1  0.88380000  0.47340000  0.83610000  1.0 -0.0370314525
C  C97  1  0.93050000  0.49150000  0.33900000  1.0 0.041422384
C  C98  1  0.50850000  0.43900000  0.33900000  1.0 0.041422384
C  C99  1  0.56100000  0.06950000  0.33900000  1.0 0.041422384
C  C100  1  0.50850000  0.06950000  0.83900000  1.0 0.041422384
C  C101  1  0.56100000  0.49150000  0.83900000  1.0 0.041422384
C  C102  1  0.93050000  0.43900000  0.83900000  1.0 0.041422384
C  C103  1  0.89550000  0.36760000  0.28030000  1.0 0.3718965544
C  C104  1  0.63240000  0.52790000  0.28030000  1.0 0.3718965544
C  C105  1  0.47210000  0.10450000  0.28030000  1.0 0.3718965544
C  C106  1  0.63240000  0.10450000  0.78030000  1.0 0.3718965544
C  C107  1  0.47210000  0.36760000  0.78030000  1.0 0.3718965544
C  C108  1  0.89550000  0.52790000  0.78030000  1.0 0.3718965544
C  C109  1  0.03720000  0.96080000  0.41530000  1.0 0.3634939957
C  C110  1  0.03920000  0.07640000  0.41530000  1.0 0.3634939957
C  C111  1  0.92360000  0.96280000  0.41530000  1.0 0.3634939957
C  C112  1  0.03920000  0.96280000  0.91530000  1.0 0.3634939957
C  C113  1  0.92360000  0.96080000  0.91530000  1.0 0.3634939957
C  C114  1  0.03720000  0.07640000  0.91530000  1.0 0.3634939957
C  C115  1  0.95180000  0.36130000  0.18240000  1.0 0.3718965544
C  C116  1  0.63870000  0.59050000  0.18240000  1.0 0.3718965544
C  C117  1  0.40950000  0.04820000  0.18240000  1.0 0.3718965544
C  C118  1  0.63870000  0.04820000  0.68240000  1.0 0.3718965544
C  C119  1  0.40950000  0.36130000  0.68240000  1.0 0.3718965544
C  C120  1  0.95180000  0.59050000  0.68240000  1.0 0.3718965544
C  C121  1  0.80370000  0.16210000  0.23230000  1.0 -0.02007004
C  C122  1  0.83790000  0.64160000  0.23230000  1.0 -0.02007004
C  C123  1  0.35840000  0.19630000  0.23230000  1.0 -0.02007004
C  C124  1  0.83790000  0.19630000  0.73230000  1.0 -0.02007004
C  C125  1  0.35840000  0.16210000  0.73230000  1.0 -0.02007004
C  C126  1  0.80370000  0.64160000  0.73230000  1.0 -0.02007004
C  C127  1  0.76240000  0.12590000  0.28500000  1.0 0.0618051078
C  C128  1  0.87410000  0.63650000  0.28500000  1.0 0.0618051078
C  C129  1  0.36350000  0.23760000  0.28500000  1.0 0.0618051078
C  C130  1  0.87410000  0.23760000  0.78500000  1.0 0.0618051078
C  C131  1  0.36350000  0.12590000  0.78500000  1.0 0.0618051078
C  C132  1  0.76240000  0.63650000  0.78500000  1.0 0.0618051078
C  C133  1  0.85940000  0.24740000  0.22950000  1.0 0.3810479014
C  C134  1  0.75260000  0.61200000  0.22950000  1.0 0.3810479014
C  C135  1  0.38800000  0.14060000  0.22950000  1.0 0.3810479014
C  C136  1  0.75260000  0.14060000  0.72950000  1.0 0.3810479014
C  C137  1  0.38800000  0.24740000  0.72950000  1.0 0.3810479014
C  C138  1  0.85940000  0.61200000  0.72950000  1.0 0.3810479014
C  C139  1  0.75510000  0.03470000  0.18000000  1.0 -0.1307768858
C  C140  1  0.96530000  0.72040000  0.18000000  1.0 -0.1307768858
C  C141  1  0.27960000  0.24490000  0.18000000  1.0 -0.1307768858
C  C142  1  0.96530000  0.24490000  0.68000000  1.0 -0.1307768858
C  C143  1  0.27960000  0.03470000  0.68000000  1.0 -0.1307768858
C  C144  1  0.75510000  0.72040000  0.68000000  1.0 -0.1307768858
C  C145  1  0.80930000  0.11960000  0.16840000  1.0 -0.0708890684
C  C146  1  0.88040000  0.68970000  0.16840000  1.0 -0.0708890684
C  C147  1  0.31030000  0.19070000  0.16840000  1.0 -0.0708890684
C  C148  1  0.88040000  0.19070000  0.66840000  1.0 -0.0708890684
C  C149  1  0.31030000  0.11960000  0.66840000  1.0 -0.0708890684
C  C150  1  0.80930000  0.68970000  0.66840000  1.0 -0.0708890684
C  C151  1  0.71590000  0.99910000  0.23990000  1.0 0.041422384
C  C152  1  0.00090000  0.71680000  0.23990000  1.0 0.041422384
C  C153  1  0.28320000  0.28410000  0.23990000  1.0 0.041422384
C  C154  1  0.00090000  0.28410000  0.73990000  1.0 0.041422384
C  C155  1  0.28320000  0.99910000  0.73990000  1.0 0.041422384
C  C156  1  0.71590000  0.71680000  0.73990000  1.0 0.041422384
S  S1  1  0.19800000  0.65970000  0.25460000  1.0 -0.3415464384
S  S2  1  0.34030000  0.53830000  0.25460000  1.0 -0.3415464384
S  S3  1  0.46170000  0.80200000  0.25460000  1.0 -0.3415464384
S  S4  1  0.34030000  0.80200000  0.75460000  1.0 -0.3415464384
S  S5  1  0.46170000  0.65970000  0.75460000  1.0 -0.3496575983
S  S6  1  0.19800000  0.53830000  0.75460000  1.0 -0.3415464384
S  S7  1  0.76380000  0.65220000  0.48470000  1.0 -0.3415464384
S  S8  1  0.34780000  0.11160000  0.48470000  1.0 -0.3415464384
S  S9  1  0.88840000  0.23620000  0.48470000  1.0 -0.3415464384
S  S10  1  0.34780000  0.23620000  0.98470000  1.0 -0.3415464384
S  S11  1  0.88840000  0.65220000  0.98470000  1.0 -0.3415464384
S  S12  1  0.76380000  0.11160000  0.98470000  1.0 -0.3415464384
N  N1  1  0.09210000  0.66100000  0.34770000  1.0 -0.4639699267
N  N2  1  0.33900000  0.43110000  0.34770000  1.0 -0.4660558434
N  N3  1  0.56890000  0.90790000  0.34770000  1.0 -0.4639699267
N  N4  1  0.33900000  0.90790000  0.84770000  1.0 -0.4660558434
N  N5  1  0.56890000  0.66100000  0.84770000  1.0 -0.4639699267
N  N6  1  0.09210000  0.43110000  0.84770000  1.0 -0.4639699267
N  N7  1  0.90980000  0.66960000  0.44930000  1.0 -0.4996671112
N  N8  1  0.33040000  0.24020000  0.44930000  1.0 -0.4996671112
N  N9  1  0.75980000  0.09020000  0.44930000  1.0 -0.4996671112
N  N10  1  0.33040000  0.09020000  0.94930000  1.0 -0.4996671112
N  N11  1  0.75980000  0.66960000  0.94930000  1.0 -0.4996671112
N  N12  1  0.90980000  0.24020000  0.94930000  1.0 -0.4996671112
N  N13  1  0.06970000  0.79000000  0.40730000  1.0 -0.2031512242
N  N14  1  0.21000000  0.27970000  0.40730000  1.0 -0.2031512242
N  N15  1  0.72030000  0.93030000  0.40730000  1.0 -0.2031512242
N  N16  1  0.21000000  0.93030000  0.90730000  1.0 -0.2031512242
N  N17  1  0.72030000  0.79000000  0.90730000  1.0 -0.2031512242
N  N18  1  0.06970000  0.27970000  0.90730000  1.0 -0.2031512242
N  N19  1  0.04290000  0.39290000  0.00310000  1.0 -0.2031512242
N  N20  1  0.60710000  0.65000000  0.00310000  1.0 -0.2031512242
N  N21  1  0.35000000  0.95710000  0.00310000  1.0 -0.2031512242
N  N22  1  0.60710000  0.95710000  0.50310000  1.0 -0.2031512242
N  N23  1  0.35000000  0.39290000  0.50310000  1.0 -0.2031512242
N  N24  1  0.04290000  0.65000000  0.50310000  1.0 -0.2031512242
N  N25  1  0.92460000  0.53490000  0.39450000  1.0 -0.2436081252
N  N26  1  0.46510000  0.38970000  0.39450000  1.0 -0.2436081252
N  N27  1  0.61030000  0.07540000  0.39450000  1.0 -0.2436081252
N  N28  1  0.46510000  0.07540000  0.89450000  1.0 -0.2436081252
N  N29  1  0.61030000  0.53490000  0.89450000  1.0 -0.2436081252
N  N30  1  0.92460000  0.38970000  0.89450000  1.0 -0.2436081252
N  N31  1  0.85020000  0.28980000  0.28650000  1.0 -0.4218836657
N  N32  1  0.71020000  0.56040000  0.28650000  1.0 -0.4218836657
N  N33  1  0.43960000  0.14980000  0.28650000  1.0 -0.4218836657
N  N34  1  0.71020000  0.14980000  0.78650000  1.0 -0.4218836657
N  N35  1  0.43960000  0.28980000  0.78650000  1.0 -0.4218836657
N  N36  1  0.85020000  0.56040000  0.78650000  1.0 -0.4218836657
N  N37  1  0.95740000  0.91780000  0.41090000  1.0 -0.4090263825
N  N38  1  0.08220000  0.03960000  0.41090000  1.0 -0.4090263825
N  N39  1  0.96040000  0.04260000  0.41090000  1.0 -0.4090263825
N  N40  1  0.08220000  0.04260000  0.91090000  1.0 -0.4090263825
N  N41  1  0.96040000  0.91780000  0.91090000  1.0 -0.4090263825
N  N42  1  0.95740000  0.03960000  0.91090000  1.0 -0.4090263825
N  N43  1  0.90630000  0.28140000  0.17330000  1.0 -0.4218836657
N  N44  1  0.71860000  0.62490000  0.17330000  1.0 -0.4218836657
N  N45  1  0.37510000  0.09370000  0.17330000  1.0 -0.4218836657
N  N46  1  0.71860000  0.09370000  0.67330000  1.0 -0.4218836657
N  N47  1  0.37510000  0.28140000  0.67330000  1.0 -0.4218836657
N  N48  1  0.90630000  0.62490000  0.67330000  1.0 -0.4218836657
N  N49  1  0.95000000  0.40240000  0.23360000  1.0 -0.386673096
N  N50  1  0.59760000  0.54760000  0.23360000  1.0 -0.386673096
N  N51  1  0.45240000  0.05000000  0.23360000  1.0 -0.386673096
N  N52  1  0.59760000  0.05000000  0.73360000  1.0 -0.386673096
N  N53  1  0.45240000  0.40240000  0.73360000  1.0 -0.386673096
N  N54  1  0.95000000  0.54760000  0.73360000  1.0 -0.386673096
N  N55  1  0.72000000  0.04870000  0.30120000  1.0 -0.2467891556
N  N56  1  0.95130000  0.67130000  0.30120000  1.0 -0.2467891556
N  N57  1  0.32870000  0.28000000  0.30120000  1.0 -0.2467891556
N  N58  1  0.95130000  0.28000000  0.80120000  1.0 -0.2467891556
N  N59  1  0.32870000  0.04870000  0.80120000  1.0 -0.2467891556
N  N60  1  0.72000000  0.67130000  0.80120000  1.0 -0.2467891556
