# DDEC6 charges by PACMAN v1.1 (https://github.com/mtap-research/PACMAN-charge/)
data_FEWXIQ_ASR_pacman
_symmetry_space_group_name_H-M   'P 1'
_cell_length_a   27.02700000
_cell_length_b   27.02700000
_cell_length_c   27.02700000
_cell_angle_alpha   60.00000000
_cell_angle_beta   60.00000000
_cell_angle_gamma   60.00000000
_symmetry_Int_Tables_number   1
_chemical_formula_structural   FeH16C28(S2N5)2
_chemical_formula_sum   'Fe6 H96 C168 S24 N60'
_cell_volume   13959.77849028
_cell_formula_units_Z   6
loop_
 _symmetry_equiv_pos_site_id
 _symmetry_equiv_pos_as_xyz
  1  'x, y, z'
loop_
 _atom_site_type_symbol
 _atom_site_label
 _atom_site_symmetry_multiplicity
 _atom_site_fract_x
 _atom_site_fract_y
 _atom_site_fract_z
 _atom_site_occupancy
 _atom_site_charge
Fe  Fe1  1  0.00000000  0.00000000  0.50000000  1.0 0.5762123422
Fe  Fe2  1  0.50000000  0.50000000  0.00000000  1.0 0.5762123422
Fe  Fe3  1  0.50000000  0.00000000  0.00000000  1.0 0.5762123422
Fe  Fe4  1  0.50000000  0.00000000  0.50000000  1.0 0.5762123422
Fe  Fe5  1  0.00000000  0.50000000  0.50000000  1.0 0.5762123422
Fe  Fe6  1  0.00000000  0.50000000  0.00000000  1.0 0.5762123422
H  H1  1  0.12050000  0.96930000  0.39070000  1.0 0.0938164452
H  H2  1  0.48050000  0.60930000  0.87950000  1.0 0.0938164452
H  H3  1  0.96930000  0.12050000  0.51950000  1.0 0.0938164452
H  H4  1  0.60930000  0.48050000  0.03070000  1.0 0.0938164452
H  H5  1  0.51950000  0.39070000  0.96930000  1.0 0.0938164452
H  H6  1  0.87950000  0.03070000  0.48050000  1.0 0.0938164452
H  H7  1  0.39070000  0.51950000  0.12050000  1.0 0.0938164452
H  H8  1  0.03070000  0.87950000  0.60930000  1.0 0.0938164452
H  H9  1  0.39070000  0.12050000  0.96930000  1.0 0.0938164452
H  H10  1  0.48050000  0.03070000  0.60930000  1.0 0.0938164452
H  H11  1  0.12050000  0.39070000  0.51950000  1.0 0.0938164452
H  H12  1  0.03070000  0.48050000  0.87950000  1.0 0.0938164452
H  H13  1  0.51950000  0.96930000  0.12050000  1.0 0.0938164452
H  H14  1  0.60930000  0.87950000  0.48050000  1.0 0.0938164452
H  H15  1  0.96930000  0.51950000  0.39070000  1.0 0.0938164452
H  H16  1  0.87950000  0.60930000  0.03070000  1.0 0.0938164452
H  H17  1  0.96930000  0.39070000  0.12050000  1.0 0.0938164452
H  H18  1  0.60930000  0.03070000  0.87950000  1.0 0.0938164452
H  H19  1  0.48050000  0.87950000  0.03070000  1.0 0.0938164452
H  H20  1  0.03070000  0.60930000  0.48050000  1.0 0.0938164452
H  H21  1  0.87950000  0.48050000  0.60930000  1.0 0.0938164452
H  H22  1  0.51950000  0.12050000  0.39070000  1.0 0.0938164452
H  H23  1  0.39070000  0.96930000  0.51950000  1.0 0.0938164452
H  H24  1  0.12050000  0.51950000  0.96930000  1.0 0.0938164452
H  H25  1  0.87950000  0.03070000  0.60930000  1.0 0.0938164452
H  H26  1  0.51950000  0.39070000  0.12050000  1.0 0.0938164452
H  H27  1  0.03070000  0.87950000  0.48050000  1.0 0.0938164452
H  H28  1  0.39070000  0.51950000  0.96930000  1.0 0.0938164452
H  H29  1  0.48050000  0.60930000  0.03070000  1.0 0.0938164452
H  H30  1  0.12050000  0.96930000  0.51950000  1.0 0.0938164452
H  H31  1  0.60930000  0.48050000  0.87950000  1.0 0.0938164452
H  H32  1  0.96930000  0.12050000  0.39070000  1.0 0.0938164452
H  H33  1  0.60930000  0.87950000  0.03070000  1.0 0.0938164452
H  H34  1  0.51950000  0.96930000  0.39070000  1.0 0.0938164452
H  H35  1  0.87950000  0.60930000  0.48050000  1.0 0.0938164452
H  H36  1  0.96930000  0.51950000  0.12050000  1.0 0.0938164452
H  H37  1  0.48050000  0.03070000  0.87950000  1.0 0.0938164452
H  H38  1  0.39070000  0.12050000  0.51950000  1.0 0.0938164452
H  H39  1  0.03070000  0.48050000  0.60930000  1.0 0.0938164452
H  H40  1  0.12050000  0.39070000  0.96930000  1.0 0.0938164452
H  H41  1  0.03070000  0.60930000  0.87950000  1.0 0.0938164452
H  H42  1  0.39070000  0.96930000  0.12050000  1.0 0.0938164452
H  H43  1  0.51950000  0.12050000  0.96930000  1.0 0.0938164452
H  H44  1  0.96930000  0.39070000  0.51950000  1.0 0.0938164452
H  H45  1  0.12050000  0.51950000  0.39070000  1.0 0.0938164452
H  H46  1  0.48050000  0.87950000  0.60930000  1.0 0.0938164452
H  H47  1  0.60930000  0.03070000  0.48050000  1.0 0.0938164452
H  H48  1  0.87950000  0.48050000  0.03070000  1.0 0.0938164452
H  H49  1  0.16390000  0.01930000  0.29630000  1.0 0.1291835364
H  H50  1  0.47950000  0.70370000  0.83610000  1.0 0.1291835364
H  H51  1  0.01930000  0.16390000  0.52050000  1.0 0.1291835364
H  H52  1  0.70370000  0.47950000  0.98070000  1.0 0.1291835364
H  H53  1  0.52050000  0.29630000  0.01930000  1.0 0.1291835364
H  H54  1  0.83610000  0.98070000  0.47950000  1.0 0.1291835364
H  H55  1  0.29630000  0.52050000  0.16390000  1.0 0.1291835364
H  H56  1  0.98070000  0.83610000  0.70370000  1.0 0.1291835364
H  H57  1  0.29630000  0.16390000  0.01930000  1.0 0.1291835364
H  H58  1  0.47950000  0.98070000  0.70370000  1.0 0.1291835364
H  H59  1  0.16390000  0.29630000  0.52050000  1.0 0.1291835364
H  H60  1  0.98070000  0.47950000  0.83610000  1.0 0.1291835364
H  H61  1  0.52050000  0.01930000  0.16390000  1.0 0.1291835364
H  H62  1  0.70370000  0.83610000  0.47950000  1.0 0.1291835364
H  H63  1  0.01930000  0.52050000  0.29630000  1.0 0.1291835364
H  H64  1  0.83610000  0.70370000  0.98070000  1.0 0.1291835364
H  H65  1  0.01930000  0.29630000  0.16390000  1.0 0.1291835364
H  H66  1  0.70370000  0.98070000  0.83610000  1.0 0.1291835364
H  H67  1  0.47950000  0.83610000  0.98070000  1.0 0.1291835364
H  H68  1  0.98070000  0.70370000  0.47950000  1.0 0.1291835364
H  H69  1  0.83610000  0.47950000  0.70370000  1.0 0.1291835364
H  H70  1  0.52050000  0.16390000  0.29630000  1.0 0.1291835364
H  H71  1  0.29630000  0.01930000  0.52050000  1.0 0.1291835364
H  H72  1  0.16390000  0.52050000  0.01930000  1.0 0.1291835364
H  H73  1  0.83610000  0.98070000  0.70370000  1.0 0.1291835364
H  H74  1  0.52050000  0.29630000  0.16390000  1.0 0.1291835364
H  H75  1  0.98070000  0.83610000  0.47950000  1.0 0.1291835364
H  H76  1  0.29630000  0.52050000  0.01930000  1.0 0.1291835364
H  H77  1  0.47950000  0.70370000  0.98070000  1.0 0.1291835364
H  H78  1  0.16390000  0.01930000  0.52050000  1.0 0.1291835364
H  H79  1  0.70370000  0.47950000  0.83610000  1.0 0.1291835364
H  H80  1  0.01930000  0.16390000  0.29630000  1.0 0.1291835364
H  H81  1  0.70370000  0.83610000  0.98070000  1.0 0.1291835364
H  H82  1  0.52050000  0.01930000  0.29630000  1.0 0.1291835364
H  H83  1  0.83610000  0.70370000  0.47950000  1.0 0.1291835364
H  H84  1  0.01930000  0.52050000  0.16390000  1.0 0.1291835364
H  H85  1  0.47950000  0.98070000  0.83610000  1.0 0.1291835364
H  H86  1  0.29630000  0.16390000  0.52050000  1.0 0.1291835364
H  H87  1  0.98070000  0.47950000  0.70370000  1.0 0.1291835364
H  H88  1  0.16390000  0.29630000  0.01930000  1.0 0.1291835364
H  H89  1  0.98070000  0.70370000  0.83610000  1.0 0.1291835364
H  H90  1  0.29630000  0.01930000  0.16390000  1.0 0.1291835364
H  H91  1  0.52050000  0.16390000  0.01930000  1.0 0.1291835364
H  H92  1  0.01930000  0.29630000  0.52050000  1.0 0.1291835364
H  H93  1  0.16390000  0.52050000  0.29630000  1.0 0.1291835364
H  H94  1  0.47950000  0.83610000  0.70370000  1.0 0.1291835364
H  H95  1  0.70370000  0.98070000  0.47950000  1.0 0.1291835364
H  H96  1  0.83610000  0.47950000  0.98070000  1.0 0.1291835364
C  C1  1  0.09940000  0.00880000  0.37220000  1.0 0.0345185455
C  C2  1  0.48040000  0.62780000  0.90060000  1.0 0.0345185455
C  C3  1  0.00880000  0.09940000  0.51960000  1.0 0.0345185455
C  C4  1  0.62780000  0.48040000  0.99120000  1.0 0.0345185455
C  C5  1  0.51960000  0.37220000  0.00880000  1.0 0.0350740459
C  C6  1  0.90060000  0.99120000  0.48040000  1.0 0.0350740459
C  C7  1  0.37220000  0.51960000  0.09940000  1.0 0.0345185455
C  C8  1  0.99120000  0.90060000  0.62780000  1.0 0.0345185455
C  C9  1  0.37220000  0.09940000  0.00880000  1.0 0.0350740459
C  C10  1  0.48040000  0.99120000  0.62780000  1.0 0.0345185455
C  C11  1  0.09940000  0.37220000  0.51960000  1.0 0.0345185455
C  C12  1  0.99120000  0.48040000  0.90060000  1.0 0.0345185455
C  C13  1  0.51960000  0.00880000  0.09940000  1.0 0.0345185455
C  C14  1  0.62780000  0.90060000  0.48040000  1.0 0.0345185455
C  C15  1  0.00880000  0.51960000  0.37220000  1.0 0.0345185455
C  C16  1  0.90060000  0.62780000  0.99120000  1.0 0.0345185455
C  C17  1  0.00880000  0.37220000  0.09940000  1.0 0.0345185455
C  C18  1  0.62780000  0.99120000  0.90060000  1.0 0.0350740459
C  C19  1  0.48040000  0.90060000  0.99120000  1.0 0.0345185455
C  C20  1  0.99120000  0.62780000  0.48040000  1.0 0.0345185455
C  C21  1  0.90060000  0.48040000  0.62780000  1.0 0.0345185455
C  C22  1  0.51960000  0.09940000  0.37220000  1.0 0.0345185455
C  C23  1  0.37220000  0.00880000  0.51960000  1.0 0.0345185455
C  C24  1  0.09940000  0.51960000  0.00880000  1.0 0.0350740459
C  C25  1  0.90060000  0.99120000  0.62780000  1.0 0.0350740459
C  C26  1  0.51960000  0.37220000  0.09940000  1.0 0.0345185455
C  C27  1  0.99120000  0.90060000  0.48040000  1.0 0.0345185455
C  C28  1  0.37220000  0.51960000  0.00880000  1.0 0.0350740459
C  C29  1  0.48040000  0.62780000  0.99120000  1.0 0.0345185455
C  C30  1  0.09940000  0.00880000  0.51960000  1.0 0.0345185455
C  C31  1  0.62780000  0.48040000  0.90060000  1.0 0.0345185455
C  C32  1  0.00880000  0.09940000  0.37220000  1.0 0.0345185455
C  C33  1  0.62780000  0.90060000  0.99120000  1.0 0.0345185455
C  C34  1  0.51960000  0.00880000  0.37220000  1.0 0.0345185455
C  C35  1  0.90060000  0.62780000  0.48040000  1.0 0.0350740459
C  C36  1  0.00880000  0.51960000  0.09940000  1.0 0.0345185455
C  C37  1  0.48040000  0.99120000  0.90060000  1.0 0.0350740459
C  C38  1  0.37220000  0.09940000  0.51960000  1.0 0.0345185455
C  C39  1  0.99120000  0.48040000  0.62780000  1.0 0.0345185455
C  C40  1  0.09940000  0.37220000  0.00880000  1.0 0.0350740459
C  C41  1  0.99120000  0.62780000  0.90060000  1.0 0.0350740459
C  C42  1  0.37220000  0.00880000  0.09940000  1.0 0.0345185455
C  C43  1  0.51960000  0.09940000  0.00880000  1.0 0.0350740459
C  C44  1  0.00880000  0.37220000  0.51960000  1.0 0.0345185455
C  C45  1  0.09940000  0.51960000  0.37220000  1.0 0.0345185455
C  C46  1  0.48040000  0.90060000  0.62780000  1.0 0.0345185455
C  C47  1  0.62780000  0.99120000  0.48040000  1.0 0.0345185455
C  C48  1  0.90060000  0.48040000  0.99120000  1.0 0.0345185455
C  C49  1  0.12410000  0.03910000  0.31590000  1.0 -0.1655245452
C  C50  1  0.47910000  0.68410000  0.87590000  1.0 -0.1655245452
C  C51  1  0.03910000  0.12410000  0.52090000  1.0 -0.1655245452
C  C52  1  0.68410000  0.47910000  0.96090000  1.0 -0.1655245452
C  C53  1  0.52090000  0.31590000  0.03910000  1.0 -0.1655245452
C  C54  1  0.87590000  0.96090000  0.47910000  1.0 -0.1655245452
C  C55  1  0.31590000  0.52090000  0.12410000  1.0 -0.1655245452
C  C56  1  0.96090000  0.87590000  0.68410000  1.0 -0.1655245452
C  C57  1  0.31590000  0.12410000  0.03910000  1.0 -0.1655245452
C  C58  1  0.47910000  0.96090000  0.68410000  1.0 -0.1655245452
C  C59  1  0.12410000  0.31590000  0.52090000  1.0 -0.1655245452
C  C60  1  0.96090000  0.47910000  0.87590000  1.0 -0.1655245452
C  C61  1  0.52090000  0.03910000  0.12410000  1.0 -0.1655245452
C  C62  1  0.68410000  0.87590000  0.47910000  1.0 -0.1655245452
C  C63  1  0.03910000  0.52090000  0.31590000  1.0 -0.1655245452
C  C64  1  0.87590000  0.68410000  0.96090000  1.0 -0.1655245452
C  C65  1  0.03910000  0.31590000  0.12410000  1.0 -0.1655245452
C  C66  1  0.68410000  0.96090000  0.87590000  1.0 -0.1655245452
C  C67  1  0.47910000  0.87590000  0.96090000  1.0 -0.1655245452
C  C68  1  0.96090000  0.68410000  0.47910000  1.0 -0.1655245452
C  C69  1  0.87590000  0.47910000  0.68410000  1.0 -0.1655245452
C  C70  1  0.52090000  0.12410000  0.31590000  1.0 -0.1655245452
C  C71  1  0.31590000  0.03910000  0.52090000  1.0 -0.1655245452
C  C72  1  0.12410000  0.52090000  0.03910000  1.0 -0.1655245452
C  C73  1  0.87590000  0.96090000  0.68410000  1.0 -0.1655245452
C  C74  1  0.52090000  0.31590000  0.12410000  1.0 -0.1655245452
C  C75  1  0.96090000  0.87590000  0.47910000  1.0 -0.1655245452
C  C76  1  0.31590000  0.52090000  0.03910000  1.0 -0.1655245452
C  C77  1  0.47910000  0.68410000  0.96090000  1.0 -0.1655245452
C  C78  1  0.12410000  0.03910000  0.52090000  1.0 -0.1655245452
C  C79  1  0.68410000  0.47910000  0.87590000  1.0 -0.1655245452
C  C80  1  0.03910000  0.12410000  0.31590000  1.0 -0.1655245452
C  C81  1  0.68410000  0.87590000  0.96090000  1.0 -0.1655245452
C  C82  1  0.52090000  0.03910000  0.31590000  1.0 -0.1655245452
C  C83  1  0.87590000  0.68410000  0.47910000  1.0 -0.1655245452
C  C84  1  0.03910000  0.52090000  0.12410000  1.0 -0.1655245452
C  C85  1  0.47910000  0.96090000  0.87590000  1.0 -0.1655245452
C  C86  1  0.31590000  0.12410000  0.52090000  1.0 -0.1655245452
C  C87  1  0.96090000  0.47910000  0.68410000  1.0 -0.1655245452
C  C88  1  0.12410000  0.31590000  0.03910000  1.0 -0.1655245452
C  C89  1  0.96090000  0.68410000  0.87590000  1.0 -0.1655245452
C  C90  1  0.31590000  0.03910000  0.12410000  1.0 -0.1655245452
C  C91  1  0.52090000  0.12410000  0.03910000  1.0 -0.1655245452
C  C92  1  0.03910000  0.31590000  0.52090000  1.0 -0.1655245452
C  C93  1  0.12410000  0.52090000  0.31590000  1.0 -0.1655245452
C  C94  1  0.47910000  0.87590000  0.68410000  1.0 -0.1655245452
C  C95  1  0.68410000  0.96090000  0.47910000  1.0 -0.1655245452
C  C96  1  0.87590000  0.47910000  0.96090000  1.0 -0.1655245452
C  C97  1  0.09750000  0.09750000  0.28210000  1.0 0.0502041783
C  C98  1  0.47710000  0.71790000  0.90250000  1.0 0.0502041783
C  C99  1  0.09750000  0.09750000  0.52290000  1.0 0.0502041783
C  C100  1  0.71790000  0.47710000  0.90250000  1.0 0.0502041783
C  C101  1  0.52290000  0.28210000  0.09750000  1.0 0.0502041783
C  C102  1  0.90250000  0.90250000  0.47710000  1.0 0.0502041783
C  C103  1  0.28210000  0.52290000  0.09750000  1.0 0.0502041783
C  C104  1  0.90250000  0.90250000  0.71790000  1.0 0.0502041783
C  C105  1  0.28210000  0.09750000  0.09750000  1.0 0.0502041783
C  C106  1  0.47710000  0.90250000  0.71790000  1.0 0.0502041783
C  C107  1  0.09750000  0.28210000  0.52290000  1.0 0.0502041783
C  C108  1  0.90250000  0.47710000  0.90250000  1.0 0.0502041783
C  C109  1  0.52290000  0.09750000  0.09750000  1.0 0.0502041783
C  C110  1  0.71790000  0.90250000  0.47710000  1.0 0.0502041783
C  C111  1  0.09750000  0.52290000  0.28210000  1.0 0.0502041783
C  C112  1  0.90250000  0.71790000  0.90250000  1.0 0.0502041783
C  C113  1  0.09750000  0.28210000  0.09750000  1.0 0.0502041783
C  C114  1  0.71790000  0.90250000  0.90250000  1.0 0.0502041783
C  C115  1  0.47710000  0.90250000  0.90250000  1.0 0.0502041783
C  C116  1  0.90250000  0.71790000  0.47710000  1.0 0.0502041783
C  C117  1  0.90250000  0.47710000  0.71790000  1.0 0.0502041783
C  C118  1  0.52290000  0.09750000  0.28210000  1.0 0.0502041783
C  C119  1  0.28210000  0.09750000  0.52290000  1.0 0.0502041783
C  C120  1  0.09750000  0.52290000  0.09750000  1.0 0.0502041783
C  C121  1  0.12740000  0.12740000  0.21180000  1.0 0.3852934893
C  C122  1  0.46660000  0.78820000  0.87260000  1.0 0.3852934893
C  C123  1  0.12740000  0.12740000  0.53340000  1.0 0.3852934893
C  C124  1  0.78820000  0.46660000  0.87260000  1.0 0.38445515
C  C125  1  0.53340000  0.21180000  0.12740000  1.0 0.3852934893
C  C126  1  0.87260000  0.87260000  0.46660000  1.0 0.38445515
C  C127  1  0.21180000  0.53340000  0.12740000  1.0 0.3852934893
C  C128  1  0.87260000  0.87260000  0.78820000  1.0 0.38445515
C  C129  1  0.21180000  0.12740000  0.12740000  1.0 0.3852934893
C  C130  1  0.46660000  0.87260000  0.78820000  1.0 0.3852934893
C  C131  1  0.12740000  0.21180000  0.53340000  1.0 0.3852934893
C  C132  1  0.87260000  0.46660000  0.87260000  1.0 0.38445515
C  C133  1  0.53340000  0.12740000  0.12740000  1.0 0.3852934893
C  C134  1  0.78820000  0.87260000  0.46660000  1.0 0.38445515
C  C135  1  0.12740000  0.53340000  0.21180000  1.0 0.3852934893
C  C136  1  0.87260000  0.78820000  0.87260000  1.0 0.38445515
C  C137  1  0.12740000  0.21180000  0.12740000  1.0 0.3852934893
C  C138  1  0.78820000  0.87260000  0.87260000  1.0 0.38445515
C  C139  1  0.46660000  0.87260000  0.87260000  1.0 0.3852934893
C  C140  1  0.87260000  0.78820000  0.46660000  1.0 0.38445515
C  C141  1  0.87260000  0.46660000  0.78820000  1.0 0.38445515
C  C142  1  0.53340000  0.12740000  0.21180000  1.0 0.3852934893
C  C143  1  0.21180000  0.12740000  0.53340000  1.0 0.3852934893
C  C144  1  0.12740000  0.53340000  0.12740000  1.0 0.3852934893
C  C145  1  0.88310000  0.11690000  0.48790000  1.0 0.0773063432
C  C146  1  0.48790000  0.51210000  0.11690000  1.0 0.0773063432
C  C147  1  0.11690000  0.88310000  0.51210000  1.0 0.0773063432
C  C148  1  0.51210000  0.48790000  0.88310000  1.0 0.0773063432
C  C149  1  0.51210000  0.48790000  0.11690000  1.0 0.0773063432
C  C150  1  0.11690000  0.88310000  0.48790000  1.0 0.0773063432
C  C151  1  0.48790000  0.51210000  0.88310000  1.0 0.0773063432
C  C152  1  0.88310000  0.11690000  0.51210000  1.0 0.0773063432
C  C153  1  0.48790000  0.88310000  0.11690000  1.0 0.0773063432
C  C154  1  0.48790000  0.88310000  0.51210000  1.0 0.0773063432
C  C155  1  0.88310000  0.48790000  0.51210000  1.0 0.0773063432
C  C156  1  0.88310000  0.48790000  0.11690000  1.0 0.0773063432
C  C157  1  0.51210000  0.11690000  0.88310000  1.0 0.0773063432
C  C158  1  0.51210000  0.11690000  0.48790000  1.0 0.0773063432
C  C159  1  0.11690000  0.51210000  0.48790000  1.0 0.0773063432
C  C160  1  0.11690000  0.51210000  0.88310000  1.0 0.0773063432
C  C161  1  0.11690000  0.48790000  0.88310000  1.0 0.0773063432
C  C162  1  0.51210000  0.88310000  0.11690000  1.0 0.0773063432
C  C163  1  0.48790000  0.11690000  0.88310000  1.0 0.0773063432
C  C164  1  0.88310000  0.51210000  0.48790000  1.0 0.0773063432
C  C165  1  0.11690000  0.48790000  0.51210000  1.0 0.0773063432
C  C166  1  0.51210000  0.88310000  0.48790000  1.0 0.0773063432
C  C167  1  0.48790000  0.11690000  0.51210000  1.0 0.0773063432
C  C168  1  0.88310000  0.51210000  0.11690000  1.0 0.0773063432
S  S1  1  0.82530000  0.17470000  0.46310000  1.0 -0.036759764
S  S2  1  0.46310000  0.53690000  0.17470000  1.0 -0.036759764
S  S3  1  0.17470000  0.82530000  0.53690000  1.0 -0.036759764
S  S4  1  0.53690000  0.46310000  0.82530000  1.0 -0.036759764
S  S5  1  0.53690000  0.46310000  0.17470000  1.0 -0.036759764
S  S6  1  0.17470000  0.82530000  0.46310000  1.0 -0.036759764
S  S7  1  0.46310000  0.53690000  0.82530000  1.0 -0.036759764
S  S8  1  0.82530000  0.17470000  0.53690000  1.0 -0.036759764
S  S9  1  0.46310000  0.82530000  0.17470000  1.0 -0.036759764
S  S10  1  0.46310000  0.82530000  0.53690000  1.0 -0.036759764
S  S11  1  0.82530000  0.46310000  0.53690000  1.0 -0.036759764
S  S12  1  0.82530000  0.46310000  0.17470000  1.0 -0.036759764
S  S13  1  0.53690000  0.17470000  0.82530000  1.0 -0.036759764
S  S14  1  0.53690000  0.17470000  0.46310000  1.0 -0.036759764
S  S15  1  0.17470000  0.53690000  0.46310000  1.0 -0.036759764
S  S16  1  0.17470000  0.53690000  0.82530000  1.0 -0.036759764
S  S17  1  0.17470000  0.46310000  0.82530000  1.0 -0.036759764
S  S18  1  0.53690000  0.82530000  0.17470000  1.0 -0.036759764
S  S19  1  0.46310000  0.17470000  0.82530000  1.0 -0.036759764
S  S20  1  0.82530000  0.53690000  0.46310000  1.0 -0.036759764
S  S21  1  0.17470000  0.46310000  0.53690000  1.0 -0.036759764
S  S22  1  0.53690000  0.82530000  0.46310000  1.0 -0.036759764
S  S23  1  0.46310000  0.17470000  0.53690000  1.0 -0.036759764
S  S24  1  0.82530000  0.53690000  0.17470000  1.0 -0.036759764
N  N1  1  0.03880000  0.03880000  0.40400000  1.0 -0.2266029965
N  N2  1  0.48160000  0.59600000  0.96120000  1.0 -0.2266029965
N  N3  1  0.03880000  0.03880000  0.51840000  1.0 -0.2266029965
N  N4  1  0.59600000  0.48160000  0.96120000  1.0 -0.2266029965
N  N5  1  0.51840000  0.40400000  0.03880000  1.0 -0.2266029965
N  N6  1  0.96120000  0.96120000  0.48160000  1.0 -0.2266029965
N  N7  1  0.40400000  0.51840000  0.03880000  1.0 -0.2266029965
N  N8  1  0.96120000  0.96120000  0.59600000  1.0 -0.2266029965
N  N9  1  0.40400000  0.03880000  0.03880000  1.0 -0.2266029965
N  N10  1  0.48160000  0.96120000  0.59600000  1.0 -0.2266029965
N  N11  1  0.03880000  0.40400000  0.51840000  1.0 -0.2266029965
N  N12  1  0.96120000  0.48160000  0.96120000  1.0 -0.2266029965
N  N13  1  0.51840000  0.03880000  0.03880000  1.0 -0.2266029965
N  N14  1  0.59600000  0.96120000  0.48160000  1.0 -0.2266029965
N  N15  1  0.03880000  0.51840000  0.40400000  1.0 -0.2266029965
N  N16  1  0.96120000  0.59600000  0.96120000  1.0 -0.2266029965
N  N17  1  0.03880000  0.40400000  0.03880000  1.0 -0.2266029965
N  N18  1  0.59600000  0.96120000  0.96120000  1.0 -0.2266029965
N  N19  1  0.48160000  0.96120000  0.96120000  1.0 -0.2266029965
N  N20  1  0.96120000  0.59600000  0.48160000  1.0 -0.2266029965
N  N21  1  0.96120000  0.48160000  0.59600000  1.0 -0.2266029965
N  N22  1  0.51840000  0.03880000  0.40400000  1.0 -0.2266029965
N  N23  1  0.40400000  0.03880000  0.51840000  1.0 -0.2266029965
N  N24  1  0.03880000  0.51840000  0.03880000  1.0 -0.2266029965
N  N25  1  0.18680000  0.09920000  0.18680000  1.0 -0.4376641158
N  N26  1  0.47280000  0.81320000  0.81320000  1.0 -0.4376641158
N  N27  1  0.09920000  0.18680000  0.52720000  1.0 -0.4376641158
N  N28  1  0.81320000  0.47280000  0.90080000  1.0 -0.4376641158
N  N29  1  0.52720000  0.18680000  0.09920000  1.0 -0.4376641158
N  N30  1  0.81320000  0.90080000  0.47280000  1.0 -0.4376641158
N  N31  1  0.18680000  0.52720000  0.18680000  1.0 -0.4376641158
N  N32  1  0.90080000  0.81320000  0.81320000  1.0 -0.4376641158
N  N33  1  0.18680000  0.18680000  0.09920000  1.0 -0.4376641158
N  N34  1  0.47280000  0.90080000  0.81320000  1.0 -0.4376641158
N  N35  1  0.18680000  0.18680000  0.52720000  1.0 -0.4376641158
N  N36  1  0.90080000  0.47280000  0.81320000  1.0 -0.4376641158
N  N37  1  0.52720000  0.09920000  0.18680000  1.0 -0.4376641158
N  N38  1  0.81320000  0.81320000  0.47280000  1.0 -0.4376641158
N  N39  1  0.09920000  0.52720000  0.18680000  1.0 -0.4376641158
N  N40  1  0.81320000  0.81320000  0.90080000  1.0 -0.4376641158
N  N41  1  0.09920000  0.18680000  0.18680000  1.0 -0.4376641158
N  N42  1  0.81320000  0.90080000  0.81320000  1.0 -0.4376641158
N  N43  1  0.47280000  0.81320000  0.90080000  1.0 -0.4376641158
N  N44  1  0.90080000  0.81320000  0.47280000  1.0 -0.4376641158
N  N45  1  0.81320000  0.47280000  0.81320000  1.0 -0.4376641158
N  N46  1  0.52720000  0.18680000  0.18680000  1.0 -0.4376641158
N  N47  1  0.18680000  0.09920000  0.52720000  1.0 -0.4376641158
N  N48  1  0.18680000  0.52720000  0.09920000  1.0 -0.4376641158
N  N49  1  0.91860000  0.08140000  0.50000000  1.0 -0.2795631135
N  N50  1  0.50000000  0.50000000  0.08140000  1.0 -0.2795631135
N  N51  1  0.08140000  0.91860000  0.50000000  1.0 -0.2795631135
N  N52  1  0.50000000  0.50000000  0.91860000  1.0 -0.2795631135
N  N53  1  0.50000000  0.91860000  0.08140000  1.0 -0.2795631135
N  N54  1  0.50000000  0.91860000  0.50000000  1.0 -0.2795631135
N  N55  1  0.91860000  0.50000000  0.50000000  1.0 -0.2795631135
N  N56  1  0.91860000  0.50000000  0.08140000  1.0 -0.2795631135
N  N57  1  0.50000000  0.08140000  0.91860000  1.0 -0.2795631135
N  N58  1  0.50000000  0.08140000  0.50000000  1.0 -0.2795631135
N  N59  1  0.08140000  0.50000000  0.50000000  1.0 -0.2795631135
N  N60  1  0.08140000  0.50000000  0.91860000  1.0 -0.2795631135
