# DDEC6 charges by PACMAN v1.1 (https://github.com/mtap-research/PACMAN-charge/)
data_FEXBIX_ASR_pacman
_symmetry_space_group_name_H-M   'P 1'
_cell_length_a   16.66730000
_cell_length_b   16.66730000
_cell_length_c   12.76600000
_cell_angle_alpha   90.00000000
_cell_angle_beta   90.00000000
_cell_angle_gamma   110.76700000
_symmetry_Int_Tables_number   1
_chemical_formula_structural   Cd4H42C66O17
_chemical_formula_sum   'Cd8 H84 C132 O34'
_cell_volume   3315.97244289
_cell_formula_units_Z   2
loop_
 _symmetry_equiv_pos_site_id
 _symmetry_equiv_pos_as_xyz
  1  'x, y, z'
loop_
 _atom_site_type_symbol
 _atom_site_label
 _atom_site_symmetry_multiplicity
 _atom_site_fract_x
 _atom_site_fract_y
 _atom_site_fract_z
 _atom_site_occupancy
 _atom_site_charge
Cd  Cd1  1  0.74287000  0.74287000  0.58856000  1.0 1.0229660667
Cd  Cd2  1  0.25713000  0.25713000  0.08856000  1.0 1.0229660667
Cd  Cd3  1  0.91471000  0.91471000  0.79751000  1.0 0.9964486755
Cd  Cd4  1  0.08529000  0.08529000  0.29751000  1.0 0.9964486755
Cd  Cd5  1  0.08692000  0.08692000  0.69310000  1.0 1.0132056869
Cd  Cd6  1  0.91308000  0.91308000  0.19310000  1.0 1.0132056869
Cd  Cd7  1  0.73096000  0.73096000  0.28406000  1.0 1.0460828341
Cd  Cd8  1  0.26904000  0.26904000  0.78406000  1.0 1.0460828341
H  H1  1  0.90604000  0.85642000  0.59304000  1.0 0.3622469701
H  H2  1  0.09397000  0.14358000  0.09304000  1.0 0.3622469701
H  H3  1  0.14358000  0.09397000  0.09304000  1.0 0.3622469701
H  H4  1  0.85642000  0.90604000  0.59304000  1.0 0.3622469701
H  H5  1  0.97129000  0.25735000  0.49256000  1.0 0.1291075507
H  H6  1  0.02871000  0.74265000  0.99256000  1.0 0.1291075507
H  H7  1  0.74265000  0.02871000  0.99256000  1.0 0.1291075507
H  H8  1  0.25735000  0.97129000  0.49256000  1.0 0.1291075507
H  H9  1  0.10567000  0.51905000  0.66509000  1.0 0.1291075507
H  H10  1  0.89433000  0.48095000  0.16509000  1.0 0.1291075507
H  H11  1  0.48095000  0.89433000  0.16509000  1.0 0.1291075507
H  H12  1  0.51905000  0.10567000  0.66509000  1.0 0.1291075507
H  H13  1  0.14578000  0.39992000  0.69731000  1.0 0.1203465625
H  H14  1  0.85422000  0.60008000  0.19731000  1.0 0.1203465625
H  H15  1  0.60008000  0.85422000  0.19731000  1.0 0.1203465625
H  H16  1  0.39992000  0.14578000  0.69731000  1.0 0.1203465625
H  H17  1  0.81102000  0.48944000  0.36954000  1.0 0.1291075507
H  H18  1  0.18898000  0.51056000  0.86954000  1.0 0.1291075507
H  H19  1  0.51056000  0.18898000  0.86954000  1.0 0.1291075507
H  H20  1  0.48944000  0.81102000  0.36954000  1.0 0.1291075507
H  H21  1  0.94526000  0.70032000  0.53775000  1.0 0.1291075507
H  H22  1  0.05474000  0.29968000  0.03775000  1.0 0.1291075507
H  H23  1  0.29968000  0.05474000  0.03775000  1.0 0.1291075507
H  H24  1  0.70032000  0.94526000  0.53775000  1.0 0.1291075507
H  H25  1  0.02831000  0.62865000  0.61077000  1.0 0.1291075507
H  H26  1  0.97169000  0.37135000  0.11077000  1.0 0.1291075507
H  H27  1  0.37135000  0.97169000  0.11077000  1.0 0.1291075507
H  H28  1  0.62865000  0.02831000  0.61077000  1.0 0.1291075507
H  H29  1  0.92244000  0.30912000  0.32603000  1.0 0.1388036121
H  H30  1  0.07756000  0.69088000  0.82603000  1.0 0.1388036121
H  H31  1  0.69088000  0.07756000  0.82603000  1.0 0.1388036121
H  H32  1  0.30912000  0.92244000  0.32603000  1.0 0.1388036121
H  H33  1  0.86516000  0.36202000  0.28497000  1.0 0.1388036121
H  H34  1  0.13484000  0.63798000  0.78497000  1.0 0.1388036121
H  H35  1  0.63798000  0.13484000  0.78497000  1.0 0.1388036121
H  H36  1  0.36202000  0.86516000  0.28497000  1.0 0.1388036121
H  H37  1  0.96565000  0.41005000  0.30507000  1.0 0.1388036121
H  H38  1  0.03435000  0.58995000  0.80507000  1.0 0.1388036121
H  H39  1  0.58995000  0.03435000  0.80507000  1.0 0.1388036121
H  H40  1  0.41005000  0.96565000  0.30507000  1.0 0.1388036121
H  H41  1  0.80104000  0.25978000  0.44613000  1.0 0.1203465625
H  H42  1  0.19896000  0.74022000  0.94613000  1.0 0.1203465625
H  H43  1  0.74022000  0.19896000  0.94613000  1.0 0.1203465625
H  H44  1  0.25978000  0.80104000  0.44613000  1.0 0.1203465625
H  H45  1  0.76170000  0.33297000  0.43238000  1.0 0.1203465625
H  H46  1  0.23830000  0.66702000  0.93238000  1.0 0.1203465625
H  H47  1  0.66702000  0.23830000  0.93238000  1.0 0.1203465625
H  H48  1  0.33297000  0.76170000  0.43238000  1.0 0.1203465625
H  H49  1  0.79863000  0.14353000  0.57175000  1.0 0.1291075507
H  H50  1  0.20137000  0.85647000  0.07175000  1.0 0.1291075507
H  H51  1  0.85647000  0.20137000  0.07175000  1.0 0.1291075507
H  H52  1  0.14353000  0.79863000  0.57175000  1.0 0.1291075507
H  H53  1  0.94411000  0.17647000  0.83338000  1.0 0.1388036121
H  H54  1  0.05589000  0.82353000  0.33338000  1.0 0.1388036121
H  H55  1  0.82353000  0.05589000  0.33338000  1.0 0.1388036121
H  H56  1  0.17647000  0.94411000  0.83338000  1.0 0.1388036121
H  H57  1  0.92602000  0.30462000  0.86967000  1.0 0.1291075507
H  H58  1  0.07398000  0.69538000  0.36967000  1.0 0.1291075507
H  H59  1  0.69538000  0.07398000  0.36967000  1.0 0.1291075507
H  H60  1  0.30462000  0.92602000  0.86967000  1.0 0.1291075507
H  H61  1  0.89302000  0.44968000  0.86668000  1.0 0.1203465625
H  H62  1  0.10698000  0.55032000  0.36668000  1.0 0.1203465625
H  H63  1  0.55032000  0.10698000  0.36668000  1.0 0.1203465625
H  H64  1  0.44968000  0.89302000  0.86668000  1.0 0.1203465625
H  H65  1  0.85468000  0.57172000  0.83027000  1.0 0.1203465625
H  H66  1  0.14532000  0.42828000  0.33027000  1.0 0.1203465625
H  H67  1  0.42828000  0.14532000  0.33027000  1.0 0.1203465625
H  H68  1  0.57172000  0.85468000  0.83027000  1.0 0.1203465625
H  H69  1  0.72715000  0.45197000  0.57243000  1.0 0.1291075507
H  H70  1  0.27285000  0.54803000  0.07243000  1.0 0.1291075507
H  H71  1  0.54803000  0.27285000  0.07243000  1.0 0.1291075507
H  H72  1  0.45197000  0.72715000  0.57243000  1.0 0.1291075507
H  H73  1  0.64723000  0.25035000  0.64758000  1.0 0.1388036121
H  H74  1  0.35277000  0.74965000  0.14758000  1.0 0.1388036121
H  H75  1  0.74965000  0.35277000  0.14758000  1.0 0.1388036121
H  H76  1  0.25035000  0.64723000  0.64758000  1.0 0.1388036121
H  H77  1  0.64845000  0.27755000  0.52720000  1.0 0.1388036121
H  H78  1  0.35155000  0.72245000  0.02720000  1.0 0.1388036121
H  H79  1  0.72245000  0.35155000  0.02720000  1.0 0.1388036121
H  H80  1  0.27755000  0.64845000  0.52720000  1.0 0.1388036121
H  H81  1  0.66525000  0.19177000  0.55795000  1.0 0.1291075507
H  H82  1  0.33475000  0.80823000  0.05795000  1.0 0.1291075507
H  H83  1  0.80823000  0.33475000  0.05795000  1.0 0.1291075507
H  H84  1  0.19177000  0.66525000  0.55795000  1.0 0.1291075507
C  C1  1  0.08640000  0.24300000  0.62420000  1.0 0.5716270901
C  C2  1  0.91360000  0.75700000  0.12420000  1.0 0.5716270901
C  C3  1  0.75700000  0.91360000  0.12420000  1.0 0.5716270901
C  C4  1  0.24300000  0.08640000  0.62420000  1.0 0.5716270901
C  C5  1  0.06220000  0.31880000  0.59950000  1.0 -0.0222749986
C  C6  1  0.93780000  0.68120000  0.09950000  1.0 -0.0222749986
C  C7  1  0.68120000  0.93780000  0.09950000  1.0 -0.0222749986
C  C8  1  0.31880000  0.06220000  0.59950000  1.0 -0.0222749986
C  C9  1  0.99620000  0.30920000  0.53060000  1.0 -0.1287152447
C  C10  1  0.00380000  0.69080000  0.03060000  1.0 -0.1287152447
C  C11  1  0.69080000  0.00380000  0.03060000  1.0 -0.1287152447
C  C12  1  0.30920000  0.99620000  0.53060000  1.0 -0.1287152447
C  C13  1  0.96640000  0.37640000  0.51740000  1.0 0.0061306106
C  C14  1  0.03360000  0.62360000  0.01740000  1.0 0.0061306106
C  C15  1  0.62360000  0.03360000  0.01740000  1.0 0.0061306106
C  C16  1  0.37640000  0.96640000  0.51740000  1.0 0.0061306106
C  C17  1  0.00940000  0.45420000  0.56540000  1.0 0.0174889114
C  C18  1  0.99060000  0.54580000  0.06540000  1.0 0.0174889114
C  C19  1  0.54580000  0.99060000  0.06540000  1.0 0.0174889114
C  C20  1  0.45420000  0.00940000  0.56540000  1.0 0.0174889114
C  C21  1  0.07670000  0.46550000  0.63210000  1.0 -0.1287152447
C  C22  1  0.92330000  0.53450000  0.13210000  1.0 -0.1287152447
C  C23  1  0.53450000  0.92330000  0.13210000  1.0 -0.1287152447
C  C24  1  0.46550000  0.07670000  0.63210000  1.0 -0.1287152447
C  C25  1  0.10080000  0.39480000  0.64920000  1.0 -0.1118494586
C  C26  1  0.89920000  0.60520000  0.14920000  1.0 -0.1118494586
C  C27  1  0.60520000  0.89920000  0.14920000  1.0 -0.1118494586
C  C28  1  0.39480000  0.10080000  0.64920000  1.0 -0.1118494586
C  C29  1  0.89530000  0.38190000  0.44180000  1.0 0.1520402006
C  C30  1  0.10470000  0.61810000  0.94180000  1.0 0.1520402006
C  C31  1  0.61810000  0.10470000  0.94180000  1.0 0.1520402006
C  C32  1  0.38190000  0.89530000  0.44180000  1.0 0.1520402006
C  C33  1  0.90400000  0.47420000  0.46110000  1.0 -0.0045415986
C  C34  1  0.09600000  0.52580000  0.96110000  1.0 -0.0045415986
C  C35  1  0.52580000  0.09600000  0.96110000  1.0 -0.0045415986
C  C36  1  0.47420000  0.90400000  0.46110000  1.0 -0.0045415986
C  C37  1  0.85510000  0.51790000  0.41810000  1.0 -0.1389764656
C  C38  1  0.14490000  0.48210000  0.91810000  1.0 -0.1389764656
C  C39  1  0.48210000  0.14490000  0.91810000  1.0 -0.1389764656
C  C40  1  0.51790000  0.85510000  0.41810000  1.0 -0.1389764656
C  C41  1  0.86940000  0.60260000  0.44450000  1.0 -0.0383148656
C  C42  1  0.13060000  0.39740000  0.94450000  1.0 -0.0383148656
C  C43  1  0.39740000  0.13060000  0.94450000  1.0 -0.0383148656
C  C44  1  0.60260000  0.86940000  0.44450000  1.0 -0.0383148656
C  C45  1  0.81390000  0.64830000  0.40710000  1.0 0.5716270901
C  C46  1  0.18610000  0.35170000  0.90710000  1.0 0.5716270901
C  C47  1  0.35170000  0.18610000  0.90710000  1.0 0.5716270901
C  C48  1  0.64830000  0.81390000  0.40710000  1.0 0.5716270901
C  C49  1  0.93520000  0.64260000  0.51790000  1.0 -0.0985907723
C  C50  1  0.06480000  0.35740000  0.01790000  1.0 -0.0985907723
C  C51  1  0.35740000  0.06480000  0.01790000  1.0 -0.0985907723
C  C52  1  0.64260000  0.93520000  0.51790000  1.0 -0.0985907723
C  C53  1  0.98470000  0.60090000  0.56130000  1.0 -0.1525411845
C  C54  1  0.01530000  0.39910000  0.06130000  1.0 -0.1525411845
C  C55  1  0.39910000  0.01530000  0.06130000  1.0 -0.1525411845
C  C56  1  0.60090000  0.98470000  0.56130000  1.0 -0.1525411845
C  C57  1  0.96880000  0.51500000  0.53010000  1.0 0.0174889114
C  C58  1  0.03120000  0.48500000  0.03010000  1.0 0.0174889114
C  C59  1  0.48500000  0.03120000  0.03010000  1.0 0.0174889114
C  C60  1  0.51500000  0.96880000  0.53010000  1.0 0.0174889114
C  C61  1  0.91380000  0.36420000  0.32950000  1.0 -0.4764877759
C  C62  1  0.08620000  0.63580000  0.82950000  1.0 -0.4764877759
C  C63  1  0.63580000  0.08620000  0.82950000  1.0 -0.4764877759
C  C64  1  0.36420000  0.91380000  0.32950000  1.0 -0.4764877759
C  C65  1  0.80410000  0.31650000  0.47300000  1.0 -0.3087444283
C  C66  1  0.19590000  0.68350000  0.97300000  1.0 -0.3087444283
C  C67  1  0.68350000  0.19590000  0.97300000  1.0 -0.3087444283
C  C68  1  0.31650000  0.80410000  0.47300000  1.0 -0.3087444283
C  C69  1  0.77050000  0.30190000  0.58710000  1.0 0.1520402006
C  C70  1  0.22950000  0.69810000  0.08710000  1.0 0.1520402006
C  C71  1  0.69810000  0.22950000  0.08710000  1.0 0.1520402006
C  C72  1  0.30190000  0.77050000  0.58710000  1.0 0.1520402006
C  C73  1  0.81560000  0.25560000  0.65210000  1.0 0.0061306106
C  C74  1  0.18440000  0.74440000  0.15210000  1.0 0.0061306106
C  C75  1  0.74440000  0.18440000  0.15210000  1.0 0.0061306106
C  C76  1  0.25560000  0.81560000  0.65210000  1.0 0.0061306106
C  C77  1  0.82450000  0.17630000  0.63170000  1.0 -0.1626653388
C  C78  1  0.17550000  0.82370000  0.13170000  1.0 -0.1626653388
C  C79  1  0.82370000  0.17550000  0.13170000  1.0 -0.1626653388
C  C80  1  0.17630000  0.82450000  0.63170000  1.0 -0.1626653388
C  C81  1  0.87270000  0.14670000  0.70170000  1.0 -0.0290156097
C  C82  1  0.12730000  0.85330000  0.20170000  1.0 -0.0290156097
C  C83  1  0.85330000  0.12730000  0.20170000  1.0 -0.0290156097
C  C84  1  0.14670000  0.87270000  0.70170000  1.0 -0.0290156097
C  C85  1  0.88790000  0.06490000  0.67670000  1.0 0.5812746681
C  C86  1  0.11210000  0.93510000  0.17670000  1.0 0.5812746681
C  C87  1  0.93510000  0.11210000  0.17670000  1.0 0.5812746681
C  C88  1  0.06490000  0.88790000  0.67670000  1.0 0.5812746681
C  C89  1  0.91040000  0.19640000  0.78740000  1.0 -0.116282826
C  C90  1  0.08960000  0.80360000  0.28740000  1.0 -0.116282826
C  C91  1  0.80360000  0.08960000  0.28740000  1.0 -0.116282826
C  C92  1  0.19640000  0.91040000  0.78740000  1.0 -0.116282826
C  C93  1  0.90110000  0.27290000  0.80870000  1.0 -0.1287152447
C  C94  1  0.09890000  0.72710000  0.30870000  1.0 -0.1287152447
C  C95  1  0.72710000  0.09890000  0.30870000  1.0 -0.1287152447
C  C96  1  0.27290000  0.90110000  0.80870000  1.0 -0.1287152447
C  C97  1  0.85510000  0.30310000  0.74060000  1.0 0.0174889114
C  C98  1  0.14490000  0.69690000  0.24060000  1.0 0.0174889114
C  C99  1  0.69690000  0.14490000  0.24060000  1.0 0.0174889114
C  C100  1  0.30310000  0.85510000  0.74060000  1.0 0.0174889114
C  C101  1  0.83590000  0.38490000  0.73750000  1.0 0.0174889114
C  C102  1  0.16410000  0.61510000  0.23750000  1.0 0.0174889114
C  C103  1  0.61510000  0.16410000  0.23750000  1.0 0.0174889114
C  C104  1  0.38490000  0.83590000  0.73750000  1.0 0.0174889114
C  C105  1  0.86060000  0.45140000  0.80600000  1.0 -0.1389764656
C  C106  1  0.13940000  0.54860000  0.30600000  1.0 -0.1389764656
C  C107  1  0.54860000  0.13940000  0.30600000  1.0 -0.1389764656
C  C108  1  0.45140000  0.86060000  0.80600000  1.0 -0.1389764656
C  C109  1  0.83700000  0.52360000  0.78450000  1.0 -0.1118494586
C  C110  1  0.16300000  0.47640000  0.28450000  1.0 -0.1118494586
C  C111  1  0.47640000  0.16300000  0.28450000  1.0 -0.1118494586
C  C112  1  0.52360000  0.83700000  0.78450000  1.0 -0.1118494586
C  C113  1  0.78850000  0.52390000  0.69720000  1.0 0.0061306106
C  C114  1  0.21150000  0.47610000  0.19720000  1.0 0.0061306106
C  C115  1  0.47610000  0.21150000  0.19720000  1.0 0.0061306106
C  C116  1  0.52390000  0.78850000  0.69720000  1.0 0.0061306106
C  C117  1  0.76710000  0.60450000  0.67030000  1.0 0.5425710476
C  C118  1  0.23290000  0.39550000  0.17030000  1.0 0.5425710476
C  C119  1  0.39550000  0.23290000  0.17030000  1.0 0.5425710476
C  C120  1  0.60450000  0.76710000  0.67030000  1.0 0.5425710476
C  C121  1  0.76200000  0.45280000  0.63160000  1.0 -0.1287152447
C  C122  1  0.23800000  0.54720000  0.13160000  1.0 -0.1287152447
C  C123  1  0.54720000  0.23800000  0.13160000  1.0 -0.1287152447
C  C124  1  0.45280000  0.76200000  0.63160000  1.0 -0.1287152447
C  C125  1  0.78630000  0.38270000  0.65250000  1.0 0.003295942
C  C126  1  0.21370000  0.61730000  0.15250000  1.0 0.003295942
C  C127  1  0.61730000  0.21370000  0.15250000  1.0 0.003295942
C  C128  1  0.38270000  0.78630000  0.65250000  1.0 0.003295942
C  C129  1  0.67420000  0.25080000  0.57930000  1.0 -0.4597344451
C  C130  1  0.32580000  0.74920000  0.07930000  1.0 -0.4597344451
C  C131  1  0.74920000  0.32580000  0.07930000  1.0 -0.4597344451
C  C132  1  0.25080000  0.67420000  0.57930000  1.0 -0.4597344451
O  O1  1  0.12950000  0.24270000  0.70680000  1.0 -0.5965667569
O  O2  1  0.87050000  0.75730000  0.20680000  1.0 -0.5965667569
O  O3  1  0.75730000  0.87050000  0.20680000  1.0 -0.5965667569
O  O4  1  0.24270000  0.12950000  0.70680000  1.0 -0.5965667569
O  O5  1  0.05790000  0.17830000  0.56870000  1.0 -0.5164391004
O  O6  1  0.94210000  0.82170000  0.06870000  1.0 -0.5164391004
O  O7  1  0.82170000  0.94210000  0.06870000  1.0 -0.5164391004
O  O8  1  0.17830000  0.05790000  0.56870000  1.0 -0.5164391004
O  O9  1  0.94210000  0.04810000  0.73500000  1.0 -0.6125322186
O  O10  1  0.05790000  0.95190000  0.23500000  1.0 -0.6125322186
O  O11  1  0.95190000  0.05790000  0.23500000  1.0 -0.6125322186
O  O12  1  0.04810000  0.94210000  0.73500000  1.0 -0.6125322186
O  O13  1  0.84860000  0.01740000  0.60030000  1.0 -0.5307565533
O  O14  1  0.15140000  0.98260000  0.10030000  1.0 -0.5307565533
O  O15  1  0.98260000  0.15140000  0.10030000  1.0 -0.5307565533
O  O16  1  0.01740000  0.84860000  0.60030000  1.0 -0.5307565533
O  O17  1  0.82520000  0.72280000  0.44250000  1.0 -0.5688799225
O  O18  1  0.17480000  0.27720000  0.94250000  1.0 -0.5688799225
O  O19  1  0.27720000  0.17480000  0.94250000  1.0 -0.5688799225
O  O20  1  0.72280000  0.82520000  0.44250000  1.0 -0.5688799225
O  O21  1  0.75720000  0.61160000  0.34000000  1.0 -0.5307565533
O  O22  1  0.24280000  0.38840000  0.84000000  1.0 -0.5307565533
O  O23  1  0.38840000  0.24280000  0.84000000  1.0 -0.5307565533
O  O24  1  0.61160000  0.75720000  0.34000000  1.0 -0.5307565533
O  O25  1  0.80480000  0.67260000  0.71530000  1.0 -0.5419820153
O  O26  1  0.19520000  0.32740000  0.21530000  1.0 -0.5419820153
O  O27  1  0.32740000  0.19520000  0.21530000  1.0 -0.5419820153
O  O28  1  0.67260000  0.80480000  0.71530000  1.0 -0.5419820153
O  O29  1  0.71330000  0.59590000  0.59680000  1.0 -0.5451479756
O  O30  1  0.28670000  0.40410000  0.09680000  1.0 -0.5451479756
O  O31  1  0.40410000  0.28670000  0.09680000  1.0 -0.5451479756
O  O32  1  0.59590000  0.71330000  0.59680000  1.0 -0.5451479756
O  O33  1  0.86430000  0.86430000  0.62410000  1.0 -0.6643539869
O  O34  1  0.13570000  0.13570000  0.12410000  1.0 -0.6643539869
