# DDEC6 charges by PACMAN v1.1 (https://github.com/mtap-research/PACMAN-charge/)
data_FEXMII_ASR_pacman
_symmetry_space_group_name_H-M   'P 1'
_cell_length_a   9.08160000
_cell_length_b   25.51540000
_cell_length_c   20.90690000
_cell_angle_alpha   90.00000000
_cell_angle_beta   98.40400000
_cell_angle_gamma   90.00000000
_symmetry_Int_Tables_number   1
_chemical_formula_structural   Mg3H16C33(NO8)2
_chemical_formula_sum   'Mg12 H64 C132 N8 O64'
_cell_volume   4792.54034426
_cell_formula_units_Z   4
loop_
 _symmetry_equiv_pos_site_id
 _symmetry_equiv_pos_as_xyz
  1  'x, y, z'
loop_
 _atom_site_type_symbol
 _atom_site_label
 _atom_site_symmetry_multiplicity
 _atom_site_fract_x
 _atom_site_fract_y
 _atom_site_fract_z
 _atom_site_occupancy
 _atom_site_charge
Mg  Mg1  1  0.40655000  0.28169000  0.22809000  1.0 1.1932858442
Mg  Mg2  1  0.09345000  0.28169000  0.77191000  1.0 1.1932858442
Mg  Mg3  1  0.59345000  0.71831000  0.77191000  1.0 1.1932858442
Mg  Mg4  1  0.90655000  0.71831000  0.22809000  1.0 1.1932858442
Mg  Mg5  1  0.25430000  0.37630000  0.12260000  1.0 0.6209533527
Mg  Mg6  1  0.24570000  0.37630000  0.87740000  1.0 0.6260798489
Mg  Mg7  1  0.74570000  0.62370000  0.87740000  1.0 0.6209533527
Mg  Mg8  1  0.75430000  0.62370000  0.12260000  1.0 0.6209533527
Mg  Mg9  1  0.30380000  0.36970000  0.12100000  1.0 0.602206368
Mg  Mg10  1  0.19620000  0.36970000  0.87900000  1.0 0.5935515796
Mg  Mg11  1  0.69620000  0.63030000  0.87900000  1.0 0.602206368
Mg  Mg12  1  0.80380000  0.63030000  0.12100000  1.0 0.602206368
H  H1  1  0.54784000  0.44293000  0.45911000  1.0 0.1105933803
H  H2  1  0.95216000  0.44293000  0.54089000  1.0 0.1105933803
H  H3  1  0.45216000  0.55707000  0.54089000  1.0 0.1105933803
H  H4  1  0.04784000  0.55707000  0.45911000  1.0 0.1105933803
H  H5  1  0.43111000  0.38913000  0.38012000  1.0 0.1185830547
H  H6  1  0.06889000  0.38913000  0.61988000  1.0 0.1185830547
H  H7  1  0.56889000  0.61087000  0.61988000  1.0 0.1185830547
H  H8  1  0.93111000  0.61087000  0.38012000  1.0 0.1185830547
H  H9  1  0.60966000  0.55110000  0.32380000  1.0 0.1105933803
H  H10  1  0.89034000  0.55110000  0.67620000  1.0 0.1105933803
H  H11  1  0.39034000  0.44890000  0.67620000  1.0 0.1105933803
H  H12  1  0.10966000  0.44890000  0.32380000  1.0 0.1105933803
H  H13  1  0.36868000  0.58022000  0.41502000  1.0 0.1105933803
H  H14  1  0.13132000  0.58022000  0.58498000  1.0 0.1105933803
H  H15  1  0.63132000  0.41978000  0.58498000  1.0 0.1105933803
H  H16  1  0.86868000  0.41978000  0.41502000  1.0 0.1105933803
H  H17  1  0.20281000  0.63599000  0.35054000  1.0 0.1105933803
H  H18  1  0.29719000  0.63599000  0.64946000  1.0 0.1105933803
H  H19  1  0.79719000  0.36401000  0.64946000  1.0 0.1105933803
H  H20  1  0.70281000  0.36401000  0.35054000  1.0 0.1105933803
H  H21  1  0.70898000  0.67744000  0.39388000  1.0 0.1185830547
H  H22  1  0.79102000  0.67744000  0.60612000  1.0 0.1185830547
H  H23  1  0.29102000  0.32256000  0.60612000  1.0 0.1185830547
H  H24  1  0.20898000  0.32256000  0.39388000  1.0 0.1185830547
H  H25  1  0.66066000  0.91692000  0.05359000  1.0 0.1105933803
H  H26  1  0.83934000  0.91692000  0.94641000  1.0 0.1105933803
H  H27  1  0.33934000  0.08308000  0.94641000  1.0 0.1105933803
H  H28  1  0.16066000  0.08308000  0.05359000  1.0 0.1105933803
H  H29  1  0.74987000  0.84723000  0.11756000  1.0 0.1105933803
H  H30  1  0.75013000  0.84723000  0.88244000  1.0 0.1105933803
H  H31  1  0.25013000  0.15277000  0.88244000  1.0 0.1105933803
H  H32  1  0.24987000  0.15277000  0.11756000  1.0 0.1105933803
H  H33  1  0.05978000  0.99051000  0.09957000  1.0 0.1105933803
H  H34  1  0.44022000  0.99051000  0.90043000  1.0 0.1105933803
H  H35  1  0.94022000  0.00949000  0.90043000  1.0 0.1105933803
H  H36  1  0.55978000  0.00949000  0.09957000  1.0 0.1105933803
H  H37  1  0.48924000  0.49579000  0.24409000  1.0 0.1291928132
H  H38  1  0.01076000  0.49579000  0.75591000  1.0 0.1291928132
H  H39  1  0.51076000  0.50421000  0.75591000  1.0 0.1291928132
H  H40  1  0.98924000  0.50421000  0.24409000  1.0 0.1291928132
H  H41  1  0.14348000  0.92051000  0.16520000  1.0 0.1185830547
H  H42  1  0.35652000  0.92051000  0.83480000  1.0 0.1185830547
H  H43  1  0.85652000  0.07949000  0.83480000  1.0 0.1105933803
H  H44  1  0.64348000  0.07949000  0.16520000  1.0 0.1185830547
H  H45  1  0.54346000  0.73326000  0.32892000  1.0 0.1185830547
H  H46  1  0.95654000  0.73326000  0.67108000  1.0 0.1185830547
H  H47  1  0.45654000  0.26674000  0.67108000  1.0 0.1185830547
H  H48  1  0.04346000  0.26674000  0.32892000  1.0 0.1185830547
H  H49  1  0.87239000  0.13706000  0.14499000  1.0 0.135622329
H  H50  1  0.62761000  0.13706000  0.85501000  1.0 0.135622329
H  H51  1  0.12761000  0.86294000  0.85501000  1.0 0.135622329
H  H52  1  0.37239000  0.86294000  0.14499000  1.0 0.135622329
H  H53  1  0.07428000  0.24325000  0.99899000  1.0 0.1185830547
H  H54  1  0.42572000  0.24325000  0.00101000  1.0 0.1185830547
H  H55  1  0.92572000  0.75675000  0.00101000  1.0 0.1185830547
H  H56  1  0.57428000  0.75675000  0.99899000  1.0 0.1185830547
H  H57  1  0.92950000  0.17190000  0.96150000  1.0 0.1185830547
H  H58  1  0.57050000  0.17190000  0.03850000  1.0 0.1185830547
H  H59  1  0.07050000  0.82810000  0.03850000  1.0 0.1185830547
H  H60  1  0.42950000  0.82810000  0.96150000  1.0 0.1185830547
H  H61  1  0.00864000  0.21204000  0.18213000  1.0 0.1291928132
H  H62  1  0.49136000  0.21204000  0.81787000  1.0 0.1291928132
H  H63  1  0.99136000  0.78796000  0.81787000  1.0 0.1291928132
H  H64  1  0.50864000  0.78796000  0.18213000  1.0 0.1291928132
C  C1  1  0.66770000  0.53641000  0.45220000  1.0 0.1105933803
C  C2  1  0.83230000  0.53641000  0.54780000  1.0 0.1105933803
C  C3  1  0.33230000  0.46359000  0.54780000  1.0 0.1105933803
C  C4  1  0.16770000  0.46359000  0.45220000  1.0 0.1105933803
C  C5  1  0.58940000  0.50274000  0.39950000  1.0 0.04094809
C  C6  1  0.91060000  0.50274000  0.60050000  1.0 0.04094809
C  C7  1  0.41060000  0.49726000  0.60050000  1.0 0.04094809
C  C8  1  0.08940000  0.49726000  0.39950000  1.0 0.04094809
C  C9  1  0.55330000  0.62436000  0.41010000  1.0 0.0341342491
C  C10  1  0.94670000  0.62436000  0.58990000  1.0 0.0341342491
C  C11  1  0.44670000  0.37564000  0.58990000  1.0 0.0341342491
C  C12  1  0.05330000  0.37564000  0.41010000  1.0 0.0341342491
C  C13  1  0.53620000  0.45390000  0.41520000  1.0 -0.1305132348
C  C14  1  0.96380000  0.45390000  0.58480000  1.0 -0.1305132348
C  C15  1  0.46380000  0.54610000  0.58480000  1.0 -0.1305132348
C  C16  1  0.03620000  0.54610000  0.41520000  1.0 -0.1305132348
C  C17  1  0.65810000  0.59120000  0.45460000  1.0 0.1185830547
C  C18  1  0.84190000  0.59120000  0.54540000  1.0 0.1185830547
C  C19  1  0.34190000  0.40880000  0.54540000  1.0 0.1185830547
C  C20  1  0.15810000  0.40880000  0.45460000  1.0 0.1185830547
C  C21  1  0.46830000  0.42200000  0.36840000  1.0 -0.0910479246
C  C22  1  0.03170000  0.42200000  0.63160000  1.0 -0.0910479246
C  C23  1  0.53170000  0.57800000  0.63160000  1.0 -0.0910479246
C  C24  1  0.96830000  0.57800000  0.36840000  1.0 -0.0910479246
C  C25  1  0.57290000  0.51810000  0.33530000  1.0 -0.1407120352
C  C26  1  0.92710000  0.51810000  0.66470000  1.0 -0.1407120352
C  C27  1  0.42710000  0.48190000  0.66470000  1.0 -0.1407120352
C  C28  1  0.07290000  0.48190000  0.33530000  1.0 -0.1407120352
C  C29  1  0.40400000  0.61140000  0.39750000  1.0 -0.1407120352
C  C30  1  0.09600000  0.61140000  0.60250000  1.0 -0.1407120352
C  C31  1  0.59600000  0.38860000  0.60250000  1.0 -0.1407120352
C  C32  1  0.90400000  0.38860000  0.39750000  1.0 -0.1407120352
C  C33  1  0.80070000  0.00795000  0.02910000  1.0 0.1185830547
C  C34  1  0.69930000  0.00795000  0.97090000  1.0 0.1185830547
C  C35  1  0.19930000  0.99205000  0.97090000  1.0 0.1185830547
C  C36  1  0.30070000  0.99205000  0.02910000  1.0 0.1185830547
C  C37  1  0.80980000  0.09840000  0.02570000  1.0 0.1185830547
C  C38  1  0.69020000  0.09840000  0.97430000  1.0 0.1185830547
C  C39  1  0.19020000  0.90160000  0.97430000  1.0 0.1185830547
C  C40  1  0.30980000  0.90160000  0.02570000  1.0 0.1185830547
C  C41  1  0.85220000  0.96132000  0.06890000  1.0 0.04094809
C  C42  1  0.64780000  0.96132000  0.93110000  1.0 0.04094809
C  C43  1  0.14780000  0.03868000  0.93110000  1.0 0.04094809
C  C44  1  0.35220000  0.03868000  0.06890000  1.0 0.04094809
C  C45  1  0.88950000  0.14630000  0.05020000  1.0 0.0466775102
C  C46  1  0.61050000  0.14630000  0.94980000  1.0 0.0466775102
C  C47  1  0.11050000  0.85370000  0.94980000  1.0 0.0466775102
C  C48  1  0.38950000  0.85370000  0.05020000  1.0 0.0466775102
C  C49  1  0.45130000  0.43580000  0.30400000  1.0 -0.0221027279
C  C50  1  0.04870000  0.43580000  0.69600000  1.0 -0.0221027279
C  C51  1  0.54870000  0.56420000  0.69600000  1.0 -0.0221027279
C  C52  1  0.95130000  0.56420000  0.30400000  1.0 -0.0221027279
C  C53  1  0.30570000  0.64440000  0.35890000  1.0 -0.0987279847
C  C54  1  0.19430000  0.64440000  0.64110000  1.0 -0.0987279847
C  C55  1  0.69430000  0.35560000  0.64110000  1.0 -0.0987279847
C  C56  1  0.80570000  0.35560000  0.35890000  1.0 -0.0987279847
C  C57  1  0.60610000  0.66900000  0.38500000  1.0 -0.1193140241
C  C58  1  0.89390000  0.66900000  0.61500000  1.0 -0.1193140241
C  C59  1  0.39390000  0.33100000  0.61500000  1.0 -0.1193140241
C  C60  1  0.10610000  0.33100000  0.38500000  1.0 -0.1193140241
C  C61  1  0.75990000  0.91760000  0.07560000  1.0 -0.1473259191
C  C62  1  0.74010000  0.91760000  0.92440000  1.0 -0.1473259191
C  C63  1  0.24010000  0.08240000  0.92440000  1.0 -0.1473259191
C  C64  1  0.25990000  0.08240000  0.07560000  1.0 -0.1473259191
C  C65  1  0.81350000  0.87630000  0.11370000  1.0 -0.0987279847
C  C66  1  0.68650000  0.87630000  0.88630000  1.0 -0.0987279847
C  C67  1  0.18650000  0.12370000  0.88630000  1.0 -0.0987279847
C  C68  1  0.31350000  0.12370000  0.11370000  1.0 -0.0987279847
C  C69  1  0.99600000  0.96140000  0.10300000  1.0 -0.1407120352
C  C70  1  0.50400000  0.96140000  0.89700000  1.0 -0.1407120352
C  C71  1  0.00400000  0.03860000  0.89700000  1.0 -0.1407120352
C  C72  1  0.49600000  0.03860000  0.10300000  1.0 -0.1407120352
C  C73  1  0.35870000  0.68980000  0.33250000  1.0 -0.0021585304
C  C74  1  0.14130000  0.68980000  0.66750000  1.0 -0.0021585304
C  C75  1  0.64130000  0.31020000  0.66750000  1.0 -0.0021585304
C  C76  1  0.85870000  0.31020000  0.33250000  1.0 -0.0021585304
C  C77  1  0.50270000  0.48490000  0.28800000  1.0 -0.0910479246
C  C78  1  0.99730000  0.48490000  0.71200000  1.0 -0.0910479246
C  C79  1  0.49730000  0.51510000  0.71200000  1.0 -0.0910479246
C  C80  1  0.00270000  0.51510000  0.28800000  1.0 -0.0910479246
C  C81  1  0.95740000  0.87520000  0.14690000  1.0 -0.0292239098
C  C82  1  0.54260000  0.87520000  0.85310000  1.0 -0.0292239098
C  C83  1  0.04260000  0.12480000  0.85310000  1.0 -0.0292239098
C  C84  1  0.45740000  0.12480000  0.14690000  1.0 -0.0292239098
C  C85  1  0.04590000  0.91940000  0.14150000  1.0 -0.1064550234
C  C86  1  0.45410000  0.91940000  0.85850000  1.0 -0.1064550234
C  C87  1  0.95410000  0.08060000  0.85850000  1.0 -0.1064550234
C  C88  1  0.54590000  0.08060000  0.14150000  1.0 -0.1064550234
C  C89  1  0.50730000  0.70210000  0.34610000  1.0 -0.0910479246
C  C90  1  0.99270000  0.70210000  0.65390000  1.0 -0.0910479246
C  C91  1  0.49270000  0.29790000  0.65390000  1.0 -0.0910479246
C  C92  1  0.00730000  0.29790000  0.34610000  1.0 -0.0910479246
C  C93  1  0.91270000  0.15890000  0.11510000  1.0 -0.0987279847
C  C94  1  0.58730000  0.15890000  0.88490000  1.0 -0.0987279847
C  C95  1  0.08730000  0.84110000  0.88490000  1.0 -0.0987279847
C  C96  1  0.41270000  0.84110000  0.11510000  1.0 -0.0987279847
C  C97  1  0.03170000  0.22190000  0.02870000  1.0 -0.1193140241
C  C98  1  0.46830000  0.22190000  0.97130000  1.0 -0.1193140241
C  C99  1  0.96830000  0.77810000  0.97130000  1.0 -0.1193140241
C  C100  1  0.53170000  0.77810000  0.02870000  1.0 -0.1193140241
C  C101  1  0.94790000  0.17920000  0.00650000  1.0 -0.1193140241
C  C102  1  0.55210000  0.17920000  0.99350000  1.0 -0.1193140241
C  C103  1  0.05210000  0.82080000  0.99350000  1.0 -0.1193140241
C  C104  1  0.44790000  0.82080000  0.00650000  1.0 -0.1193140241
C  C105  1  0.24620000  0.72490000  0.29150000  1.0 0.602206368
C  C106  1  0.25380000  0.72490000  0.70850000  1.0 0.602206368
C  C107  1  0.75380000  0.27510000  0.70850000  1.0 0.602206368
C  C108  1  0.74620000  0.27510000  0.29150000  1.0 0.602206368
C  C109  1  0.01400000  0.82910000  0.18640000  1.0 0.5935515796
C  C110  1  0.48600000  0.82910000  0.81360000  1.0 0.5935515796
C  C111  1  0.98600000  0.17090000  0.81360000  1.0 0.5935515796
C  C112  1  0.51400000  0.17090000  0.18640000  1.0 0.5935515796
C  C113  1  0.05480000  0.23420000  0.09340000  1.0 -0.0468007289
C  C114  1  0.44520000  0.23420000  0.90660000  1.0 -0.0468007289
C  C115  1  0.94520000  0.76580000  0.90660000  1.0 -0.0468007289
C  C116  1  0.55480000  0.76580000  0.09340000  1.0 -0.0468007289
C  C117  1  0.38210000  0.39890000  0.25260000  1.0 0.602206368
C  C118  1  0.11790000  0.39890000  0.74740000  1.0 0.602206368
C  C119  1  0.61790000  0.60110000  0.74740000  1.0 0.602206368
C  C120  1  0.88210000  0.60110000  0.25260000  1.0 0.602206368
C  C121  1  0.99460000  0.20320000  0.13750000  1.0 -0.0910479246
C  C122  1  0.50540000  0.20320000  0.86250000  1.0 -0.0910479246
C  C123  1  0.00540000  0.79680000  0.86250000  1.0 -0.0910479246
C  C124  1  0.49460000  0.79680000  0.13750000  1.0 -0.0910479246
C  C125  1  0.14330000  0.28010000  0.11790000  1.0 0.3010498499
C  C126  1  0.35670000  0.28010000  0.88210000  1.0 0.3010498499
C  C127  1  0.85670000  0.71990000  0.88210000  1.0 0.3010498499
C  C128  1  0.64330000  0.71990000  0.11790000  1.0 0.3010498499
C  C129  1  0.17100000  0.29600000  0.09790000  1.0 0.2009050613
C  C130  1  0.32900000  0.29600000  0.90210000  1.0 0.2009050613
C  C131  1  0.82900000  0.70400000  0.90210000  1.0 0.2009050613
C  C132  1  0.67100000  0.70400000  0.09790000  1.0 0.2009050613
N  N1  1  0.75000000  0.50940000  0.50000000  1.0 -0.2995320941
N  N2  1  0.25000000  0.49060000  0.50000000  1.0 -0.2995320941
N  N3  1  0.75000000  0.61750000  0.50000000  1.0 -0.2810311402
N  N4  1  0.25000000  0.38250000  0.50000000  1.0 -0.2810311402
N  N5  1  0.85860000  0.05301000  0.05350000  1.0 -0.2810311402
N  N6  1  0.64140000  0.05301000  0.94650000  1.0 -0.2810311402
N  N7  1  0.14140000  0.94699000  0.94650000  1.0 -0.2810311402
N  N8  1  0.35860000  0.94699000  0.05350000  1.0 -0.2810311402
O  O1  1  0.36940000  0.35164000  0.26790000  1.0 -0.6388073648
O  O2  1  0.13060000  0.35164000  0.73210000  1.0 -0.6388073648
O  O3  1  0.63060000  0.64836000  0.73210000  1.0 -0.6388073648
O  O4  1  0.86940000  0.64836000  0.26790000  1.0 -0.6388073648
O  O5  1  0.14340000  0.83426000  0.21850000  1.0 -0.5000886852
O  O6  1  0.35660000  0.83426000  0.78150000  1.0 -0.5000886852
O  O7  1  0.85660000  0.16574000  0.78150000  1.0 -0.5000886852
O  O8  1  0.64340000  0.16574000  0.21850000  1.0 -0.5000886852
O  O9  1  0.93800000  0.78828000  0.18350000  1.0 -0.6549133147
O  O10  1  0.56200000  0.78828000  0.81650000  1.0 -0.6549133147
O  O11  1  0.06200000  0.21172000  0.81650000  1.0 -0.655379423
O  O12  1  0.43800000  0.21172000  0.18350000  1.0 -0.655379423
O  O13  1  0.30100000  0.76892000  0.27690000  1.0 -0.5099980916
O  O14  1  0.19900000  0.76892000  0.72310000  1.0 -0.5099980916
O  O15  1  0.69900000  0.23108000  0.72310000  1.0 -0.5099980916
O  O16  1  0.80100000  0.23108000  0.27690000  1.0 -0.5099980916
O  O17  1  0.12070000  0.71100000  0.27660000  1.0 -0.5995527789
O  O18  1  0.37930000  0.71100000  0.72340000  1.0 -0.5995527789
O  O19  1  0.87930000  0.28900000  0.72340000  1.0 -0.5995527789
O  O20  1  0.62070000  0.28900000  0.27660000  1.0 -0.5995527789
O  O21  1  0.34760000  0.41690000  0.19690000  1.0 -0.6052773679
O  O22  1  0.15240000  0.41690000  0.80310000  1.0 -0.5995527789
O  O23  1  0.65240000  0.58310000  0.80310000  1.0 -0.5995527789
O  O24  1  0.84760000  0.58310000  0.19690000  1.0 -0.6052773679
O  O25  1  0.13200000  0.31920000  0.09010000  1.0 -0.1193140241
O  O26  1  0.36800000  0.31920000  0.90990000  1.0 -0.1193140241
O  O27  1  0.86800000  0.68080000  0.90990000  1.0 -0.1193140241
O  O28  1  0.63200000  0.68080000  0.09010000  1.0 -0.1193140241
O  O29  1  0.45360000  0.32930000  0.14030000  1.0 -0.1473259191
O  O30  1  0.04640000  0.32930000  0.85970000  1.0 -0.1473259191
O  O31  1  0.54640000  0.67070000  0.85970000  1.0 -0.1473259191
O  O32  1  0.95360000  0.67070000  0.14030000  1.0 -0.1473259191
O  O33  1  0.19570000  0.27630000  0.18780000  1.0 -0.1407120352
O  O34  1  0.30430000  0.27630000  0.81220000  1.0 -0.1407120352
O  O35  1  0.80430000  0.72370000  0.81220000  1.0 -0.1473259191
O  O36  1  0.69570000  0.72370000  0.18780000  1.0 -0.1473259191
O  O37  1  0.06940000  0.40660000  0.11590000  1.0 -0.2414277094
O  O38  1  0.43060000  0.40660000  0.88410000  1.0 -0.2414277094
O  O39  1  0.93060000  0.59340000  0.88410000  1.0 -0.2414277094
O  O40  1  0.56940000  0.59340000  0.11590000  1.0 -0.2414277094
O  O41  1  0.26770000  0.42160000  0.05210000  1.0 -0.1305132348
O  O42  1  0.23230000  0.42160000  0.94790000  1.0 -0.1407120352
O  O43  1  0.73230000  0.57840000  0.94790000  1.0 -0.1305132348
O  O44  1  0.76770000  0.57840000  0.05210000  1.0 -0.1305132348
O  O45  1  0.19570000  0.29520000  0.16320000  1.0 -0.0221027279
O  O46  1  0.30430000  0.29520000  0.83680000  1.0 -0.0221027279
O  O47  1  0.80430000  0.70480000  0.83680000  1.0 -0.0292239098
O  O48  1  0.69570000  0.70480000  0.16320000  1.0 -0.0221027279
O  O49  1  0.18330000  0.31410000  0.06300000  1.0 -0.1193140241
O  O50  1  0.31670000  0.31410000  0.93700000  1.0 -0.1193140241
O  O51  1  0.81670000  0.68590000  0.93700000  1.0 -0.1193140241
O  O52  1  0.68330000  0.68590000  0.06300000  1.0 -0.1193140241
O  O53  1  0.48700000  0.31250000  0.16040000  1.0 -0.081088855
O  O54  1  0.01300000  0.31250000  0.83960000  1.0 -0.081088855
O  O55  1  0.51300000  0.68750000  0.83960000  1.0 -0.081088855
O  O56  1  0.98700000  0.68750000  0.16040000  1.0 -0.081088855
O  O57  1  0.00100000  0.40520000  0.15660000  1.0 -0.0143281312
O  O58  1  0.49900000  0.40520000  0.84340000  1.0 -0.0143281312
O  O59  1  0.99900000  0.59480000  0.84340000  1.0 -0.0143281312
O  O60  1  0.50100000  0.59480000  0.15660000  1.0 -0.0143281312
O  O61  1  0.37130000  0.41210000  0.05650000  1.0 -0.1984744753
O  O62  1  0.12870000  0.41210000  0.94350000  1.0 -0.1888849969
O  O63  1  0.62870000  0.58790000  0.94350000  1.0 -0.1984744753
O  O64  1  0.87130000  0.58790000  0.05650000  1.0 -0.1984744753
