# DDEC6 charges by PACMAN v1.1 (https://github.com/mtap-research/PACMAN-charge/)
data_FEYJOJ_FSR_pacman
_symmetry_space_group_name_H-M   'P 1'
_cell_length_a   14.27900000
_cell_length_b   13.00600000
_cell_length_c   21.23240000
_cell_angle_alpha   90.00000000
_cell_angle_beta   125.01600000
_cell_angle_gamma   90.00000000
_symmetry_Int_Tables_number   1
_chemical_formula_structural   Co2H28C24N2O11
_chemical_formula_sum   'Co8 H112 C96 N8 O44'
_cell_volume   3229.38783585
_cell_formula_units_Z   4
loop_
 _symmetry_equiv_pos_site_id
 _symmetry_equiv_pos_as_xyz
  1  'x, y, z'
loop_
 _atom_site_type_symbol
 _atom_site_label
 _atom_site_symmetry_multiplicity
 _atom_site_fract_x
 _atom_site_fract_y
 _atom_site_fract_z
 _atom_site_occupancy
 _atom_site_charge
Co  Co1  1  0.77541000  0.93298000  0.77396000  1.0 0.9167857622
Co  Co2  1  0.22459000  0.43298000  0.72604000  1.0 0.9167857622
Co  Co3  1  0.22459000  0.06702000  0.22604000  1.0 0.9167857622
Co  Co4  1  0.77541000  0.56702000  0.27396000  1.0 0.9167857622
Co  Co5  1  0.70067000  0.72838000  0.13121000  1.0 1.0360276853
Co  Co6  1  0.29933000  0.22838000  0.36879000  1.0 1.034117118
Co  Co7  1  0.29933000  0.27162000  0.86879000  1.0 1.034117118
Co  Co8  1  0.70067000  0.77162000  0.63121000  1.0 1.034117118
H  H1  1  0.99810000  0.39820000  0.22540000  1.0 0.1406782702
H  H2  1  0.00190000  0.89820000  0.27460000  1.0 0.1406782702
H  H3  1  0.00190000  0.60180000  0.77460000  1.0 0.1406782702
H  H4  1  0.99810000  0.10180000  0.72540000  1.0 0.1406782702
H  H5  1  0.70610000  0.44450000  0.01460000  1.0 0.1195588556
H  H6  1  0.29390000  0.94450000  0.48540000  1.0 0.1195588556
H  H7  1  0.29390000  0.55550000  0.98540000  1.0 0.1195588556
H  H8  1  0.70610000  0.05550000  0.51460000  1.0 0.1195588556
H  H9  1  0.91480000  0.20840000  0.05010000  1.0 0.1195588556
H  H10  1  0.08520000  0.70840000  0.44990000  1.0 0.1195588556
H  H11  1  0.08520000  0.79160000  0.94990000  1.0 0.1195588556
H  H12  1  0.91480000  0.29160000  0.55010000  1.0 0.1195588556
H  H13  1  0.81760000  0.18210000  0.93580000  1.0 0.1195588556
H  H14  1  0.18240000  0.68210000  0.56420000  1.0 0.1195588556
H  H15  1  0.18240000  0.81790000  0.06420000  1.0 0.1195588556
H  H16  1  0.81760000  0.31790000  0.43580000  1.0 0.1195588556
H  H17  1  0.50280000  0.19540000  0.73590000  1.0 0.1301611927
H  H18  1  0.49720000  0.69540000  0.76410000  1.0 0.1301611927
H  H19  1  0.49720000  0.80460000  0.26410000  1.0 0.1301611927
H  H20  1  0.50280000  0.30460000  0.23590000  1.0 0.1301611927
H  H21  1  0.57270000  0.35960000  0.91990000  1.0 0.1088645709
H  H22  1  0.42730000  0.85960000  0.58010000  1.0 0.1088645709
H  H23  1  0.42730000  0.64040000  0.08010000  1.0 0.1088645709
H  H24  1  0.57270000  0.14040000  0.41990000  1.0 0.1088645709
H  H25  1  0.80800000  0.73060000  0.04570000  1.0 0.1301611927
H  H26  1  0.19200000  0.23060000  0.45430000  1.0 0.1301611927
H  H27  1  0.19200000  0.26940000  0.95430000  1.0 0.1301611927
H  H28  1  0.80800000  0.76940000  0.54570000  1.0 0.1301611927
H  H29  1  0.99790000  0.81880000  0.02900000  1.0 0.0906338245
H  H30  1  0.00210000  0.31880000  0.47100000  1.0 0.0906338245
H  H31  1  0.00210000  0.18120000  0.97100000  1.0 0.0906338245
H  H32  1  0.99790000  0.68120000  0.52900000  1.0 0.0906338245
H  H33  1  0.88560000  0.85890000  0.95040000  1.0 0.0777588198
H  H34  1  0.11440000  0.35890000  0.54960000  1.0 0.0777588198
H  H35  1  0.11440000  0.14110000  0.04960000  1.0 0.0777588198
H  H36  1  0.88560000  0.64110000  0.45040000  1.0 0.0777588198
H  H37  1  0.88750000  0.74650000  0.98180000  1.0 0.1022760078
H  H38  1  0.11250000  0.24650000  0.51820000  1.0 0.1022760078
H  H39  1  0.11250000  0.25350000  0.01820000  1.0 0.1022760078
H  H40  1  0.88750000  0.75350000  0.48180000  1.0 0.1022760078
H  H41  1  0.82520000  0.98900000  0.06980000  1.0 0.0906338245
H  H42  1  0.17480000  0.48900000  0.43020000  1.0 0.0906338245
H  H43  1  0.17480000  0.01100000  0.93020000  1.0 0.0906338245
H  H44  1  0.82520000  0.51100000  0.56980000  1.0 0.0906338245
H  H45  1  0.83030000  0.00390000  0.99700000  1.0 0.1022760078
H  H46  1  0.16970000  0.50390000  0.50300000  1.0 0.1022760078
H  H47  1  0.16970000  0.99610000  0.00300000  1.0 0.1022760078
H  H48  1  0.83030000  0.49610000  0.49700000  1.0 0.1022760078
H  H49  1  0.94600000  0.99830000  0.08160000  1.0 0.0777588198
H  H50  1  0.05400000  0.49830000  0.41840000  1.0 0.0777588198
H  H51  1  0.05400000  0.00170000  0.91840000  1.0 0.0777588198
H  H52  1  0.94600000  0.50170000  0.58160000  1.0 0.0777588198
H  H53  1  0.50640000  0.89770000  0.05480000  1.0 0.0906338245
H  H54  1  0.49360000  0.39770000  0.44520000  1.0 0.0906338245
H  H55  1  0.49360000  0.10230000  0.94520000  1.0 0.0906338245
H  H56  1  0.50640000  0.60230000  0.55480000  1.0 0.0906338245
H  H57  1  0.52270000  0.02410000  0.22430000  1.0 0.1301611927
H  H58  1  0.47730000  0.52410000  0.27570000  1.0 0.1301611927
H  H59  1  0.47730000  0.97590000  0.77570000  1.0 0.1301611927
H  H60  1  0.52270000  0.47590000  0.72430000  1.0 0.1301611927
H  H61  1  0.60430000  0.09470000  0.21340000  1.0 0.1301611927
H  H62  1  0.39570000  0.59470000  0.28660000  1.0 0.1301611927
H  H63  1  0.39570000  0.90530000  0.78660000  1.0 0.1301611927
H  H64  1  0.60430000  0.40530000  0.71340000  1.0 0.1301611927
H  H65  1  0.64000000  0.97860000  0.24260000  1.0 0.1406782702
H  H66  1  0.36000000  0.47860000  0.25740000  1.0 0.1406782702
H  H67  1  0.36000000  0.02140000  0.75740000  1.0 0.1406782702
H  H68  1  0.64000000  0.52140000  0.74260000  1.0 0.1406782702
H  H69  1  0.38860000  0.02140000  0.02120000  1.0 0.1088645709
H  H70  1  0.61140000  0.52140000  0.47880000  1.0 0.1088645709
H  H71  1  0.61140000  0.97860000  0.97880000  1.0 0.1088645709
H  H72  1  0.38860000  0.47860000  0.52120000  1.0 0.1088645709
H  H73  1  0.42860000  0.11900000  0.07690000  1.0 0.1195588556
H  H74  1  0.57140000  0.61900000  0.42310000  1.0 0.1195588556
H  H75  1  0.57140000  0.88100000  0.92310000  1.0 0.1195588556
H  H76  1  0.42860000  0.38100000  0.57690000  1.0 0.1195588556
H  H77  1  0.35280000  0.03120000  0.07990000  1.0 0.1195588556
H  H78  1  0.64720000  0.53120000  0.42010000  1.0 0.1195588556
H  H79  1  0.64720000  0.96880000  0.92010000  1.0 0.1195588556
H  H80  1  0.35280000  0.46880000  0.57990000  1.0 0.1195588556
H  H81  1  0.54950000  0.63720000  0.99580000  1.0 0.4277995084
H  H82  1  0.45050000  0.13720000  0.50420000  1.0 0.4277995084
H  H83  1  0.45050000  0.36280000  0.00420000  1.0 0.4277995084
H  H84  1  0.54950000  0.86280000  0.49580000  1.0 0.4277995084
H  H85  1  0.49050000  0.74330000  0.00010000  1.0 0.4001124953
H  H86  1  0.50950000  0.24330000  0.49990000  1.0 0.4001124953
H  H87  1  0.50950000  0.25670000  0.99990000  1.0 0.4001124953
H  H88  1  0.49050000  0.75670000  0.50010000  1.0 0.4001124953
H  H89  1  0.88120000  0.49200000  0.54370000  1.0 0.0777588198
H  H90  1  0.11880000  0.99200000  0.95630000  1.0 0.0777588198
H  H91  1  0.11880000  0.50800000  0.45630000  1.0 0.0777588198
H  H92  1  0.88120000  0.00800000  0.04370000  1.0 0.0777588198
H  H93  1  0.00040000  0.55080000  0.58120000  1.0 0.1088645709
H  H94  1  0.99960000  0.05080000  0.91880000  1.0 0.1088645709
H  H95  1  0.99960000  0.44920000  0.41880000  1.0 0.1088645709
H  H96  1  0.00040000  0.94920000  0.08120000  1.0 0.1088645709
H  H97  1  0.94070000  0.54600000  0.62590000  1.0 0.1088645709
H  H98  1  0.05930000  0.04600000  0.87410000  1.0 0.1088645709
H  H99  1  0.05930000  0.45400000  0.37410000  1.0 0.1088645709
H  H100  1  0.94070000  0.95400000  0.12590000  1.0 0.1088645709
H  H101  1  0.85860000  0.60380000  0.45190000  1.0 0.0906338245
H  H102  1  0.14140000  0.10380000  0.04810000  1.0 0.0906338245
H  H103  1  0.14140000  0.39620000  0.54810000  1.0 0.0906338245
H  H104  1  0.85860000  0.89620000  0.95190000  1.0 0.0906338245
H  H105  1  0.74330000  0.64350000  0.43990000  1.0 0.1022760078
H  H106  1  0.25670000  0.14350000  0.06010000  1.0 0.1022760078
H  H107  1  0.25670000  0.35650000  0.56010000  1.0 0.1022760078
H  H108  1  0.74330000  0.85650000  0.93990000  1.0 0.1022760078
H  H109  1  0.84310000  0.72330000  0.46170000  1.0 0.0906338245
H  H110  1  0.15690000  0.22330000  0.03830000  1.0 0.0906338245
H  H111  1  0.15690000  0.27670000  0.53830000  1.0 0.0906338245
H  H112  1  0.84310000  0.77670000  0.96170000  1.0 0.0906338245
C  C1  1  0.94746000  0.37900000  0.17286000  1.0 -0.113182291
C  C2  1  0.05254000  0.87900000  0.32714000  1.0 -0.113182291
C  C3  1  0.05254000  0.62100000  0.82714000  1.0 -0.113182291
C  C4  1  0.94746000  0.12100000  0.67286000  1.0 -0.113182291
C  C5  1  0.81460000  0.51810000  0.15660000  1.0 0.593628541
C  C6  1  0.18540000  0.01810000  0.34340000  1.0 0.593628541
C  C7  1  0.18540000  0.48190000  0.84340000  1.0 0.593628541
C  C8  1  0.81460000  0.98190000  0.65660000  1.0 0.593628541
C  C9  1  0.84720000  0.43350000  0.12470000  1.0 -0.0135407853
C  C10  1  0.15280000  0.93350000  0.37530000  1.0 -0.0135407853
C  C11  1  0.15280000  0.56650000  0.87530000  1.0 -0.0135407853
C  C12  1  0.84720000  0.06650000  0.62470000  1.0 -0.0135407853
C  C13  1  0.77290000  0.40470000  0.04820000  1.0 -0.1815902726
C  C14  1  0.22710000  0.90470000  0.45180000  1.0 -0.1815902726
C  C15  1  0.22710000  0.59530000  0.95180000  1.0 -0.1815902726
C  C16  1  0.77290000  0.09530000  0.54820000  1.0 -0.1815902726
C  C17  1  0.71090000  0.28040000  0.93990000  1.0 0.0777588198
C  C18  1  0.28910000  0.78040000  0.56010000  1.0 0.0777588198
C  C19  1  0.28910000  0.71960000  0.06010000  1.0 0.0777588198
C  C20  1  0.71090000  0.21960000  0.43990000  1.0 0.0777588198
C  C21  1  0.97420000  0.29700000  0.14470000  1.0 -0.0135407853
C  C22  1  0.02580000  0.79700000  0.35530000  1.0 -0.0135407853
C  C23  1  0.02580000  0.70300000  0.85530000  1.0 -0.0135407853
C  C24  1  0.97420000  0.20300000  0.64470000  1.0 -0.0135407853
C  C25  1  0.79480000  0.31820000  0.02000000  1.0 0.0662905206
C  C26  1  0.20520000  0.81820000  0.48000000  1.0 0.0662905206
C  C27  1  0.20520000  0.68180000  0.98000000  1.0 0.0662905206
C  C28  1  0.79480000  0.18180000  0.52000000  1.0 0.0662905206
C  C29  1  0.89720000  0.26620000  0.06890000  1.0 -0.1612146083
C  C30  1  0.10280000  0.76620000  0.43110000  1.0 -0.1612146083
C  C31  1  0.10280000  0.73380000  0.93110000  1.0 -0.1612146083
C  C32  1  0.89720000  0.23380000  0.56890000  1.0 -0.1612146083
C  C33  1  0.74190000  0.20870000  0.90660000  1.0 -0.1815902726
C  C34  1  0.25810000  0.70870000  0.59340000  1.0 -0.1815902726
C  C35  1  0.25810000  0.79130000  0.09340000  1.0 -0.1815902726
C  C36  1  0.74190000  0.29130000  0.40660000  1.0 -0.1815902726
C  C37  1  0.70040000  0.09230000  0.80000000  1.0 0.5365031962
C  C38  1  0.29960000  0.59230000  0.70000000  1.0 0.5365031962
C  C39  1  0.29960000  0.90770000  0.20000000  1.0 0.5365031962
C  C40  1  0.70040000  0.40770000  0.30000000  1.0 0.5365031962
C  C41  1  0.52150000  0.28340000  0.82200000  1.0 -0.0135407853
C  C42  1  0.47850000  0.78340000  0.67800000  1.0 -0.0135407853
C  C43  1  0.47850000  0.71660000  0.17800000  1.0 -0.0135407853
C  C44  1  0.52150000  0.21660000  0.32200000  1.0 -0.0135407853
C  C45  1  0.40300000  0.32500000  0.77660000  1.0 0.5585655276
C  C46  1  0.59700000  0.82500000  0.72340000  1.0 0.5585655276
C  C47  1  0.59700000  0.67500000  0.22340000  1.0 0.5585655276
C  C48  1  0.40300000  0.17500000  0.27660000  1.0 0.5585655276
C  C49  1  0.55480000  0.21480000  0.78820000  1.0 -0.1262862902
C  C50  1  0.44520000  0.71480000  0.71180000  1.0 -0.1262862902
C  C51  1  0.44520000  0.78520000  0.21180000  1.0 -0.1262862902
C  C52  1  0.55480000  0.28520000  0.28820000  1.0 -0.1262862902
C  C53  1  0.59750000  0.31450000  0.89700000  1.0 -0.1815902726
C  C54  1  0.40250000  0.81450000  0.60300000  1.0 -0.1815902726
C  C55  1  0.40250000  0.68550000  0.10300000  1.0 -0.1815902726
C  C56  1  0.59750000  0.18550000  0.39700000  1.0 -0.1815902726
C  C57  1  0.66530000  0.17500000  0.83190000  1.0 0.0090499748
C  C58  1  0.33470000  0.67500000  0.66810000  1.0 0.0090499748
C  C59  1  0.33470000  0.82500000  0.16810000  1.0 0.0090499748
C  C60  1  0.66530000  0.32500000  0.33190000  1.0 0.0090499748
C  C61  1  0.08350000  0.23770000  0.19520000  1.0 0.5656368886
C  C62  1  0.91650000  0.73770000  0.30480000  1.0 0.5656368886
C  C63  1  0.91650000  0.76230000  0.80480000  1.0 0.5656368886
C  C64  1  0.08350000  0.26230000  0.69520000  1.0 0.5656368886
C  C65  1  0.81120000  0.80100000  0.05880000  1.0 0.1088645709
C  C66  1  0.18880000  0.30100000  0.44120000  1.0 0.1088645709
C  C67  1  0.18880000  0.19900000  0.94120000  1.0 0.1088645709
C  C68  1  0.81120000  0.69900000  0.55880000  1.0 0.1088645709
C  C69  1  0.91410000  0.81760000  0.99660000  1.0 -0.2189052249
C  C70  1  0.08590000  0.31760000  0.50340000  1.0 -0.2189052249
C  C71  1  0.08590000  0.18240000  0.00340000  1.0 -0.2189052249
C  C72  1  0.91410000  0.68240000  0.49660000  1.0 -0.2189052249
C  C73  1  0.86800000  0.97200000  0.04800000  1.0 -0.1815902726
C  C74  1  0.13200000  0.47200000  0.45200000  1.0 -0.1815902726
C  C75  1  0.13200000  0.02800000  0.95200000  1.0 -0.1815902726
C  C76  1  0.86800000  0.52800000  0.54800000  1.0 -0.1815902726
C  C77  1  0.55220000  0.91330000  0.10820000  1.0 0.2787112225
C  C78  1  0.44780000  0.41330000  0.39180000  1.0 0.2787112225
C  C79  1  0.44780000  0.08670000  0.89180000  1.0 0.2787112225
C  C80  1  0.55220000  0.58670000  0.60820000  1.0 0.2787112225
C  C81  1  0.57570000  0.02470000  0.20900000  1.0 -0.3350299145
C  C82  1  0.42430000  0.52470000  0.29100000  1.0 -0.3350299145
C  C83  1  0.42430000  0.97530000  0.79100000  1.0 -0.3350299145
C  C84  1  0.57570000  0.47530000  0.70900000  1.0 -0.3350299145
C  C85  1  0.41320000  0.04500000  0.07240000  1.0 -0.3766182955
C  C86  1  0.58680000  0.54500000  0.42760000  1.0 -0.3766182955
C  C87  1  0.58680000  0.95500000  0.92760000  1.0 -0.3766182955
C  C88  1  0.41320000  0.45500000  0.57240000  1.0 -0.3766182955
C  C89  1  0.92700000  0.55090000  0.57520000  1.0 -0.1472200374
C  C90  1  0.07300000  0.05090000  0.92480000  1.0 -0.1472200374
C  C91  1  0.07300000  0.44910000  0.42480000  1.0 -0.1472200374
C  C92  1  0.92700000  0.94910000  0.07520000  1.0 -0.1472200374
C  C93  1  0.82600000  0.65300000  0.46900000  1.0 -0.1612146083
C  C94  1  0.17400000  0.15300000  0.03100000  1.0 -0.1612146083
C  C95  1  0.17400000  0.34700000  0.53100000  1.0 -0.1612146083
C  C96  1  0.82600000  0.84700000  0.96900000  1.0 -0.1612146083
N  N1  1  0.87040000  0.86130000  0.04060000  1.0 0.0472182152
N  N2  1  0.12960000  0.36130000  0.45940000  1.0 0.0472182152
N  N3  1  0.12960000  0.13870000  0.95940000  1.0 0.0472182152
N  N4  1  0.87040000  0.63870000  0.54060000  1.0 0.0472182152
N  N5  1  0.51700000  0.99050000  0.13080000  1.0 0.0263296812
N  N6  1  0.48300000  0.49050000  0.36920000  1.0 0.0263296812
N  N7  1  0.48300000  0.00950000  0.86920000  1.0 0.0263296812
N  N8  1  0.51700000  0.50950000  0.63080000  1.0 0.0263296812
O  O1  1  0.64056000  0.07290000  0.72976000  1.0 -0.534375831
O  O2  1  0.35944000  0.57290000  0.77024000  1.0 -0.534375831
O  O3  1  0.35944000  0.92710000  0.27024000  1.0 -0.534375831
O  O4  1  0.64056000  0.42710000  0.22976000  1.0 -0.534375831
O  O5  1  0.78972000  0.04160000  0.84720000  1.0 -0.5594398673
O  O6  1  0.21028000  0.54160000  0.65280000  1.0 -0.5594398673
O  O7  1  0.21028000  0.95840000  0.15280000  1.0 -0.5594398673
O  O8  1  0.78972000  0.45840000  0.34720000  1.0 -0.5594398673
O  O9  1  0.84661000  0.50460000  0.22530000  1.0 -0.5478142347
O  O10  1  0.15339000  0.00460000  0.27470000  1.0 -0.5478142347
O  O11  1  0.15339000  0.49540000  0.77470000  1.0 -0.5478142347
O  O12  1  0.84661000  0.99540000  0.72530000  1.0 -0.5478142347
O  O13  1  0.75858000  0.59220000  0.11409000  1.0 -0.5928952242
O  O14  1  0.24142000  0.09220000  0.38591000  1.0 -0.5928952242
O  O15  1  0.24142000  0.40780000  0.88591000  1.0 -0.5928952242
O  O16  1  0.75858000  0.90780000  0.61409000  1.0 -0.5928952242
O  O17  1  0.10189000  0.16710000  0.16287000  1.0 -0.5594398673
O  O18  1  0.89811000  0.66710000  0.33713000  1.0 -0.5594398673
O  O19  1  0.89811000  0.83290000  0.83713000  1.0 -0.5594398673
O  O20  1  0.10189000  0.33290000  0.66287000  1.0 -0.5594398673
O  O21  1  0.14661000  0.26190000  0.26415000  1.0 -0.5799212898
O  O22  1  0.85339000  0.76190000  0.23585000  1.0 -0.5799212898
O  O23  1  0.85339000  0.73810000  0.73585000  1.0 -0.5799212898
O  O24  1  0.14661000  0.23810000  0.76415000  1.0 -0.5799212898
O  O25  1  0.36172000  0.35584000  0.81414000  1.0 -0.6135744746
O  O26  1  0.63828000  0.85584000  0.68586000  1.0 -0.6135744746
O  O27  1  0.63828000  0.64416000  0.18586000  1.0 -0.6135744746
O  O28  1  0.36172000  0.14416000  0.31414000  1.0 -0.6135744746
O  O29  1  0.34862000  0.33590000  0.70637000  1.0 -0.5038860361
O  O30  1  0.65138000  0.83590000  0.79363000  1.0 -0.5038860361
O  O31  1  0.65138000  0.66410000  0.29363000  1.0 -0.5038860361
O  O32  1  0.34862000  0.16410000  0.20637000  1.0 -0.5038860361
O  O33  1  0.76790000  0.81750000  0.08490000  1.0 -0.3926940407
O  O34  1  0.23210000  0.31750000  0.41510000  1.0 -0.3926940407
O  O35  1  0.23210000  0.18250000  0.91510000  1.0 -0.3926940407
O  O36  1  0.76790000  0.68250000  0.58490000  1.0 -0.3926940407
O  O37  1  0.63440000  0.86190000  0.14760000  1.0 -0.4198416616
O  O38  1  0.36560000  0.36190000  0.35240000  1.0 -0.4198416616
O  O39  1  0.36560000  0.13810000  0.85240000  1.0 -0.4198416616
O  O40  1  0.63440000  0.63810000  0.64760000  1.0 -0.4198416616
O  O41  1  0.55364000  0.69740000  0.02274000  1.0 -0.765839919
O  O42  1  0.44636000  0.19740000  0.47726000  1.0 -0.765839919
O  O43  1  0.44636000  0.30260000  0.97726000  1.0 -0.765839919
O  O44  1  0.55364000  0.80260000  0.52274000  1.0 -0.765839919
