# DDEC6 charges by PACMAN v1.1 (https://github.com/mtap-research/PACMAN-charge/)
data_FEYZUF_FSR_pacman
_symmetry_space_group_name_H-M   'P 1'
_cell_length_a   7.65200000
_cell_length_b   19.62400000
_cell_length_c   21.87000000
_cell_angle_alpha   90.00000000
_cell_angle_beta   90.00000000
_cell_angle_gamma   90.00000000
_symmetry_Int_Tables_number   1
_chemical_formula_structural   EuH20C11O7
_chemical_formula_sum   'Eu8 H160 C88 O56'
_cell_volume   3284.06148576
_cell_formula_units_Z   8
loop_
 _symmetry_equiv_pos_site_id
 _symmetry_equiv_pos_as_xyz
  1  'x, y, z'
loop_
 _atom_site_type_symbol
 _atom_site_label
 _atom_site_symmetry_multiplicity
 _atom_site_fract_x
 _atom_site_fract_y
 _atom_site_fract_z
 _atom_site_occupancy
 _atom_site_charge
Eu  Eu1  1  0.92477000  0.94608000  0.78070000  1.0 1.9808107069
Eu  Eu2  1  0.57523000  0.44608000  0.71930000  1.0 1.9808107069
Eu  Eu3  1  0.92477000  0.55392000  0.21930000  1.0 1.9808107069
Eu  Eu4  1  0.57523000  0.05392000  0.28070000  1.0 1.9808107069
Eu  Eu5  1  0.07523000  0.05392000  0.21930000  1.0 1.9808107069
Eu  Eu6  1  0.42477000  0.55392000  0.28070000  1.0 1.9808107069
Eu  Eu7  1  0.07523000  0.44608000  0.78070000  1.0 1.9808107069
Eu  Eu8  1  0.42477000  0.94608000  0.71930000  1.0 1.9808107069
H  H1  1  0.09040000  0.99970000  0.89020000  1.0 0.3776736906
H  H2  1  0.40960000  0.49970000  0.60980000  1.0 0.3776736906
H  H3  1  0.09040000  0.50030000  0.10980000  1.0 0.3776736906
H  H4  1  0.40960000  0.00030000  0.39020000  1.0 0.3776736906
H  H5  1  0.90960000  0.00030000  0.10980000  1.0 0.3776736906
H  H6  1  0.59040000  0.50030000  0.39020000  1.0 0.3776736906
H  H7  1  0.90960000  0.49970000  0.89020000  1.0 0.3776736906
H  H8  1  0.59040000  0.99970000  0.60980000  1.0 0.3776736906
H  H9  1  0.21350000  0.96070000  0.85860000  1.0 0.3615218079
H  H10  1  0.28650000  0.46070000  0.64140000  1.0 0.3615218079
H  H11  1  0.21350000  0.53930000  0.14140000  1.0 0.3615218079
H  H12  1  0.28650000  0.03930000  0.35860000  1.0 0.3615218079
H  H13  1  0.78650000  0.03930000  0.14140000  1.0 0.3615218079
H  H14  1  0.71350000  0.53930000  0.35860000  1.0 0.3615218079
H  H15  1  0.78650000  0.46070000  0.85860000  1.0 0.3615218079
H  H16  1  0.71350000  0.96070000  0.64140000  1.0 0.3615218079
H  H17  1  0.03210000  0.13810000  0.73290000  1.0 0.1275283894
H  H18  1  0.46790000  0.63810000  0.76710000  1.0 0.1275283894
H  H19  1  0.03210000  0.36190000  0.26710000  1.0 0.1275283894
H  H20  1  0.46790000  0.86190000  0.23290000  1.0 0.1275283894
H  H21  1  0.96790000  0.86190000  0.26710000  1.0 0.1275283894
H  H22  1  0.53210000  0.36190000  0.23290000  1.0 0.1275283894
H  H23  1  0.96790000  0.63810000  0.73290000  1.0 0.1275283894
H  H24  1  0.53210000  0.13810000  0.76710000  1.0 0.1275283894
H  H25  1  0.96020000  0.09130000  0.68080000  1.0 0.1275283894
H  H26  1  0.53980000  0.59130000  0.81920000  1.0 0.1275283894
H  H27  1  0.96020000  0.40870000  0.31920000  1.0 0.1275283894
H  H28  1  0.53980000  0.90870000  0.18080000  1.0 0.1275283894
H  H29  1  0.03980000  0.90870000  0.31920000  1.0 0.1275283894
H  H30  1  0.46020000  0.40870000  0.18080000  1.0 0.1275283894
H  H31  1  0.03980000  0.59130000  0.68080000  1.0 0.1275283894
H  H32  1  0.46020000  0.09130000  0.81920000  1.0 0.1275283894
H  H33  1  0.00650000  0.19650000  0.64340000  1.0 0.0888940193
H  H34  1  0.49350000  0.69650000  0.85660000  1.0 0.0888940193
H  H35  1  0.00650000  0.30350000  0.35660000  1.0 0.0888940193
H  H36  1  0.49350000  0.80350000  0.14340000  1.0 0.0888940193
H  H37  1  0.99350000  0.80350000  0.35660000  1.0 0.0888940193
H  H38  1  0.50650000  0.30350000  0.14340000  1.0 0.0888940193
H  H39  1  0.99350000  0.69650000  0.64340000  1.0 0.0888940193
H  H40  1  0.50650000  0.19650000  0.85660000  1.0 0.0888940193
H  H41  1  0.12780000  0.14470000  0.61040000  1.0 0.0368731818
H  H42  1  0.37220000  0.64470000  0.88960000  1.0 0.0368731818
H  H43  1  0.12780000  0.35530000  0.38960000  1.0 0.0368731818
H  H44  1  0.37220000  0.85530000  0.11040000  1.0 0.0368731818
H  H45  1  0.87220000  0.85530000  0.38960000  1.0 0.0368731818
H  H46  1  0.62780000  0.35530000  0.11040000  1.0 0.0368731818
H  H47  1  0.87220000  0.64470000  0.61040000  1.0 0.0368731818
H  H48  1  0.62780000  0.14470000  0.88960000  1.0 0.0368731818
H  H49  1  0.29420000  0.23410000  0.61580000  1.0 0.0781801561
H  H50  1  0.20580000  0.73410000  0.88420000  1.0 0.0781801561
H  H51  1  0.29420000  0.26590000  0.38420000  1.0 0.0781801561
H  H52  1  0.20580000  0.76590000  0.11580000  1.0 0.0781801561
H  H53  1  0.70580000  0.76590000  0.38420000  1.0 0.0781801561
H  H54  1  0.79420000  0.26590000  0.11580000  1.0 0.0781801561
H  H55  1  0.70580000  0.73410000  0.61580000  1.0 0.0781801561
H  H56  1  0.79420000  0.23410000  0.88420000  1.0 0.0781801561
H  H57  1  0.36010000  0.19270000  0.67270000  1.0 0.0781801561
H  H58  1  0.13990000  0.69270000  0.82730000  1.0 0.0781801561
H  H59  1  0.36010000  0.30730000  0.32730000  1.0 0.0781801561
H  H60  1  0.13990000  0.80730000  0.17270000  1.0 0.0781801561
H  H61  1  0.63990000  0.80730000  0.32730000  1.0 0.0781801561
H  H62  1  0.86010000  0.30730000  0.17270000  1.0 0.0781801561
H  H63  1  0.63990000  0.69270000  0.67270000  1.0 0.0781801561
H  H64  1  0.86010000  0.19270000  0.82730000  1.0 0.0781801561
H  H65  1  0.10540000  0.29610000  0.68170000  1.0 0.0888940193
H  H66  1  0.39460000  0.79610000  0.81830000  1.0 0.0888940193
H  H67  1  0.10540000  0.20390000  0.31830000  1.0 0.0888940193
H  H68  1  0.39460000  0.70390000  0.18170000  1.0 0.0888940193
H  H69  1  0.89460000  0.70390000  0.31830000  1.0 0.0888940193
H  H70  1  0.60540000  0.20390000  0.18170000  1.0 0.0888940193
H  H71  1  0.89460000  0.79610000  0.68170000  1.0 0.0888940193
H  H72  1  0.60540000  0.29610000  0.81830000  1.0 0.0888940193
H  H73  1  0.18770000  0.25780000  0.73750000  1.0 0.070484611
H  H74  1  0.31230000  0.75780000  0.76250000  1.0 0.070484611
H  H75  1  0.18770000  0.24220000  0.26250000  1.0 0.070484611
H  H76  1  0.31230000  0.74220000  0.23750000  1.0 0.070484611
H  H77  1  0.81230000  0.74220000  0.26250000  1.0 0.070484611
H  H78  1  0.68770000  0.24220000  0.23750000  1.0 0.070484611
H  H79  1  0.81230000  0.75780000  0.73750000  1.0 0.070484611
H  H80  1  0.68770000  0.25780000  0.76250000  1.0 0.070484611
H  H81  1  0.88440000  0.91570000  0.56050000  1.0 0.1367963603
H  H82  1  0.61560000  0.41570000  0.93950000  1.0 0.1367963603
H  H83  1  0.88440000  0.58430000  0.43950000  1.0 0.1367963603
H  H84  1  0.61560000  0.08430000  0.06050000  1.0 0.1367963603
H  H85  1  0.11560000  0.08430000  0.43950000  1.0 0.1367963603
H  H86  1  0.38440000  0.58430000  0.06050000  1.0 0.1367963603
H  H87  1  0.11560000  0.41570000  0.56050000  1.0 0.1367963603
H  H88  1  0.38440000  0.91570000  0.93950000  1.0 0.1367963603
H  H89  1  0.07650000  0.89720000  0.54130000  1.0 0.1467464971
H  H90  1  0.42350000  0.39720000  0.95870000  1.0 0.1467464971
H  H91  1  0.07650000  0.60280000  0.45870000  1.0 0.1467464971
H  H92  1  0.42350000  0.10280000  0.04130000  1.0 0.1467464971
H  H93  1  0.92350000  0.10280000  0.45870000  1.0 0.1467464971
H  H94  1  0.57650000  0.60280000  0.04130000  1.0 0.1467464971
H  H95  1  0.92350000  0.39720000  0.54130000  1.0 0.1467464971
H  H96  1  0.57650000  0.89720000  0.95870000  1.0 0.1467464971
H  H97  1  0.14610000  0.01420000  0.53730000  1.0 0.1110492474
H  H98  1  0.35390000  0.51420000  0.96270000  1.0 0.1110492474
H  H99  1  0.14610000  0.48580000  0.46270000  1.0 0.1110492474
H  H100  1  0.35390000  0.98580000  0.03730000  1.0 0.1110492474
H  H101  1  0.85390000  0.98580000  0.46270000  1.0 0.1110492474
H  H102  1  0.64610000  0.48580000  0.03730000  1.0 0.1110492474
H  H103  1  0.85390000  0.51420000  0.53730000  1.0 0.1110492474
H  H104  1  0.64610000  0.01420000  0.96270000  1.0 0.1110492474
H  H105  1  0.95340000  0.03220000  0.55540000  1.0 0.0976171665
H  H106  1  0.54660000  0.53220000  0.94460000  1.0 0.0976171665
H  H107  1  0.95340000  0.46780000  0.44460000  1.0 0.0976171665
H  H108  1  0.54660000  0.96780000  0.05540000  1.0 0.0976171665
H  H109  1  0.04660000  0.96780000  0.44460000  1.0 0.0976171665
H  H110  1  0.45340000  0.46780000  0.05540000  1.0 0.0976171665
H  H111  1  0.04660000  0.53220000  0.55540000  1.0 0.0976171665
H  H112  1  0.45340000  0.03220000  0.94460000  1.0 0.0976171665
H  H113  1  0.00720000  0.18850000  0.63000000  1.0 0.070484611
H  H114  1  0.49280000  0.68850000  0.87000000  1.0 0.070484611
H  H115  1  0.00720000  0.31150000  0.37000000  1.0 0.070484611
H  H116  1  0.49280000  0.81150000  0.13000000  1.0 0.070484611
H  H117  1  0.99280000  0.81150000  0.37000000  1.0 0.070484611
H  H118  1  0.50720000  0.31150000  0.13000000  1.0 0.070484611
H  H119  1  0.99280000  0.68850000  0.63000000  1.0 0.070484611
H  H120  1  0.50720000  0.18850000  0.87000000  1.0 0.070484611
H  H121  1  0.18710000  0.15090000  0.61730000  1.0 0.070484611
H  H122  1  0.31290000  0.65090000  0.88270000  1.0 0.070484611
H  H123  1  0.18710000  0.34910000  0.38270000  1.0 0.070484611
H  H124  1  0.31290000  0.84910000  0.11730000  1.0 0.070484611
H  H125  1  0.81290000  0.84910000  0.38270000  1.0 0.070484611
H  H126  1  0.68710000  0.34910000  0.11730000  1.0 0.070484611
H  H127  1  0.81290000  0.65090000  0.61730000  1.0 0.070484611
H  H128  1  0.68710000  0.15090000  0.88270000  1.0 0.070484611
H  H129  1  0.14330000  0.22670000  0.73170000  1.0 0.070484611
H  H130  1  0.35670000  0.72670000  0.76830000  1.0 0.070484611
H  H131  1  0.14330000  0.27330000  0.26830000  1.0 0.070484611
H  H132  1  0.35670000  0.77330000  0.23170000  1.0 0.070484611
H  H133  1  0.85670000  0.77330000  0.26830000  1.0 0.070484611
H  H134  1  0.64330000  0.27330000  0.23170000  1.0 0.070484611
H  H135  1  0.85670000  0.72670000  0.73170000  1.0 0.070484611
H  H136  1  0.64330000  0.22670000  0.76830000  1.0 0.070484611
H  H137  1  0.32440000  0.20450000  0.70420000  1.0 0.070484611
H  H138  1  0.17560000  0.70450000  0.79580000  1.0 0.070484611
H  H139  1  0.32440000  0.29550000  0.29580000  1.0 0.070484611
H  H140  1  0.17560000  0.79550000  0.20420000  1.0 0.070484611
H  H141  1  0.67560000  0.79550000  0.29580000  1.0 0.070484611
H  H142  1  0.82440000  0.29550000  0.20420000  1.0 0.070484611
H  H143  1  0.67560000  0.70450000  0.70420000  1.0 0.070484611
H  H144  1  0.82440000  0.20450000  0.79580000  1.0 0.070484611
H  H145  1  0.11160000  0.31170000  0.65990000  1.0 0.070484611
H  H146  1  0.38840000  0.81170000  0.84010000  1.0 0.070484611
H  H147  1  0.11160000  0.18830000  0.34010000  1.0 0.070484611
H  H148  1  0.38840000  0.68830000  0.15990000  1.0 0.070484611
H  H149  1  0.88840000  0.68830000  0.34010000  1.0 0.070484611
H  H150  1  0.61160000  0.18830000  0.15990000  1.0 0.070484611
H  H151  1  0.88840000  0.81170000  0.65990000  1.0 0.070484611
H  H152  1  0.61160000  0.31170000  0.84010000  1.0 0.070484611
H  H153  1  0.27100000  0.28380000  0.62150000  1.0 0.0976171665
H  H154  1  0.22900000  0.78380000  0.87850000  1.0 0.0976171665
H  H155  1  0.27100000  0.21620000  0.37850000  1.0 0.0976171665
H  H156  1  0.22900000  0.71620000  0.12150000  1.0 0.0976171665
H  H157  1  0.72900000  0.71620000  0.37850000  1.0 0.0976171665
H  H158  1  0.77100000  0.21620000  0.12150000  1.0 0.0976171665
H  H159  1  0.72900000  0.78380000  0.62150000  1.0 0.0976171665
H  H160  1  0.77100000  0.28380000  0.87850000  1.0 0.0976171665
C  C1  1  0.20080000  0.06360000  0.70920000  1.0 0.602871505
C  C2  1  0.29920000  0.56360000  0.79080000  1.0 0.602871505
C  C3  1  0.20080000  0.43640000  0.29080000  1.0 0.602871505
C  C4  1  0.29920000  0.93640000  0.20920000  1.0 0.602871505
C  C5  1  0.79920000  0.93640000  0.29080000  1.0 0.602871505
C  C6  1  0.70080000  0.43640000  0.20920000  1.0 0.602871505
C  C7  1  0.79920000  0.56360000  0.70920000  1.0 0.602871505
C  C8  1  0.70080000  0.06360000  0.79080000  1.0 0.602871505
C  C9  1  0.06330000  0.11520000  0.69510000  1.0 -0.3827888766
C  C10  1  0.43670000  0.61520000  0.80490000  1.0 -0.3827888766
C  C11  1  0.06330000  0.38480000  0.30490000  1.0 -0.3827888766
C  C12  1  0.43670000  0.88480000  0.19510000  1.0 -0.3827888766
C  C13  1  0.93670000  0.88480000  0.30490000  1.0 -0.3827888766
C  C14  1  0.56330000  0.38480000  0.19510000  1.0 -0.3827888766
C  C15  1  0.93670000  0.61520000  0.69510000  1.0 -0.3827888766
C  C16  1  0.56330000  0.11520000  0.80490000  1.0 -0.3827888766
C  C17  1  0.26070000  0.21670000  0.65560000  1.0 -0.0698944922
C  C18  1  0.23930000  0.71670000  0.84440000  1.0 -0.0698944922
C  C19  1  0.26070000  0.28330000  0.34440000  1.0 -0.0698944922
C  C20  1  0.23930000  0.78330000  0.15560000  1.0 -0.0698944922
C  C21  1  0.73930000  0.78330000  0.34440000  1.0 -0.0698944922
C  C22  1  0.76070000  0.28330000  0.15560000  1.0 -0.0698944922
C  C23  1  0.73930000  0.71670000  0.65560000  1.0 -0.0698944922
C  C24  1  0.76070000  0.21670000  0.84440000  1.0 -0.0698944922
C  C25  1  0.21210000  0.27560000  0.69700000  1.0 -0.1098423102
C  C26  1  0.28790000  0.77560000  0.80300000  1.0 -0.1098423102
C  C27  1  0.21210000  0.22440000  0.30300000  1.0 -0.1098423102
C  C28  1  0.28790000  0.72440000  0.19700000  1.0 -0.1098423102
C  C29  1  0.78790000  0.72440000  0.30300000  1.0 -0.1098423102
C  C30  1  0.71210000  0.22440000  0.19700000  1.0 -0.1098423102
C  C31  1  0.78790000  0.77560000  0.69700000  1.0 -0.1098423102
C  C32  1  0.71210000  0.27560000  0.80300000  1.0 -0.1098423102
C  C33  1  0.35000000  0.33020000  0.70240000  1.0 0.3904962032
C  C34  1  0.15000000  0.83020000  0.79760000  1.0 0.3904962032
C  C35  1  0.35000000  0.16980000  0.29760000  1.0 0.3904962032
C  C36  1  0.15000000  0.66980000  0.20240000  1.0 0.3904962032
C  C37  1  0.65000000  0.66980000  0.29760000  1.0 0.3904962032
C  C38  1  0.85000000  0.16980000  0.20240000  1.0 0.3904962032
C  C39  1  0.65000000  0.83020000  0.70240000  1.0 0.3904962032
C  C40  1  0.85000000  0.33020000  0.79760000  1.0 0.3904962032
C  C41  1  0.10990000  0.16850000  0.64870000  1.0 -0.1624971857
C  C42  1  0.39010000  0.66850000  0.85130000  1.0 -0.1624971857
C  C43  1  0.10990000  0.33150000  0.35130000  1.0 -0.1624971857
C  C44  1  0.39010000  0.83150000  0.14870000  1.0 -0.1624971857
C  C45  1  0.89010000  0.83150000  0.35130000  1.0 -0.1624971857
C  C46  1  0.60990000  0.33150000  0.14870000  1.0 -0.1624971857
C  C47  1  0.89010000  0.66850000  0.64870000  1.0 -0.1624971857
C  C48  1  0.60990000  0.16850000  0.85130000  1.0 -0.1624971857
C  C49  1  0.06170000  0.93370000  0.62890000  1.0 0.6666015139
C  C50  1  0.43830000  0.43370000  0.87110000  1.0 0.6666015139
C  C51  1  0.06170000  0.56630000  0.37110000  1.0 0.6666015139
C  C52  1  0.43830000  0.06630000  0.12890000  1.0 0.6666015139
C  C53  1  0.93830000  0.06630000  0.37110000  1.0 0.6666015139
C  C54  1  0.56170000  0.56630000  0.12890000  1.0 0.6666015139
C  C55  1  0.93830000  0.43370000  0.62890000  1.0 0.6666015139
C  C56  1  0.56170000  0.93370000  0.87110000  1.0 0.6666015139
C  C57  1  0.00540000  0.93020000  0.56290000  1.0 -0.3475080604
C  C58  1  0.49460000  0.43020000  0.93710000  1.0 -0.3475080604
C  C59  1  0.00540000  0.56980000  0.43710000  1.0 -0.3475080604
C  C60  1  0.49460000  0.06980000  0.06290000  1.0 -0.3475080604
C  C61  1  0.99460000  0.06980000  0.43710000  1.0 -0.3475080604
C  C62  1  0.50540000  0.56980000  0.06290000  1.0 -0.3475080604
C  C63  1  0.99460000  0.43020000  0.56290000  1.0 -0.3475080604
C  C64  1  0.50540000  0.93020000  0.93710000  1.0 -0.3475080604
C  C65  1  0.02540000  0.99960000  0.53350000  1.0 -0.1304429011
C  C66  1  0.47460000  0.49960000  0.96650000  1.0 -0.1304429011
C  C67  1  0.02540000  0.50040000  0.46650000  1.0 -0.1304429011
C  C68  1  0.47460000  0.00040000  0.03350000  1.0 -0.1304429011
C  C69  1  0.97460000  0.00040000  0.46650000  1.0 -0.1304429011
C  C70  1  0.52540000  0.50040000  0.03350000  1.0 -0.1304429011
C  C71  1  0.97460000  0.49960000  0.53350000  1.0 -0.1304429011
C  C72  1  0.52540000  0.99960000  0.96650000  1.0 -0.1304429011
C  C73  1  0.20900000  0.22160000  0.69410000  1.0 -0.0814981438
C  C74  1  0.29100000  0.72160000  0.80590000  1.0 -0.0814981438
C  C75  1  0.20900000  0.27840000  0.30590000  1.0 -0.0814981438
C  C76  1  0.29100000  0.77840000  0.19410000  1.0 -0.0814981438
C  C77  1  0.79100000  0.77840000  0.30590000  1.0 -0.0814981438
C  C78  1  0.70900000  0.27840000  0.19410000  1.0 -0.0814981438
C  C79  1  0.79100000  0.72160000  0.69410000  1.0 -0.0814981438
C  C80  1  0.70900000  0.22160000  0.80590000  1.0 -0.0814981438
C  C81  1  0.22500000  0.28930000  0.66250000  1.0 -0.1304429011
C  C82  1  0.27500000  0.78930000  0.83750000  1.0 -0.1304429011
C  C83  1  0.22500000  0.21070000  0.33750000  1.0 -0.1304429011
C  C84  1  0.27500000  0.71070000  0.16250000  1.0 -0.1304429011
C  C85  1  0.77500000  0.71070000  0.33750000  1.0 -0.1304429011
C  C86  1  0.72500000  0.21070000  0.16250000  1.0 -0.1304429011
C  C87  1  0.77500000  0.78930000  0.66250000  1.0 -0.1304429011
C  C88  1  0.72500000  0.28930000  0.83750000  1.0 -0.1304429011
O  O1  1  0.17020000  0.01940000  0.75128000  1.0 -0.7410577336
O  O2  1  0.32980000  0.51940000  0.74872000  1.0 -0.7410577336
O  O3  1  0.17020000  0.48060000  0.24872000  1.0 -0.7410577336
O  O4  1  0.32980000  0.98060000  0.25128000  1.0 -0.7410577336
O  O5  1  0.82980000  0.98060000  0.24872000  1.0 -0.7410577336
O  O6  1  0.67020000  0.48060000  0.25128000  1.0 -0.7410577336
O  O7  1  0.82980000  0.51940000  0.75128000  1.0 -0.7410577336
O  O8  1  0.67020000  0.01940000  0.74872000  1.0 -0.7410577336
O  O9  1  0.33920000  0.06130000  0.68040000  1.0 -0.5704492727
O  O10  1  0.16080000  0.56130000  0.81960000  1.0 -0.5704492727
O  O11  1  0.33920000  0.43870000  0.31960000  1.0 -0.5704492727
O  O12  1  0.16080000  0.93870000  0.18040000  1.0 -0.5704492727
O  O13  1  0.66080000  0.93870000  0.31960000  1.0 -0.5704492727
O  O14  1  0.83920000  0.43870000  0.18040000  1.0 -0.5704492727
O  O15  1  0.66080000  0.56130000  0.68040000  1.0 -0.5704492727
O  O16  1  0.83920000  0.06130000  0.81960000  1.0 -0.5704492727
O  O17  1  0.49890000  0.32760000  0.68135000  1.0 -0.5042346516
O  O18  1  0.00110000  0.82760000  0.81865000  1.0 -0.5042346516
O  O19  1  0.49890000  0.17240000  0.31865000  1.0 -0.5042346516
O  O20  1  0.00110000  0.67240000  0.18135000  1.0 -0.5042346516
O  O21  1  0.50110000  0.67240000  0.31865000  1.0 -0.5042346516
O  O22  1  0.99890000  0.17240000  0.18135000  1.0 -0.5042346516
O  O23  1  0.50110000  0.82760000  0.68135000  1.0 -0.5042346516
O  O24  1  0.99890000  0.32760000  0.81865000  1.0 -0.5042346516
O  O25  1  0.30680000  0.37827000  0.73859000  1.0 -0.6870279411
O  O26  1  0.19320000  0.87827000  0.76141000  1.0 -0.6870279411
O  O27  1  0.30680000  0.12173000  0.26141000  1.0 -0.6870279411
O  O28  1  0.19320000  0.62173000  0.23859000  1.0 -0.6870279411
O  O29  1  0.69320000  0.62173000  0.26141000  1.0 -0.6870279411
O  O30  1  0.80680000  0.12173000  0.23859000  1.0 -0.6870279411
O  O31  1  0.69320000  0.87827000  0.73859000  1.0 -0.6870279411
O  O32  1  0.80680000  0.37827000  0.76141000  1.0 -0.6870279411
O  O33  1  0.94650000  0.94570000  0.66870000  1.0 -0.6689490807
O  O34  1  0.55350000  0.44570000  0.83130000  1.0 -0.6689490807
O  O35  1  0.94650000  0.55430000  0.33130000  1.0 -0.6689490807
O  O36  1  0.55350000  0.05430000  0.16870000  1.0 -0.6689490807
O  O37  1  0.05350000  0.05430000  0.33130000  1.0 -0.6689490807
O  O38  1  0.44650000  0.55430000  0.16870000  1.0 -0.6689490807
O  O39  1  0.05350000  0.44570000  0.66870000  1.0 -0.6689490807
O  O40  1  0.44650000  0.94570000  0.83130000  1.0 -0.6689490807
O  O41  1  0.22190000  0.92698000  0.63968000  1.0 -0.6648387624
O  O42  1  0.27810000  0.42698000  0.86032000  1.0 -0.6648387624
O  O43  1  0.22190000  0.57302000  0.36032000  1.0 -0.6648387624
O  O44  1  0.27810000  0.07302000  0.13968000  1.0 -0.6648387624
O  O45  1  0.77810000  0.07302000  0.36032000  1.0 -0.6648387624
O  O46  1  0.72190000  0.57302000  0.13968000  1.0 -0.6648387624
O  O47  1  0.77810000  0.42698000  0.63968000  1.0 -0.6648387624
O  O48  1  0.72190000  0.92698000  0.86032000  1.0 -0.6689490807
O  O49  1  0.10740000  0.96345000  0.86984000  1.0 -0.7668017396
O  O50  1  0.39260000  0.46345000  0.63016000  1.0 -0.7668017396
O  O51  1  0.10740000  0.53655000  0.13016000  1.0 -0.7668017396
O  O52  1  0.39260000  0.03655000  0.36984000  1.0 -0.7668017396
O  O53  1  0.89260000  0.03655000  0.13016000  1.0 -0.7668017396
O  O54  1  0.60740000  0.53655000  0.36984000  1.0 -0.7668017396
O  O55  1  0.89260000  0.46345000  0.86984000  1.0 -0.7668017396
O  O56  1  0.60740000  0.96345000  0.63016000  1.0 -0.7668017396
