# DDEC6 charges by PACMAN v1.1 (https://github.com/mtap-research/PACMAN-charge/)
data_2013[Cu][nan]3[ASR]5
_chemical_formula_sum              "Cu12 H58 C130 N8 O48"
_cell_length_a       20.7935
_cell_length_b       20.7935
_cell_length_c       18.529
_cell_angle_alpha    90
_cell_angle_beta     90
_cell_angle_gamma    107.297

_symmetry_space_group_name_H-M    "P 1"
_symmetry_Int_Tables_number       1

loop_
  _symmetry_equiv_pos_as_xyz
  'x, y, z'

loop_
  _atom_site_type_symbol
  _atom_site_label
  _atom_site_symmetry_multiplicity
  _atom_site_fract_x
  _atom_site_fract_y
  _atom_site_fract_z
  _atom_site_occupancy
  _atom_site_charge
Cu  Cu1       1.0  0.56082  0.43918  0.25000  1.0000 0.8544054775
Cu  Cu2       1.0  0.43918  0.56082  0.75000  1.0000 0.8569185153
Cu  Cu3       1.0  0.63979  0.36021  0.25000  1.0000 0.8757952898
Cu  Cu4       1.0  0.36021  0.63979  0.75000  1.0000 0.8757952898
Cu  Cu5       1.0  0.97729  0.44275  0.46367  1.0000 0.8569185153
Cu  Cu6       1.0  0.02271  0.55725  0.96367  1.0000 0.8569185153
Cu  Cu7       1.0  0.44275  0.97729  0.53633  1.0000 0.8569185153
Cu  Cu8       1.0  0.55725  0.02271  0.03633  1.0000 0.8569185153
Cu  Cu9       1.0  0.02271  0.55725  0.53633  1.0000 0.8569185153
Cu  Cu10      1.0  0.97729  0.44275  0.03633  1.0000 0.8569185153
Cu  Cu11      1.0  0.55725  0.02271  0.46367  1.0000 0.8569185153
Cu  Cu12      1.0  0.44275  0.97729  0.96367  1.0000 0.8569185153
H   H1        1.0  0.67790  0.59170  0.40030  1.0000 0.1210846248
H   H2        1.0  0.32210  0.40830  0.90030  1.0000 0.1210846248
H   H3        1.0  0.59170  0.67790  0.59970  1.0000 0.1210846248
H   H4        1.0  0.40830  0.32210  0.09970  1.0000 0.1210846248
H   H5        1.0  0.32210  0.40830  0.59970  1.0000 0.1210846248
H   H6        1.0  0.67790  0.59170  0.09970  1.0000 0.1210846248
H   H7        1.0  0.40830  0.32210  0.40030  1.0000 0.1210846248
H   H8        1.0  0.59170  0.67790  0.90030  1.0000 0.1210846248
H   H9        1.0  0.85570  0.63510  0.50730  1.0000 0.1210846248
H   H10       1.0  0.14430  0.36490  0.00730  1.0000 0.1210846248
H   H11       1.0  0.63510  0.85570  0.49270  1.0000 0.1210846248
H   H12       1.0  0.36490  0.14430  0.99270  1.0000 0.1210846248
H   H13       1.0  0.14430  0.36490  0.49270  1.0000 0.1210846248
H   H14       1.0  0.85570  0.63510  0.99270  1.0000 0.1210846248
H   H15       1.0  0.36490  0.14430  0.50730  1.0000 0.1210846248
H   H16       1.0  0.63510  0.85570  0.00730  1.0000 0.1210846248
H   H17       1.0  0.78410  0.45830  0.40110  1.0000 0.1395035459
H   H18       1.0  0.21590  0.54170  0.90110  1.0000 0.1395035459
H   H19       1.0  0.45830  0.78410  0.59890  1.0000 0.1395035459
H   H20       1.0  0.54170  0.21590  0.09890  1.0000 0.1395035459
H   H21       1.0  0.21590  0.54170  0.59890  1.0000 0.1395035459
H   H22       1.0  0.78410  0.45830  0.09890  1.0000 0.1395035459
H   H23       1.0  0.54170  0.21590  0.40110  1.0000 0.1395035459
H   H24       1.0  0.45830  0.78410  0.90110  1.0000 0.1395035459
H   H25       1.0  0.65670  0.65670  0.50000  1.0000 0.1210846248
H   H26       1.0  0.34330  0.34330  0.00000  1.0000 0.1210846248
H   H27       1.0  0.34330  0.34330  0.50000  1.0000 0.1210846248
H   H28       1.0  0.65670  0.65670  0.00000  1.0000 0.1210846248
H   H29       1.0  0.85500  0.74440  0.46410  1.0000 0.1118936351
H   H30       1.0  0.14500  0.25560  0.96410  1.0000 0.1118936351
H   H31       1.0  0.74440  0.85500  0.53590  1.0000 0.1210846248
H   H32       1.0  0.25560  0.14500  0.03590  1.0000 0.1118936351
H   H33       1.0  0.14500  0.25560  0.53590  1.0000 0.1118936351
H   H34       1.0  0.85500  0.74440  0.03590  1.0000 0.1118936351
H   H35       1.0  0.25560  0.14500  0.46410  1.0000 0.1118936351
H   H36       1.0  0.74440  0.85500  0.96410  1.0000 0.1210846248
H   H37       1.0  0.02720  0.51700  0.25000  1.0000 0.1451445667
H   H38       1.0  0.97280  0.48300  0.75000  1.0000 0.1451445667
H   H39       1.0  0.51700  0.02720  0.75000  1.0000 0.1451445667
H   H40       1.0  0.48300  0.97280  0.25000  1.0000 0.1451445667
H   H41       1.0  0.09080  0.69240  0.35930  1.0000 0.1290371715
H   H42       1.0  0.90920  0.30760  0.85930  1.0000 0.1290371715
H   H43       1.0  0.69240  0.09080  0.64070  1.0000 0.1290371715
H   H44       1.0  0.30760  0.90920  0.14070  1.0000 0.1290371715
H   H45       1.0  0.90920  0.30760  0.64070  1.0000 0.1290371715
H   H46       1.0  0.09080  0.69240  0.14070  1.0000 0.1290371715
H   H47       1.0  0.30760  0.90920  0.35930  1.0000 0.1290371715
H   H48       1.0  0.69240  0.09080  0.85930  1.0000 0.1290371715
H   H49       1.0  0.21790  0.78210  0.25000  1.0000 0.1210846248
H   H50       1.0  0.78210  0.21790  0.75000  1.0000 0.1210846248
H   H51       1.0  0.04970  0.79450  0.31910  1.0000 0.1118936351
H   H52       1.0  0.95030  0.20550  0.81910  1.0000 0.1118936351
H   H53       1.0  0.79450  0.04970  0.68090  1.0000 0.1118936351
H   H54       1.0  0.20550  0.95030  0.18090  1.0000 0.1118936351
H   H55       1.0  0.95030  0.20550  0.68090  1.0000 0.1118936351
H   H56       1.0  0.04970  0.79450  0.18090  1.0000 0.1118936351
H   H57       1.0  0.20550  0.95030  0.31910  1.0000 0.1118936351
H   H58       1.0  0.79450  0.04970  0.81910  1.0000 0.1118936351
C   C1        1.0  0.67455  0.47331  0.34380  1.0000 0.5804696554
C   C2        1.0  0.32545  0.52669  0.84380  1.0000 0.5804696554
C   C3        1.0  0.47331  0.67455  0.65620  1.0000 0.5804696554
C   C4        1.0  0.52669  0.32545  0.15620  1.0000 0.5804696554
C   C5        1.0  0.32545  0.52669  0.65620  1.0000 0.5804696554
C   C6        1.0  0.67455  0.47331  0.15620  1.0000 0.5804696554
C   C7        1.0  0.52669  0.32545  0.34380  1.0000 0.5804696554
C   C8        1.0  0.47331  0.67455  0.84380  1.0000 0.5804696554
C   C9        1.0  0.72402  0.51792  0.39399  1.0000 -0.0219058549
C   C10       1.0  0.27598  0.48208  0.89399  1.0000 -0.0219058549
C   C11       1.0  0.51792  0.72402  0.60601  1.0000 -0.0219058549
C   C12       1.0  0.48208  0.27598  0.10601  1.0000 -0.0219058549
C   C13       1.0  0.27598  0.48208  0.60601  1.0000 -0.0219058549
C   C14       1.0  0.72402  0.51792  0.10601  1.0000 -0.0219058549
C   C15       1.0  0.48208  0.27598  0.39399  1.0000 -0.0219058549
C   C16       1.0  0.51792  0.72402  0.89399  1.0000 -0.0219058549
C   C17       1.0  0.71651  0.57951  0.41501  1.0000 -0.1600703288
C   C18       1.0  0.28349  0.42049  0.91501  1.0000 -0.1600703288
C   C19       1.0  0.57951  0.71651  0.58499  1.0000 -0.1600703288
C   C20       1.0  0.42049  0.28349  0.08499  1.0000 -0.1600703288
C   C21       1.0  0.28349  0.42049  0.58499  1.0000 -0.1600703288
C   C22       1.0  0.71651  0.57951  0.08499  1.0000 -0.1600703288
C   C23       1.0  0.42049  0.28349  0.41501  1.0000 -0.1600703288
C   C24       1.0  0.57951  0.71651  0.91501  1.0000 -0.1600703288
C   C25       1.0  0.76566  0.62356  0.45779  1.0000 0.0630162776
C   C26       1.0  0.23434  0.37644  0.95779  1.0000 0.0630162776
C   C27       1.0  0.62356  0.76566  0.54221  1.0000 0.0630162776
C   C28       1.0  0.37644  0.23434  0.04221  1.0000 0.0630162776
C   C29       1.0  0.23434  0.37644  0.54221  1.0000 0.0630162776
C   C30       1.0  0.76566  0.62356  0.04221  1.0000 0.0630162776
C   C31       1.0  0.37644  0.23434  0.45779  1.0000 0.0630162776
C   C32       1.0  0.62356  0.76566  0.95779  1.0000 0.0630162776
C   C33       1.0  0.82163  0.60499  0.47918  1.0000 -0.1600703288
C   C34       1.0  0.17837  0.39501  0.97918  1.0000 -0.1600703288
C   C35       1.0  0.60499  0.82163  0.52082  1.0000 -0.1600703288
C   C36       1.0  0.39501  0.17837  0.02082  1.0000 -0.1600703288
C   C37       1.0  0.17837  0.39501  0.52082  1.0000 -0.1600703288
C   C38       1.0  0.82163  0.60499  0.02082  1.0000 -0.1600703288
C   C39       1.0  0.39501  0.17837  0.47918  1.0000 -0.1600703288
C   C40       1.0  0.60499  0.82163  0.97918  1.0000 -0.1600703288
C   C41       1.0  0.82802  0.54304  0.45981  1.0000 -0.0127727023
C   C42       1.0  0.17198  0.45696  0.95981  1.0000 -0.0127727023
C   C43       1.0  0.54304  0.82802  0.54019  1.0000 -0.0127727023
C   C44       1.0  0.45696  0.17198  0.04019  1.0000 -0.0127727023
C   C45       1.0  0.17198  0.45696  0.54019  1.0000 -0.0127727023
C   C46       1.0  0.82802  0.54304  0.04019  1.0000 -0.0127727023
C   C47       1.0  0.45696  0.17198  0.45981  1.0000 -0.0127727023
C   C48       1.0  0.54304  0.82802  0.95981  1.0000 -0.0127727023
C   C49       1.0  0.77902  0.50024  0.41590  1.0000 -0.1065988631
C   C50       1.0  0.22098  0.49976  0.91590  1.0000 -0.1065988631
C   C51       1.0  0.50024  0.77902  0.58410  1.0000 -0.1065988631
C   C52       1.0  0.49976  0.22098  0.08410  1.0000 -0.1065988631
C   C53       1.0  0.22098  0.49976  0.58410  1.0000 -0.1065988631
C   C54       1.0  0.77902  0.50024  0.08410  1.0000 -0.1065988631
C   C55       1.0  0.49976  0.22098  0.41590  1.0000 -0.1065988631
C   C56       1.0  0.50024  0.77902  0.91590  1.0000 -0.1065988631
C   C57       1.0  0.89034  0.52344  0.47883  1.0000 0.5804696554
C   C58       1.0  0.10966  0.47656  0.97883  1.0000 0.5804696554
C   C59       1.0  0.52344  0.89034  0.52117  1.0000 0.5804696554
C   C60       1.0  0.47656  0.10966  0.02117  1.0000 0.5804696554
C   C61       1.0  0.10966  0.47656  0.52117  1.0000 0.5804696554
C   C62       1.0  0.89034  0.52344  0.02117  1.0000 0.5804696554
C   C63       1.0  0.47656  0.10966  0.47883  1.0000 0.5804696554
C   C64       1.0  0.52344  0.89034  0.97883  1.0000 0.5804696554
C   C65       1.0  0.75709  0.68921  0.47939  1.0000 0.0411318046
C   C66       1.0  0.24291  0.31079  0.97939  1.0000 0.0411318046
C   C67       1.0  0.68921  0.75709  0.52061  1.0000 0.0411318046
C   C68       1.0  0.31079  0.24291  0.02061  1.0000 0.0411318046
C   C69       1.0  0.24291  0.31079  0.52061  1.0000 0.0411318046
C   C70       1.0  0.75709  0.68921  0.02061  1.0000 0.0411318046
C   C71       1.0  0.31079  0.24291  0.47939  1.0000 0.0411318046
C   C72       1.0  0.68921  0.75709  0.97939  1.0000 0.0411318046
C   C73       1.0  0.69527  0.69527  0.50000  1.0000 -0.1742903815
C   C74       1.0  0.30473  0.30473  0.00000  1.0000 -0.1742903815
C   C75       1.0  0.30473  0.30473  0.50000  1.0000 -0.1742903815
C   C76       1.0  0.69527  0.69527  0.00000  1.0000 -0.1742903815
C   C77       1.0  0.81247  0.74773  0.47937  1.0000 0.0287640946
C   C78       1.0  0.18753  0.25227  0.97937  1.0000 0.0287640946
C   C79       1.0  0.74773  0.81247  0.52063  1.0000 0.0287640946
C   C80       1.0  0.25227  0.18753  0.02063  1.0000 0.0287640946
C   C81       1.0  0.18753  0.25227  0.52063  1.0000 0.0287640946
C   C82       1.0  0.81247  0.74773  0.02063  1.0000 0.0287640946
C   C83       1.0  0.25227  0.18753  0.47937  1.0000 0.0287640946
C   C84       1.0  0.74773  0.81247  0.97937  1.0000 0.0287640946
C   C85       1.0  0.03872  0.56140  0.38454  1.0000 0.5804696554
C   C86       1.0  0.96128  0.43860  0.88454  1.0000 0.5804696554
C   C87       1.0  0.56140  0.03872  0.61546  1.0000 0.5804696554
C   C88       1.0  0.43860  0.96128  0.11546  1.0000 0.5804696554
C   C89       1.0  0.96128  0.43860  0.61546  1.0000 0.5804696554
C   C90       1.0  0.03872  0.56140  0.11546  1.0000 0.5804696554
C   C91       1.0  0.43860  0.96128  0.38454  1.0000 0.5804696554
C   C92       1.0  0.56140  0.03872  0.88454  1.0000 0.5804696554
C   C93       1.0  0.05583  0.59901  0.31460  1.0000 -0.0127727023
C   C94       1.0  0.94417  0.40099  0.81460  1.0000 -0.0127727023
C   C95       1.0  0.59901  0.05583  0.68540  1.0000 -0.0127727023
C   C96       1.0  0.40099  0.94417  0.18540  1.0000 -0.0127727023
C   C97       1.0  0.94417  0.40099  0.68540  1.0000 -0.0127727023
C   C98       1.0  0.05583  0.59901  0.18540  1.0000 -0.0127727023
C   C99       1.0  0.40099  0.94417  0.31460  1.0000 -0.0127727023
C   C100      1.0  0.59901  0.05583  0.81460  1.0000 -0.0127727023
C   C101      1.0  0.04387  0.56479  0.25000  1.0000 -0.1065988631
C   C102      1.0  0.95613  0.43521  0.75000  1.0000 -0.1038102509
C   C103      1.0  0.56479  0.04387  0.75000  1.0000 -0.1038102509
C   C104      1.0  0.43521  0.95613  0.25000  1.0000 -0.1065988631
C   C105      1.0  0.08162  0.66878  0.31471  1.0000 -0.1600703288
C   C106      1.0  0.91838  0.33122  0.81471  1.0000 -0.1600703288
C   C107      1.0  0.66878  0.08162  0.68529  1.0000 -0.1600703288
C   C108      1.0  0.33122  0.91838  0.18529  1.0000 -0.1600703288
C   C109      1.0  0.91838  0.33122  0.68529  1.0000 -0.1600703288
C   C110      1.0  0.08162  0.66878  0.18529  1.0000 -0.1600703288
C   C111      1.0  0.33122  0.91838  0.31471  1.0000 -0.1600703288
C   C112      1.0  0.66878  0.08162  0.81471  1.0000 -0.1600703288
C   C113      1.0  0.09420  0.70452  0.25000  1.0000 0.0411318046
C   C114      1.0  0.90580  0.29548  0.75000  1.0000 0.0411318046
C   C115      1.0  0.70452  0.09420  0.75000  1.0000 0.0411318046
C   C116      1.0  0.29548  0.90580  0.25000  1.0000 0.0411318046
C   C117      1.0  0.12498  0.77924  0.25000  1.0000 0.0411318046
C   C118      1.0  0.87502  0.22076  0.75000  1.0000 0.0411318046
C   C119      1.0  0.77924  0.12498  0.75000  1.0000 0.0411318046
C   C120      1.0  0.22076  0.87502  0.25000  1.0000 0.0411318046
C   C121      1.0  0.18958  0.81042  0.25000  1.0000 -0.2311603279
C   C122      1.0  0.81042  0.18958  0.75000  1.0000 -0.2311603279
C   C123      1.0  0.09231  0.81755  0.29901  1.0000 -0.002894479
C   C124      1.0  0.90769  0.18245  0.79901  1.0000 -0.002894479
C   C125      1.0  0.81755  0.09231  0.70099  1.0000 -0.002894479
C   C126      1.0  0.18245  0.90769  0.20099  1.0000 -0.002894479
C   C127      1.0  0.90769  0.18245  0.70099  1.0000 -0.002894479
C   C128      1.0  0.09231  0.81755  0.20099  1.0000 -0.002894479
C   C129      1.0  0.18245  0.90769  0.29901  1.0000 -0.002894479
C   C130      1.0  0.81755  0.09231  0.79901  1.0000 -0.002894479
N   N1        1.0  0.80790  0.80790  0.50000  1.0000 -0.206232384
N   N2        1.0  0.19210  0.19210  0.00000  1.0000 -0.206232384
N   N3        1.0  0.19210  0.19210  0.50000  1.0000 -0.206232384
N   N4        1.0  0.80790  0.80790  0.00000  1.0000 -0.206232384
N   N5        1.0  0.11915  0.88085  0.31560  1.0000 -0.1336761118
N   N6        1.0  0.88085  0.11915  0.81560  1.0000 -0.1336761118
N   N7        1.0  0.88085  0.11915  0.68440  1.0000 -0.1336761118
N   N8        1.0  0.11915  0.88085  0.18440  1.0000 -0.1336761118
O   O1        1.0  0.62429  0.48975  0.32400  1.0000 -0.5087316534
O   O2        1.0  0.37571  0.51025  0.82400  1.0000 -0.5087316534
O   O3        1.0  0.48975  0.62429  0.67600  1.0000 -0.5087316534
O   O4        1.0  0.51025  0.37571  0.17600  1.0000 -0.5087316534
O   O5        1.0  0.37571  0.51025  0.67600  1.0000 -0.5087316534
O   O6        1.0  0.62429  0.48975  0.17600  1.0000 -0.5087316534
O   O7        1.0  0.51025  0.37571  0.32400  1.0000 -0.5087316534
O   O8        1.0  0.48975  0.62429  0.82400  1.0000 -0.5087316534
O   O9        1.0  0.68864  0.42010  0.32398  1.0000 -0.5274744743
O   O10       1.0  0.31136  0.57990  0.82398  1.0000 -0.5274744743
O   O11       1.0  0.42010  0.68864  0.67602  1.0000 -0.5274744743
O   O12       1.0  0.57990  0.31136  0.17602  1.0000 -0.5274744743
O   O13       1.0  0.31136  0.57990  0.67602  1.0000 -0.5274744743
O   O14       1.0  0.68864  0.42010  0.17602  1.0000 -0.5274744743
O   O15       1.0  0.57990  0.31136  0.32398  1.0000 -0.5274744743
O   O16       1.0  0.42010  0.68864  0.82398  1.0000 -0.5274744743
O   O17       1.0  0.93279  0.56593  0.51496  1.0000 -0.5196252243
O   O18       1.0  0.06721  0.43407  0.01496  1.0000 -0.5196252243
O   O19       1.0  0.56593  0.93279  0.48504  1.0000 -0.5196252243
O   O20       1.0  0.43407  0.06721  0.98504  1.0000 -0.5196252243
O   O21       1.0  0.06721  0.43407  0.48504  1.0000 -0.5196252243
O   O22       1.0  0.93279  0.56593  0.98504  1.0000 -0.5196252243
O   O23       1.0  0.43407  0.06721  0.51496  1.0000 -0.5196252243
O   O24       1.0  0.56593  0.93279  0.01496  1.0000 -0.5196252243
O   O25       1.0  0.89549  0.46933  0.45465  1.0000 -0.5087316534
O   O26       1.0  0.10451  0.53067  0.95465  1.0000 -0.5087316534
O   O27       1.0  0.46933  0.89549  0.54535  1.0000 -0.5087316534
O   O28       1.0  0.53067  0.10451  0.04535  1.0000 -0.5087316534
O   O29       1.0  0.10451  0.53067  0.54535  1.0000 -0.5087316534
O   O30       1.0  0.89549  0.46933  0.04535  1.0000 -0.5087316534
O   O31       1.0  0.53067  0.10451  0.45465  1.0000 -0.5087316534
O   O32       1.0  0.46933  0.89549  0.95465  1.0000 -0.5087316534
O   O33       1.0  0.05147  0.59593  0.44150  1.0000 -0.5274744743
O   O34       1.0  0.94853  0.40407  0.94150  1.0000 -0.5274744743
O   O35       1.0  0.59593  0.05147  0.55850  1.0000 -0.5274744743
O   O36       1.0  0.40407  0.94853  0.05850  1.0000 -0.5274744743
O   O37       1.0  0.94853  0.40407  0.55850  1.0000 -0.5274744743
O   O38       1.0  0.05147  0.59593  0.05850  1.0000 -0.5274744743
O   O39       1.0  0.40407  0.94853  0.44150  1.0000 -0.5274744743
O   O40       1.0  0.59593  0.05147  0.94150  1.0000 -0.5274744743
O   O41       1.0  0.01240  0.49932  0.38052  1.0000 -0.5087316534
O   O42       1.0  0.98760  0.50068  0.88052  1.0000 -0.5087316534
O   O43       1.0  0.49932  0.01240  0.61948  1.0000 -0.5087316534
O   O44       1.0  0.50068  0.98760  0.11948  1.0000 -0.5087316534
O   O45       1.0  0.98760  0.50068  0.61948  1.0000 -0.5087316534
O   O46       1.0  0.01240  0.49932  0.11948  1.0000 -0.5087316534
O   O47       1.0  0.50068  0.98760  0.38052  1.0000 -0.5087316534
O   O48       1.0  0.49932  0.01240  0.88052  1.0000 -0.5087316534
