# DDEC6 charges by PACMAN v1.1 (https://github.com/mtap-research/PACMAN-charge/)
data_FICGEG_ASR_pacman
_symmetry_space_group_name_H-M   'P 1'
_cell_length_a   16.90570000
_cell_length_b   16.90570000
_cell_length_c   10.67350000
_cell_angle_alpha   90.00000000
_cell_angle_beta   90.00000000
_cell_angle_gamma   120.00000000
_symmetry_Int_Tables_number   1
_chemical_formula_structural   UH6C33(N2O)6
_chemical_formula_sum   'U1 H6 C33 N12 O6'
_cell_volume   2641.82351779
_cell_formula_units_Z   1
loop_
 _symmetry_equiv_pos_site_id
 _symmetry_equiv_pos_as_xyz
  1  'x, y, z'
loop_
 _atom_site_type_symbol
 _atom_site_label
 _atom_site_symmetry_multiplicity
 _atom_site_fract_x
 _atom_site_fract_y
 _atom_site_fract_z
 _atom_site_occupancy
 _atom_site_charge
U  U1  1  0.66666667  0.33333333  0.87840000  1.0 2.1338955665
H  H1  1  0.54970000  0.86640000  0.02230000  1.0 0.1614468599
H  H2  1  0.31910000  0.86470000  0.73440000  1.0 0.1497713232
H  H3  1  0.31670000  0.45030000  0.02230000  1.0 0.1614468599
H  H4  1  0.54560000  0.68090000  0.73440000  1.0 0.1497713232
H  H5  1  0.13360000  0.68330000  0.02230000  1.0 0.1614468599
H  H6  1  0.13530000  0.45440000  0.73440000  1.0 0.1497713232
C  C1  1  0.51620000  0.03510000  0.80600000  1.0 0.0114614883
C  C2  1  0.41730000  0.98760000  0.87370000  1.0 0.0485340808
C  C3  1  0.56980000  0.98800000  0.86640000  1.0 0.0594415868
C  C4  1  0.56900000  0.13950000  0.85460000  1.0 0.4152585769
C  C5  1  0.37880000  0.75710000  0.80800000  1.0 -0.0290862752
C  C6  1  0.37240000  0.88960000  0.79300000  1.0 -0.0995854815
C  C7  1  0.51700000  0.89110000  0.78800000  1.0 -0.1083078728
C  C8  1  0.37900000  0.75660000  0.92700000  1.0 0.1747223839
C  C9  1  0.36910000  0.88910000  0.95900000  1.0 -0.0933075642
C  C10  1  0.51990000  0.89030000  0.96500000  1.0 -0.15319247
C  C11  1  0.51760000  0.03650000  0.94400000  1.0 -0.0290862752
C  C12  1  0.51890000  0.48380000  0.80600000  1.0 -0.0022500541
C  C13  1  0.57030000  0.58270000  0.87370000  1.0 0.0485340808
C  C14  1  0.41820000  0.43020000  0.86640000  1.0 0.0594415868
C  C15  1  0.57050000  0.43100000  0.85460000  1.0 0.4146082605
C  C16  1  0.37830000  0.62120000  0.80800000  1.0 -0.0290862752
C  C17  1  0.51720000  0.62760000  0.79300000  1.0 -0.0995854815
C  C18  1  0.37410000  0.48300000  0.78800000  1.0 -0.1083078728
C  C19  1  0.37760000  0.62100000  0.92700000  1.0 0.1747223839
C  C20  1  0.52000000  0.63090000  0.95900000  1.0 -0.0995854815
C  C21  1  0.37040000  0.48010000  0.96500000  1.0 -0.15319247
C  C22  1  0.51890000  0.48240000  0.94400000  1.0 -0.0249485505
C  C23  1  0.96490000  0.48110000  0.80600000  1.0 -0.0022500541
C  C24  1  0.01240000  0.42970000  0.87370000  1.0 0.0485340808
C  C25  1  0.01200000  0.58180000  0.86640000  1.0 0.0594415868
C  C26  1  0.86050000  0.42950000  0.85460000  1.0 0.4146082605
C  C27  1  0.24290000  0.62170000  0.80800000  1.0 -0.0290862752
C  C28  1  0.11040000  0.48280000  0.79300000  1.0 -0.0995854815
C  C29  1  0.10890000  0.62590000  0.78800000  1.0 -0.1083078728
C  C30  1  0.24340000  0.62240000  0.92700000  1.0 0.1747223839
C  C31  1  0.11090000  0.48000000  0.95900000  1.0 -0.0995854815
C  C32  1  0.10970000  0.62960000  0.96500000  1.0 -0.15319247
C  C33  1  0.96350000  0.48110000  0.94400000  1.0 -0.0249485505
N  N1  1  0.41900000  0.84280000  0.84000000  1.0 0.0871532986
N  N2  1  0.42830000  0.71410000  0.82000000  1.0 -0.0573839491
N  N3  1  0.43060000  0.71570000  0.92670000  1.0 -0.0708843192
N  N4  1  0.42620000  0.84810000  0.92300000  1.0 0.0326298014
N  N5  1  0.42380000  0.58100000  0.84000000  1.0 0.0871532986
N  N6  1  0.28580000  0.57170000  0.82000000  1.0 -0.0573839491
N  N7  1  0.28510000  0.56940000  0.92670000  1.0 -0.0708843192
N  N8  1  0.42190000  0.57380000  0.92300000  1.0 0.0326298014
N  N9  1  0.15720000  0.57620000  0.84000000  1.0 0.0871532986
N  N10  1  0.28590000  0.71420000  0.82000000  1.0 -0.0573839491
N  N11  1  0.28430000  0.71490000  0.92670000  1.0 -0.0708843192
N  N12  1  0.15190000  0.57810000  0.92300000  1.0 0.0326298014
O  O1  1  0.52200000  0.19010000  0.85700000  1.0 -0.6067814922
O  O2  1  0.66850000  0.18840000  0.85790000  1.0 -0.6013746952
O  O3  1  0.66810000  0.47800000  0.85700000  1.0 -0.6013746952
O  O4  1  0.51990000  0.33150000  0.85790000  1.0 -0.5943707322
O  O5  1  0.80990000  0.33190000  0.85700000  1.0 -0.6013746952
O  O6  1  0.81160000  0.48010000  0.85790000  1.0 -0.5943707322
