# DDEC6 charges by PACMAN v1.1 (https://github.com/mtap-research/PACMAN-charge/)
data_FIDFAC_FSR_pacman
_symmetry_space_group_name_H-M   'P 1'
_cell_length_a   12.93320000
_cell_length_b   12.93320000
_cell_length_c   21.16070000
_cell_angle_alpha   86.73690000
_cell_angle_beta   93.26310000
_cell_angle_gamma   78.00600000
_symmetry_Int_Tables_number   1
_chemical_formula_structural   CuH52(C15N)4
_chemical_formula_sum   'Cu2 H104 C120 N8'
_cell_volume   3448.04191125
_cell_formula_units_Z   2
loop_
 _symmetry_equiv_pos_site_id
 _symmetry_equiv_pos_as_xyz
  1  'x, y, z'
loop_
 _atom_site_type_symbol
 _atom_site_label
 _atom_site_symmetry_multiplicity
 _atom_site_fract_x
 _atom_site_fract_y
 _atom_site_fract_z
 _atom_site_occupancy
 _atom_site_charge
Cu  Cu1  1  0.43995000  0.43995000  0.75000000  1.0 0.2039161996
Cu  Cu2  1  0.56005000  0.56005000  0.25000000  1.0 0.2039161996
H  H1  1  0.54763000  0.42671000  0.62781000  1.0 0.1033851808
H  H2  1  0.67434000  0.31920000  0.57716000  1.0 0.1361572222
H  H3  1  0.70516000  0.10674000  0.72311000  1.0 0.148926817
H  H4  1  0.57514000  0.22048000  0.76969000  1.0 0.1100001813
H  H5  1  0.81510000  0.05804000  0.63692000  1.0 0.148926817
H  H6  1  0.80973000  0.20541000  0.54020000  1.0 0.1180615509
H  H7  1  0.02542000  0.75212000  0.44713000  1.0 0.1180615509
H  H8  1  0.88006000  0.69216000  0.47636000  1.0 0.1100001813
H  H9  1  0.74707000  0.80011000  0.52613000  1.0 0.1180615509
H  H10  1  0.76273000  0.96385000  0.55153000  1.0 0.1180615509
H  H11  1  0.30882000  0.34966000  0.65942000  1.0 0.1033851808
H  H12  1  0.18976000  0.23830000  0.65780000  1.0 0.1361572222
H  H13  1  0.14766000  0.09588000  0.69057000  1.0 0.0719446625
H  H14  1  0.05528000  0.18880000  0.70580000  1.0 0.0773438654
H  H15  1  0.15535000  0.02843000  0.78902000  1.0 0.0773438654
H  H16  1  0.06259000  0.12063000  0.80373000  1.0 0.0719446625
H  H17  1  0.94739000  0.16123000  0.82875000  1.0 0.1033851808
H  H18  1  0.81102000  0.18410000  0.89062000  1.0 0.1100001813
H  H19  1  0.69787000  0.06497000  0.89372000  1.0 0.1100001813
H  H20  1  0.72797000  0.92299000  0.83467000  1.0 0.1100001813
H  H21  1  0.78627000  0.78513000  0.80670000  1.0 0.0719446625
H  H22  1  0.85931000  0.71245000  0.76366000  1.0 0.0719446625
H  H23  1  0.67054000  0.83872000  0.72571000  1.0 0.0773438654
H  H24  1  0.74410000  0.76482000  0.68256000  1.0 0.0773438654
H  H25  1  0.57029000  0.75905000  0.68307000  1.0 0.1361572222
H  H26  1  0.45876000  0.64246000  0.68707000  1.0 0.1033851808
H  H27  1  0.42671000  0.54763000  0.87219000  1.0 0.1033851808
H  H28  1  0.31920000  0.67434000  0.92284000  1.0 0.1361572222
H  H29  1  0.10674000  0.70516000  0.77689000  1.0 0.148926817
H  H30  1  0.22048000  0.57514000  0.73031000  1.0 0.1100001813
H  H31  1  0.05804000  0.81510000  0.86308000  1.0 0.148926817
H  H32  1  0.20541000  0.80973000  0.95980000  1.0 0.1180615509
H  H33  1  0.75212000  0.02542000  0.05287000  1.0 0.1180615509
H  H34  1  0.69216000  0.88006000  0.02364000  1.0 0.1100001813
H  H35  1  0.80011000  0.74707000  0.97387000  1.0 0.1180615509
H  H36  1  0.96385000  0.76273000  0.94847000  1.0 0.1180615509
H  H37  1  0.34966000  0.30882000  0.84058000  1.0 0.1033851808
H  H38  1  0.23830000  0.18976000  0.84220000  1.0 0.1361572222
H  H39  1  0.09588000  0.14766000  0.80943000  1.0 0.0719446625
H  H40  1  0.18880000  0.05528000  0.79420000  1.0 0.0773438654
H  H41  1  0.02843000  0.15535000  0.71098000  1.0 0.0773438654
H  H42  1  0.12063000  0.06259000  0.69627000  1.0 0.0719446625
H  H43  1  0.16123000  0.94739000  0.67125000  1.0 0.1033851808
H  H44  1  0.18410000  0.81102000  0.60938000  1.0 0.1100001813
H  H45  1  0.06497000  0.69787000  0.60628000  1.0 0.1100001813
H  H46  1  0.92299000  0.72797000  0.66533000  1.0 0.1100001813
H  H47  1  0.78513000  0.78627000  0.69330000  1.0 0.0719446625
H  H48  1  0.71245000  0.85931000  0.73634000  1.0 0.0719446625
H  H49  1  0.83872000  0.67054000  0.77429000  1.0 0.0773438654
H  H50  1  0.76482000  0.74410000  0.81744000  1.0 0.0773438654
H  H51  1  0.75905000  0.57029000  0.81693000  1.0 0.1361572222
H  H52  1  0.64246000  0.45876000  0.81293000  1.0 0.1033851808
H  H53  1  0.45237000  0.57329000  0.37219000  1.0 0.1033851808
H  H54  1  0.32566000  0.68080000  0.42284000  1.0 0.1361572222
H  H55  1  0.29484000  0.89326000  0.27689000  1.0 0.148926817
H  H56  1  0.42486000  0.77952000  0.23031000  1.0 0.1100001813
H  H57  1  0.18490000  0.94196000  0.36308000  1.0 0.148926817
H  H58  1  0.19027000  0.79459000  0.45980000  1.0 0.1180615509
H  H59  1  0.97458000  0.24788000  0.55287000  1.0 0.1180615509
H  H60  1  0.11994000  0.30784000  0.52364000  1.0 0.1100001813
H  H61  1  0.25293000  0.19989000  0.47387000  1.0 0.1180615509
H  H62  1  0.23727000  0.03615000  0.44847000  1.0 0.1180615509
H  H63  1  0.69118000  0.65034000  0.34058000  1.0 0.1033851808
H  H64  1  0.81024000  0.76170000  0.34220000  1.0 0.1341519878
H  H65  1  0.85234000  0.90412000  0.30943000  1.0 0.0719446625
H  H66  1  0.94472000  0.81120000  0.29420000  1.0 0.0773438654
H  H67  1  0.84465000  0.97157000  0.21098000  1.0 0.0773438654
H  H68  1  0.93741000  0.87937000  0.19627000  1.0 0.0719446625
H  H69  1  0.05261000  0.83877000  0.17125000  1.0 0.1033851808
H  H70  1  0.18898000  0.81590000  0.10938000  1.0 0.1100001813
H  H71  1  0.30213000  0.93503000  0.10628000  1.0 0.1100001813
H  H72  1  0.27203000  0.07701000  0.16533000  1.0 0.1100001813
H  H73  1  0.21373000  0.21487000  0.19330000  1.0 0.0719446625
H  H74  1  0.14069000  0.28755000  0.23634000  1.0 0.0719446625
H  H75  1  0.32946000  0.16128000  0.27429000  1.0 0.0773438654
H  H76  1  0.25590000  0.23518000  0.31744000  1.0 0.0773438654
H  H77  1  0.42971000  0.24095000  0.31693000  1.0 0.1361572222
H  H78  1  0.54124000  0.35754000  0.31293000  1.0 0.1033851808
H  H79  1  0.57329000  0.45237000  0.12781000  1.0 0.1033851808
H  H80  1  0.68080000  0.32566000  0.07716000  1.0 0.1361572222
H  H81  1  0.89326000  0.29484000  0.22311000  1.0 0.148926817
H  H82  1  0.77952000  0.42486000  0.26969000  1.0 0.1100001813
H  H83  1  0.94196000  0.18490000  0.13692000  1.0 0.148926817
H  H84  1  0.79459000  0.19027000  0.04020000  1.0 0.1180615509
H  H85  1  0.24788000  0.97458000  0.94713000  1.0 0.1180615509
H  H86  1  0.30784000  0.11994000  0.97636000  1.0 0.1100001813
H  H87  1  0.19989000  0.25293000  0.02613000  1.0 0.1180615509
H  H88  1  0.03615000  0.23727000  0.05153000  1.0 0.1180615509
H  H89  1  0.65034000  0.69118000  0.15942000  1.0 0.1033851808
H  H90  1  0.76170000  0.81024000  0.15780000  1.0 0.1341519878
H  H91  1  0.90412000  0.85234000  0.19057000  1.0 0.0719446625
H  H92  1  0.81120000  0.94472000  0.20580000  1.0 0.0773438654
H  H93  1  0.97157000  0.84465000  0.28902000  1.0 0.0773438654
H  H94  1  0.87937000  0.93741000  0.30373000  1.0 0.0719446625
H  H95  1  0.83877000  0.05261000  0.32875000  1.0 0.1033851808
H  H96  1  0.81590000  0.18898000  0.39062000  1.0 0.1100001813
H  H97  1  0.93503000  0.30213000  0.39372000  1.0 0.1100001813
H  H98  1  0.07701000  0.27203000  0.33467000  1.0 0.1100001813
H  H99  1  0.21487000  0.21373000  0.30670000  1.0 0.0719446625
H  H100  1  0.28755000  0.14069000  0.26366000  1.0 0.0719446625
H  H101  1  0.16128000  0.32946000  0.22571000  1.0 0.0773438654
H  H102  1  0.23518000  0.25590000  0.18256000  1.0 0.0773438654
H  H103  1  0.24095000  0.42971000  0.18307000  1.0 0.1361572222
H  H104  1  0.35754000  0.54124000  0.18707000  1.0 0.1033851808
C  C1  1  0.57940000  0.36100000  0.64780000  1.0 0.0496333863
C  C2  1  0.65650000  0.29650000  0.61680000  1.0 -0.196925865
C  C3  1  0.70640000  0.19940000  0.64410000  1.0 0.148926817
C  C4  1  0.67420000  0.17200000  0.70220000  1.0 -0.2092060297
C  C5  1  0.59530000  0.24150000  0.73030000  1.0 0.0496333863
C  C6  1  0.79080000  0.12380000  0.61490000  1.0 -0.2230223044
C  C7  1  0.83450000  0.13950000  0.56200000  1.0 -0.1610959451
C  C8  1  0.91890000  0.06550000  0.53200000  1.0 0.0273910998
C  C9  1  0.90790000  0.96390000  0.51690000  1.0 0.0240799734
C  C10  1  0.98980000  0.89860000  0.48440000  1.0 0.0273910998
C  C11  1  0.97470000  0.79530000  0.46880000  1.0 -0.1610959451
C  C12  1  0.88700000  0.76000000  0.48550000  1.0 -0.1010509778
C  C13  1  0.80720000  0.82480000  0.51610000  1.0 -0.1010509778
C  C14  1  0.81670000  0.92230000  0.53120000  1.0 -0.1458792648
C  C15  1  0.29430000  0.31870000  0.69770000  1.0 0.0496333863
C  C16  1  0.22240000  0.24980000  0.69630000  1.0 -0.2914571985
C  C17  1  0.11820000  0.13900000  0.72390000  1.0 -0.1164281665
C  C18  1  0.09150000  0.07650000  0.77070000  1.0 -0.0768594983
C  C19  1  0.92670000  0.02470000  0.79000000  1.0 -0.0719654568
C  C20  1  0.90390000  0.11230000  0.82910000  1.0 -0.1927010369
C  C21  1  0.82280000  0.12620000  0.86590000  1.0 -0.1052991064
C  C22  1  0.75440000  0.05460000  0.86790000  1.0 -0.0913064274
C  C23  1  0.77220000  0.97100000  0.83210000  1.0 -0.2092060297
C  C24  1  0.85620000  0.95260000  0.79000000  1.0 -0.0913064274
C  C25  1  0.80890000  0.77930000  0.76390000  1.0 -0.0719654568
C  C26  1  0.72380000  0.77380000  0.72570000  1.0 -0.1312588527
C  C27  1  0.58710000  0.69850000  0.71070000  1.0 -0.2787502034
C  C28  1  0.52090000  0.62710000  0.71330000  1.0 0.0273910998
C  C29  1  0.36100000  0.57940000  0.85220000  1.0 0.0496333863
C  C30  1  0.29650000  0.65650000  0.88320000  1.0 -0.196925865
C  C31  1  0.19940000  0.70640000  0.85590000  1.0 0.148926817
C  C32  1  0.17200000  0.67420000  0.79780000  1.0 -0.2092060297
C  C33  1  0.24150000  0.59530000  0.76970000  1.0 0.0496333863
C  C34  1  0.12380000  0.79080000  0.88510000  1.0 -0.2230223044
C  C35  1  0.13950000  0.83450000  0.93800000  1.0 -0.1610959451
C  C36  1  0.06550000  0.91890000  0.96800000  1.0 0.0273910998
C  C37  1  0.96390000  0.90790000  0.98310000  1.0 0.0240799734
C  C38  1  0.89860000  0.98980000  0.01560000  1.0 0.0273910998
C  C39  1  0.79530000  0.97470000  0.03120000  1.0 -0.1610959451
C  C40  1  0.76000000  0.88700000  0.01450000  1.0 -0.1010509778
C  C41  1  0.82480000  0.80720000  0.98390000  1.0 -0.1052991064
C  C42  1  0.92230000  0.81670000  0.96880000  1.0 -0.1458792648
C  C43  1  0.31870000  0.29430000  0.80230000  1.0 0.0496333863
C  C44  1  0.24980000  0.22240000  0.80370000  1.0 -0.2914571985
C  C45  1  0.13900000  0.11820000  0.77610000  1.0 -0.1164281665
C  C46  1  0.07650000  0.09150000  0.72930000  1.0 -0.0768594983
C  C47  1  0.02470000  0.92670000  0.71000000  1.0 -0.0719654568
C  C48  1  0.11230000  0.90390000  0.67090000  1.0 -0.1927010369
C  C49  1  0.12620000  0.82280000  0.63410000  1.0 -0.1052991064
C  C50  1  0.05460000  0.75440000  0.63210000  1.0 -0.0913064274
C  C51  1  0.97100000  0.77220000  0.66790000  1.0 -0.2092060297
C  C52  1  0.95260000  0.85620000  0.71000000  1.0 -0.0913064274
C  C53  1  0.77930000  0.80890000  0.73610000  1.0 -0.0719654568
C  C54  1  0.77380000  0.72380000  0.77430000  1.0 -0.1312588527
C  C55  1  0.69850000  0.58710000  0.78930000  1.0 -0.2787502034
C  C56  1  0.62710000  0.52090000  0.78670000  1.0 0.0273910998
C  C57  1  0.42060000  0.63900000  0.35220000  1.0 0.0496333863
C  C58  1  0.34350000  0.70350000  0.38320000  1.0 -0.196925865
C  C59  1  0.29360000  0.80060000  0.35590000  1.0 0.148926817
C  C60  1  0.32580000  0.82800000  0.29780000  1.0 -0.2092060297
C  C61  1  0.40470000  0.75850000  0.26970000  1.0 0.0496333863
C  C62  1  0.20920000  0.87620000  0.38510000  1.0 -0.225308664
C  C63  1  0.16550000  0.86050000  0.43800000  1.0 -0.1610959451
C  C64  1  0.08110000  0.93450000  0.46800000  1.0 0.0273910998
C  C65  1  0.09210000  0.03610000  0.48310000  1.0 0.0240799734
C  C66  1  0.01020000  0.10140000  0.51560000  1.0 0.0273910998
C  C67  1  0.02530000  0.20470000  0.53120000  1.0 -0.1610959451
C  C68  1  0.11300000  0.24000000  0.51450000  1.0 -0.1010509778
C  C69  1  0.19280000  0.17520000  0.48390000  1.0 -0.1010509778
C  C70  1  0.18330000  0.07770000  0.46880000  1.0 -0.1458792648
C  C71  1  0.70570000  0.68130000  0.30230000  1.0 0.0496333863
C  C72  1  0.77760000  0.75020000  0.30370000  1.0 -0.2914571985
C  C73  1  0.88180000  0.86100000  0.27610000  1.0 -0.1164281665
C  C74  1  0.90850000  0.92350000  0.22930000  1.0 -0.0768594983
C  C75  1  0.07330000  0.97530000  0.21000000  1.0 -0.0719654568
C  C76  1  0.09610000  0.88770000  0.17090000  1.0 -0.196925865
C  C77  1  0.17720000  0.87380000  0.13410000  1.0 -0.1052991064
C  C78  1  0.24560000  0.94540000  0.13210000  1.0 -0.0913064274
C  C79  1  0.22780000  0.02900000  0.16790000  1.0 -0.2092060297
C  C80  1  0.14380000  0.04740000  0.21000000  1.0 -0.0913064274
C  C81  1  0.19110000  0.22070000  0.23610000  1.0 -0.0719654568
C  C82  1  0.27620000  0.22620000  0.27430000  1.0 -0.1312588527
C  C83  1  0.41290000  0.30150000  0.28930000  1.0 -0.2787502034
C  C84  1  0.47910000  0.37290000  0.28670000  1.0 0.0273910998
C  C85  1  0.63900000  0.42060000  0.14780000  1.0 0.0496333863
C  C86  1  0.70350000  0.34350000  0.11680000  1.0 -0.196925865
C  C87  1  0.80060000  0.29360000  0.14410000  1.0 0.148926817
C  C88  1  0.82800000  0.32580000  0.20220000  1.0 -0.2092060297
C  C89  1  0.75850000  0.40470000  0.23030000  1.0 0.0496333863
C  C90  1  0.87620000  0.20920000  0.11490000  1.0 -0.225308664
C  C91  1  0.86050000  0.16550000  0.06200000  1.0 -0.1610959451
C  C92  1  0.93450000  0.08110000  0.03200000  1.0 0.0273910998
C  C93  1  0.03610000  0.09210000  0.01690000  1.0 0.0240799734
C  C94  1  0.10140000  0.01020000  0.98440000  1.0 0.0273910998
C  C95  1  0.20470000  0.02530000  0.96880000  1.0 -0.1610959451
C  C96  1  0.24000000  0.11300000  0.98550000  1.0 -0.1010509778
C  C97  1  0.17520000  0.19280000  0.01610000  1.0 -0.1052991064
C  C98  1  0.07770000  0.18330000  0.03120000  1.0 -0.1458792648
C  C99  1  0.68130000  0.70570000  0.19770000  1.0 0.0496333863
C  C100  1  0.75020000  0.77760000  0.19630000  1.0 -0.2914571985
C  C101  1  0.86100000  0.88180000  0.22390000  1.0 -0.1164281665
C  C102  1  0.92350000  0.90850000  0.27070000  1.0 -0.0768594983
C  C103  1  0.97530000  0.07330000  0.29000000  1.0 -0.0719654568
C  C104  1  0.88770000  0.09610000  0.32910000  1.0 -0.1927010369
C  C105  1  0.87380000  0.17720000  0.36590000  1.0 -0.1052991064
C  C106  1  0.94540000  0.24560000  0.36790000  1.0 -0.0913064274
C  C107  1  0.02900000  0.22780000  0.33210000  1.0 -0.2092060297
C  C108  1  0.04740000  0.14380000  0.29000000  1.0 -0.0913064274
C  C109  1  0.22070000  0.19110000  0.26390000  1.0 -0.0719654568
C  C110  1  0.22620000  0.27620000  0.22570000  1.0 -0.1312588527
C  C111  1  0.30150000  0.41290000  0.21070000  1.0 -0.2787502034
C  C112  1  0.37290000  0.47910000  0.21330000  1.0 0.0273910998
C  C113  1  0.20090000  0.20090000  0.75000000  1.0 0.1361572222
C  C114  1  0.01030000  0.01030000  0.75000000  1.0 0.0426552781
C  C115  1  0.86950000  0.86950000  0.75000000  1.0 0.0496333863
C  C116  1  0.67770000  0.67770000  0.75000000  1.0 0.1180615509
C  C117  1  0.79910000  0.79910000  0.25000000  1.0 0.1361572222
C  C118  1  0.98970000  0.98970000  0.25000000  1.0 0.0426552781
C  C119  1  0.13050000  0.13050000  0.25000000  1.0 0.0496333863
C  C120  1  0.32230000  0.32230000  0.25000000  1.0 0.1180615509
N  N1  1  0.54790000  0.33570000  0.70370000  1.0 -0.1927010369
N  N2  1  0.33570000  0.54790000  0.79630000  1.0 -0.1927010369
N  N3  1  0.45210000  0.66430000  0.29630000  1.0 -0.1927010369
N  N4  1  0.66430000  0.45210000  0.20370000  1.0 -0.1927010369
N  N5  1  0.34130000  0.34130000  0.75000000  1.0 -0.1927010369
N  N6  1  0.53960000  0.53960000  0.75000000  1.0 -0.1927010369
N  N7  1  0.65870000  0.65870000  0.25000000  1.0 -0.1927010369
N  N8  1  0.46040000  0.46040000  0.25000000  1.0 -0.1927010369
