# DDEC6 charges by PACMAN v1.1 (https://github.com/mtap-research/PACMAN-charge/)
data_FIDRIV_ASR_pacman
_symmetry_space_group_name_H-M   'P 1'
_cell_length_a   23.69720000
_cell_length_b   23.69720000
_cell_length_c   14.12730000
_cell_angle_alpha   90.00000000
_cell_angle_beta   90.00000000
_cell_angle_gamma   90.00000000
_symmetry_Int_Tables_number   1
_chemical_formula_structural   NaDyH32(C19O5)2
_chemical_formula_sum   'Na4 Dy4 H128 C152 O40'
_cell_volume   7933.28827250
_cell_formula_units_Z   4
loop_
 _symmetry_equiv_pos_site_id
 _symmetry_equiv_pos_as_xyz
  1  'x, y, z'
loop_
 _atom_site_type_symbol
 _atom_site_label
 _atom_site_symmetry_multiplicity
 _atom_site_fract_x
 _atom_site_fract_y
 _atom_site_fract_z
 _atom_site_occupancy
 _atom_site_charge
Na  Na1  1  0.50000000  0.08101000  0.75000000  1.0 0.9078014515
Na  Na2  1  0.08101000  0.50000000  0.00000000  1.0 0.9078014515
Na  Na3  1  0.50000000  0.91899000  0.25000000  1.0 0.9078014515
Na  Na4  1  0.91899000  0.50000000  0.50000000  1.0 0.9049216133
Dy  Dy1  1  0.40988000  0.00000000  0.00000000  1.0 2.0298542005
Dy  Dy2  1  0.00000000  0.59012000  0.25000000  1.0 2.0298542005
Dy  Dy3  1  0.59012000  0.00000000  0.50000000  1.0 2.0298542005
Dy  Dy4  1  0.00000000  0.40988000  0.75000000  1.0 2.0298542005
H  H1  1  0.52870000  0.04080000  0.15390000  1.0 0.1302347773
H  H2  1  0.04080000  0.47130000  0.40390000  1.0 0.1302347773
H  H3  1  0.47130000  0.95920000  0.65390000  1.0 0.1302347773
H  H4  1  0.95920000  0.52870000  0.90390000  1.0 0.1302347773
H  H5  1  0.47130000  0.04080000  0.34610000  1.0 0.1302347773
H  H6  1  0.52870000  0.95920000  0.84610000  1.0 0.1302347773
H  H7  1  0.04080000  0.52870000  0.59610000  1.0 0.1302347773
H  H8  1  0.95920000  0.47130000  0.09610000  1.0 0.1302347773
H  H9  1  0.69260000  0.05600000  0.22230000  1.0 0.1302347773
H  H10  1  0.05600000  0.30740000  0.47230000  1.0 0.1302347773
H  H11  1  0.30740000  0.94400000  0.72230000  1.0 0.1302347773
H  H12  1  0.94400000  0.69260000  0.97230000  1.0 0.1302347773
H  H13  1  0.30740000  0.05600000  0.27770000  1.0 0.1302347773
H  H14  1  0.69260000  0.94400000  0.77770000  1.0 0.1302347773
H  H15  1  0.05600000  0.69260000  0.52770000  1.0 0.1302347773
H  H16  1  0.94400000  0.30740000  0.02770000  1.0 0.1302347773
H  H17  1  0.64000000  0.09590000  0.96030000  1.0 0.1302347773
H  H18  1  0.09590000  0.36000000  0.21030000  1.0 0.1302347773
H  H19  1  0.36000000  0.90410000  0.46030000  1.0 0.1302347773
H  H20  1  0.90410000  0.64000000  0.71030000  1.0 0.1302347773
H  H21  1  0.36000000  0.09590000  0.53970000  1.0 0.1302347773
H  H22  1  0.64000000  0.90410000  0.03970000  1.0 0.1302347773
H  H23  1  0.09590000  0.64000000  0.78970000  1.0 0.1302347773
H  H24  1  0.90410000  0.36000000  0.28970000  1.0 0.1302347773
H  H25  1  0.73440000  0.05050000  0.93920000  1.0 0.1182907235
H  H26  1  0.05050000  0.26560000  0.18920000  1.0 0.1182907235
H  H27  1  0.26560000  0.94950000  0.43920000  1.0 0.1182907235
H  H28  1  0.94950000  0.73440000  0.68920000  1.0 0.1182907235
H  H29  1  0.26560000  0.05050000  0.56080000  1.0 0.1182907235
H  H30  1  0.73440000  0.94950000  0.06080000  1.0 0.1182907235
H  H31  1  0.05050000  0.73440000  0.81080000  1.0 0.1182907235
H  H32  1  0.94950000  0.26560000  0.31080000  1.0 0.1134461021
H  H33  1  0.70550000  0.14570000  0.21640000  1.0 0.1182907235
H  H34  1  0.14570000  0.29450000  0.46640000  1.0 0.1182907235
H  H35  1  0.29450000  0.85430000  0.71640000  1.0 0.1182907235
H  H36  1  0.85430000  0.70550000  0.96640000  1.0 0.1182907235
H  H37  1  0.29450000  0.14570000  0.28360000  1.0 0.1182907235
H  H38  1  0.70550000  0.85430000  0.78360000  1.0 0.1182907235
H  H39  1  0.14570000  0.70550000  0.53360000  1.0 0.1182907235
H  H40  1  0.85430000  0.29450000  0.03360000  1.0 0.1182907235
H  H41  1  0.76580000  0.14790000  0.26200000  1.0 0.1383903731
H  H42  1  0.14790000  0.23420000  0.51200000  1.0 0.1383903731
H  H43  1  0.23420000  0.85210000  0.76200000  1.0 0.1383903731
H  H44  1  0.85210000  0.76580000  0.01200000  1.0 0.1383903731
H  H45  1  0.23420000  0.14790000  0.23800000  1.0 0.1383903731
H  H46  1  0.76580000  0.85210000  0.73800000  1.0 0.1383903731
H  H47  1  0.14790000  0.76580000  0.48800000  1.0 0.1383903731
H  H48  1  0.85210000  0.23420000  0.98800000  1.0 0.1383903731
H  H49  1  0.74490000  0.19780000  0.19820000  1.0 0.1383903731
H  H50  1  0.19780000  0.25510000  0.44820000  1.0 0.1383903731
H  H51  1  0.25510000  0.80220000  0.69820000  1.0 0.1383903731
H  H52  1  0.80220000  0.74490000  0.94820000  1.0 0.1383903731
H  H53  1  0.25510000  0.19780000  0.30180000  1.0 0.1383903731
H  H54  1  0.74490000  0.80220000  0.80180000  1.0 0.1383903731
H  H55  1  0.19780000  0.74490000  0.55180000  1.0 0.1383903731
H  H56  1  0.80220000  0.25510000  0.05180000  1.0 0.1383903731
H  H57  1  0.91340000  0.04830000  0.90160000  1.0 0.1383903731
H  H58  1  0.04830000  0.08660000  0.15160000  1.0 0.1383903731
H  H59  1  0.08660000  0.95170000  0.40160000  1.0 0.1383903731
H  H60  1  0.95170000  0.91340000  0.65160000  1.0 0.1383903731
H  H61  1  0.08660000  0.04830000  0.59840000  1.0 0.1383903731
H  H62  1  0.91340000  0.95170000  0.09840000  1.0 0.1383903731
H  H63  1  0.04830000  0.91340000  0.84840000  1.0 0.1383903731
H  H64  1  0.95170000  0.08660000  0.34840000  1.0 0.1383903731
H  H65  1  0.87420000  0.99500000  0.90460000  1.0 0.1302347773
H  H66  1  0.99500000  0.12580000  0.15460000  1.0 0.1302347773
H  H67  1  0.12580000  0.00500000  0.40460000  1.0 0.1302347773
H  H68  1  0.00500000  0.87420000  0.65460000  1.0 0.1302347773
H  H69  1  0.12580000  0.99500000  0.59540000  1.0 0.1302347773
H  H70  1  0.87420000  0.00500000  0.09540000  1.0 0.1302347773
H  H71  1  0.99500000  0.87420000  0.84540000  1.0 0.1302347773
H  H72  1  0.00500000  0.12580000  0.34540000  1.0 0.1302347773
H  H73  1  0.90000000  0.01520000  0.80820000  1.0 0.1383903731
H  H74  1  0.01520000  0.10000000  0.05820000  1.0 0.1383903731
H  H75  1  0.10000000  0.98480000  0.30820000  1.0 0.1383903731
H  H76  1  0.98480000  0.90000000  0.55820000  1.0 0.1383903731
H  H77  1  0.10000000  0.01520000  0.69180000  1.0 0.1383903731
H  H78  1  0.90000000  0.98480000  0.19180000  1.0 0.1383903731
H  H79  1  0.01520000  0.90000000  0.94180000  1.0 0.1383903731
H  H80  1  0.98480000  0.10000000  0.44180000  1.0 0.1383903731
H  H81  1  0.82050000  0.13910000  0.78170000  1.0 0.1134461021
H  H82  1  0.13910000  0.17950000  0.03170000  1.0 0.1134461021
H  H83  1  0.17950000  0.86090000  0.28170000  1.0 0.1134461021
H  H84  1  0.86090000  0.82050000  0.53170000  1.0 0.1134461021
H  H85  1  0.17950000  0.13910000  0.71830000  1.0 0.1134461021
H  H86  1  0.82050000  0.86090000  0.21830000  1.0 0.1134461021
H  H87  1  0.13910000  0.82050000  0.96830000  1.0 0.1134461021
H  H88  1  0.86090000  0.17950000  0.46830000  1.0 0.1134461021
H  H89  1  0.88210000  0.13530000  0.82140000  1.0 0.1383903731
H  H90  1  0.13530000  0.11790000  0.07140000  1.0 0.1383903731
H  H91  1  0.11790000  0.86470000  0.32140000  1.0 0.1383903731
H  H92  1  0.86470000  0.88210000  0.57140000  1.0 0.1383903731
H  H93  1  0.11790000  0.13530000  0.67860000  1.0 0.1383903731
H  H94  1  0.88210000  0.86470000  0.17860000  1.0 0.1383903731
H  H95  1  0.13530000  0.88210000  0.92860000  1.0 0.1383903731
H  H96  1  0.86470000  0.11790000  0.42860000  1.0 0.1383903731
H  H97  1  0.86550000  0.10180000  0.73000000  1.0 0.1182907235
H  H98  1  0.10180000  0.13450000  0.98000000  1.0 0.1182907235
H  H99  1  0.13450000  0.89820000  0.23000000  1.0 0.1182907235
H  H100  1  0.89820000  0.86550000  0.48000000  1.0 0.1182907235
H  H101  1  0.13450000  0.10180000  0.77000000  1.0 0.1182907235
H  H102  1  0.86550000  0.89820000  0.27000000  1.0 0.1182907235
H  H103  1  0.10180000  0.86550000  0.02000000  1.0 0.1182907235
H  H104  1  0.89820000  0.13450000  0.52000000  1.0 0.1182907235
H  H105  1  0.75970000  0.04940000  0.78700000  1.0 0.1302347773
H  H106  1  0.04940000  0.24030000  0.03700000  1.0 0.1302347773
H  H107  1  0.24030000  0.95060000  0.28700000  1.0 0.1302347773
H  H108  1  0.95060000  0.75970000  0.53700000  1.0 0.1302347773
H  H109  1  0.24030000  0.04940000  0.71300000  1.0 0.1302347773
H  H110  1  0.75970000  0.95060000  0.21300000  1.0 0.1302347773
H  H111  1  0.04940000  0.75970000  0.96300000  1.0 0.1302347773
H  H112  1  0.95060000  0.24030000  0.46300000  1.0 0.1302347773
H  H113  1  0.80950000  0.01610000  0.73980000  1.0 0.1383903731
H  H114  1  0.01610000  0.19050000  0.98980000  1.0 0.1383903731
H  H115  1  0.19050000  0.98390000  0.23980000  1.0 0.1383903731
H  H116  1  0.98390000  0.80950000  0.48980000  1.0 0.1383903731
H  H117  1  0.19050000  0.01610000  0.76020000  1.0 0.1383903731
H  H118  1  0.80950000  0.98390000  0.26020000  1.0 0.1383903731
H  H119  1  0.01610000  0.80950000  0.01020000  1.0 0.1383903731
H  H120  1  0.98390000  0.19050000  0.51020000  1.0 0.1383903731
H  H121  1  0.78400000  0.99530000  0.83610000  1.0 0.1182907235
H  H122  1  0.99530000  0.21600000  0.08610000  1.0 0.1182907235
H  H123  1  0.21600000  0.00470000  0.33610000  1.0 0.1182907235
H  H124  1  0.00470000  0.78400000  0.58610000  1.0 0.1182907235
H  H125  1  0.21600000  0.99530000  0.66390000  1.0 0.1182907235
H  H126  1  0.78400000  0.00470000  0.16390000  1.0 0.1182907235
H  H127  1  0.99530000  0.78400000  0.91390000  1.0 0.1182907235
H  H128  1  0.00470000  0.21600000  0.41390000  1.0 0.1182907235
C  C1  1  0.52900000  0.07150000  0.97550000  1.0 0.6406952586
C  C2  1  0.07150000  0.47100000  0.22550000  1.0 0.6406952586
C  C3  1  0.47100000  0.92850000  0.47550000  1.0 0.6406952586
C  C4  1  0.92850000  0.52900000  0.72550000  1.0 0.6406952586
C  C5  1  0.47100000  0.07150000  0.52450000  1.0 0.6406952586
C  C6  1  0.52900000  0.92850000  0.02450000  1.0 0.6406952586
C  C7  1  0.07150000  0.52900000  0.77450000  1.0 0.6406952586
C  C8  1  0.92850000  0.47100000  0.27450000  1.0 0.6406952586
C  C9  1  0.57718000  0.06920000  0.04620000  1.0 -0.0143172232
C  C10  1  0.06920000  0.42282000  0.29620000  1.0 -0.0143172232
C  C11  1  0.42282000  0.93080000  0.54620000  1.0 -0.0143172232
C  C12  1  0.93080000  0.57718000  0.79620000  1.0 -0.0143172232
C  C13  1  0.42282000  0.06920000  0.45380000  1.0 -0.0143172232
C  C14  1  0.57718000  0.93080000  0.95380000  1.0 -0.0143172232
C  C15  1  0.06920000  0.57718000  0.70380000  1.0 -0.0143172232
C  C16  1  0.93080000  0.42282000  0.20380000  1.0 -0.0143172232
C  C17  1  0.56544000  0.05020000  0.13720000  1.0 -0.1113066825
C  C18  1  0.05020000  0.43456000  0.38720000  1.0 -0.1113066825
C  C19  1  0.43456000  0.94980000  0.63720000  1.0 -0.1113066825
C  C20  1  0.94980000  0.56544000  0.88720000  1.0 -0.1113066825
C  C21  1  0.43456000  0.05020000  0.36280000  1.0 -0.1113066825
C  C22  1  0.56544000  0.94980000  0.86280000  1.0 -0.1113066825
C  C23  1  0.05020000  0.56544000  0.61280000  1.0 -0.1113066825
C  C24  1  0.94980000  0.43456000  0.11280000  1.0 -0.1113066825
C  C25  1  0.60867000  0.04530000  0.20320000  1.0 -0.0234432312
C  C26  1  0.04530000  0.39133000  0.45320000  1.0 -0.0234432312
C  C27  1  0.39133000  0.95470000  0.70320000  1.0 -0.0234432312
C  C28  1  0.95470000  0.60867000  0.95320000  1.0 -0.0234432312
C  C29  1  0.39133000  0.04530000  0.29680000  1.0 -0.0234432312
C  C30  1  0.60867000  0.95470000  0.79680000  1.0 -0.0234432312
C  C31  1  0.04530000  0.60867000  0.54680000  1.0 -0.0234432312
C  C32  1  0.95470000  0.39133000  0.04680000  1.0 -0.0234432312
C  C33  1  0.66363000  0.05930000  0.17820000  1.0 -0.1296460017
C  C34  1  0.05930000  0.33637000  0.42820000  1.0 -0.1296460017
C  C35  1  0.33637000  0.94070000  0.67820000  1.0 -0.1296460017
C  C36  1  0.94070000  0.66363000  0.92820000  1.0 -0.1296460017
C  C37  1  0.33637000  0.05930000  0.32180000  1.0 -0.1296460017
C  C38  1  0.66363000  0.94070000  0.82180000  1.0 -0.1296460017
C  C39  1  0.05930000  0.66363000  0.57180000  1.0 -0.1296460017
C  C40  1  0.94070000  0.33637000  0.07180000  1.0 -0.1296460017
C  C41  1  0.67537000  0.07830000  0.08720000  1.0 0.0815757659
C  C42  1  0.07830000  0.32463000  0.33720000  1.0 0.0815757659
C  C43  1  0.32463000  0.92170000  0.58720000  1.0 0.0815757659
C  C44  1  0.92170000  0.67537000  0.83720000  1.0 0.0815757659
C  C45  1  0.32463000  0.07830000  0.41280000  1.0 0.0815757659
C  C46  1  0.67537000  0.92170000  0.91280000  1.0 0.0815757659
C  C47  1  0.07830000  0.67537000  0.66280000  1.0 0.0815757659
C  C48  1  0.92170000  0.32463000  0.16280000  1.0 0.0815757659
C  C49  1  0.63214000  0.08320000  0.02118000  1.0 -0.1365837682
C  C50  1  0.08320000  0.36786000  0.27118000  1.0 -0.1365837682
C  C51  1  0.36786000  0.91680000  0.52118000  1.0 -0.1365837682
C  C52  1  0.91680000  0.63214000  0.77118000  1.0 -0.1365837682
C  C53  1  0.36786000  0.08320000  0.47882000  1.0 -0.1365837682
C  C54  1  0.63214000  0.91680000  0.97882000  1.0 -0.1365837682
C  C55  1  0.08320000  0.63214000  0.72882000  1.0 -0.1365837682
C  C56  1  0.91680000  0.36786000  0.22882000  1.0 -0.1365837682
C  C57  1  0.59610000  0.02670000  0.30070000  1.0 0.6045569203
C  C58  1  0.02670000  0.40390000  0.55070000  1.0 0.6045569203
C  C59  1  0.40390000  0.97330000  0.80070000  1.0 0.6045569203
C  C60  1  0.97330000  0.59610000  0.05070000  1.0 0.6045569203
C  C61  1  0.40390000  0.02670000  0.19930000  1.0 0.6045569203
C  C62  1  0.59610000  0.97330000  0.69930000  1.0 0.6045569203
C  C63  1  0.02670000  0.59610000  0.44930000  1.0 0.6053429466
C  C64  1  0.97330000  0.40390000  0.94930000  1.0 0.6053429466
C  C65  1  0.73495000  0.09460000  0.06190000  1.0 -0.002375386
C  C66  1  0.09460000  0.26505000  0.31190000  1.0 -0.002375386
C  C67  1  0.26505000  0.90540000  0.56190000  1.0 -0.002375386
C  C68  1  0.90540000  0.73495000  0.81190000  1.0 -0.002375386
C  C69  1  0.26505000  0.09460000  0.43810000  1.0 -0.002375386
C  C70  1  0.73495000  0.90540000  0.93810000  1.0 -0.002375386
C  C71  1  0.09460000  0.73495000  0.68810000  1.0 -0.002375386
C  C72  1  0.90540000  0.26505000  0.18810000  1.0 -0.002375386
C  C73  1  0.76841000  0.12820000  0.11970000  1.0 0.0815757659
C  C74  1  0.12820000  0.23159000  0.36970000  1.0 0.0815757659
C  C75  1  0.23159000  0.87180000  0.61970000  1.0 0.0815757659
C  C76  1  0.87180000  0.76841000  0.86970000  1.0 0.0815757659
C  C77  1  0.23159000  0.12820000  0.38030000  1.0 0.0815757659
C  C78  1  0.76841000  0.87180000  0.88030000  1.0 0.0815757659
C  C79  1  0.12820000  0.76841000  0.63030000  1.0 0.0815757659
C  C80  1  0.87180000  0.23159000  0.13030000  1.0 0.0815757659
C  C81  1  0.82367000  0.14030000  0.09370000  1.0 -0.0298734711
C  C82  1  0.14030000  0.17633000  0.34370000  1.0 -0.0298734711
C  C83  1  0.17633000  0.85970000  0.59370000  1.0 -0.0298734711
C  C84  1  0.85970000  0.82367000  0.84370000  1.0 -0.0298734711
C  C85  1  0.17633000  0.14030000  0.40630000  1.0 -0.0298734711
C  C86  1  0.82367000  0.85970000  0.90630000  1.0 -0.0298734711
C  C87  1  0.14030000  0.82367000  0.65630000  1.0 -0.0298734711
C  C88  1  0.85970000  0.17633000  0.15630000  1.0 -0.0298734711
C  C89  1  0.84548000  0.11880000  0.00980000  1.0 0.1817261499
C  C90  1  0.11880000  0.15452000  0.25980000  1.0 0.1817261499
C  C91  1  0.15452000  0.88120000  0.50980000  1.0 0.1817261499
C  C92  1  0.88120000  0.84548000  0.75980000  1.0 0.1817261499
C  C93  1  0.15452000  0.11880000  0.49020000  1.0 0.1817261499
C  C94  1  0.84548000  0.88120000  0.99020000  1.0 0.1817261499
C  C95  1  0.11880000  0.84548000  0.74020000  1.0 0.1817261499
C  C96  1  0.88120000  0.15452000  0.24020000  1.0 0.1817261499
C  C97  1  0.81202000  0.08510000  0.95190000  1.0 -0.002375386
C  C98  1  0.08510000  0.18798000  0.20190000  1.0 -0.002375386
C  C99  1  0.18798000  0.91490000  0.45190000  1.0 -0.002375386
C  C100  1  0.91490000  0.81202000  0.70190000  1.0 -0.002375386
C  C101  1  0.18798000  0.08510000  0.54810000  1.0 -0.002375386
C  C102  1  0.81202000  0.91490000  0.04810000  1.0 -0.002375386
C  C103  1  0.08510000  0.81202000  0.79810000  1.0 -0.002375386
C  C104  1  0.91490000  0.18798000  0.29810000  1.0 -0.002375386
C  C105  1  0.75676000  0.07300000  0.97800000  1.0 -0.1989229548
C  C106  1  0.07300000  0.24324000  0.22800000  1.0 -0.1989229548
C  C107  1  0.24324000  0.92700000  0.47800000  1.0 -0.1989229548
C  C108  1  0.92700000  0.75676000  0.72800000  1.0 -0.1989229548
C  C109  1  0.24324000  0.07300000  0.52200000  1.0 -0.1989229548
C  C110  1  0.75676000  0.92700000  0.02200000  1.0 -0.1989229548
C  C111  1  0.07300000  0.75676000  0.77200000  1.0 -0.1989229548
C  C112  1  0.92700000  0.24324000  0.27200000  1.0 -0.1989229548
C  C113  1  0.74380000  0.15760000  0.20730000  1.0 -0.4207742832
C  C114  1  0.15760000  0.25620000  0.45730000  1.0 -0.4207742832
C  C115  1  0.25620000  0.84240000  0.70730000  1.0 -0.4207742832
C  C116  1  0.84240000  0.74380000  0.95730000  1.0 -0.4207742832
C  C117  1  0.25620000  0.15760000  0.29270000  1.0 -0.4207742832
C  C118  1  0.74380000  0.84240000  0.79270000  1.0 -0.4207742832
C  C119  1  0.15760000  0.74380000  0.54270000  1.0 -0.4207742832
C  C120  1  0.84240000  0.25620000  0.04270000  1.0 -0.4207742832
C  C121  1  0.83530000  0.06380000  0.85190000  1.0 0.2739861381
C  C122  1  0.06380000  0.16470000  0.10190000  1.0 0.2739861381
C  C123  1  0.16470000  0.93620000  0.35190000  1.0 0.2739861381
C  C124  1  0.93620000  0.83530000  0.60190000  1.0 0.2739861381
C  C125  1  0.16470000  0.06380000  0.64810000  1.0 0.2739861381
C  C126  1  0.83530000  0.93620000  0.14810000  1.0 0.2739861381
C  C127  1  0.06380000  0.83530000  0.89810000  1.0 0.2739861381
C  C128  1  0.93620000  0.16470000  0.39810000  1.0 0.2739861381
C  C129  1  0.88510000  0.02740000  0.86800000  1.0 -0.440340724
C  C130  1  0.02740000  0.11490000  0.11800000  1.0 -0.440340724
C  C131  1  0.11490000  0.97260000  0.36800000  1.0 -0.4346148747
C  C132  1  0.97260000  0.88510000  0.61800000  1.0 -0.440340724
C  C133  1  0.11490000  0.02740000  0.63200000  1.0 -0.4346148747
C  C134  1  0.88510000  0.97260000  0.13200000  1.0 -0.440340724
C  C135  1  0.02740000  0.88510000  0.88200000  1.0 -0.440340724
C  C136  1  0.97260000  0.11490000  0.38200000  1.0 -0.4346148747
C  C137  1  0.85250000  0.11480000  0.79050000  1.0 -0.440340724
C  C138  1  0.11480000  0.14750000  0.04050000  1.0 -0.440340724
C  C139  1  0.14750000  0.88520000  0.29050000  1.0 -0.440340724
C  C140  1  0.88520000  0.85250000  0.54050000  1.0 -0.440340724
C  C141  1  0.14750000  0.11480000  0.70950000  1.0 -0.440340724
C  C142  1  0.85250000  0.88520000  0.20950000  1.0 -0.440340724
C  C143  1  0.11480000  0.85250000  0.95950000  1.0 -0.440340724
C  C144  1  0.88520000  0.14750000  0.45950000  1.0 -0.440340724
C  C145  1  0.79330000  0.02790000  0.79890000  1.0 -0.440340724
C  C146  1  0.02790000  0.20670000  0.04890000  1.0 -0.440340724
C  C147  1  0.20670000  0.97210000  0.29890000  1.0 -0.440340724
C  C148  1  0.97210000  0.79330000  0.54890000  1.0 -0.440340724
C  C149  1  0.20670000  0.02790000  0.70110000  1.0 -0.440340724
C  C150  1  0.79330000  0.97210000  0.20110000  1.0 -0.440340724
C  C151  1  0.02790000  0.79330000  0.95110000  1.0 -0.440340724
C  C152  1  0.97210000  0.20670000  0.45110000  1.0 -0.440340724
O  O1  1  0.48040000  0.06330000  0.00400000  1.0 -0.6571948755
O  O2  1  0.06330000  0.51960000  0.25400000  1.0 -0.6571948755
O  O3  1  0.51960000  0.93670000  0.50400000  1.0 -0.6571948755
O  O4  1  0.93670000  0.48040000  0.75400000  1.0 -0.6571948755
O  O5  1  0.51960000  0.06330000  0.49600000  1.0 -0.6571948755
O  O6  1  0.48040000  0.93670000  0.99600000  1.0 -0.6571948755
O  O7  1  0.06330000  0.48040000  0.74600000  1.0 -0.6571948755
O  O8  1  0.93670000  0.51960000  0.24600000  1.0 -0.6571948755
O  O9  1  0.54380000  0.08810000  0.89170000  1.0 -0.6392925502
O  O10  1  0.08810000  0.45620000  0.14170000  1.0 -0.6520603258
O  O11  1  0.45620000  0.91190000  0.39170000  1.0 -0.6520603258
O  O12  1  0.91190000  0.54380000  0.64170000  1.0 -0.6392925502
O  O13  1  0.45620000  0.08810000  0.60830000  1.0 -0.6392925502
O  O14  1  0.54380000  0.91190000  0.10830000  1.0 -0.6392925502
O  O15  1  0.08810000  0.54380000  0.85830000  1.0 -0.6392925502
O  O16  1  0.91190000  0.45620000  0.35830000  1.0 -0.6392925502
O  O17  1  0.55765000  0.99240000  0.31920000  1.0 -0.6392925502
O  O18  1  0.99240000  0.44235000  0.56920000  1.0 -0.6392925502
O  O19  1  0.44235000  0.00760000  0.81920000  1.0 -0.6392925502
O  O20  1  0.00760000  0.55765000  0.06920000  1.0 -0.6392925502
O  O21  1  0.44235000  0.99240000  0.18080000  1.0 -0.6392925502
O  O22  1  0.55765000  0.00760000  0.68080000  1.0 -0.6392925502
O  O23  1  0.99240000  0.55765000  0.43080000  1.0 -0.6392925502
O  O24  1  0.00760000  0.44235000  0.93080000  1.0 -0.6392925502
O  O25  1  0.62680000  0.04550000  0.36730000  1.0 -0.6520603258
O  O26  1  0.04550000  0.37320000  0.61730000  1.0 -0.6520603258
O  O27  1  0.37320000  0.95450000  0.86730000  1.0 -0.6520603258
O  O28  1  0.95450000  0.62680000  0.11730000  1.0 -0.6520603258
O  O29  1  0.37320000  0.04550000  0.13270000  1.0 -0.6520603258
O  O30  1  0.62680000  0.95450000  0.63270000  1.0 -0.6520603258
O  O31  1  0.04550000  0.62680000  0.38270000  1.0 -0.6520603258
O  O32  1  0.95450000  0.37320000  0.88270000  1.0 -0.6520603258
O  O33  1  0.90040000  0.13030000  0.98630000  1.0 -0.4207742832
O  O34  1  0.13030000  0.09960000  0.23630000  1.0 -0.4207742832
O  O35  1  0.09960000  0.86970000  0.48630000  1.0 -0.4207742832
O  O36  1  0.86970000  0.90040000  0.73630000  1.0 -0.4207742832
O  O37  1  0.09960000  0.13030000  0.51370000  1.0 -0.4207742832
O  O38  1  0.90040000  0.86970000  0.01370000  1.0 -0.4207742832
O  O39  1  0.13030000  0.90040000  0.76370000  1.0 -0.4207742832
O  O40  1  0.86970000  0.09960000  0.26370000  1.0 -0.4207742832
