# DDEC6 charges by PACMAN v1.1 (https://github.com/mtap-research/PACMAN-charge/)
data_FIFGAE_FSR_pacman
_symmetry_space_group_name_H-M   'P 1'
_cell_length_a   18.19970000
_cell_length_b   18.19970000
_cell_length_c   20.02040000
_cell_angle_alpha   90.00000000
_cell_angle_beta   90.00000000
_cell_angle_gamma   120.00000000
_symmetry_Int_Tables_number   1
_chemical_formula_structural   In3Co2H51C63(NO6)6
_chemical_formula_sum   'In6 Co4 H102 C126 N12 O72'
_cell_volume   5742.90775368
_cell_formula_units_Z   2
loop_
 _symmetry_equiv_pos_site_id
 _symmetry_equiv_pos_as_xyz
  1  'x, y, z'
loop_
 _atom_site_type_symbol
 _atom_site_label
 _atom_site_symmetry_multiplicity
 _atom_site_fract_x
 _atom_site_fract_y
 _atom_site_fract_z
 _atom_site_occupancy
 _atom_site_charge
In  In1  1  0.40891000  0.40891000  0.00000000  1.0 1.3327021925
In  In2  1  0.00000000  0.59109000  0.50000000  1.0 1.3327021925
In  In3  1  0.59109000  0.00000000  0.00000000  1.0 1.3327021925
In  In4  1  0.40891000  0.40891000  0.50000000  1.0 1.3327021925
In  In5  1  0.00000000  0.59109000  0.00000000  1.0 1.3327021925
In  In6  1  0.59109000  0.00000000  0.50000000  1.0 1.3327021925
Co  Co1  1  0.00000000  0.00000000  0.14704000  1.0 1.0112060834
Co  Co2  1  0.00000000  0.00000000  0.35296000  1.0 1.0112060834
Co  Co3  1  0.00000000  0.00000000  0.64704000  1.0 1.0112060834
Co  Co4  1  0.00000000  0.00000000  0.85296000  1.0 1.0112060834
H  H1  1  0.79780000  0.67710000  0.14800000  1.0 0.131337881
H  H2  1  0.87930000  0.20220000  0.35200000  1.0 0.131337881
H  H3  1  0.32290000  0.12070000  0.14800000  1.0 0.131337881
H  H4  1  0.79780000  0.67710000  0.35200000  1.0 0.131337881
H  H5  1  0.87930000  0.20220000  0.14800000  1.0 0.131337881
H  H6  1  0.32290000  0.12070000  0.35200000  1.0 0.131337881
H  H7  1  0.67710000  0.79780000  0.64800000  1.0 0.131337881
H  H8  1  0.12070000  0.32290000  0.85200000  1.0 0.131337881
H  H9  1  0.20220000  0.87930000  0.64800000  1.0 0.131337881
H  H10  1  0.67710000  0.79780000  0.85200000  1.0 0.131337881
H  H11  1  0.12070000  0.32290000  0.64800000  1.0 0.131337881
H  H12  1  0.20220000  0.87930000  0.85200000  1.0 0.131337881
H  H13  1  0.83700000  0.63860000  0.09910000  1.0 0.1473790312
H  H14  1  0.80160000  0.16300000  0.40090000  1.0 0.1473790312
H  H15  1  0.36140000  0.19840000  0.09910000  1.0 0.1473790312
H  H16  1  0.83700000  0.63860000  0.40090000  1.0 0.1473790312
H  H17  1  0.80160000  0.16300000  0.09910000  1.0 0.1473790312
H  H18  1  0.36140000  0.19840000  0.40090000  1.0 0.1473790312
H  H19  1  0.63860000  0.83700000  0.59910000  1.0 0.1473790312
H  H20  1  0.19840000  0.36140000  0.90090000  1.0 0.1473790312
H  H21  1  0.16300000  0.80160000  0.59910000  1.0 0.1473790312
H  H22  1  0.63860000  0.83700000  0.90090000  1.0 0.1473790312
H  H23  1  0.19840000  0.36140000  0.59910000  1.0 0.1473790312
H  H24  1  0.16300000  0.80160000  0.90090000  1.0 0.1473790312
H  H25  1  0.75230000  0.63650000  0.08030000  1.0 0.1473790312
H  H26  1  0.88420000  0.24770000  0.41970000  1.0 0.1473790312
H  H27  1  0.36350000  0.11580000  0.08030000  1.0 0.1473790312
H  H28  1  0.75230000  0.63650000  0.41970000  1.0 0.1473790312
H  H29  1  0.88420000  0.24770000  0.08030000  1.0 0.1473790312
H  H30  1  0.36350000  0.11580000  0.41970000  1.0 0.1473790312
H  H31  1  0.63650000  0.75230000  0.58030000  1.0 0.1473790312
H  H32  1  0.11580000  0.36350000  0.91970000  1.0 0.1473790312
H  H33  1  0.24770000  0.88420000  0.58030000  1.0 0.1473790312
H  H34  1  0.63650000  0.75230000  0.91970000  1.0 0.1473790312
H  H35  1  0.11580000  0.36350000  0.58030000  1.0 0.1473790312
H  H36  1  0.24770000  0.88420000  0.91970000  1.0 0.1473790312
H  H37  1  0.84380000  0.69460000  0.98180000  1.0 0.1473790312
H  H38  1  0.85080000  0.15620000  0.51820000  1.0 0.1473790312
H  H39  1  0.30540000  0.14920000  0.98180000  1.0 0.1473790312
H  H40  1  0.84380000  0.69460000  0.51820000  1.0 0.1473790312
H  H41  1  0.85080000  0.15620000  0.98180000  1.0 0.1473790312
H  H42  1  0.30540000  0.14920000  0.51820000  1.0 0.1473790312
H  H43  1  0.69460000  0.84380000  0.48180000  1.0 0.1473790312
H  H44  1  0.14920000  0.30540000  0.01820000  1.0 0.1473790312
H  H45  1  0.15620000  0.85080000  0.48180000  1.0 0.1473790312
H  H46  1  0.69460000  0.84380000  0.01820000  1.0 0.1473790312
H  H47  1  0.14920000  0.30540000  0.48180000  1.0 0.1473790312
H  H48  1  0.15620000  0.85080000  0.01820000  1.0 0.1473790312
H  H49  1  0.93410000  0.77290000  0.99460000  1.0 0.1473790312
H  H50  1  0.83880000  0.06590000  0.50540000  1.0 0.1473790312
H  H51  1  0.22710000  0.16120000  0.99460000  1.0 0.1473790312
H  H52  1  0.93410000  0.77290000  0.50540000  1.0 0.1473790312
H  H53  1  0.83880000  0.06590000  0.99460000  1.0 0.1473790312
H  H54  1  0.22710000  0.16120000  0.50540000  1.0 0.1473790312
H  H55  1  0.77290000  0.93410000  0.49460000  1.0 0.1473790312
H  H56  1  0.16120000  0.22710000  0.00540000  1.0 0.1473790312
H  H57  1  0.06590000  0.83880000  0.49460000  1.0 0.1473790312
H  H58  1  0.77290000  0.93410000  0.00540000  1.0 0.1473790312
H  H59  1  0.16120000  0.22710000  0.49460000  1.0 0.1473790312
H  H60  1  0.06590000  0.83880000  0.00540000  1.0 0.1473790312
H  H61  1  0.85830000  0.78680000  0.97570000  1.0 0.131337881
H  H62  1  0.92850000  0.14170000  0.52430000  1.0 0.131337881
H  H63  1  0.21320000  0.07150000  0.97570000  1.0 0.131337881
H  H64  1  0.85830000  0.78680000  0.52430000  1.0 0.131337881
H  H65  1  0.92850000  0.14170000  0.97570000  1.0 0.131337881
H  H66  1  0.21320000  0.07150000  0.52430000  1.0 0.131337881
H  H67  1  0.78680000  0.85830000  0.47570000  1.0 0.131337881
H  H68  1  0.07150000  0.21320000  0.02430000  1.0 0.131337881
H  H69  1  0.14170000  0.92850000  0.47570000  1.0 0.131337881
H  H70  1  0.78680000  0.85830000  0.02430000  1.0 0.131337881
H  H71  1  0.07150000  0.21320000  0.47570000  1.0 0.131337881
H  H72  1  0.14170000  0.92850000  0.02430000  1.0 0.131337881
H  H73  1  0.20540000  0.23370000  0.15110000  1.0 0.131337881
H  H74  1  0.02830000  0.79460000  0.34890000  1.0 0.131337881
H  H75  1  0.76630000  0.97170000  0.15110000  1.0 0.131337881
H  H76  1  0.20540000  0.23370000  0.34890000  1.0 0.131337881
H  H77  1  0.02830000  0.79460000  0.15110000  1.0 0.131337881
H  H78  1  0.76630000  0.97170000  0.34890000  1.0 0.131337881
H  H79  1  0.23370000  0.20540000  0.65110000  1.0 0.131337881
H  H80  1  0.97170000  0.76630000  0.84890000  1.0 0.131337881
H  H81  1  0.79460000  0.02830000  0.65110000  1.0 0.131337881
H  H82  1  0.23370000  0.20540000  0.84890000  1.0 0.131337881
H  H83  1  0.97170000  0.76630000  0.65110000  1.0 0.131337881
H  H84  1  0.79460000  0.02830000  0.84890000  1.0 0.131337881
H  H85  1  0.88290000  0.82140000  0.15180000  1.0 0.0892492375
H  H86  1  0.93850000  0.11710000  0.34820000  1.0 0.0892492375
H  H87  1  0.17860000  0.06150000  0.15180000  1.0 0.0892492375
H  H88  1  0.88290000  0.82140000  0.34820000  1.0 0.0892492375
H  H89  1  0.93850000  0.11710000  0.15180000  1.0 0.0892492375
H  H90  1  0.17860000  0.06150000  0.34820000  1.0 0.0892492375
H  H91  1  0.82140000  0.88290000  0.65180000  1.0 0.0892492375
H  H92  1  0.06150000  0.17860000  0.84820000  1.0 0.0892492375
H  H93  1  0.11710000  0.93850000  0.65180000  1.0 0.0892492375
H  H94  1  0.82140000  0.88290000  0.84820000  1.0 0.0892492375
H  H95  1  0.06150000  0.17860000  0.65180000  1.0 0.0892492375
H  H96  1  0.11710000  0.93850000  0.84820000  1.0 0.0892492375
H  H97  1  0.40450000  0.41080000  0.25000000  1.0 0.1435041059
H  H98  1  0.00630000  0.59550000  0.25000000  1.0 0.1435041059
H  H99  1  0.58920000  0.99370000  0.25000000  1.0 0.1435041059
H  H100  1  0.41080000  0.40450000  0.75000000  1.0 0.1435041059
H  H101  1  0.99370000  0.58920000  0.75000000  1.0 0.1435041059
H  H102  1  0.59550000  0.00630000  0.75000000  1.0 0.1435041059
C  C1  1  0.31040000  0.32860000  0.18910000  1.0 -0.0210435793
C  C2  1  0.01820000  0.68960000  0.31090000  1.0 -0.0210435793
C  C3  1  0.67140000  0.98180000  0.18910000  1.0 -0.0210435793
C  C4  1  0.31040000  0.32860000  0.31090000  1.0 -0.0210435793
C  C5  1  0.01820000  0.68960000  0.18910000  1.0 -0.0210435793
C  C6  1  0.67140000  0.98180000  0.31090000  1.0 -0.0210435793
C  C7  1  0.32860000  0.31040000  0.68910000  1.0 -0.0210435793
C  C8  1  0.98180000  0.67140000  0.81090000  1.0 -0.0210435793
C  C9  1  0.68960000  0.01820000  0.68910000  1.0 -0.0210435793
C  C10  1  0.32860000  0.31040000  0.81090000  1.0 -0.0210435793
C  C11  1  0.98180000  0.67140000  0.68910000  1.0 -0.0210435793
C  C12  1  0.68960000  0.01820000  0.81090000  1.0 -0.0210435793
C  C13  1  0.80630000  0.66880000  0.10190000  1.0 -0.3359739851
C  C14  1  0.86250000  0.19370000  0.39810000  1.0 -0.3359739851
C  C15  1  0.33120000  0.13750000  0.10190000  1.0 -0.3359739851
C  C16  1  0.80630000  0.66880000  0.39810000  1.0 -0.3359739851
C  C17  1  0.86250000  0.19370000  0.10190000  1.0 -0.3359739851
C  C18  1  0.33120000  0.13750000  0.39810000  1.0 -0.3359739851
C  C19  1  0.66880000  0.80630000  0.60190000  1.0 -0.3359739851
C  C20  1  0.13750000  0.33120000  0.89810000  1.0 -0.3359739851
C  C21  1  0.19370000  0.86250000  0.60190000  1.0 -0.3359739851
C  C22  1  0.66880000  0.80630000  0.89810000  1.0 -0.3359739851
C  C23  1  0.13750000  0.33120000  0.60190000  1.0 -0.3359739851
C  C24  1  0.19370000  0.86250000  0.89810000  1.0 -0.3359739851
C  C25  1  0.35200000  0.36360000  0.12450000  1.0 0.5417633582
C  C26  1  0.01160000  0.64800000  0.37550000  1.0 0.5417633582
C  C27  1  0.63640000  0.98840000  0.12450000  1.0 0.5417633582
C  C28  1  0.35200000  0.36360000  0.37550000  1.0 0.5417633582
C  C29  1  0.01160000  0.64800000  0.12450000  1.0 0.5417633582
C  C30  1  0.63640000  0.98840000  0.37550000  1.0 0.5417633582
C  C31  1  0.36360000  0.35200000  0.62450000  1.0 0.5417633582
C  C32  1  0.98840000  0.63640000  0.87550000  1.0 0.5417633582
C  C33  1  0.64800000  0.01160000  0.62450000  1.0 0.5417633582
C  C34  1  0.36360000  0.35200000  0.87550000  1.0 0.5417633582
C  C35  1  0.98840000  0.63640000  0.62450000  1.0 0.5417633582
C  C36  1  0.64800000  0.01160000  0.87550000  1.0 0.5417633582
C  C37  1  0.87430000  0.75120000  0.99950000  1.0 -0.3272707831
C  C38  1  0.87690000  0.12570000  0.50050000  1.0 -0.3272707831
C  C39  1  0.24880000  0.12310000  0.99950000  1.0 -0.3272707831
C  C40  1  0.87430000  0.75120000  0.50050000  1.0 -0.3272707831
C  C41  1  0.87690000  0.12570000  0.99950000  1.0 -0.3272707831
C  C42  1  0.24880000  0.12310000  0.50050000  1.0 -0.3272707831
C  C43  1  0.75120000  0.87430000  0.49950000  1.0 -0.3272707831
C  C44  1  0.12310000  0.24880000  0.00050000  1.0 -0.3272707831
C  C45  1  0.12570000  0.87690000  0.49950000  1.0 -0.3272707831
C  C46  1  0.75120000  0.87430000  0.00050000  1.0 -0.3272707831
C  C47  1  0.12310000  0.24880000  0.49950000  1.0 -0.3272707831
C  C48  1  0.12570000  0.87690000  0.00050000  1.0 -0.3272707831
C  C49  1  0.10310000  0.14060000  0.25000000  1.0 0.5669630828
C  C50  1  0.03750000  0.89690000  0.25000000  1.0 0.5669630828
C  C51  1  0.85940000  0.96250000  0.25000000  1.0 0.5669630828
C  C52  1  0.14060000  0.10310000  0.75000000  1.0 0.5669630828
C  C53  1  0.96250000  0.85940000  0.75000000  1.0 0.5669630828
C  C54  1  0.89690000  0.03750000  0.75000000  1.0 0.5669630828
C  C55  1  0.23200000  0.25800000  0.19130000  1.0 -0.1099674748
C  C56  1  0.02600000  0.76800000  0.30870000  1.0 -0.1099674748
C  C57  1  0.74200000  0.97400000  0.19130000  1.0 -0.1099674748
C  C58  1  0.23200000  0.25800000  0.30870000  1.0 -0.1099674748
C  C59  1  0.02600000  0.76800000  0.19130000  1.0 -0.1099674748
C  C60  1  0.74200000  0.97400000  0.30870000  1.0 -0.1099674748
C  C61  1  0.25800000  0.23200000  0.69130000  1.0 -0.1099674748
C  C62  1  0.97400000  0.74200000  0.80870000  1.0 -0.1099674748
C  C63  1  0.76800000  0.02600000  0.69130000  1.0 -0.1099674748
C  C64  1  0.25800000  0.23200000  0.80870000  1.0 -0.1099674748
C  C65  1  0.97400000  0.74200000  0.69130000  1.0 -0.1099674748
C  C66  1  0.76800000  0.02600000  0.80870000  1.0 -0.1099674748
C  C67  1  0.58150000  0.26780000  0.01070000  1.0 0.0308466477
C  C68  1  0.68630000  0.41850000  0.48930000  1.0 0.0308466477
C  C69  1  0.73220000  0.31370000  0.01070000  1.0 0.0308466477
C  C70  1  0.58150000  0.26780000  0.48930000  1.0 0.0308466477
C  C71  1  0.68630000  0.41850000  0.01070000  1.0 0.0308466477
C  C72  1  0.73220000  0.31370000  0.48930000  1.0 0.0308466477
C  C73  1  0.26780000  0.58150000  0.51070000  1.0 0.0308466477
C  C74  1  0.31370000  0.73220000  0.98930000  1.0 0.0308466477
C  C75  1  0.41850000  0.68630000  0.51070000  1.0 0.0308466477
C  C76  1  0.26780000  0.58150000  0.98930000  1.0 0.0308466477
C  C77  1  0.31370000  0.73220000  0.51070000  1.0 0.0308466477
C  C78  1  0.41850000  0.68630000  0.98930000  1.0 0.0308466477
C  C79  1  0.18980000  0.22040000  0.25000000  1.0 -0.0261160299
C  C80  1  0.03060000  0.81020000  0.25000000  1.0 -0.0261160299
C  C81  1  0.77960000  0.96940000  0.25000000  1.0 -0.0261160299
C  C82  1  0.22040000  0.18980000  0.75000000  1.0 -0.0261160299
C  C83  1  0.96940000  0.77960000  0.75000000  1.0 -0.0261160299
C  C84  1  0.81020000  0.03060000  0.75000000  1.0 -0.0261160299
C  C85  1  0.89090000  0.82430000  0.10580000  1.0 0.2980138887
C  C86  1  0.93340000  0.10910000  0.39420000  1.0 0.2980138887
C  C87  1  0.17570000  0.06660000  0.10580000  1.0 0.2980138887
C  C88  1  0.89090000  0.82430000  0.39420000  1.0 0.2980138887
C  C89  1  0.93340000  0.10910000  0.10580000  1.0 0.2980138887
C  C90  1  0.17570000  0.06660000  0.39420000  1.0 0.2980138887
C  C91  1  0.82430000  0.89090000  0.60580000  1.0 0.2980138887
C  C92  1  0.06660000  0.17570000  0.89420000  1.0 0.2980138887
C  C93  1  0.10910000  0.93340000  0.60580000  1.0 0.2980138887
C  C94  1  0.82430000  0.89090000  0.89420000  1.0 0.2980138887
C  C95  1  0.06660000  0.17570000  0.60580000  1.0 0.2980138887
C  C96  1  0.10910000  0.93340000  0.89420000  1.0 0.2980138887
C  C97  1  0.60360000  0.35420000  0.01160000  1.0 -0.0390350662
C  C98  1  0.75060000  0.39640000  0.48840000  1.0 -0.0390350662
C  C99  1  0.64580000  0.24940000  0.01160000  1.0 -0.0390350662
C  C100  1  0.60360000  0.35420000  0.48840000  1.0 -0.0390350662
C  C101  1  0.75060000  0.39640000  0.01160000  1.0 -0.0390350662
C  C102  1  0.64580000  0.24940000  0.48840000  1.0 -0.0390350662
C  C103  1  0.35420000  0.60360000  0.51160000  1.0 -0.0390350662
C  C104  1  0.24940000  0.64580000  0.98840000  1.0 -0.0390350662
C  C105  1  0.39640000  0.75060000  0.51160000  1.0 -0.0390350662
C  C106  1  0.35420000  0.60360000  0.98840000  1.0 -0.0390350662
C  C107  1  0.24940000  0.64580000  0.51160000  1.0 -0.0390350662
C  C108  1  0.39640000  0.75060000  0.98840000  1.0 -0.0390350662
C  C109  1  0.35040000  0.36350000  0.25000000  1.0 -0.0836872765
C  C110  1  0.01310000  0.64960000  0.25000000  1.0 -0.0836872765
C  C111  1  0.63650000  0.98690000  0.25000000  1.0 -0.0836872765
C  C112  1  0.36350000  0.35040000  0.75000000  1.0 -0.0836872765
C  C113  1  0.98690000  0.63650000  0.75000000  1.0 -0.0836872765
C  C114  1  0.64960000  0.01310000  0.75000000  1.0 -0.0836872765
C  C115  1  0.53110000  0.37400000  0.00800000  1.0 0.5669630828
C  C116  1  0.84290000  0.46890000  0.49200000  1.0 0.5669630828
C  C117  1  0.62600000  0.15710000  0.00800000  1.0 0.5669630828
C  C118  1  0.53110000  0.37400000  0.49200000  1.0 0.5669630828
C  C119  1  0.84290000  0.46890000  0.00800000  1.0 0.5669630828
C  C120  1  0.62600000  0.15710000  0.49200000  1.0 0.5669630828
C  C121  1  0.37400000  0.53110000  0.50800000  1.0 0.5669630828
C  C122  1  0.15710000  0.62600000  0.99200000  1.0 0.5669630828
C  C123  1  0.46890000  0.84290000  0.50800000  1.0 0.5669630828
C  C124  1  0.37400000  0.53110000  0.99200000  1.0 0.5669630828
C  C125  1  0.15710000  0.62600000  0.50800000  1.0 0.5669630828
C  C126  1  0.46890000  0.84290000  0.99200000  1.0 0.5669630828
N  N1  1  0.85400000  0.74970000  0.06970000  1.0 0.0398584496
N  N2  1  0.89570000  0.14600000  0.43030000  1.0 0.0398584496
N  N3  1  0.25030000  0.10430000  0.06970000  1.0 0.0398584496
N  N4  1  0.85400000  0.74970000  0.43030000  1.0 0.0398584496
N  N5  1  0.89570000  0.14600000  0.06970000  1.0 0.0398584496
N  N6  1  0.25030000  0.10430000  0.43030000  1.0 0.0398584496
N  N7  1  0.74970000  0.85400000  0.56970000  1.0 0.0398584496
N  N8  1  0.10430000  0.25030000  0.93030000  1.0 0.0398584496
N  N9  1  0.14600000  0.89570000  0.56970000  1.0 0.0398584496
N  N10  1  0.74970000  0.85400000  0.93030000  1.0 0.0398584496
N  N11  1  0.10430000  0.25030000  0.56970000  1.0 0.0398584496
N  N12  1  0.14600000  0.89570000  0.93030000  1.0 0.0398584496
O  O1  1  0.07260000  0.11190000  0.19530000  1.0 -0.5498539578
O  O2  1  0.03930000  0.92740000  0.30470000  1.0 -0.5498539578
O  O3  1  0.88810000  0.96070000  0.19530000  1.0 -0.5498539578
O  O4  1  0.07260000  0.11190000  0.30470000  1.0 -0.5498539578
O  O5  1  0.03930000  0.92740000  0.19530000  1.0 -0.5498539578
O  O6  1  0.88810000  0.96070000  0.30470000  1.0 -0.5498539578
O  O7  1  0.11190000  0.07260000  0.69530000  1.0 -0.5498539578
O  O8  1  0.96070000  0.88810000  0.80470000  1.0 -0.5498539578
O  O9  1  0.92740000  0.03930000  0.69530000  1.0 -0.5498539578
O  O10  1  0.11190000  0.07260000  0.80470000  1.0 -0.5498539578
O  O11  1  0.96070000  0.88810000  0.69530000  1.0 -0.5498539578
O  O12  1  0.92740000  0.03930000  0.80470000  1.0 -0.5498539578
O  O13  1  0.31380000  0.32050000  0.07260000  1.0 -0.5278562279
O  O14  1  0.00670000  0.68620000  0.42740000  1.0 -0.5278562279
O  O15  1  0.67950000  0.99330000  0.07260000  1.0 -0.5278562279
O  O16  1  0.31380000  0.32050000  0.42740000  1.0 -0.5278562279
O  O17  1  0.00670000  0.68620000  0.07260000  1.0 -0.5278562279
O  O18  1  0.67950000  0.99330000  0.42740000  1.0 -0.5278562279
O  O19  1  0.32050000  0.31380000  0.57260000  1.0 -0.5278562279
O  O20  1  0.99330000  0.67950000  0.92740000  1.0 -0.5278562279
O  O21  1  0.68620000  0.00670000  0.57260000  1.0 -0.5278562279
O  O22  1  0.32050000  0.31380000  0.92740000  1.0 -0.5278562279
O  O23  1  0.99330000  0.67950000  0.57260000  1.0 -0.5278562279
O  O24  1  0.68620000  0.00670000  0.92740000  1.0 -0.5278562279
O  O25  1  0.41900000  0.43060000  0.11940000  1.0 -0.4988680739
O  O26  1  0.01160000  0.58100000  0.38060000  1.0 -0.4988680739
O  O27  1  0.56940000  0.98840000  0.11940000  1.0 -0.4988680739
O  O28  1  0.41900000  0.43060000  0.38060000  1.0 -0.4988680739
O  O29  1  0.01160000  0.58100000  0.11940000  1.0 -0.4988680739
O  O30  1  0.56940000  0.98840000  0.38060000  1.0 -0.4988680739
O  O31  1  0.43060000  0.41900000  0.61940000  1.0 -0.4988680739
O  O32  1  0.98840000  0.56940000  0.88060000  1.0 -0.4988680739
O  O33  1  0.58100000  0.01160000  0.61940000  1.0 -0.4988680739
O  O34  1  0.43060000  0.41900000  0.88060000  1.0 -0.4988680739
O  O35  1  0.98840000  0.56940000  0.61940000  1.0 -0.4988680739
O  O36  1  0.58100000  0.01160000  0.88060000  1.0 -0.4988680739
O  O37  1  0.54840000  0.44900000  0.00607000  1.0 -0.4988680739
O  O38  1  0.90060000  0.45160000  0.49393000  1.0 -0.4988680739
O  O39  1  0.55100000  0.09940000  0.00607000  1.0 -0.4988680739
O  O40  1  0.54840000  0.44900000  0.49393000  1.0 -0.4988680739
O  O41  1  0.90060000  0.45160000  0.00607000  1.0 -0.4988680739
O  O42  1  0.55100000  0.09940000  0.49393000  1.0 -0.4988680739
O  O43  1  0.44900000  0.54840000  0.50607000  1.0 -0.4988680739
O  O44  1  0.09940000  0.55100000  0.99393000  1.0 -0.4988680739
O  O45  1  0.45160000  0.90060000  0.50607000  1.0 -0.4988680739
O  O46  1  0.44900000  0.54840000  0.99393000  1.0 -0.4988680739
O  O47  1  0.09940000  0.55100000  0.50607000  1.0 -0.4988680739
O  O48  1  0.45160000  0.90060000  0.99393000  1.0 -0.4988680739
O  O49  1  0.45710000  0.31400000  0.00700000  1.0 -0.5177835098
O  O50  1  0.85690000  0.54290000  0.49300000  1.0 -0.5177835098
O  O51  1  0.68600000  0.14310000  0.00700000  1.0 -0.5177835098
O  O52  1  0.45710000  0.31400000  0.49300000  1.0 -0.5177835098
O  O53  1  0.85690000  0.54290000  0.00700000  1.0 -0.5177835098
O  O54  1  0.68600000  0.14310000  0.49300000  1.0 -0.5177835098
O  O55  1  0.31400000  0.45710000  0.50700000  1.0 -0.5177835098
O  O56  1  0.14310000  0.68600000  0.99300000  1.0 -0.5177835098
O  O57  1  0.54290000  0.85690000  0.50700000  1.0 -0.5177835098
O  O58  1  0.31400000  0.45710000  0.99300000  1.0 -0.5177835098
O  O59  1  0.14310000  0.68600000  0.50700000  1.0 -0.5177835098
O  O60  1  0.54290000  0.85690000  0.99300000  1.0 -0.5177835098
O  O61  1  0.93480000  0.89610000  0.07930000  1.0 -0.4274554323
O  O62  1  0.96130000  0.06520000  0.42070000  1.0 -0.4274554323
O  O63  1  0.10390000  0.03870000  0.07930000  1.0 -0.4274554323
O  O64  1  0.93480000  0.89610000  0.42070000  1.0 -0.4274554323
O  O65  1  0.96130000  0.06520000  0.07930000  1.0 -0.4274554323
O  O66  1  0.10390000  0.03870000  0.42070000  1.0 -0.4274554323
O  O67  1  0.89610000  0.93480000  0.57930000  1.0 -0.4274554323
O  O68  1  0.03870000  0.10390000  0.92070000  1.0 -0.4274554323
O  O69  1  0.06520000  0.96130000  0.57930000  1.0 -0.4274554323
O  O70  1  0.89610000  0.93480000  0.92070000  1.0 -0.4274554323
O  O71  1  0.03870000  0.10390000  0.57930000  1.0 -0.4274554323
O  O72  1  0.06520000  0.96130000  0.92070000  1.0 -0.4274554323
