# DDEC6 charges by PACMAN v1.1 (https://github.com/mtap-research/PACMAN-charge/)
data_FIFNUE01_FSR_pacman
_symmetry_space_group_name_H-M   'P 1'
_cell_length_a   11.42950000
_cell_length_b   11.42950000
_cell_length_c   8.14050000
_cell_angle_alpha   84.39390000
_cell_angle_beta   95.60610000
_cell_angle_gamma   54.82730000
_symmetry_Int_Tables_number   1
_chemical_formula_structural   CoH12C12N2O5
_chemical_formula_sum   'Co2 H24 C24 N4 O10'
_cell_volume   849.46957641
_cell_formula_units_Z   2
loop_
 _symmetry_equiv_pos_site_id
 _symmetry_equiv_pos_as_xyz
  1  'x, y, z'
loop_
 _atom_site_type_symbol
 _atom_site_label
 _atom_site_symmetry_multiplicity
 _atom_site_fract_x
 _atom_site_fract_y
 _atom_site_fract_z
 _atom_site_occupancy
 _atom_site_charge
Co  Co1  1  0.29220000  0.20032000  0.62792000  1.0 0.8338058311
Co  Co2  1  0.79968000  0.70780000  0.12792000  1.0 0.8338058311
H  H1  1  0.47720000  0.88980000  0.54170000  1.0 0.1004901583
H  H2  1  0.11020000  0.52280000  0.04170000  1.0 0.1004901583
H  H3  1  0.11730000  0.08410000  0.72660000  1.0 0.1204315218
H  H4  1  0.91590000  0.88270000  0.22660000  1.0 0.1204315218
H  H5  1  0.48150000  0.30430000  0.55910000  1.0 0.1067792307
H  H6  1  0.69570000  0.51850000  0.05910000  1.0 0.1067792307
H  H7  1  0.48230000  0.68830000  0.53840000  1.0 0.129261873
H  H8  1  0.31170000  0.51770000  0.03840000  1.0 0.129261873
H  H9  1  0.08880000  0.72580000  0.67810000  1.0 0.1376679558
H  H10  1  0.27420000  0.91120000  0.17810000  1.0 0.1376679558
H  H11  1  0.49350000  0.49650000  0.56320000  1.0 0.129261873
H  H12  1  0.50350000  0.50650000  0.06320000  1.0 0.129261873
H  H13  1  0.09400000  0.52120000  0.67480000  1.0 0.1004901583
H  H14  1  0.47880000  0.90600000  0.17480000  1.0 0.1004901583
H  H15  1  0.11070000  0.88710000  0.72220000  1.0 0.129261873
H  H16  1  0.11290000  0.88930000  0.22220000  1.0 0.129261873
H  H17  1  0.55600000  0.90400000  0.85600000  1.0 0.0861297864
H  H18  1  0.09600000  0.44400000  0.35600000  1.0 0.0861297864
H  H19  1  0.34500000  0.20700000  0.98900000  1.0 0.0699059162
H  H20  1  0.79300000  0.65500000  0.48900000  1.0 0.0699059162
H  H21  1  0.46000000  0.15200000  0.40100000  1.0 0.2695751655
H  H22  1  0.84800000  0.54000000  0.90100000  1.0 0.2695751655
H  H23  1  0.34100000  0.17100000  0.35100000  1.0 0.2695751655
H  H24  1  0.82900000  0.65900000  0.85100000  1.0 0.2695751655
C  C1  1  0.40130000  0.88950000  0.57980000  1.0 0.0353034529
C  C2  1  0.11050000  0.59870000  0.07980000  1.0 0.0353034529
C  C3  1  0.19230000  0.00290000  0.68630000  1.0 0.1004901583
C  C4  1  0.99710000  0.80770000  0.18630000  1.0 0.1004901583
C  C5  1  0.29530000  0.76330000  0.62760000  1.0 0.1004901583
C  C6  1  0.23670000  0.70470000  0.12760000  1.0 0.1004901583
C  C7  1  0.29210000  0.63570000  0.62100000  1.0 0.1067792307
C  C8  1  0.36430000  0.70790000  0.12100000  1.0 0.1067792307
C  C9  1  0.40090000  0.39090000  0.58520000  1.0 0.0699059162
C  C10  1  0.60910000  0.59910000  0.08520000  1.0 0.0699059162
C  C11  1  0.40450000  0.76930000  0.57630000  1.0 -0.1970850174
C  C12  1  0.23070000  0.59550000  0.07630000  1.0 -0.1970850174
C  C13  1  0.17190000  0.63990000  0.65420000  1.0 -0.190457305
C  C14  1  0.36010000  0.82810000  0.15420000  1.0 -0.190457305
C  C15  1  0.40900000  0.50540000  0.58610000  1.0 -0.190457305
C  C16  1  0.49460000  0.59100000  0.08610000  1.0 -0.190457305
C  C17  1  0.17620000  0.51680000  0.65150000  1.0 0.0563298798
C  C18  1  0.48320000  0.82380000  0.15150000  1.0 0.0563298798
C  C19  1  0.18780000  0.88500000  0.68440000  1.0 -0.1970850174
C  C20  1  0.11500000  0.81220000  0.18440000  1.0 -0.1970850174
C  C21  1  0.57710000  0.96770000  0.86510000  1.0 0.4838572461
C  C22  1  0.03230000  0.42290000  0.36510000  1.0 0.4838572461
C  C23  1  0.24910000  0.22450000  0.98730000  1.0 0.4363946932
C  C24  1  0.77550000  0.75090000  0.48730000  1.0 0.4363946932
N  N1  1  0.29690000  0.00930000  0.63430000  1.0 -0.2692024317
N  N2  1  0.99070000  0.70310000  0.13430000  1.0 -0.2692024317
N  N3  1  0.28900000  0.39120000  0.61790000  1.0 -0.2692024317
N  N4  1  0.60880000  0.71100000  0.11790000  1.0 -0.2692024317
O  O1  1  0.50120000  0.09360000  0.77740000  1.0 -0.5123573226
O  O2  1  0.90640000  0.49880000  0.27740000  1.0 -0.5123573226
O  O3  1  0.19160000  0.24160000  0.83750000  1.0 -0.5159012955
O  O4  1  0.75840000  0.80840000  0.33750000  1.0 -0.5159012955
O  O5  1  0.37600000  0.16140000  0.40830000  1.0 -0.5817719084
O  O6  1  0.83860000  0.62400000  0.90830000  1.0 -0.5817719084
O  O7  1  0.68403000  0.91883000  0.97890000  1.0 -0.4666491133
O  O8  1  0.08117000  0.31597000  0.47890000  1.0 -0.4666491133
O  O9  1  0.20040000  0.22280000  0.11290000  1.0 -0.4820180965
O  O10  1  0.77720000  0.79960000  0.61290000  1.0 -0.4820180965
