# DDEC6 charges by PACMAN v1.1 (https://github.com/mtap-research/PACMAN-charge/)
data_FIFNUE_FSR_pacman
_symmetry_space_group_name_H-M   'P 1'
_cell_length_a   11.41940000
_cell_length_b   11.41940000
_cell_length_c   8.13090000
_cell_angle_alpha   84.40850000
_cell_angle_beta   95.59150000
_cell_angle_gamma   54.80210000
_symmetry_Int_Tables_number   1
_chemical_formula_structural   CoH10C12N2O5
_chemical_formula_sum   'Co2 H20 C24 N4 O10'
_cell_volume   846.79295972
_cell_formula_units_Z   2
loop_
 _symmetry_equiv_pos_site_id
 _symmetry_equiv_pos_as_xyz
  1  'x, y, z'
loop_
 _atom_site_type_symbol
 _atom_site_label
 _atom_site_symmetry_multiplicity
 _atom_site_fract_x
 _atom_site_fract_y
 _atom_site_fract_z
 _atom_site_occupancy
 _atom_site_charge
Co  Co1  1  0.80417000  0.68825000  0.48993000  1.0 0.8388421776
Co  Co2  1  0.31175000  0.19583000  0.98993000  1.0 0.8388421776
H  H1  1  0.63110000  0.56990000  0.58780000  1.0 0.1227609589
H  H2  1  0.43010000  0.36890000  0.08780000  1.0 0.1227609589
H  H3  1  0.98690000  0.37810000  0.40550000  1.0 0.1103881772
H  H4  1  0.62190000  0.01310000  0.90550000  1.0 0.1103881772
H  H5  1  0.62530000  0.37330000  0.58350000  1.0 0.1371935276
H  H6  1  0.62670000  0.37470000  0.08350000  1.0 0.1371935276
H  H7  1  0.99120000  0.17880000  0.39860000  1.0 0.1324666234
H  H8  1  0.82120000  0.00880000  0.89860000  1.0 0.1324666234
H  H9  1  0.60250000  0.21190000  0.53810000  1.0 0.1371935276
H  H10  1  0.78810000  0.39750000  0.03810000  1.0 0.1371935276
H  H11  1  0.00210000  0.98670000  0.42300000  1.0 0.1371935276
H  H12  1  0.01330000  0.99790000  0.92300000  1.0 0.1371935276
H  H13  1  0.60660000  0.00960000  0.53670000  1.0 0.1103881772
H  H14  1  0.99040000  0.39340000  0.03670000  1.0 0.1103881772
H  H15  1  0.99110000  0.79290000  0.41900000  1.0 0.1227609589
H  H16  1  0.20710000  0.00890000  0.91900000  1.0 0.1227609589
H  H17  1  0.06410000  0.39430000  0.70240000  1.0 0.0833568516
H  H18  1  0.60570000  0.93590000  0.20240000  1.0 0.0833568516
H  H19  1  0.85180000  0.69600000  0.86250000  1.0 0.1103881772
H  H20  1  0.30400000  0.14820000  0.36250000  1.0 0.1103881772
C  C1  1  0.70459000  0.49039000  0.54810000  1.0 0.1103881772
C  C2  1  0.50961000  0.29541000  0.04810000  1.0 0.1103881772
C  C3  1  0.91248000  0.37768000  0.44190000  1.0 0.0575962606
C  C4  1  0.62232000  0.08752000  0.94190000  1.0 0.0575962606
C  C5  1  0.70047000  0.37167000  0.54600000  1.0 -0.1991363895
C  C6  1  0.62833000  0.29953000  0.04600000  1.0 -0.1991363895
C  C7  1  0.91562000  0.25762000  0.43710000  1.0 -0.1991363895
C  C8  1  0.74238000  0.08438000  0.93710000  1.0 -0.1991363895
C  C9  1  0.80705000  0.25145000  0.48900000  1.0 0.1015776592
C  C10  1  0.74855000  0.19295000  0.98900000  1.0 0.1015776592
C  C11  1  0.80470000  0.12310000  0.48320000  1.0 0.1103881772
C  C12  1  0.87690000  0.19530000  0.98320000  1.0 0.1015776592
C  C13  1  0.68401000  0.12721000  0.51560000  1.0 -0.1918953193
C  C14  1  0.87279000  0.31599000  0.01560000  1.0 -0.1918953193
C  C15  1  0.92003000  0.99463000  0.44670000  1.0 -0.1991363895
C  C16  1  0.00537000  0.07997000  0.94670000  1.0 -0.1991363895
C  C17  1  0.68723000  0.00503000  0.51370000  1.0 0.0672858747
C  C18  1  0.99497000  0.31277000  0.01370000  1.0 0.0672858747
C  C19  1  0.91271000  0.87771000  0.44570000  1.0 0.1015776592
C  C20  1  0.12229000  0.08729000  0.94570000  1.0 0.1015776592
C  C21  1  0.08857000  0.45657000  0.72530000  1.0 0.4710063579
C  C22  1  0.54343000  0.91143000  0.22530000  1.0 0.4710063579
C  C23  1  0.76194000  0.71114000  0.84780000  1.0 0.4414098206
C  C24  1  0.28886000  0.23806000  0.34780000  1.0 0.4414098206
N  N1  1  0.80761000  0.49661000  0.49650000  1.0 -0.2344683764
N  N2  1  0.50339000  0.19239000  0.99650000  1.0 -0.2344683764
N  N3  1  0.79991000  0.87971000  0.48080000  1.0 -0.2469044832
N  N4  1  0.12029000  0.20009000  0.98080000  1.0 -0.2469044832
O  O1  1  0.01231000  0.58271000  0.63880000  1.0 -0.4900708702
O  O2  1  0.41729000  0.98769000  0.13880000  1.0 -0.4900708702
O  O3  1  0.19539000  0.40799000  0.84050000  1.0 -0.4470447061
O  O4  1  0.59201000  0.80461000  0.34050000  1.0 -0.4470447061
O  O5  1  0.70321000  0.72901000  0.69970000  1.0 -0.5096403119
O  O6  1  0.27099000  0.29679000  0.19970000  1.0 -0.5096403119
O  O7  1  0.71169000  0.71169000  0.97500000  1.0 -0.4067257104
O  O8  1  0.28831000  0.28831000  0.47500000  1.0 -0.4067257104
O  O9  1  0.88791000  0.64911000  0.26680000  1.0 -0.3755984661
O  O10  1  0.35089000  0.11209000  0.76680000  1.0 -0.3755984661
