# DDEC6 charges by PACMAN v1.1 (https://github.com/mtap-research/PACMAN-charge/)
data_FIGQUL_FSR_pacman
_symmetry_space_group_name_H-M   'P 1'
_cell_length_a   13.03880000
_cell_length_b   13.03880000
_cell_length_c   15.05050000
_cell_angle_alpha   56.11460000
_cell_angle_beta   123.88500000
_cell_angle_gamma   109.94000000
_symmetry_Int_Tables_number   1
_chemical_formula_structural   InH16C29O8
_chemical_formula_sum   'In2 H32 C58 O16'
_cell_volume   1761.68669066
_cell_formula_units_Z   2
loop_
 _symmetry_equiv_pos_site_id
 _symmetry_equiv_pos_as_xyz
  1  'x, y, z'
loop_
 _atom_site_type_symbol
 _atom_site_label
 _atom_site_symmetry_multiplicity
 _atom_site_fract_x
 _atom_site_fract_y
 _atom_site_fract_z
 _atom_site_occupancy
 _atom_site_charge
In  In1  1  0.45119000  0.86625000  0.70911000  1.0 1.3631379889
In  In2  1  0.13375000  0.54881000  0.20911000  1.0 1.3631379889
H  H1  1  0.98945000  0.25143000  0.81014000  1.0 0.1287575044
H  H2  1  0.19078000  0.50232000  0.66527000  1.0 0.1287575044
H  H3  1  0.43627000  0.11117000  0.03817000  1.0 0.1235695825
H  H4  1  0.43943000  0.86655000  0.38405000  1.0 0.1235695825
H  H5  1  0.78635000  0.19251000  0.72400000  1.0 0.1287575044
H  H6  1  0.35646000  0.92768000  0.17750000  1.0 0.1287575044
H  H7  1  0.10325000  0.99995000  0.83247000  1.0 0.1235695825
H  H8  1  0.34678000  0.26442000  0.08215000  1.0 0.1235695825
H  H9  1  0.42384000  0.45962000  0.00394000  1.0 0.1398788528
H  H10  1  0.19531000  0.92917000  0.78794000  1.0 0.1287575044
H  H11  1  0.52949000  0.03427000  0.99430000  1.0 0.1235695825
H  H12  1  0.13752000  0.29856000  0.74647000  1.0 0.1287575044
H  H13  1  0.88003000  0.83557000  0.94372000  1.0 0.1470358508
H  H14  1  0.13158000  0.15250000  0.08743000  1.0 0.1287575044
H  H15  1  0.08198000  0.89968000  0.03031000  1.0 0.1470358508
H  H16  1  0.21326000  0.09594000  0.28868000  1.0 0.1287575044
H  H17  1  0.74857000  0.01055000  0.31014000  1.0 0.1287575044
H  H18  1  0.49768000  0.80922000  0.16527000  1.0 0.1287575044
H  H19  1  0.88883000  0.56373000  0.53817000  1.0 0.1235695825
H  H20  1  0.13345000  0.56057000  0.88404000  1.0 0.1235695825
H  H21  1  0.80749000  0.21365000  0.22400000  1.0 0.1287575044
H  H22  1  0.07232000  0.64354000  0.67750000  1.0 0.1287575044
H  H23  1  0.00005000  0.89675000  0.33247000  1.0 0.1235695825
H  H24  1  0.73558000  0.65322000  0.58215000  1.0 0.1235695825
H  H25  1  0.54038000  0.57616000  0.50394000  1.0 0.1398788528
H  H26  1  0.07083000  0.80469000  0.28794000  1.0 0.1287575044
H  H27  1  0.96573000  0.47051000  0.49430000  1.0 0.1235695825
H  H28  1  0.70144000  0.86248000  0.24647000  1.0 0.1287575044
H  H29  1  0.16443000  0.11997000  0.44372000  1.0 0.1470358508
H  H30  1  0.84750000  0.86842000  0.58743000  1.0 0.1287575044
H  H31  1  0.10032000  0.91802000  0.53031000  1.0 0.1470358508
H  H32  1  0.90406000  0.78674000  0.78868000  1.0 0.1287575044
C  C1  1  0.96720000  0.16780000  0.83480000  1.0 -0.157671587
C  C2  1  0.22450000  0.45350000  0.74900000  1.0 -0.0793662561
C  C3  1  0.25860000  0.06520000  0.94400000  1.0 0.0896318244
C  C4  1  0.31270000  0.50570000  0.82980000  1.0 -0.0134379095
C  C5  1  0.35560000  0.63600000  0.78220000  1.0 0.5388570713
C  C6  1  0.38680000  0.07420000  0.98820000  1.0 -0.157671587
C  C7  1  0.80600000  0.00800000  0.82460000  1.0 -0.0134379095
C  C8  1  0.67670000  0.96510000  0.77500000  1.0 0.5498625921
C  C9  1  0.37730000  0.92310000  0.32500000  1.0 -0.0691991014
C  C10  1  0.23570000  0.25130000  0.92350000  1.0 0.0801047185
C  C11  1  0.84490000  0.13230000  0.78530000  1.0 -0.0793662561
C  C12  1  0.33020000  0.96360000  0.19990000  1.0 -0.1399629651
C  C13  1  0.18890000  0.00810000  0.86500000  1.0 -0.1316646798
C  C14  1  0.31990000  0.30970000  0.99900000  1.0 -0.1501770778
C  C15  1  0.36060000  0.42900000  0.95140000  1.0 -0.0793662561
C  C16  1  0.24630000  0.05550000  0.11150000  1.0 0.0714483248
C  C17  1  0.05900000  0.08200000  0.92110000  1.0 0.0714483248
C  C18  1  0.24390000  0.96650000  0.83760000  1.0 -0.0793662561
C  C19  1  0.44380000  0.02920000  0.96000000  1.0 -0.0983779444
C  C20  1  0.19270000  0.33170000  0.79910000  1.0 -0.1399629651
C  C21  1  0.90120000  0.91960000  0.91690000  1.0 -0.0691991014
C  C22  1  0.37500000  0.97840000  0.88310000  1.0 -0.0041633271
C  C23  1  0.20010000  0.11750000  0.97330000  1.0 -0.0153458206
C  C24  1  0.19590000  0.09830000  0.14630000  1.0 -0.1501770778
C  C25  1  0.02260000  0.95820000  0.96560000  1.0 -0.1316646798
C  C26  1  0.32840000  0.96960000  0.35820000  1.0 -0.0271728555
C  C27  1  0.24130000  0.06030000  0.26740000  1.0 -0.0793662561
C  C28  1  0.43040000  0.93580000  0.84620000  1.0 0.5498625921
C  C29  1  0.37800000  0.93160000  0.48650000  1.0 0.5388570713
C  C30  1  0.83220000  0.03280000  0.33480000  1.0 -0.157671587
C  C31  1  0.54650000  0.77550000  0.24900000  1.0 -0.0793662561
C  C32  1  0.93480000  0.74140000  0.44400000  1.0 0.0896318244
C  C33  1  0.49430000  0.68730000  0.32980000  1.0 -0.0134379095
C  C34  1  0.36400000  0.64440000  0.28220000  1.0 0.5388570713
C  C35  1  0.92580000  0.61320000  0.48820000  1.0 -0.157671587
C  C36  1  0.99200000  0.19400000  0.32460000  1.0 -0.0134379095
C  C37  1  0.03490000  0.32330000  0.27500000  1.0 0.5498625921
C  C38  1  0.07690000  0.62270000  0.82500000  1.0 -0.0691991014
C  C39  1  0.74870000  0.76430000  0.42350000  1.0 0.0801047185
C  C40  1  0.86770000  0.15510000  0.28530000  1.0 -0.0793662561
C  C41  1  0.03640000  0.66980000  0.69990000  1.0 -0.1399629651
C  C42  1  0.99190000  0.81110000  0.36500000  1.0 -0.1316646798
C  C43  1  0.69030000  0.68010000  0.49900000  1.0 -0.1501770778
C  C44  1  0.57100000  0.63940000  0.45140000  1.0 -0.0793662561
C  C45  1  0.94450000  0.75370000  0.61150000  1.0 0.0714483248
C  C46  1  0.91800000  0.94100000  0.42110000  1.0 0.0714483248
C  C47  1  0.03350000  0.75610000  0.33760000  1.0 -0.0793662561
C  C48  1  0.97080000  0.55620000  0.46000000  1.0 -0.0983779444
C  C49  1  0.66830000  0.80730000  0.29910000  1.0 -0.1399629651
C  C50  1  0.08040000  0.09880000  0.41690000  1.0 -0.0691991014
C  C51  1  0.02160000  0.62500000  0.38310000  1.0 -0.0041633271
C  C52  1  0.88250000  0.79990000  0.47330000  1.0 -0.0153458206
C  C53  1  0.90170000  0.80410000  0.64630000  1.0 -0.1501770778
C  C54  1  0.04180000  0.97740000  0.46560000  1.0 -0.1316646798
C  C55  1  0.03040000  0.67160000  0.85820000  1.0 -0.0271728555
C  C56  1  0.93970000  0.75870000  0.76740000  1.0 -0.0793662561
C  C57  1  0.06420000  0.56960000  0.34620000  1.0 0.5498625921
C  C58  1  0.06840000  0.62200000  0.98650000  1.0 0.5388570713
O  O1  1  0.59280000  0.03660000  0.69670000  1.0 -0.4902691259
O  O2  1  0.36150000  0.92630000  0.75220000  1.0 -0.5093628181
O  O3  1  0.65120000  0.84720000  0.81820000  1.0 -0.5093628181
O  O4  1  0.45770000  0.67090000  0.84820000  1.0 -0.4902691259
O  O5  1  0.53960000  0.91220000  0.90780000  1.0 -0.4970564557
O  O6  1  0.29170000  0.71890000  0.67640000  1.0 -0.5331755592
O  O7  1  0.46250000  0.85870000  0.56630000  1.0 -0.4902691259
O  O8  1  0.33140000  0.98100000  0.51160000  1.0 -0.5491861118
O  O9  1  0.96340000  0.40720000  0.19670000  1.0 -0.4902691259
O  O10  1  0.07370000  0.63850000  0.25220000  1.0 -0.5093628181
O  O11  1  0.15280000  0.34880000  0.31820000  1.0 -0.5093628181
O  O12  1  0.32910000  0.54230000  0.34820000  1.0 -0.4902691259
O  O13  1  0.08780000  0.46040000  0.40780000  1.0 -0.4970564557
O  O14  1  0.28110000  0.70830000  0.17640000  1.0 -0.5331755592
O  O15  1  0.14130000  0.53750000  0.06630000  1.0 -0.4902691259
O  O16  1  0.01900000  0.66860000  0.01160000  1.0 -0.5491861118
