# DDEC6 charges by PACMAN v1.1 (https://github.com/mtap-research/PACMAN-charge/)
data_FIGVUQ_ASR_pacman
_symmetry_space_group_name_H-M   'P 1'
_cell_length_a   13.08870000
_cell_length_b   13.08870000
_cell_length_c   13.08870000
_cell_angle_alpha   131.78800000
_cell_angle_beta   117.52100000
_cell_angle_gamma   82.62040000
_symmetry_Int_Tables_number   1
_chemical_formula_structural   Cr2CoH32C40S8(NO)4
_chemical_formula_sum   'Cr4 Co2 H64 C80 S16 N8 O8'
_cell_volume   1427.03321791
_cell_formula_units_Z   2
loop_
 _symmetry_equiv_pos_site_id
 _symmetry_equiv_pos_as_xyz
  1  'x, y, z'
loop_
 _atom_site_type_symbol
 _atom_site_label
 _atom_site_symmetry_multiplicity
 _atom_site_fract_x
 _atom_site_fract_y
 _atom_site_fract_z
 _atom_site_occupancy
 _atom_site_charge
Cr  Cr1  1  0.30195000  0.11868000  0.31673000  1.0 0.7519037284
Cr  Cr2  1  0.30195000  0.98522000  0.18327000  1.0 0.7519037284
Cr  Cr3  1  0.69805000  0.88132000  0.68327000  1.0 0.7519037284
Cr  Cr4  1  0.69805000  0.01478000  0.81673000  1.0 0.7519037284
Co  Co1  1  0.00000000  0.00000000  0.00000000  1.0 0.5034342863
Co  Co2  1  0.50000000  0.00000000  0.50000000  1.0 0.5034342863
H  H1  1  0.85060000  0.68713000  0.66857000  1.0 0.0883804204
H  H2  1  0.51856000  0.18203000  0.83143000  1.0 0.0883804204
H  H3  1  0.48144000  0.31287000  0.66347000  1.0 0.0883804204
H  H4  1  0.14940000  0.81797000  0.83653000  1.0 0.0883804204
H  H5  1  0.14940000  0.31287000  0.33143000  1.0 0.0883804204
H  H6  1  0.48144000  0.81797000  0.16857000  1.0 0.0883804204
H  H7  1  0.51856000  0.68713000  0.33653000  1.0 0.0883804204
H  H8  1  0.85060000  0.18203000  0.16347000  1.0 0.0883804204
H  H9  1  0.04629000  0.59189000  0.97992000  1.0 0.0624622466
H  H10  1  0.11197000  0.06637000  0.52008000  1.0 0.0624622466
H  H11  1  0.88803000  0.40811000  0.95440000  1.0 0.0624622466
H  H12  1  0.95371000  0.93363000  0.54560000  1.0 0.0624622466
H  H13  1  0.95371000  0.40811000  0.02008000  1.0 0.0624622466
H  H14  1  0.88803000  0.93363000  0.47992000  1.0 0.0624622466
H  H15  1  0.11197000  0.59189000  0.04560000  1.0 0.0624622466
H  H16  1  0.04629000  0.06637000  0.45440000  1.0 0.0624622466
H  H17  1  0.08211000  0.82315000  0.08778000  1.0 0.0817365821
H  H18  1  0.23537000  0.99433000  0.41222000  1.0 0.0817365821
H  H19  1  0.76463000  0.17685000  0.75896000  1.0 0.0817365821
H  H20  1  0.91789000  0.00567000  0.74104000  1.0 0.0817365821
H  H21  1  0.91789000  0.17685000  0.91222000  1.0 0.0817365821
H  H22  1  0.76463000  0.00567000  0.58778000  1.0 0.0817365821
H  H23  1  0.23537000  0.82315000  0.24104000  1.0 0.0817365821
H  H24  1  0.08211000  0.99433000  0.25896000  1.0 0.0817365821
H  H25  1  0.80501000  0.45943000  0.55446000  1.0 0.0817365821
H  H26  1  0.40497000  0.25055000  0.94554000  1.0 0.0817365821
H  H27  1  0.59503000  0.54057000  0.84558000  1.0 0.0817365821
H  H28  1  0.19499000  0.74945000  0.65442000  1.0 0.0817365821
H  H29  1  0.19499000  0.54057000  0.44554000  1.0 0.0817365821
H  H30  1  0.59503000  0.74945000  0.05446000  1.0 0.0817365821
H  H31  1  0.40497000  0.45943000  0.15442000  1.0 0.0817365821
H  H32  1  0.80501000  0.25055000  0.34558000  1.0 0.0817365821
H  H33  1  0.08812000  0.72475000  0.89647000  1.0 0.0883804204
H  H34  1  0.32828000  0.19165000  0.60353000  1.0 0.0883804204
H  H35  1  0.67172000  0.27525000  0.86337000  1.0 0.0883804204
H  H36  1  0.91188000  0.80835000  0.63663000  1.0 0.0883804204
H  H37  1  0.91188000  0.27525000  0.10353000  1.0 0.0883804204
H  H38  1  0.67172000  0.80835000  0.39647000  1.0 0.0883804204
H  H39  1  0.32828000  0.72475000  0.13663000  1.0 0.0883804204
H  H40  1  0.08812000  0.19165000  0.36337000  1.0 0.0883804204
H  H41  1  0.68352000  0.55388000  0.66440000  1.0 0.0883804204
H  H42  1  0.38948000  0.01912000  0.83560000  1.0 0.0883804204
H  H43  1  0.61052000  0.44612000  0.62964000  1.0 0.0883804204
H  H44  1  0.31648000  0.98088000  0.87036000  1.0 0.0883804204
H  H45  1  0.31648000  0.44612000  0.33560000  1.0 0.0883804204
H  H46  1  0.61052000  0.98088000  0.16440000  1.0 0.0883804204
H  H47  1  0.38948000  0.55388000  0.37036000  1.0 0.0883804204
H  H48  1  0.68352000  0.01912000  0.12964000  1.0 0.0883804204
H  H49  1  0.76849000  0.79303000  0.82004000  1.0 0.0624622466
H  H50  1  0.47299000  0.94845000  0.67996000  1.0 0.0624622466
H  H51  1  0.52701000  0.20697000  0.47546000  1.0 0.0624622466
H  H52  1  0.23151000  0.05155000  0.02454000  1.0 0.0624622466
H  H53  1  0.23151000  0.20697000  0.17996000  1.0 0.0624622466
H  H54  1  0.52701000  0.05155000  0.32004000  1.0 0.0624622466
H  H55  1  0.47299000  0.79303000  0.52454000  1.0 0.0624622466
H  H56  1  0.76849000  0.94845000  0.97546000  1.0 0.0624622466
H  H57  1  0.00888000  0.48765000  0.73923000  1.0 0.0725215662
H  H58  1  0.24842000  0.26965000  0.76077000  1.0 0.0725215662
H  H59  1  0.75158000  0.51235000  0.02123000  1.0 0.0725215662
H  H60  1  0.99112000  0.73035000  0.47877000  1.0 0.0725215662
H  H61  1  0.99112000  0.51235000  0.26077000  1.0 0.0725215662
H  H62  1  0.75158000  0.73035000  0.23923000  1.0 0.0725215662
H  H63  1  0.24842000  0.48765000  0.97877000  1.0 0.0725215662
H  H64  1  0.00888000  0.26965000  0.52123000  1.0 0.0725215662
C  C1  1  0.91950000  0.50080000  0.75430000  1.0 -0.0218330019
C  C2  1  0.24650000  0.16520000  0.74570000  1.0 -0.0218330019
C  C3  1  0.75350000  0.49920000  0.91870000  1.0 -0.0218330019
C  C4  1  0.08050000  0.83480000  0.58130000  1.0 -0.0218330019
C  C5  1  0.08050000  0.49920000  0.24570000  1.0 -0.0218330019
C  C6  1  0.75350000  0.83480000  0.25430000  1.0 -0.0218330019
C  C7  1  0.24650000  0.50080000  0.08130000  1.0 -0.0218330019
C  C8  1  0.91950000  0.16520000  0.41870000  1.0 -0.0218330019
C  C9  1  0.88580000  0.67180000  0.73760000  1.0 0.0624622466
C  C10  1  0.43420000  0.14820000  0.76240000  1.0 0.0624622466
C  C11  1  0.56580000  0.32820000  0.71400000  1.0 0.0624622466
C  C12  1  0.11420000  0.85180000  0.78600000  1.0 0.0624622466
C  C13  1  0.11420000  0.32820000  0.26240000  1.0 0.0624622466
C  C14  1  0.56580000  0.85180000  0.23760000  1.0 0.0624622466
C  C15  1  0.43420000  0.67180000  0.28600000  1.0 0.0624622466
C  C16  1  0.88580000  0.14820000  0.21400000  1.0 0.0624622466
C  C17  1  0.00290000  0.61100000  0.91530000  1.0 -0.2064342733
C  C18  1  0.19570000  0.08760000  0.58470000  1.0 -0.2064342733
C  C19  1  0.80430000  0.38900000  0.89190000  1.0 -0.2064342733
C  C20  1  0.99710000  0.91240000  0.60810000  1.0 -0.2064342733
C  C21  1  0.99710000  0.38900000  0.08470000  1.0 -0.2064342733
C  C22  1  0.80430000  0.91240000  0.41530000  1.0 -0.2064342733
C  C23  1  0.19570000  0.61100000  0.10810000  1.0 -0.2064342733
C  C24  1  0.00290000  0.08760000  0.39190000  1.0 -0.2064342733
C  C25  1  0.02160000  0.74860000  0.97980000  1.0 -0.0843786813
C  C26  1  0.26880000  0.04180000  0.52020000  1.0 -0.0843786813
C  C27  1  0.73120000  0.25140000  0.77300000  1.0 -0.0843786813
C  C28  1  0.97840000  0.95820000  0.72700000  1.0 -0.0843786813
C  C29  1  0.97840000  0.25140000  0.02020000  1.0 -0.0843786813
C  C30  1  0.73120000  0.95820000  0.47980000  1.0 -0.0843786813
C  C31  1  0.26880000  0.74860000  0.22700000  1.0 -0.0843786813
C  C32  1  0.02160000  0.04180000  0.27300000  1.0 -0.0843786813
C  C33  1  0.86140000  0.53240000  0.66500000  1.0 -0.0404837774
C  C34  1  0.36740000  0.19640000  0.83500000  1.0 -0.0404837774
C  C35  1  0.63260000  0.46760000  0.82900000  1.0 -0.0404837774
C  C36  1  0.13860000  0.80360000  0.67100000  1.0 -0.0404837774
C  C37  1  0.13860000  0.46760000  0.33500000  1.0 -0.0404837774
C  C38  1  0.63260000  0.80360000  0.16500000  1.0 -0.0404837774
C  C39  1  0.36740000  0.53240000  0.17100000  1.0 -0.0404837774
C  C40  1  0.86140000  0.19640000  0.32900000  1.0 -0.0404837774
C  C41  1  0.83590000  0.49560000  0.68330000  1.0 -0.007696475
C  C42  1  0.31230000  0.15260000  0.81670000  1.0 -0.007696475
C  C43  1  0.68770000  0.50440000  0.84030000  1.0 -0.007696475
C  C44  1  0.16410000  0.84740000  0.65970000  1.0 -0.007696475
C  C45  1  0.16410000  0.50440000  0.31670000  1.0 -0.007696475
C  C46  1  0.68770000  0.84740000  0.18330000  1.0 -0.007696475
C  C47  1  0.31230000  0.49560000  0.15970000  1.0 -0.007696475
C  C48  1  0.83590000  0.15260000  0.34030000  1.0 -0.007696475
C  C49  1  0.00500000  0.69290000  0.85170000  1.0 0.0624622466
C  C50  1  0.34120000  0.15330000  0.64830000  1.0 0.0624622466
C  C51  1  0.65880000  0.30710000  0.81210000  1.0 0.0624622466
C  C52  1  0.99500000  0.84670000  0.68790000  1.0 0.0624622466
C  C53  1  0.99500000  0.30710000  0.14830000  1.0 0.0624622466
C  C54  1  0.65880000  0.84670000  0.35170000  1.0 0.0624622466
C  C55  1  0.34120000  0.69290000  0.18790000  1.0 0.0624622466
C  C56  1  0.00500000  0.15330000  0.31210000  1.0 0.0624622466
C  C57  1  0.76660000  0.58700000  0.71020000  1.0 -0.1673662357
C  C58  1  0.37680000  0.05640000  0.78980000  1.0 -0.1673662357
C  C59  1  0.62320000  0.41300000  0.67960000  1.0 -0.1673662357
C  C60  1  0.23340000  0.94360000  0.82040000  1.0 -0.1673662357
C  C61  1  0.23340000  0.41300000  0.28980000  1.0 -0.1673662357
C  C62  1  0.62320000  0.94360000  0.21020000  1.0 -0.1673662357
C  C63  1  0.37680000  0.58700000  0.32040000  1.0 -0.1673662357
C  C64  1  0.76660000  0.05640000  0.17960000  1.0 -0.1673662357
C  C65  1  0.81730000  0.72940000  0.80510000  1.0 -0.2000860229
C  C66  1  0.42430000  0.01220000  0.69490000  1.0 -0.2000860229
C  C67  1  0.57570000  0.27060000  0.58790000  1.0 -0.2000860229
C  C68  1  0.18270000  0.98780000  0.91210000  1.0 -0.2000860229
C  C69  1  0.18270000  0.27060000  0.19490000  1.0 -0.2000860229
C  C70  1  0.57570000  0.98780000  0.30510000  1.0 -0.2000860229
C  C71  1  0.42430000  0.72940000  0.41210000  1.0 -0.2000860229
C  C72  1  0.81730000  0.01220000  0.08790000  1.0 -0.2000860229
C  C73  1  0.95800000  0.54920000  0.75560000  1.0 -0.0404837774
C  C74  1  0.29360000  0.20240000  0.74440000  1.0 -0.0404837774
C  C75  1  0.70640000  0.45080000  0.90880000  1.0 -0.0404837774
C  C76  1  0.04200000  0.79760000  0.59120000  1.0 -0.0404837774
C  C77  1  0.04200000  0.45080000  0.24440000  1.0 -0.0404837774
C  C78  1  0.70640000  0.79760000  0.25560000  1.0 -0.0404837774
C  C79  1  0.29360000  0.54920000  0.09120000  1.0 -0.0404837774
C  C80  1  0.95800000  0.20240000  0.40880000  1.0 -0.0404837774
S  S1  1  0.89635000  0.32651000  0.67800000  1.0 0.0189894548
S  S2  1  0.14851000  0.21835000  0.82200000  1.0 0.0189894548
S  S3  1  0.85149000  0.67349000  0.06984000  1.0 0.0189894548
S  S4  1  0.10365000  0.78165000  0.43016000  1.0 0.0189894548
S  S5  1  0.10365000  0.67349000  0.32200000  1.0 0.0189894548
S  S6  1  0.85149000  0.78165000  0.17800000  1.0 0.0189894548
S  S7  1  0.14851000  0.32651000  0.93016000  1.0 0.0189894548
S  S8  1  0.89635000  0.21835000  0.56984000  1.0 0.0189894548
S  S9  1  0.76322000  0.31484000  0.55884000  1.0 0.0725215662
S  S10  1  0.25600000  0.20438000  0.94116000  1.0 0.0725215662
S  S11  1  0.74400000  0.68516000  0.94838000  1.0 0.0725215662
S  S12  1  0.23678000  0.79562000  0.55162000  1.0 0.0725215662
S  S13  1  0.23678000  0.68516000  0.44116000  1.0 0.0725215662
S  S14  1  0.74400000  0.79562000  0.05884000  1.0 0.0725215662
S  S15  1  0.25600000  0.31484000  0.05162000  1.0 0.0725215662
S  S16  1  0.76322000  0.20438000  0.44838000  1.0 0.0725215662
N  N1  1  0.94865000  0.78185000  0.88340000  1.0 -0.1269461933
N  N2  1  0.39845000  0.06525000  0.61660000  1.0 -0.1269461933
N  N3  1  0.60155000  0.21815000  0.66680000  1.0 -0.1269461933
N  N4  1  0.05135000  0.93475000  0.83320000  1.0 -0.1269461933
N  N5  1  0.05135000  0.21815000  0.11660000  1.0 -0.1269461933
N  N6  1  0.60155000  0.93475000  0.38340000  1.0 -0.1269461933
N  N7  1  0.39845000  0.78185000  0.33320000  1.0 -0.1269461933
N  N8  1  0.94865000  0.06525000  0.16680000  1.0 -0.1269461933
O  O1  1  0.16730000  0.01810000  0.14920000  1.0 -0.6430858515
O  O2  1  0.36890000  0.01810000  0.35080000  1.0 -0.6430858515
O  O3  1  0.63110000  0.98190000  0.64920000  1.0 -0.6430858515
O  O4  1  0.83270000  0.98190000  0.85080000  1.0 -0.6430858515
O  O5  1  0.38260000  0.09120000  0.20860000  1.0 -0.2541101418
O  O6  1  0.38260000  0.17400000  0.29140000  1.0 -0.2541101418
O  O7  1  0.61740000  0.90880000  0.79140000  1.0 -0.2541101418
O  O8  1  0.61740000  0.82600000  0.70860000  1.0 -0.2541101418
