# DDEC6 charges by PACMAN v1.1 (https://github.com/mtap-research/PACMAN-charge/)
data_FIGWUR_ASR_pacman
_symmetry_space_group_name_H-M   'P 1'
_cell_length_a   22.58440000
_cell_length_b   22.58440000
_cell_length_c   13.67370000
_cell_angle_alpha   90.00000000
_cell_angle_beta   90.00000000
_cell_angle_gamma   122.86700000
_symmetry_Int_Tables_number   1
_chemical_formula_structural   CoMoH16C20S4N4O3
_chemical_formula_sum   'Co8 Mo8 H128 C160 S32 N32 O24'
_cell_volume   5857.97595096
_cell_formula_units_Z   8
loop_
 _symmetry_equiv_pos_site_id
 _symmetry_equiv_pos_as_xyz
  1  'x, y, z'
loop_
 _atom_site_type_symbol
 _atom_site_label
 _atom_site_symmetry_multiplicity
 _atom_site_fract_x
 _atom_site_fract_y
 _atom_site_fract_z
 _atom_site_occupancy
 _atom_site_charge
Co  Co1  1  0.49380000  0.49760000  0.54090000  1.0 0.2212700825
Co  Co2  1  0.50620000  0.50240000  0.04090000  1.0 0.2212700825
Co  Co3  1  0.50240000  0.50620000  0.95910000  1.0 0.2212700825
Co  Co4  1  0.49760000  0.49380000  0.45910000  1.0 0.2212700825
Co  Co5  1  0.99460000  0.99020000  0.51790000  1.0 0.3979643453
Co  Co6  1  0.00540000  0.00980000  0.01790000  1.0 0.3979643453
Co  Co7  1  0.00980000  0.00540000  0.98210000  1.0 0.3979643453
Co  Co8  1  0.99020000  0.99460000  0.48210000  1.0 0.3979643453
Mo  Mo1  1  0.00244000  0.06516000  0.75750000  1.0 0.5015633423
Mo  Mo2  1  0.99756000  0.93484000  0.25750000  1.0 0.5015633423
Mo  Mo3  1  0.93484000  0.99756000  0.74250000  1.0 0.5015633423
Mo  Mo4  1  0.06516000  0.00244000  0.24250000  1.0 0.5015633423
Mo  Mo5  1  0.48896000  0.55884000  0.78990000  1.0 0.7484150399
Mo  Mo6  1  0.51104000  0.44116000  0.28990000  1.0 0.7484150399
Mo  Mo7  1  0.44116000  0.51104000  0.71010000  1.0 0.7484150399
Mo  Mo8  1  0.55884000  0.48896000  0.21010000  1.0 0.7484150399
H  H1  1  0.39283000  0.36735000  0.56915000  1.0 0.0706788074
H  H2  1  0.60717000  0.63265000  0.06915000  1.0 0.0706788074
H  H3  1  0.63265000  0.60717000  0.93085000  1.0 0.0706788074
H  H4  1  0.36735000  0.39283000  0.43085000  1.0 0.0706788074
H  H5  1  0.34039000  0.24335000  0.57857000  1.0 0.0803575026
H  H6  1  0.65961000  0.75665000  0.07857000  1.0 0.0803575026
H  H7  1  0.75665000  0.65961000  0.92143000  1.0 0.0803575026
H  H8  1  0.24335000  0.34039000  0.42143000  1.0 0.0803575026
H  H9  1  0.48939000  0.26851000  0.39339000  1.0 0.1086235977
H  H10  1  0.51061000  0.73149000  0.89339000  1.0 0.1086235977
H  H11  1  0.73149000  0.51061000  0.10661000  1.0 0.1086235977
H  H12  1  0.26851000  0.48939000  0.60661000  1.0 0.1086235977
H  H13  1  0.53516000  0.38756000  0.38530000  1.0 0.0598005928
H  H14  1  0.46484000  0.61244000  0.88530000  1.0 0.0598005928
H  H15  1  0.61244000  0.46484000  0.11470000  1.0 0.0598005928
H  H16  1  0.38756000  0.53516000  0.61470000  1.0 0.0598005928
H  H17  1  0.26356000  0.11485000  0.44740000  1.0 0.0803575026
H  H18  1  0.73643000  0.88514000  0.94740000  1.0 0.0803575026
H  H19  1  0.88514000  0.73643000  0.05260000  1.0 0.0803575026
H  H20  1  0.11485000  0.26356000  0.55260000  1.0 0.0803575026
H  H21  1  0.14397000  0.03615000  0.40959000  1.0 0.0207879521
H  H22  1  0.85603000  0.96385000  0.90959000  1.0 0.0207879521
H  H23  1  0.96385000  0.85603000  0.09041000  1.0 0.0207879521
H  H24  1  0.03615000  0.14397000  0.59041000  1.0 0.0207879521
H  H25  1  0.08989000  0.01169000  0.68393000  1.0 0.0505724793
H  H26  1  0.91011000  0.98831000  0.18393000  1.0 0.0505724793
H  H27  1  0.98831000  0.91011000  0.81607000  1.0 0.0505724793
H  H28  1  0.01169000  0.08989000  0.31607000  1.0 0.0505724793
H  H29  1  0.20512000  0.04772000  0.72567000  1.0 0.0803575026
H  H30  1  0.79488000  0.95228000  0.22567000  1.0 0.0803575026
H  H31  1  0.95228000  0.79488000  0.77433000  1.0 0.0803575026
H  H32  1  0.04772000  0.20512000  0.27433000  1.0 0.0803575026
H  H33  1  0.90530000  0.85734000  0.63092000  1.0 0.0706788074
H  H34  1  0.09470000  0.14266000  0.13092000  1.0 0.0706788074
H  H35  1  0.14266000  0.09470000  0.86908000  1.0 0.0706788074
H  H36  1  0.85734000  0.90530000  0.36908000  1.0 0.0706788074
H  H37  1  0.85109000  0.73281000  0.62469000  1.0 0.0505724793
H  H38  1  0.14891000  0.26719000  0.12469000  1.0 0.0505724793
H  H39  1  0.26719000  0.14891000  0.87531000  1.0 0.0505724793
H  H40  1  0.73281000  0.85109000  0.37531000  1.0 0.0505724793
H  H41  1  0.97208000  0.76580000  0.39034000  1.0 0.100078602
H  H42  1  0.02791000  0.23420000  0.89034000  1.0 0.100078602
H  H43  1  0.23420000  0.02791000  0.10966000  1.0 0.100078602
H  H44  1  0.76580000  0.97209000  0.60966000  1.0 0.100078602
H  H45  1  0.99979000  0.87957000  0.38145000  1.0 0.0408548149
H  H46  1  0.00021000  0.12043000  0.88145000  1.0 0.0408548149
H  H47  1  0.12043000  0.00021000  0.11855000  1.0 0.0408548149
H  H48  1  0.87957000  0.99979000  0.61855000  1.0 0.0408548149
H  H49  1  0.75362000  0.61494000  0.46021000  1.0 0.0870803552
H  H50  1  0.24638000  0.38506000  0.96021000  1.0 0.0870803552
H  H51  1  0.38506000  0.24638000  0.03979000  1.0 0.0870803552
H  H52  1  0.61494000  0.75362000  0.53979000  1.0 0.0870803552
H  H53  1  0.70877000  0.54133000  0.73792000  1.0 0.0870803552
H  H54  1  0.29123000  0.45867000  0.23792000  1.0 0.0870803552
H  H55  1  0.45867000  0.29123000  0.76208000  1.0 0.0870803552
H  H56  1  0.54133000  0.70877000  0.26208000  1.0 0.0870803552
H  H57  1  0.63985000  0.59431000  0.45774000  1.0 0.0706788074
H  H58  1  0.36015000  0.40569000  0.95774000  1.0 0.0706788074
H  H59  1  0.40569000  0.36015000  0.04226000  1.0 0.0706788074
H  H60  1  0.59431000  0.63985000  0.54226000  1.0 0.0706788074
H  H61  1  0.59052000  0.50034000  0.71036000  1.0 0.0505724793
H  H62  1  0.40948000  0.49966000  0.21036000  1.0 0.0505724793
H  H63  1  0.49966000  0.40948000  0.78964000  1.0 0.0505724793
H  H64  1  0.50034000  0.59052000  0.28964000  1.0 0.0505724793
H  H65  1  0.39997000  0.36991000  0.68431000  1.0 0.0706788074
H  H66  1  0.60003000  0.63009000  0.18431000  1.0 0.0706788074
H  H67  1  0.63009000  0.60003000  0.81569000  1.0 0.0706788074
H  H68  1  0.36991000  0.39997000  0.31569000  1.0 0.0706788074
H  H69  1  0.34043000  0.24527000  0.68853000  1.0 0.0803575026
H  H70  1  0.65957000  0.75473000  0.18853000  1.0 0.0803575026
H  H71  1  0.75473000  0.65957000  0.81147000  1.0 0.0803575026
H  H72  1  0.24527000  0.34043000  0.31147000  1.0 0.0803575026
H  H73  1  0.48371000  0.26729000  0.49302000  1.0 0.100078602
H  H74  1  0.51629000  0.73271000  0.99302000  1.0 0.100078602
H  H75  1  0.73271000  0.51629000  0.00698000  1.0 0.100078602
H  H76  1  0.26729000  0.48371000  0.50698000  1.0 0.100078602
H  H77  1  0.50070000  0.37516000  0.44966000  1.0 0.1086235977
H  H78  1  0.49930000  0.62484000  0.94966000  1.0 0.1086235977
H  H79  1  0.62484000  0.49930000  0.05034000  1.0 0.1086235977
H  H80  1  0.37516000  0.50070000  0.55034000  1.0 0.1086235977
H  H81  1  0.26321000  0.13777000  0.49919000  1.0 0.0803575026
H  H82  1  0.73679000  0.86223000  0.99919000  1.0 0.0803575026
H  H83  1  0.86223000  0.73679000  0.00081000  1.0 0.0803575026
H  H84  1  0.13777000  0.26321000  0.50081000  1.0 0.0803575026
H  H85  1  0.15341000  0.09533000  0.42945000  1.0 0.0274895206
H  H86  1  0.84659000  0.90467000  0.92945000  1.0 0.0274895206
H  H87  1  0.90467000  0.84659000  0.07055000  1.0 0.0274895206
H  H88  1  0.09533000  0.15341000  0.57055000  1.0 0.0274895206
H  H89  1  0.05479000  0.96095000  0.64125000  1.0 0.0274895206
H  H90  1  0.94521000  0.03905000  0.14125000  1.0 0.0274895206
H  H91  1  0.03905000  0.94521000  0.85875000  1.0 0.0274895206
H  H92  1  0.96095000  0.05479000  0.35875000  1.0 0.0274895206
H  H93  1  0.15934000  0.01666000  0.73285000  1.0 0.0706788074
H  H94  1  0.84066000  0.98334000  0.23285000  1.0 0.0706788074
H  H95  1  0.98334000  0.84066000  0.76715000  1.0 0.0706788074
H  H96  1  0.01666000  0.15934000  0.26715000  1.0 0.0706788074
H  H97  1  0.87352000  0.84614000  0.59559000  1.0 0.0706788074
H  H98  1  0.12648000  0.15386000  0.09559000  1.0 0.0706788074
H  H99  1  0.15386000  0.12648000  0.90441000  1.0 0.0706788074
H  H100  1  0.84614000  0.87352000  0.40441000  1.0 0.0706788074
H  H101  1  0.82703000  0.72461000  0.57196000  1.0 0.0598005928
H  H102  1  0.17297000  0.27539000  0.07196000  1.0 0.0598005928
H  H103  1  0.27539000  0.17297000  0.92804000  1.0 0.0598005928
H  H104  1  0.72461000  0.82703000  0.42804000  1.0 0.0598005928
H  H105  1  0.01041000  0.78185000  0.44257000  1.0 0.100078602
H  H106  1  0.98959000  0.21815000  0.94257000  1.0 0.100078602
H  H107  1  0.21815000  0.98959000  0.05743000  1.0 0.100078602
H  H108  1  0.78185000  0.01041000  0.55743000  1.0 0.100078602
H  H109  1  0.05066000  0.89814000  0.46875000  1.0 0.0706788074
H  H110  1  0.94934000  0.10186000  0.96875000  1.0 0.0803575026
H  H111  1  0.10186000  0.94934000  0.03125000  1.0 0.0706788074
H  H112  1  0.89814000  0.05066000  0.53125000  1.0 0.0706788074
H  H113  1  0.76336000  0.60944000  0.41597000  1.0 0.0598005928
H  H114  1  0.23664000  0.39056000  0.91597000  1.0 0.0598005928
H  H115  1  0.39056000  0.23664000  0.08403000  1.0 0.0598005928
H  H116  1  0.60944000  0.76336000  0.58403000  1.0 0.0598005928
H  H117  1  0.64905000  0.57991000  0.38287000  1.0 0.0408548149
H  H118  1  0.35095000  0.42009000  0.88287000  1.0 0.0408548149
H  H119  1  0.42009000  0.35095000  0.11713000  1.0 0.0408548149
H  H120  1  0.57991000  0.64905000  0.61713000  1.0 0.0408548149
H  H121  1  0.57813000  0.47963000  0.63102000  1.0 0.0870803552
H  H122  1  0.42187000  0.52037000  0.13102000  1.0 0.0870803552
H  H123  1  0.52037000  0.42187000  0.86898000  1.0 0.0870803552
H  H124  1  0.47963000  0.57813000  0.36898000  1.0 0.0870803552
H  H125  1  0.69270000  0.52336000  0.68303000  1.0 0.1086235977
H  H126  1  0.30730000  0.47664000  0.18303000  1.0 0.1086235977
H  H127  1  0.47664000  0.30730000  0.81697000  1.0 0.1086235977
H  H128  1  0.52336000  0.69270000  0.31697000  1.0 0.1086235977
C  C1  1  0.41270000  0.34690000  0.53100000  1.0 0.0870803552
C  C2  1  0.58730000  0.65310000  0.03100000  1.0 0.0870803552
C  C3  1  0.65310000  0.58730000  0.96900000  1.0 0.0870803552
C  C4  1  0.34690000  0.41270000  0.46900000  1.0 0.0870803552
C  C5  1  0.38280000  0.27280000  0.54300000  1.0 -0.0609964968
C  C6  1  0.61720000  0.72720000  0.04300000  1.0 -0.0609964968
C  C7  1  0.72720000  0.61720000  0.95700000  1.0 -0.0609964968
C  C8  1  0.27280000  0.38280000  0.45700000  1.0 -0.0609964968
C  C9  1  0.41800000  0.24780000  0.50100000  1.0 -0.0175960577
C  C10  1  0.58200000  0.75220000  0.00100000  1.0 -0.0175960577
C  C11  1  0.75220000  0.58200000  0.99900000  1.0 -0.0175960577
C  C12  1  0.24780000  0.41800000  0.49900000  1.0 -0.0175960577
C  C13  1  0.47070000  0.28890000  0.43400000  1.0 -0.1120054801
C  C14  1  0.52930000  0.71110000  0.93400000  1.0 -0.115375055
C  C15  1  0.71110000  0.52930000  0.06600000  1.0 -0.1120054801
C  C16  1  0.28890000  0.47070000  0.56600000  1.0 -0.115375055
C  C17  1  0.49530000  0.35870000  0.42600000  1.0 -0.1482532453
C  C18  1  0.50470000  0.64130000  0.92600000  1.0 -0.1482532453
C  C19  1  0.64130000  0.50470000  0.07400000  1.0 -0.1482532453
C  C20  1  0.35870000  0.49530000  0.57400000  1.0 -0.1482532453
C  C21  1  0.22890000  0.08950000  0.49600000  1.0 -0.0775361327
C  C22  1  0.77110000  0.91050000  0.99600000  1.0 -0.0775361327
C  C23  1  0.91050000  0.77110000  0.00400000  1.0 -0.0775361327
C  C24  1  0.08950000  0.22890000  0.50400000  1.0 -0.0775361327
C  C25  1  0.15700000  0.04900000  0.47600000  1.0 0.0598005928
C  C26  1  0.84300000  0.95100000  0.97600000  1.0 0.0598005928
C  C27  1  0.95100000  0.84300000  0.02400000  1.0 0.0598005928
C  C28  1  0.04900000  0.15700000  0.52400000  1.0 0.0598005928
C  C29  1  0.12470000  0.02870000  0.63400000  1.0 0.0598005928
C  C30  1  0.87530000  0.97130000  0.13400000  1.0 0.0598005928
C  C31  1  0.97130000  0.87530000  0.86600000  1.0 0.0598005928
C  C32  1  0.02870000  0.12470000  0.36600000  1.0 0.0598005928
C  C33  1  0.19380000  0.05420000  0.66100000  1.0 -0.0408930941
C  C34  1  0.80620000  0.94580000  0.16100000  1.0 -0.0408930941
C  C35  1  0.94580000  0.80620000  0.83900000  1.0 -0.0408930941
C  C36  1  0.05420000  0.19380000  0.33900000  1.0 -0.0408930941
C  C37  1  0.24600000  0.09000000  0.59200000  1.0 0.0096252568
C  C38  1  0.75400000  0.91000000  0.09200000  1.0 0.0096252568
C  C39  1  0.91000000  0.75400000  0.90800000  1.0 0.0096252568
C  C40  1  0.09000000  0.24600000  0.40800000  1.0 0.0096252568
C  C41  1  0.90210000  0.83310000  0.56400000  1.0 -0.1120054801
C  C42  1  0.09790000  0.16690000  0.06400000  1.0 -0.1120054801
C  C43  1  0.16690000  0.09790000  0.93600000  1.0 -0.1120054801
C  C44  1  0.83310000  0.90210000  0.43600000  1.0 -0.1120054801
C  C45  1  0.88670000  0.76330000  0.58000000  1.0 -0.0775361327
C  C46  1  0.11330000  0.23670000  0.08000000  1.0 -0.0775361327
C  C47  1  0.23670000  0.11330000  0.92000000  1.0 -0.0775361327
C  C48  1  0.76330000  0.88670000  0.42000000  1.0 -0.0775361327
C  C49  1  0.95550000  0.78330000  0.43900000  1.0 -0.0305216573
C  C50  1  0.04450000  0.21670000  0.93900000  1.0 -0.0305216573
C  C51  1  0.21670000  0.04450000  0.06100000  1.0 -0.0305216573
C  C52  1  0.78330000  0.95550000  0.56100000  1.0 -0.0305216573
C  C53  1  0.97290000  0.85110000  0.43600000  1.0 0.0096252568
C  C54  1  0.02710000  0.14890000  0.93600000  1.0 0.0096252568
C  C55  1  0.14890000  0.02710000  0.06400000  1.0 0.0096252568
C  C56  1  0.85110000  0.97290000  0.56400000  1.0 0.0096252568
C  C57  1  0.91290000  0.73910000  0.51500000  1.0 -0.0502445482
C  C58  1  0.08710000  0.26090000  0.01500000  1.0 -0.0502445482
C  C59  1  0.26090000  0.08710000  0.98500000  1.0 -0.0502445482
C  C60  1  0.73910000  0.91290000  0.48500000  1.0 -0.0502445482
C  C61  1  0.73990000  0.57810000  0.60000000  1.0 0.0043640341
C  C62  1  0.26010000  0.42190000  0.10000000  1.0 0.0043640341
C  C63  1  0.42190000  0.26010000  0.90000000  1.0 0.0043640341
C  C64  1  0.57810000  0.73990000  0.40000000  1.0 0.0043640341
C  C65  1  0.72210000  0.59390000  0.51300000  1.0 -0.0408930941
C  C66  1  0.27790000  0.40610000  0.01300000  1.0 -0.0408930941
C  C67  1  0.40610000  0.27790000  0.98700000  1.0 -0.0408930941
C  C68  1  0.59390000  0.72210000  0.48700000  1.0 -0.0408930941
C  C69  1  0.69330000  0.54670000  0.67600000  1.0 -0.0974985156
C  C70  1  0.30670000  0.45330000  0.17600000  1.0 -0.0974985156
C  C71  1  0.45330000  0.30670000  0.82400000  1.0 -0.0974985156
C  C72  1  0.54670000  0.69330000  0.32400000  1.0 -0.0974985156
C  C73  1  0.65250000  0.57550000  0.51000000  1.0 0.0598005928
C  C74  1  0.34750000  0.42450000  0.01000000  1.0 0.0598005928
C  C75  1  0.42450000  0.34750000  0.99000000  1.0 0.0598005928
C  C76  1  0.57550000  0.65250000  0.49000000  1.0 0.0598005928
C  C77  1  0.62400000  0.52400000  0.65900000  1.0 -0.0901870122
C  C78  1  0.37600000  0.47600000  0.15900000  1.0 -0.0901870122
C  C79  1  0.47600000  0.37600000  0.84100000  1.0 -0.0901870122
C  C80  1  0.52400000  0.62400000  0.34100000  1.0 -0.0901870122
C  C81  1  0.41280000  0.34720000  0.63800000  1.0 -0.1441854779
C  C82  1  0.58720000  0.65280000  0.13800000  1.0 -0.1441854779
C  C83  1  0.65280000  0.58720000  0.86200000  1.0 -0.1441854779
C  C84  1  0.34720000  0.41280000  0.36200000  1.0 -0.1441854779
C  C85  1  0.37930000  0.27250000  0.64600000  1.0 -0.2345024627
C  C86  1  0.62070000  0.72750000  0.14600000  1.0 -0.2416074824
C  C87  1  0.72750000  0.62070000  0.85400000  1.0 -0.2345024627
C  C88  1  0.27250000  0.37930000  0.35400000  1.0 -0.2345024627
C  C89  1  0.40490000  0.24310000  0.59100000  1.0 -0.0305216573
C  C90  1  0.59510000  0.75690000  0.09100000  1.0 -0.0305216573
C  C91  1  0.75690000  0.59510000  0.90900000  1.0 -0.0305216573
C  C92  1  0.24310000  0.40490000  0.40900000  1.0 -0.0305216573
C  C93  1  0.45930000  0.28510000  0.52500000  1.0 -0.0305216573
C  C94  1  0.54070000  0.71490000  0.02500000  1.0 -0.0305216573
C  C95  1  0.71490000  0.54070000  0.97500000  1.0 -0.0305216573
C  C96  1  0.28510000  0.45930000  0.47500000  1.0 -0.0305216573
C  C97  1  0.47610000  0.35190000  0.50800000  1.0 0.0803575026
C  C98  1  0.52390000  0.64810000  0.00800000  1.0 0.0803575026
C  C99  1  0.64810000  0.52390000  0.99200000  1.0 0.0803575026
C  C100  1  0.35190000  0.47610000  0.49200000  1.0 0.0803575026
C  C101  1  0.22120000  0.07340000  0.61700000  1.0 0.0408548149
C  C102  1  0.77880000  0.92660000  0.11700000  1.0 0.0408548149
C  C103  1  0.92660000  0.77880000  0.88300000  1.0 0.0408548149
C  C104  1  0.07340000  0.22120000  0.38300000  1.0 0.0408548149
C  C105  1  0.22100000  0.10240000  0.53100000  1.0 -0.0502445482
C  C106  1  0.77900000  0.89760000  0.03100000  1.0 -0.0502445482
C  C107  1  0.89760000  0.77900000  0.96900000  1.0 -0.0502445482
C  C108  1  0.10240000  0.22100000  0.46900000  1.0 -0.0502445482
C  C109  1  0.15450000  0.07650000  0.49100000  1.0 0.0803575026
C  C110  1  0.84550000  0.92350000  0.99100000  1.0 0.0803575026
C  C111  1  0.92350000  0.84550000  0.00900000  1.0 0.0803575026
C  C112  1  0.07650000  0.15450000  0.50900000  1.0 0.0803575026
C  C113  1  0.09640000  0.00080000  0.61500000  1.0 0.0505724793
C  C114  1  0.90360000  0.99920000  0.11500000  1.0 0.0505724793
C  C115  1  0.99920000  0.90360000  0.88500000  1.0 0.0505724793
C  C116  1  0.00080000  0.09640000  0.38500000  1.0 0.0505724793
C  C117  1  0.15910000  0.02830000  0.66600000  1.0 -0.0974985156
C  C118  1  0.84090000  0.97170000  0.16600000  1.0 -0.0974985156
C  C119  1  0.97170000  0.84090000  0.83400000  1.0 -0.0974985156
C  C120  1  0.02830000  0.15910000  0.33400000  1.0 -0.0974985156
C  C121  1  0.87310000  0.75930000  0.55000000  1.0 -0.070986438
C  C122  1  0.12690000  0.24070000  0.05000000  1.0 -0.070986438
C  C123  1  0.24070000  0.12690000  0.95000000  1.0 -0.0775361327
C  C124  1  0.75930000  0.87310000  0.45000000  1.0 -0.070986438
C  C125  1  0.91390000  0.74190000  0.50500000  1.0 -0.0609964968
C  C126  1  0.08610000  0.25810000  0.00500000  1.0 -0.0609964968
C  C127  1  0.25810000  0.08610000  0.99500000  1.0 -0.0609964968
C  C128  1  0.74190000  0.91390000  0.49500000  1.0 -0.0609964968
C  C129  1  0.98110000  0.79410000  0.47400000  1.0 -0.0030704108
C  C130  1  0.01890000  0.20590000  0.97400000  1.0 -0.0030704108
C  C131  1  0.20590000  0.01890000  0.02600000  1.0 -0.0030704108
C  C132  1  0.79410000  0.98110000  0.52600000  1.0 -0.0030704108
C  C133  1  0.00460000  0.86300000  0.49000000  1.0 0.0408548149
C  C134  1  0.99540000  0.13700000  0.99000000  1.0 0.0408548149
C  C135  1  0.13700000  0.99540000  0.01000000  1.0 0.0408548149
C  C136  1  0.86300000  0.00460000  0.51000000  1.0 0.0408548149
C  C137  1  0.73880000  0.57560000  0.55600000  1.0 0.0207879521
C  C138  1  0.26120000  0.42440000  0.05600000  1.0 0.0207879521
C  C139  1  0.42440000  0.26120000  0.94400000  1.0 0.0207879521
C  C140  1  0.57560000  0.73880000  0.44400000  1.0 0.0207879521
C  C141  1  0.72700000  0.58740000  0.46400000  1.0 -0.1120054801
C  C142  1  0.27300000  0.41260000  0.96400000  1.0 -0.1120054801
C  C143  1  0.41260000  0.27300000  0.03600000  1.0 -0.1120054801
C  C144  1  0.58740000  0.72700000  0.53600000  1.0 -0.1120054801
C  C145  1  0.65730000  0.56490000  0.44300000  1.0 -0.0502445482
C  C146  1  0.34270000  0.43510000  0.94300000  1.0 -0.0502445482
C  C147  1  0.43510000  0.34270000  0.05700000  1.0 -0.0502445482
C  C148  1  0.56490000  0.65730000  0.55700000  1.0 -0.0502445482
C  C149  1  0.61610000  0.50910000  0.58800000  1.0 0.0803575026
C  C150  1  0.38390000  0.49090000  0.08800000  1.0 0.0803575026
C  C151  1  0.49090000  0.38390000  0.91200000  1.0 0.0803575026
C  C152  1  0.50910000  0.61610000  0.41200000  1.0 0.0803575026
C  C153  1  0.68410000  0.53430000  0.62000000  1.0 -0.0408930941
C  C154  1  0.31590000  0.46570000  0.12000000  1.0 -0.0408930941
C  C155  1  0.46570000  0.31590000  0.88000000  1.0 -0.0408930941
C  C156  1  0.53430000  0.68410000  0.38000000  1.0 -0.0408930941
C  C157  1  0.91490000  0.83710000  0.57700000  1.0 -0.0502445482
C  C158  1  0.08510000  0.16290000  0.07700000  1.0 -0.0502445482
C  C159  1  0.16290000  0.08510000  0.92300000  1.0 -0.0502445482
C  C160  1  0.83710000  0.91490000  0.42300000  1.0 -0.0502445482
S  S1  1  0.39280000  0.15760000  0.51280000  1.0 -0.0775361327
S  S2  1  0.60720000  0.84240000  0.01280000  1.0 -0.070986438
S  S3  1  0.84240000  0.60720000  0.98720000  1.0 -0.0775361327
S  S4  1  0.15760000  0.39280000  0.48720000  1.0 -0.0775361327
S  S5  1  0.33460000  0.12180000  0.63290000  1.0 0.0408548149
S  S6  1  0.66540000  0.87820000  0.13290000  1.0 0.0408548149
S  S7  1  0.87820000  0.66540000  0.86710000  1.0 0.0505724793
S  S8  1  0.12180000  0.33460000  0.36710000  1.0 0.0408548149
S  S9  1  0.88160000  0.64720000  0.50380000  1.0 -0.0030704108
S  S10  1  0.11840000  0.35280000  0.00380000  1.0 -0.0030704108
S  S11  1  0.35280000  0.11840000  0.99620000  1.0 -0.0030704108
S  S12  1  0.64720000  0.88160000  0.49620000  1.0 -0.0030704108
S  S13  1  0.83010000  0.60410000  0.62710000  1.0 -0.0609964968
S  S14  1  0.16990000  0.39590000  0.12710000  1.0 -0.0609964968
S  S15  1  0.39590000  0.16990000  0.87290000  1.0 -0.0609964968
S  S16  1  0.60410000  0.83010000  0.37290000  1.0 -0.0609964968
S  S17  1  0.37920000  0.15280000  0.59930000  1.0 0.0207879521
S  S18  1  0.62080000  0.84720000  0.09930000  1.0 0.0207879521
S  S19  1  0.84720000  0.62080000  0.90070000  1.0 0.0207879521
S  S20  1  0.15280000  0.37920000  0.40070000  1.0 0.0207879521
S  S21  1  0.29930000  0.10510000  0.69190000  1.0 -0.0775361327
S  S22  1  0.70070000  0.89490000  0.19190000  1.0 -0.0775361327
S  S23  1  0.89490000  0.70070000  0.80810000  1.0 -0.0775361327
S  S24  1  0.10510000  0.29930000  0.30810000  1.0 -0.0775361327
S  S25  1  0.88990000  0.65230000  0.49100000  1.0 -0.0063254953
S  S26  1  0.11010000  0.34770000  0.99100000  1.0 -0.0063254953
S  S27  1  0.34770000  0.11010000  0.00900000  1.0 -0.0063254953
S  S28  1  0.65230000  0.88990000  0.50900000  1.0 -0.0063254953
S  S29  1  0.82510000  0.59970000  0.60070000  1.0 0.0096252568
S  S30  1  0.17490000  0.40030000  0.10070000  1.0 0.0096252568
S  S31  1  0.40030000  0.17490000  0.89930000  1.0 0.0096252568
S  S32  1  0.59970000  0.82510000  0.39930000  1.0 0.0096252568
N  N1  1  0.46520000  0.38900000  0.47300000  1.0 -0.1656833571
N  N2  1  0.53480000  0.61100000  0.97300000  1.0 -0.1656833571
N  N3  1  0.61100000  0.53480000  0.02700000  1.0 -0.1656833571
N  N4  1  0.38900000  0.46520000  0.52700000  1.0 -0.1656833571
N  N5  1  0.10400000  0.02600000  0.54100000  1.0 -0.2206856944
N  N6  1  0.89600000  0.97400000  0.04100000  1.0 -0.2206856944
N  N7  1  0.97400000  0.89600000  0.95900000  1.0 -0.2206856944
N  N8  1  0.02600000  0.10400000  0.45900000  1.0 -0.2206856944
N  N9  1  0.95380000  0.88020000  0.50600000  1.0 -0.070986438
N  N10  1  0.04620000  0.11980000  0.00600000  1.0 -0.070986438
N  N11  1  0.11980000  0.04620000  0.99400000  1.0 -0.070986438
N  N12  1  0.88020000  0.95380000  0.49400000  1.0 -0.070986438
N  N13  1  0.60060000  0.53260000  0.57200000  1.0 -0.070986438
N  N14  1  0.39940000  0.46740000  0.07200000  1.0 -0.070986438
N  N15  1  0.46740000  0.39940000  0.92800000  1.0 -0.070986438
N  N16  1  0.53260000  0.60060000  0.42800000  1.0 -0.070986438
N  N17  1  0.46080000  0.38800000  0.57200000  1.0 -0.1656833571
N  N18  1  0.53920000  0.61200000  0.07200000  1.0 -0.1656833571
N  N19  1  0.61200000  0.53920000  0.92800000  1.0 -0.1656833571
N  N20  1  0.38800000  0.46080000  0.42800000  1.0 -0.1656833571
N  N21  1  0.09200000  0.02800000  0.52900000  1.0 -0.2941590976
N  N22  1  0.90800000  0.97200000  0.02900000  1.0 -0.2941590976
N  N23  1  0.97200000  0.90800000  0.97100000  1.0 -0.2941590976
N  N24  1  0.02800000  0.09200000  0.47100000  1.0 -0.2941590976
N  N25  1  0.96550000  0.88410000  0.53600000  1.0 -0.0502445482
N  N26  1  0.03450000  0.11590000  0.03600000  1.0 -0.0502445482
N  N27  1  0.11590000  0.03450000  0.96400000  1.0 -0.0502445482
N  N28  1  0.88410000  0.96550000  0.46400000  1.0 -0.0502445482
N  N29  1  0.60070000  0.52430000  0.50000000  1.0 -0.0901870122
N  N30  1  0.39930000  0.47570000  0.00000000  1.0 -0.0901870122
N  N31  1  0.47570000  0.39930000  0.00000000  1.0 -0.0901870122
N  N32  1  0.52430000  0.60070000  0.50000000  1.0 -0.0901870122
O  O1  1  0.49030000  0.49770000  0.63100000  1.0 -0.2612630669
O  O2  1  0.50970000  0.50230000  0.13100000  1.0 -0.2612630669
O  O3  1  0.50230000  0.50970000  0.86900000  1.0 -0.2612630669
O  O4  1  0.49770000  0.49030000  0.36900000  1.0 -0.2612630669
O  O5  1  0.97310000  0.00490000  0.62900000  1.0 -0.2416074824
O  O6  1  0.02690000  0.99510000  0.12900000  1.0 -0.2416074824
O  O7  1  0.99510000  0.02690000  0.87100000  1.0 -0.2416074824
O  O8  1  0.00490000  0.97310000  0.37100000  1.0 -0.2416074824
O  O9  1  0.98960000  0.00940000  0.66000000  1.0 -0.2206856944
O  O10  1  0.01040000  0.99060000  0.16000000  1.0 -0.2206856944
O  O11  1  0.99060000  0.01040000  0.84000000  1.0 -0.2206856944
O  O12  1  0.00940000  0.98960000  0.34000000  1.0 -0.2206856944
O  O13  1  0.95290000  0.09990000  0.74900000  1.0 -0.2612630669
O  O14  1  0.04710000  0.90010000  0.24900000  1.0 -0.2612630669
O  O15  1  0.90010000  0.04710000  0.75100000  1.0 -0.2612630669
O  O16  1  0.09990000  0.95290000  0.25100000  1.0 -0.2612630669
O  O17  1  0.49350000  0.53450000  0.66800000  1.0 -0.1818149556
O  O18  1  0.50650000  0.46550000  0.16800000  1.0 -0.1818149556
O  O19  1  0.46550000  0.50650000  0.83200000  1.0 -0.1818149556
O  O20  1  0.53450000  0.49350000  0.33200000  1.0 -0.1818149556
O  O21  1  0.40130000  0.53570000  0.80600000  1.0 -0.4457936418
O  O22  1  0.59870000  0.46430000  0.30600000  1.0 -0.4457936418
O  O23  1  0.46430000  0.59870000  0.69400000  1.0 -0.4457936418
O  O24  1  0.53570000  0.40130000  0.19400000  1.0 -0.4457936418
