# DDEC6 charges by PACMAN v1.1 (https://github.com/mtap-research/PACMAN-charge/)
data_FIHWUR_ASR_pacman
_symmetry_space_group_name_H-M   'P 1'
_cell_length_a   9.46320000
_cell_length_b   16.93600000
_cell_length_c   25.38600000
_cell_angle_alpha   90.00000000
_cell_angle_beta   90.00000000
_cell_angle_gamma   90.00000000
_symmetry_Int_Tables_number   1
_chemical_formula_structural   ZnH11C18N7O4
_chemical_formula_sum   'Zn8 H88 C144 N56 O32'
_cell_volume   4068.58261951
_cell_formula_units_Z   8
loop_
 _symmetry_equiv_pos_site_id
 _symmetry_equiv_pos_as_xyz
  1  'x, y, z'
loop_
 _atom_site_type_symbol
 _atom_site_label
 _atom_site_symmetry_multiplicity
 _atom_site_fract_x
 _atom_site_fract_y
 _atom_site_fract_z
 _atom_site_occupancy
 _atom_site_charge
Zn  Zn1  1  0.46879000  0.32169000  0.46968000  1.0 0.7634463411
Zn  Zn2  1  0.53121000  0.17831000  0.96968000  1.0 0.7634463411
Zn  Zn3  1  0.96879000  0.67831000  0.03032000  1.0 0.7634463411
Zn  Zn4  1  0.03121000  0.82169000  0.53032000  1.0 0.7634463411
Zn  Zn5  1  0.53121000  0.67831000  0.53032000  1.0 0.7634463411
Zn  Zn6  1  0.46879000  0.82169000  0.03032000  1.0 0.7634463411
Zn  Zn7  1  0.03121000  0.32169000  0.96968000  1.0 0.7634463411
Zn  Zn8  1  0.96879000  0.17831000  0.46968000  1.0 0.7634463411
H  H1  1  0.18958000  0.52882000  0.55399000  1.0 0.120385774
H  H2  1  0.73354000  0.27483000  0.53824000  1.0 0.1301220859
H  H3  1  0.72774000  0.48234000  0.60421000  1.0 0.120385774
H  H4  1  0.94927000  0.40129000  0.62335000  1.0 0.1397955624
H  H5  1  0.97140000  0.32507000  0.58919000  1.0 0.1397955624
H  H6  1  0.78258000  0.38571000  0.70412000  1.0 0.120385774
H  H7  1  0.78449000  0.16784000  0.76638000  1.0 0.120385774
H  H8  1  0.91279000  0.12203000  0.69399000  1.0 0.1136937511
H  H9  1  0.94935000  0.20474000  0.62439000  1.0 0.1301220859
H  H10  1  0.64291000  0.27350000  0.80723000  1.0 0.1397955624
H  H11  1  0.64177000  0.35799000  0.78187000  1.0 0.1301220859
H  H12  1  0.81042000  0.97118000  0.05399000  1.0 0.120385774
H  H13  1  0.26646000  0.22517000  0.03824000  1.0 0.1301220859
H  H14  1  0.27226000  0.01766000  0.10421000  1.0 0.120385774
H  H15  1  0.05073000  0.09871000  0.12335000  1.0 0.1397955624
H  H16  1  0.02860000  0.17493000  0.08919000  1.0 0.1397955624
H  H17  1  0.21742000  0.11429000  0.20412000  1.0 0.120385774
H  H18  1  0.21551000  0.33216000  0.26638000  1.0 0.120385774
H  H19  1  0.08721000  0.37797000  0.19399000  1.0 0.1136937511
H  H20  1  0.05065000  0.29526000  0.12439000  1.0 0.1301220859
H  H21  1  0.35709000  0.22650000  0.30723000  1.0 0.1397955624
H  H22  1  0.35823000  0.14201000  0.28187000  1.0 0.1301220859
H  H23  1  0.68958000  0.47118000  0.94601000  1.0 0.120385774
H  H24  1  0.23354000  0.72517000  0.96176000  1.0 0.1301220859
H  H25  1  0.22774000  0.51766000  0.89579000  1.0 0.120385774
H  H26  1  0.44927000  0.59871000  0.87665000  1.0 0.1397955624
H  H27  1  0.47140000  0.67493000  0.91081000  1.0 0.1397955624
H  H28  1  0.28258000  0.61429000  0.79588000  1.0 0.120385774
H  H29  1  0.28449000  0.83216000  0.73362000  1.0 0.120385774
H  H30  1  0.41279000  0.87797000  0.80601000  1.0 0.1136937511
H  H31  1  0.44935000  0.79526000  0.87561000  1.0 0.1301220859
H  H32  1  0.14291000  0.72650000  0.69277000  1.0 0.1397955624
H  H33  1  0.14177000  0.64201000  0.71813000  1.0 0.1301220859
H  H34  1  0.31042000  0.02882000  0.44601000  1.0 0.120385774
H  H35  1  0.76646000  0.77483000  0.46176000  1.0 0.1301220859
H  H36  1  0.77226000  0.98234000  0.39579000  1.0 0.120385774
H  H37  1  0.55073000  0.90129000  0.37665000  1.0 0.1397955624
H  H38  1  0.52860000  0.82507000  0.41081000  1.0 0.1397955624
H  H39  1  0.71742000  0.88571000  0.29588000  1.0 0.120385774
H  H40  1  0.71551000  0.66784000  0.23362000  1.0 0.120385774
H  H41  1  0.58721000  0.62203000  0.30601000  1.0 0.1136937511
H  H42  1  0.55065000  0.70474000  0.37561000  1.0 0.1301220859
H  H43  1  0.85709000  0.77350000  0.19277000  1.0 0.1397955624
H  H44  1  0.85823000  0.85799000  0.21813000  1.0 0.1301220859
H  H45  1  0.81042000  0.47118000  0.44601000  1.0 0.120385774
H  H46  1  0.26646000  0.72517000  0.46176000  1.0 0.1301220859
H  H47  1  0.27226000  0.51766000  0.39579000  1.0 0.120385774
H  H48  1  0.05073000  0.59871000  0.37665000  1.0 0.1397955624
H  H49  1  0.02860000  0.67493000  0.41081000  1.0 0.1397955624
H  H50  1  0.21742000  0.61429000  0.29588000  1.0 0.120385774
H  H51  1  0.21551000  0.83216000  0.23362000  1.0 0.120385774
H  H52  1  0.08721000  0.87797000  0.30601000  1.0 0.1136937511
H  H53  1  0.05065000  0.79526000  0.37561000  1.0 0.1301220859
H  H54  1  0.35709000  0.72650000  0.19277000  1.0 0.1397955624
H  H55  1  0.35823000  0.64201000  0.21813000  1.0 0.1301220859
H  H56  1  0.18958000  0.02882000  0.94601000  1.0 0.120385774
H  H57  1  0.73354000  0.77483000  0.96176000  1.0 0.1301220859
H  H58  1  0.72774000  0.98234000  0.89579000  1.0 0.120385774
H  H59  1  0.94927000  0.90129000  0.87665000  1.0 0.1397955624
H  H60  1  0.97140000  0.82507000  0.91081000  1.0 0.1397955624
H  H61  1  0.78258000  0.88571000  0.79588000  1.0 0.120385774
H  H62  1  0.78449000  0.66784000  0.73362000  1.0 0.120385774
H  H63  1  0.91279000  0.62203000  0.80601000  1.0 0.1136937511
H  H64  1  0.94935000  0.70474000  0.87561000  1.0 0.1301220859
H  H65  1  0.64291000  0.77350000  0.69277000  1.0 0.1397955624
H  H66  1  0.64177000  0.85799000  0.71813000  1.0 0.1301220859
H  H67  1  0.31042000  0.52882000  0.05399000  1.0 0.120385774
H  H68  1  0.76646000  0.27483000  0.03824000  1.0 0.1301220859
H  H69  1  0.77226000  0.48234000  0.10421000  1.0 0.120385774
H  H70  1  0.55073000  0.40129000  0.12335000  1.0 0.1397955624
H  H71  1  0.52860000  0.32507000  0.08919000  1.0 0.1397955624
H  H72  1  0.71742000  0.38571000  0.20412000  1.0 0.120385774
H  H73  1  0.71551000  0.16784000  0.26638000  1.0 0.120385774
H  H74  1  0.58721000  0.12203000  0.19399000  1.0 0.1136937511
H  H75  1  0.55065000  0.20474000  0.12439000  1.0 0.1301220859
H  H76  1  0.85709000  0.27350000  0.30723000  1.0 0.1397955624
H  H77  1  0.85823000  0.35799000  0.28187000  1.0 0.1301220859
H  H78  1  0.68958000  0.97118000  0.55399000  1.0 0.120385774
H  H79  1  0.23354000  0.22517000  0.53824000  1.0 0.1301220859
H  H80  1  0.22774000  0.01766000  0.60421000  1.0 0.120385774
H  H81  1  0.44927000  0.09871000  0.62335000  1.0 0.1397955624
H  H82  1  0.47140000  0.17493000  0.58919000  1.0 0.1397955624
H  H83  1  0.28258000  0.11429000  0.70412000  1.0 0.120385774
H  H84  1  0.28449000  0.33216000  0.76638000  1.0 0.120385774
H  H85  1  0.41279000  0.37797000  0.69399000  1.0 0.1136937511
H  H86  1  0.44935000  0.29526000  0.62439000  1.0 0.1301220859
H  H87  1  0.14291000  0.22650000  0.80723000  1.0 0.1397955624
H  H88  1  0.14177000  0.14201000  0.78187000  1.0 0.1301220859
C  C1  1  0.23120000  0.38830000  0.51240000  1.0 0.5604943361
C  C2  1  0.10750000  0.44440000  0.50760000  1.0 -0.0386016651
C  C3  1  0.11320000  0.51740000  0.53220000  1.0 -0.1616637942
C  C4  1  0.00890000  0.57390000  0.52540000  1.0 -0.0386016651
C  C5  1  0.02530000  0.65510000  0.54880000  1.0 0.5708223309
C  C6  1  0.70850000  0.32660000  0.54600000  1.0 0.098805235
C  C7  1  0.70710000  0.44020000  0.58200000  1.0 0.0757885601
C  C8  1  0.90470000  0.35280000  0.61150000  1.0 -0.1740231339
C  C9  1  0.87090000  0.30370000  0.65730000  1.0 0.1136937511
C  C10  1  0.80470000  0.33230000  0.70190000  1.0 -0.2305697028
C  C11  1  0.77060000  0.28210000  0.74380000  1.0 0.098805235
C  C12  1  0.80800000  0.20260000  0.73950000  1.0 -0.1781734202
C  C13  1  0.88200000  0.17410000  0.69530000  1.0 -0.0790429555
C  C14  1  0.90690000  0.22410000  0.65480000  1.0 -0.1375609946
C  C15  1  0.70200000  0.31400000  0.79160000  1.0 -0.1943213951
C  C16  1  0.85170000  0.30450000  0.87370000  1.0 0.0277006969
C  C17  1  0.84000000  0.41280000  0.83440000  1.0 0.0488051333
C  C18  1  0.92800000  0.39800000  0.82130000  1.0 0.120385774
C  C19  1  0.76880000  0.11170000  0.01240000  1.0 0.5604943361
C  C20  1  0.89250000  0.05560000  0.00760000  1.0 -0.0386016651
C  C21  1  0.88680000  0.98260000  0.03220000  1.0 -0.1616637942
C  C22  1  0.99110000  0.92610000  0.02540000  1.0 -0.0386016651
C  C23  1  0.97470000  0.84490000  0.04880000  1.0 0.5708223309
C  C24  1  0.29150000  0.17340000  0.04600000  1.0 0.098805235
C  C25  1  0.29290000  0.05980000  0.08200000  1.0 0.0757885601
C  C26  1  0.09530000  0.14720000  0.11150000  1.0 -0.1740231339
C  C27  1  0.12910000  0.19630000  0.15730000  1.0 0.1136937511
C  C28  1  0.19530000  0.16770000  0.20190000  1.0 -0.2305697028
C  C29  1  0.22940000  0.21790000  0.24380000  1.0 0.098805235
C  C30  1  0.19200000  0.29740000  0.23950000  1.0 -0.1781734202
C  C31  1  0.11800000  0.32590000  0.19530000  1.0 -0.0790429555
C  C32  1  0.09310000  0.27590000  0.15480000  1.0 -0.1375609946
C  C33  1  0.29800000  0.18600000  0.29160000  1.0 -0.1943213951
C  C34  1  0.14830000  0.19550000  0.37370000  1.0 0.0277006969
C  C35  1  0.16000000  0.08720000  0.33440000  1.0 0.0488051333
C  C36  1  0.07200000  0.10200000  0.32130000  1.0 0.120385774
C  C37  1  0.73120000  0.61170000  0.98760000  1.0 0.5604943361
C  C38  1  0.60750000  0.55560000  0.99240000  1.0 -0.0386016651
C  C39  1  0.61320000  0.48260000  0.96780000  1.0 -0.1616637942
C  C40  1  0.50890000  0.42610000  0.97460000  1.0 -0.0386016651
C  C41  1  0.52530000  0.34490000  0.95120000  1.0 0.5708223309
C  C42  1  0.20850000  0.67340000  0.95400000  1.0 0.098805235
C  C43  1  0.20710000  0.55980000  0.91800000  1.0 0.0757885601
C  C44  1  0.40470000  0.64720000  0.88850000  1.0 -0.1740231339
C  C45  1  0.37090000  0.69630000  0.84270000  1.0 0.1136937511
C  C46  1  0.30470000  0.66770000  0.79810000  1.0 -0.2305697028
C  C47  1  0.27060000  0.71790000  0.75620000  1.0 0.098805235
C  C48  1  0.30800000  0.79740000  0.76050000  1.0 -0.1781734202
C  C49  1  0.38200000  0.82590000  0.80470000  1.0 -0.0790429555
C  C50  1  0.40690000  0.77590000  0.84520000  1.0 -0.1375609946
C  C51  1  0.20200000  0.68600000  0.70840000  1.0 -0.1943213951
C  C52  1  0.35170000  0.69550000  0.62630000  1.0 0.0277006969
C  C53  1  0.34000000  0.58720000  0.66560000  1.0 0.0488051333
C  C54  1  0.42800000  0.60200000  0.67870000  1.0 0.120385774
C  C55  1  0.26880000  0.88830000  0.48760000  1.0 0.5604943361
C  C56  1  0.39250000  0.94440000  0.49240000  1.0 -0.0386016651
C  C57  1  0.38680000  0.01740000  0.46780000  1.0 -0.1616637942
C  C58  1  0.49110000  0.07390000  0.47460000  1.0 -0.0386016651
C  C59  1  0.47470000  0.15510000  0.45120000  1.0 0.5708223309
C  C60  1  0.79150000  0.82660000  0.45400000  1.0 0.098805235
C  C61  1  0.79290000  0.94020000  0.41800000  1.0 0.0757885601
C  C62  1  0.59530000  0.85280000  0.38850000  1.0 -0.1740231339
C  C63  1  0.62910000  0.80370000  0.34270000  1.0 0.120385774
C  C64  1  0.69530000  0.83230000  0.29810000  1.0 -0.2305697028
C  C65  1  0.72940000  0.78210000  0.25620000  1.0 0.098805235
C  C66  1  0.69200000  0.70260000  0.26050000  1.0 -0.1781734202
C  C67  1  0.61800000  0.67410000  0.30470000  1.0 -0.0790429555
C  C68  1  0.59310000  0.72410000  0.34520000  1.0 -0.1375609946
C  C69  1  0.79800000  0.81400000  0.20840000  1.0 -0.1943213951
C  C70  1  0.64830000  0.80450000  0.12630000  1.0 0.0277006969
C  C71  1  0.66000000  0.91280000  0.16560000  1.0 0.0488051333
C  C72  1  0.57200000  0.89800000  0.17870000  1.0 0.1301220859
C  C73  1  0.76880000  0.61170000  0.48760000  1.0 0.5604943361
C  C74  1  0.89250000  0.55560000  0.49240000  1.0 -0.0386016651
C  C75  1  0.88680000  0.48260000  0.46780000  1.0 -0.1616637942
C  C76  1  0.99110000  0.42610000  0.47460000  1.0 -0.0386016651
C  C77  1  0.97470000  0.34490000  0.45120000  1.0 0.5708223309
C  C78  1  0.29150000  0.67340000  0.45400000  1.0 0.098805235
C  C79  1  0.29290000  0.55980000  0.41800000  1.0 0.0757885601
C  C80  1  0.09530000  0.64720000  0.38850000  1.0 -0.1740231339
C  C81  1  0.12910000  0.69630000  0.34270000  1.0 0.1136937511
C  C82  1  0.19530000  0.66770000  0.29810000  1.0 -0.2305697028
C  C83  1  0.22940000  0.71790000  0.25620000  1.0 0.098805235
C  C84  1  0.19200000  0.79740000  0.26050000  1.0 -0.1781734202
C  C85  1  0.11800000  0.82590000  0.30470000  1.0 -0.0790429555
C  C86  1  0.09310000  0.77590000  0.34520000  1.0 -0.1375609946
C  C87  1  0.29800000  0.68600000  0.20840000  1.0 -0.1943213951
C  C88  1  0.14830000  0.69550000  0.12630000  1.0 0.0277006969
C  C89  1  0.16000000  0.58720000  0.16560000  1.0 0.0488051333
C  C90  1  0.07200000  0.60200000  0.17870000  1.0 0.120385774
C  C91  1  0.23120000  0.88830000  0.98760000  1.0 0.5604943361
C  C92  1  0.10750000  0.94440000  0.99240000  1.0 -0.0386016651
C  C93  1  0.11320000  0.01740000  0.96780000  1.0 -0.1616637942
C  C94  1  0.00890000  0.07390000  0.97460000  1.0 -0.0386016651
C  C95  1  0.02530000  0.15510000  0.95120000  1.0 0.5708223309
C  C96  1  0.70850000  0.82660000  0.95400000  1.0 0.098805235
C  C97  1  0.70710000  0.94020000  0.91800000  1.0 0.0757885601
C  C98  1  0.90470000  0.85280000  0.88850000  1.0 -0.1740231339
C  C99  1  0.87090000  0.80370000  0.84270000  1.0 0.1136937511
C  C100  1  0.80470000  0.83230000  0.79810000  1.0 -0.2305697028
C  C101  1  0.77060000  0.78210000  0.75620000  1.0 0.098805235
C  C102  1  0.80800000  0.70260000  0.76050000  1.0 -0.1781734202
C  C103  1  0.88200000  0.67410000  0.80470000  1.0 -0.0790429555
C  C104  1  0.90690000  0.72410000  0.84520000  1.0 -0.1375609946
C  C105  1  0.70200000  0.81400000  0.70840000  1.0 -0.1943213951
C  C106  1  0.85170000  0.80450000  0.62630000  1.0 0.0277006969
C  C107  1  0.84000000  0.91280000  0.66560000  1.0 0.0488051333
C  C108  1  0.92800000  0.89800000  0.67870000  1.0 0.1301220859
C  C109  1  0.26880000  0.38830000  0.01240000  1.0 0.5604943361
C  C110  1  0.39250000  0.44440000  0.00760000  1.0 -0.0386016651
C  C111  1  0.38680000  0.51740000  0.03220000  1.0 -0.1616637942
C  C112  1  0.49110000  0.57390000  0.02540000  1.0 -0.0386016651
C  C113  1  0.47470000  0.65510000  0.04880000  1.0 0.5708223309
C  C114  1  0.79150000  0.32660000  0.04600000  1.0 0.098805235
C  C115  1  0.79290000  0.44020000  0.08200000  1.0 0.0757885601
C  C116  1  0.59530000  0.35280000  0.11150000  1.0 -0.1740231339
C  C117  1  0.62910000  0.30370000  0.15730000  1.0 0.1136937511
C  C118  1  0.69530000  0.33230000  0.20190000  1.0 -0.2305697028
C  C119  1  0.72940000  0.28210000  0.24380000  1.0 0.098805235
C  C120  1  0.69200000  0.20260000  0.23950000  1.0 -0.1781734202
C  C121  1  0.61800000  0.17410000  0.19530000  1.0 -0.0790429555
C  C122  1  0.59310000  0.22410000  0.15480000  1.0 -0.1375609946
C  C123  1  0.79800000  0.31400000  0.29160000  1.0 -0.1943213951
C  C124  1  0.64830000  0.30450000  0.37370000  1.0 0.0277006969
C  C125  1  0.66000000  0.41280000  0.33440000  1.0 0.0488051333
C  C126  1  0.57200000  0.39800000  0.32130000  1.0 0.120385774
C  C127  1  0.73120000  0.11170000  0.51240000  1.0 0.5604943361
C  C128  1  0.60750000  0.05560000  0.50760000  1.0 -0.0386016651
C  C129  1  0.61320000  0.98260000  0.53220000  1.0 -0.1616637942
C  C130  1  0.50890000  0.92610000  0.52540000  1.0 -0.0386016651
C  C131  1  0.52530000  0.84490000  0.54880000  1.0 0.5708223309
C  C132  1  0.20850000  0.17340000  0.54600000  1.0 0.098805235
C  C133  1  0.20710000  0.05980000  0.58200000  1.0 0.0757885601
C  C134  1  0.40470000  0.14720000  0.61150000  1.0 -0.1740231339
C  C135  1  0.37090000  0.19630000  0.65730000  1.0 0.1136937511
C  C136  1  0.30470000  0.16770000  0.70190000  1.0 -0.2305697028
C  C137  1  0.27060000  0.21790000  0.74380000  1.0 0.098805235
C  C138  1  0.30800000  0.29740000  0.73950000  1.0 -0.1781734202
C  C139  1  0.38200000  0.32590000  0.69530000  1.0 -0.0790429555
C  C140  1  0.40690000  0.27590000  0.65480000  1.0 -0.1375609946
C  C141  1  0.20200000  0.18600000  0.79160000  1.0 -0.1943213951
C  C142  1  0.35170000  0.19550000  0.87370000  1.0 0.0277006969
C  C143  1  0.34000000  0.08720000  0.83440000  1.0 0.0488051333
C  C144  1  0.42800000  0.10200000  0.82130000  1.0 0.120385774
N  N1  1  0.60230000  0.36430000  0.52450000  1.0 -0.2012528919
N  N2  1  0.60310000  0.43850000  0.54640000  1.0 -0.1943213951
N  N3  1  0.77570000  0.37250000  0.58040000  1.0 0.0210199428
N  N4  1  0.94310000  0.34590000  0.89910000  1.0 -0.0386016651
N  N5  1  0.92710000  0.41580000  0.87630000  1.0 0.0210199428
N  N6  1  0.80660000  0.34070000  0.83060000  1.0 0.0857097206
N  N7  1  0.03600000  0.39540000  0.86150000  1.0 -0.1158528637
N  N8  1  0.39770000  0.13570000  0.02450000  1.0 -0.2012528919
N  N9  1  0.39690000  0.06150000  0.04640000  1.0 -0.1943213951
N  N10  1  0.22430000  0.12750000  0.08040000  1.0 0.0210199428
N  N11  1  0.05690000  0.15410000  0.39910000  1.0 -0.0386016651
N  N12  1  0.07290000  0.08420000  0.37630000  1.0 0.0210199428
N  N13  1  0.19340000  0.15930000  0.33060000  1.0 0.0857097206
N  N14  1  0.96400000  0.10460000  0.36150000  1.0 -0.1158528637
N  N15  1  0.10230000  0.63570000  0.97550000  1.0 -0.2012528919
N  N16  1  0.10310000  0.56150000  0.95360000  1.0 -0.1943213951
N  N17  1  0.27570000  0.62750000  0.91960000  1.0 0.0210199428
N  N18  1  0.44310000  0.65410000  0.60090000  1.0 -0.0261890136
N  N19  1  0.42710000  0.58420000  0.62370000  1.0 0.0210199428
N  N20  1  0.30660000  0.65930000  0.66940000  1.0 0.0857097206
N  N21  1  0.53600000  0.60460000  0.63850000  1.0 -0.1158528637
N  N22  1  0.89770000  0.86430000  0.47550000  1.0 -0.2012528919
N  N23  1  0.89690000  0.93850000  0.45360000  1.0 -0.1943213951
N  N24  1  0.72430000  0.87250000  0.41960000  1.0 0.0210199428
N  N25  1  0.55690000  0.84590000  0.10090000  1.0 -0.0386016651
N  N26  1  0.57290000  0.91580000  0.12370000  1.0 0.0210199428
N  N27  1  0.69340000  0.84070000  0.16940000  1.0 0.0857097206
N  N28  1  0.46400000  0.89540000  0.13850000  1.0 -0.1158528637
N  N29  1  0.39770000  0.63570000  0.47550000  1.0 -0.2012528919
N  N30  1  0.39690000  0.56150000  0.45360000  1.0 -0.1943213951
N  N31  1  0.22430000  0.62750000  0.41960000  1.0 0.0210199428
N  N32  1  0.05690000  0.65410000  0.10090000  1.0 -0.0261890136
N  N33  1  0.07290000  0.58420000  0.12370000  1.0 0.0210199428
N  N34  1  0.19340000  0.65930000  0.16940000  1.0 0.0857097206
N  N35  1  0.96400000  0.60460000  0.13850000  1.0 -0.1158528637
N  N36  1  0.60230000  0.86430000  0.97550000  1.0 -0.2012528919
N  N37  1  0.60310000  0.93850000  0.95360000  1.0 -0.1943213951
N  N38  1  0.77570000  0.87250000  0.91960000  1.0 0.0210199428
N  N39  1  0.94310000  0.84590000  0.60090000  1.0 -0.0386016651
N  N40  1  0.92710000  0.91580000  0.62370000  1.0 0.0210199428
N  N41  1  0.80660000  0.84070000  0.66940000  1.0 0.0857097206
N  N42  1  0.03600000  0.89540000  0.63850000  1.0 -0.1158528637
N  N43  1  0.89770000  0.36430000  0.02450000  1.0 -0.2012528919
N  N44  1  0.89690000  0.43850000  0.04640000  1.0 -0.1943213951
N  N45  1  0.72430000  0.37250000  0.08040000  1.0 0.0210199428
N  N46  1  0.55690000  0.34590000  0.39910000  1.0 -0.0386016651
N  N47  1  0.57290000  0.41580000  0.37630000  1.0 0.0210199428
N  N48  1  0.69340000  0.34070000  0.33060000  1.0 0.0857097206
N  N49  1  0.46400000  0.39540000  0.36150000  1.0 -0.1158528637
N  N50  1  0.10230000  0.13570000  0.52450000  1.0 -0.2012528919
N  N51  1  0.10310000  0.06150000  0.54640000  1.0 -0.1943213951
N  N52  1  0.27570000  0.12750000  0.58040000  1.0 0.0210199428
N  N53  1  0.44310000  0.15410000  0.89910000  1.0 -0.0386016651
N  N54  1  0.42710000  0.08420000  0.87630000  1.0 0.0210199428
N  N55  1  0.30660000  0.15930000  0.83060000  1.0 0.0857097206
N  N56  1  0.53600000  0.10460000  0.86150000  1.0 -0.1158528637
O  O1  1  0.28200000  0.36600000  0.46770000  1.0 -0.5645582352
O  O2  1  0.27360000  0.36760000  0.55520000  1.0 -0.543174294
O  O3  1  0.00920000  0.71030000  0.51470000  1.0 -0.5774650994
O  O4  1  0.05410000  0.66330000  0.59520000  1.0 -0.5496181224
O  O5  1  0.71800000  0.13400000  0.96770000  1.0 -0.5645582352
O  O6  1  0.72640000  0.13240000  0.05520000  1.0 -0.543174294
O  O7  1  0.99080000  0.78970000  0.01470000  1.0 -0.5774650994
O  O8  1  0.94590000  0.83670000  0.09520000  1.0 -0.5496181224
O  O9  1  0.78200000  0.63400000  0.03230000  1.0 -0.5652898226
O  O10  1  0.77360000  0.63240000  0.94480000  1.0 -0.543174294
O  O11  1  0.50920000  0.28970000  0.98530000  1.0 -0.5774650994
O  O12  1  0.55410000  0.33670000  0.90480000  1.0 -0.5496181224
O  O13  1  0.21800000  0.86600000  0.53230000  1.0 -0.5652898226
O  O14  1  0.22640000  0.86760000  0.44480000  1.0 -0.543174294
O  O15  1  0.49080000  0.21030000  0.48530000  1.0 -0.5774650994
O  O16  1  0.44590000  0.16330000  0.40480000  1.0 -0.5496181224
O  O17  1  0.71800000  0.63400000  0.53230000  1.0 -0.5652898226
O  O18  1  0.72640000  0.63240000  0.44480000  1.0 -0.543174294
O  O19  1  0.99080000  0.28970000  0.48530000  1.0 -0.5774650994
O  O20  1  0.94590000  0.33670000  0.40480000  1.0 -0.5496181224
O  O21  1  0.28200000  0.86600000  0.03230000  1.0 -0.5652898226
O  O22  1  0.27360000  0.86760000  0.94480000  1.0 -0.543174294
O  O23  1  0.00920000  0.21030000  0.98530000  1.0 -0.5774650994
O  O24  1  0.05410000  0.16330000  0.90480000  1.0 -0.5496181224
O  O25  1  0.21800000  0.36600000  0.96770000  1.0 -0.5645582352
O  O26  1  0.22640000  0.36760000  0.05520000  1.0 -0.543174294
O  O27  1  0.49080000  0.71030000  0.01470000  1.0 -0.5774650994
O  O28  1  0.44590000  0.66330000  0.09520000  1.0 -0.5496181224
O  O29  1  0.78200000  0.13400000  0.46770000  1.0 -0.5652898226
O  O30  1  0.77360000  0.13240000  0.55520000  1.0 -0.543174294
O  O31  1  0.50920000  0.78970000  0.51470000  1.0 -0.5774650994
O  O32  1  0.55410000  0.83670000  0.59520000  1.0 -0.5496181224
