# DDEC6 charges by PACMAN v1.1 (https://github.com/mtap-research/PACMAN-charge/)
data_FIJDOS_FSR_pacman
_symmetry_space_group_name_H-M   'P 1'
_cell_length_a   15.14440000
_cell_length_b   15.14440000
_cell_length_c   15.14440000
_cell_angle_alpha   117.77700000
_cell_angle_beta   117.77700000
_cell_angle_gamma   117.77700000
_symmetry_Int_Tables_number   1
_chemical_formula_structural   ZnHC10NO4
_chemical_formula_sum   'Zn6 H6 C60 N6 O24'
_cell_volume   1327.24972471
_cell_formula_units_Z   6
loop_
 _symmetry_equiv_pos_site_id
 _symmetry_equiv_pos_as_xyz
  1  'x, y, z'
loop_
 _atom_site_type_symbol
 _atom_site_label
 _atom_site_symmetry_multiplicity
 _atom_site_fract_x
 _atom_site_fract_y
 _atom_site_fract_z
 _atom_site_occupancy
 _atom_site_charge
Zn  Zn1  1  0.11074000  0.53282000  0.79513000  1.0 0.9524645536
Zn  Zn2  1  0.53282000  0.79513000  0.11074000  1.0 0.9524645536
Zn  Zn3  1  0.79513000  0.11074000  0.53282000  1.0 0.9524645536
Zn  Zn4  1  0.88926000  0.46718000  0.20487000  1.0 0.9524645536
Zn  Zn5  1  0.46718000  0.20487000  0.88926000  1.0 0.9524645536
Zn  Zn6  1  0.20487000  0.88926000  0.46718000  1.0 0.9524645536
H  H1  1  0.33050000  0.80080000  0.34860000  1.0 0.1488499247
H  H2  1  0.80080000  0.34860000  0.33050000  1.0 0.1488499247
H  H3  1  0.34860000  0.33050000  0.80080000  1.0 0.1488499247
H  H4  1  0.66950000  0.19920000  0.65140000  1.0 0.1488499247
H  H5  1  0.19920000  0.65140000  0.66950000  1.0 0.1488499247
H  H6  1  0.65140000  0.66950000  0.19920000  1.0 0.1488499247
C  C1  1  0.35166000  0.73760000  0.17554000  1.0 0.6019184518
C  C2  1  0.73760000  0.17554000  0.35166000  1.0 0.6019184518
C  C3  1  0.17554000  0.35166000  0.73760000  1.0 0.6019184518
C  C4  1  0.64834000  0.26240000  0.82446000  1.0 0.6019184518
C  C5  1  0.26240000  0.82446000  0.64834000  1.0 0.6019184518
C  C6  1  0.82446000  0.64834000  0.26240000  1.0 0.6019184518
C  C7  1  0.16498000  0.61166000  0.07716000  1.0 -0.1530520888
C  C8  1  0.61166000  0.07716000  0.16498000  1.0 -0.1530520888
C  C9  1  0.07716000  0.16498000  0.61166000  1.0 -0.1530520888
C  C10  1  0.83502000  0.38834000  0.92284000  1.0 -0.1530520888
C  C11  1  0.38834000  0.92284000  0.83502000  1.0 -0.1530520888
C  C12  1  0.92284000  0.83502000  0.38834000  1.0 -0.1530520888
C  C13  1  0.96412000  0.42939000  0.86359000  1.0 0.287140412
C  C14  1  0.42939000  0.86359000  0.96412000  1.0 0.287140412
C  C15  1  0.86359000  0.96412000  0.42939000  1.0 0.287140412
C  C16  1  0.03588000  0.57061000  0.13641000  1.0 0.287140412
C  C17  1  0.57061000  0.13641000  0.03588000  1.0 0.287140412
C  C18  1  0.13641000  0.03588000  0.57061000  1.0 0.287140412
C  C19  1  0.19466000  0.67703000  0.20591000  1.0 -0.2228126299
C  C20  1  0.67703000  0.20591000  0.19466000  1.0 -0.2228126299
C  C21  1  0.20591000  0.19466000  0.67703000  1.0 -0.2228126299
C  C22  1  0.80534000  0.32297000  0.79409000  1.0 -0.2228126299
C  C23  1  0.32297000  0.79409000  0.80534000  1.0 -0.2228126299
C  C24  1  0.79409000  0.80534000  0.32297000  1.0 -0.2228126299
C  C25  1  0.31870000  0.90750000  0.11360000  1.0 0.2086527897
C  C26  1  0.90750000  0.11360000  0.31870000  1.0 0.2086527897
C  C27  1  0.11360000  0.31870000  0.90750000  1.0 0.2086527897
C  C28  1  0.68130000  0.09250000  0.88640000  1.0 0.2086527897
C  C29  1  0.09250000  0.88640000  0.68130000  1.0 0.2086527897
C  C30  1  0.88640000  0.68130000  0.09250000  1.0 0.2086527897
C  C31  1  0.30410000  0.03560000  0.06790000  1.0 -0.1193951489
C  C32  1  0.03560000  0.06790000  0.30410000  1.0 -0.1193951489
C  C33  1  0.06790000  0.30410000  0.03560000  1.0 -0.1193951489
C  C34  1  0.69590000  0.96440000  0.93210000  1.0 -0.1193951489
C  C35  1  0.96440000  0.93210000  0.69590000  1.0 -0.1193951489
C  C36  1  0.93210000  0.69590000  0.96440000  1.0 -0.1193951489
C  C37  1  0.58670000  0.26670000  0.42240000  1.0 0.0432345585
C  C38  1  0.26670000  0.42240000  0.58670000  1.0 0.0432345585
C  C39  1  0.42240000  0.58670000  0.26670000  1.0 0.0432345585
C  C40  1  0.41330000  0.73330000  0.57760000  1.0 0.0432345585
C  C41  1  0.73330000  0.57760000  0.41330000  1.0 0.0432345585
C  C42  1  0.57760000  0.41330000  0.73330000  1.0 0.0432345585
C  C43  1  0.18600000  0.84300000  0.94300000  1.0 0.2004189197
C  C44  1  0.84300000  0.94300000  0.18600000  1.0 0.2004189197
C  C45  1  0.94300000  0.18600000  0.84300000  1.0 0.2004189197
C  C46  1  0.81400000  0.15700000  0.05700000  1.0 0.2004189197
C  C47  1  0.15700000  0.05700000  0.81400000  1.0 0.2004189197
C  C48  1  0.05700000  0.81400000  0.15700000  1.0 0.2004189197
C  C49  1  0.53590000  0.15160000  0.39750000  1.0 -0.1797941895
C  C50  1  0.15160000  0.39750000  0.53590000  1.0 -0.1797941895
C  C51  1  0.39750000  0.53590000  0.15160000  1.0 -0.1797941895
C  C52  1  0.46410000  0.84840000  0.60250000  1.0 -0.1797941895
C  C53  1  0.84840000  0.60250000  0.46410000  1.0 -0.1797941895
C  C54  1  0.60250000  0.46410000  0.84840000  1.0 -0.1797941895
C  C55  1  0.57900000  0.28500000  0.35900000  1.0 -0.0456927931
C  C56  1  0.28500000  0.35900000  0.57900000  1.0 -0.0456927931
C  C57  1  0.35900000  0.57900000  0.28500000  1.0 -0.0456927931
C  C58  1  0.42100000  0.71500000  0.64100000  1.0 -0.0456927931
C  C59  1  0.71500000  0.64100000  0.42100000  1.0 -0.0456927931
C  C60  1  0.64100000  0.42100000  0.71500000  1.0 -0.0456927931
N  N1  1  0.39650000  0.06160000  0.19910000  1.0 0.1394899714
N  N2  1  0.06160000  0.19910000  0.39650000  1.0 0.1394899714
N  N3  1  0.19910000  0.39650000  0.06160000  1.0 0.1394899714
N  N4  1  0.60350000  0.93840000  0.80090000  1.0 0.1394899714
N  N5  1  0.93840000  0.80090000  0.60350000  1.0 0.1394899714
N  N6  1  0.80090000  0.60350000  0.93840000  1.0 0.1394899714
O  O1  1  0.32946000  0.67780000  0.06254000  1.0 -0.586119351
O  O2  1  0.67780000  0.06254000  0.32946000  1.0 -0.586119351
O  O3  1  0.06254000  0.32946000  0.67780000  1.0 -0.586119351
O  O4  1  0.67054000  0.32220000  0.93746000  1.0 -0.586119351
O  O5  1  0.32220000  0.93746000  0.67054000  1.0 -0.586119351
O  O6  1  0.93746000  0.67054000  0.32220000  1.0 -0.586119351
O  O7  1  0.52279000  0.89727000  0.36674000  1.0 -0.5185534131
O  O8  1  0.89727000  0.36674000  0.52279000  1.0 -0.5185534131
O  O9  1  0.36674000  0.52279000  0.89727000  1.0 -0.5185534131
O  O10  1  0.47721000  0.10273000  0.63326000  1.0 -0.5185534131
O  O11  1  0.10273000  0.63326000  0.47721000  1.0 -0.5185534131
O  O12  1  0.63326000  0.47721000  0.10273000  1.0 -0.5185534131
O  O13  1  0.91757000  0.35452000  0.72581000  1.0 -0.5675471894
O  O14  1  0.35452000  0.72581000  0.91757000  1.0 -0.5675471894
O  O15  1  0.72581000  0.91757000  0.35452000  1.0 -0.5675471894
O  O16  1  0.08243000  0.64548000  0.27419000  1.0 -0.5675471894
O  O17  1  0.64548000  0.27419000  0.08243000  1.0 -0.5675471894
O  O18  1  0.27419000  0.08243000  0.64548000  1.0 -0.5675471894
O  O19  1  0.16674000  0.73615000  0.93201000  1.0 -0.1892027777
O  O20  1  0.73615000  0.93201000  0.16674000  1.0 -0.1892027777
O  O21  1  0.93201000  0.16674000  0.73615000  1.0 -0.1892027777
O  O22  1  0.83326000  0.26385000  0.06799000  1.0 -0.1892027777
O  O23  1  0.26385000  0.06799000  0.83326000  1.0 -0.1892027777
O  O24  1  0.06799000  0.83326000  0.26385000  1.0 -0.1892027777
