# DDEC6 charges by PACMAN v1.1 (https://github.com/mtap-research/PACMAN-charge/)
data_FIJGEK_FSR_pacman
_symmetry_space_group_name_H-M   'P 1'
_cell_length_a   14.02890000
_cell_length_b   14.02890000
_cell_length_c   8.71220000
_cell_angle_alpha   86.34410000
_cell_angle_beta   93.65590000
_cell_angle_gamma   118.27600000
_symmetry_Int_Tables_number   1
_chemical_formula_structural   Al7P7(HO15)2
_chemical_formula_sum   'Al14 P14 H4 O60'
_cell_volume   1505.87757923
_cell_formula_units_Z   2
loop_
 _symmetry_equiv_pos_site_id
 _symmetry_equiv_pos_as_xyz
  1  'x, y, z'
loop_
 _atom_site_type_symbol
 _atom_site_label
 _atom_site_symmetry_multiplicity
 _atom_site_fract_x
 _atom_site_fract_y
 _atom_site_fract_z
 _atom_site_occupancy
 _atom_site_charge
Al  Al1  1  0.44529000  0.44529000  0.75000000  1.0 1.7296508706
Al  Al2  1  0.55471000  0.55471000  0.25000000  1.0 1.7296508706
Al  Al3  1  0.84548000  0.40170000  0.37596000  1.0 1.740322069
Al  Al4  1  0.40170000  0.84548000  0.12404000  1.0 1.740322069
Al  Al5  1  0.15452000  0.59830000  0.62404000  1.0 1.740322069
Al  Al6  1  0.59830000  0.15452000  0.87596000  1.0 1.740322069
Al  Al7  1  0.92002000  0.82040000  0.49968000  1.0 1.740322069
Al  Al8  1  0.82040000  0.92002000  0.00032000  1.0 1.740322069
Al  Al9  1  0.07998000  0.17960000  0.50032000  1.0 1.740322069
Al  Al10  1  0.17960000  0.07998000  0.99968000  1.0 1.740322069
Al  Al11  1  0.70903000  0.51327000  0.75913000  1.0 1.823390261
Al  Al12  1  0.51327000  0.70903000  0.74087000  1.0 1.823390261
Al  Al13  1  0.29097000  0.48673000  0.24087000  1.0 1.823390261
Al  Al14  1  0.48673000  0.29097000  0.25913000  1.0 1.823390261
P  P1  1  0.92985000  0.60619000  0.57014000  1.0 1.563162402
P  P2  1  0.60619000  0.92985000  0.92986000  1.0 1.563162402
P  P3  1  0.07015000  0.39381000  0.42986000  1.0 1.5669320381
P  P4  1  0.39381000  0.07015000  0.07014000  1.0 1.5669320381
P  P5  1  0.70484000  0.35690000  0.06070000  1.0 1.5911554969
P  P6  1  0.35690000  0.70484000  0.43930000  1.0 1.5911554969
P  P7  1  0.29516000  0.64310000  0.93930000  1.0 1.5911554969
P  P8  1  0.64310000  0.29516000  0.56070000  1.0 1.5911554969
P  P9  1  0.00536000  0.00536000  0.25000000  1.0 1.5024391569
P  P10  1  0.99464000  0.99464000  0.75000000  1.0 1.5024391569
P  P11  1  0.32954000  0.31270000  0.47374000  1.0 1.5911554969
P  P12  1  0.31270000  0.32954000  0.02626000  1.0 1.5848078883
P  P13  1  0.67046000  0.68730000  0.52626000  1.0 1.5848078883
P  P14  1  0.68730000  0.67046000  0.97374000  1.0 1.5848078883
H  H1  1  0.56500000  0.43300000  0.89800000  1.0 0.4213958985
H  H2  1  0.43300000  0.56500000  0.60200000  1.0 0.4213958985
H  H3  1  0.43500000  0.56700000  0.10200000  1.0 0.4213958985
H  H4  1  0.56700000  0.43500000  0.39800000  1.0 0.4213958985
O  O1  1  0.88331000  0.53309000  0.43150000  1.0 -0.830199621
O  O2  1  0.53309000  0.88331000  0.06850000  1.0 -0.830199621
O  O3  1  0.11669000  0.46691000  0.56850000  1.0 -0.830199621
O  O4  1  0.46691000  0.11669000  0.93150000  1.0 -0.830199621
O  O5  1  0.85362000  0.56998000  0.69950000  1.0 -0.7819382169
O  O6  1  0.56998000  0.85362000  0.80050000  1.0 -0.7819382169
O  O7  1  0.14638000  0.43002000  0.30050000  1.0 -0.7819382169
O  O8  1  0.43002000  0.14638000  0.19950000  1.0 -0.7819382169
O  O9  1  0.95742000  0.72038000  0.50710000  1.0 -0.8021838112
O  O10  1  0.72038000  0.95742000  0.99290000  1.0 -0.8021838112
O  O11  1  0.04258000  0.27962000  0.49290000  1.0 -0.8021838112
O  O12  1  0.27962000  0.04258000  0.00710000  1.0 -0.8021838112
O  O13  1  0.03759000  0.61021000  0.62510000  1.0 -0.820057162
O  O14  1  0.61021000  0.03759000  0.87490000  1.0 -0.820057162
O  O15  1  0.96241000  0.38979000  0.37490000  1.0 -0.820057162
O  O16  1  0.38979000  0.96241000  0.12510000  1.0 -0.820057162
O  O17  1  0.74221000  0.44199000  0.93120000  1.0 -0.7901348912
O  O18  1  0.44199000  0.74221000  0.56880000  1.0 -0.7901348912
O  O19  1  0.25779000  0.55801000  0.06880000  1.0 -0.7901348912
O  O20  1  0.55801000  0.25779000  0.43120000  1.0 -0.7901348912
O  O21  1  0.60107000  0.34013000  0.12530000  1.0 -0.8098170318
O  O22  1  0.34013000  0.60107000  0.37470000  1.0 -0.8098170318
O  O23  1  0.39893000  0.65987000  0.87470000  1.0 -0.8098170318
O  O24  1  0.65987000  0.39893000  0.62530000  1.0 -0.8098170318
O  O25  1  0.69045000  0.24875000  0.00190000  1.0 -0.8412864648
O  O26  1  0.24875000  0.69045000  0.49810000  1.0 -0.8412864648
O  O27  1  0.30955000  0.75125000  0.99810000  1.0 -0.8412864648
O  O28  1  0.75125000  0.30955000  0.50190000  1.0 -0.8412864648
O  O29  1  0.79689000  0.39311000  0.18650000  1.0 -0.8098170318
O  O30  1  0.39311000  0.79689000  0.31350000  1.0 -0.8098170318
O  O31  1  0.20311000  0.60689000  0.81350000  1.0 -0.8098170318
O  O32  1  0.60689000  0.20311000  0.68650000  1.0 -0.8098170318
O  O33  1  0.98447000  0.90473000  0.34540000  1.0 -0.8098170318
O  O34  1  0.90473000  0.98447000  0.15460000  1.0 -0.8098170318
O  O35  1  0.01553000  0.09527000  0.65460000  1.0 -0.8098170318
O  O36  1  0.09527000  0.01553000  0.84540000  1.0 -0.8098170318
O  O37  1  0.03079000  0.09981000  0.34430000  1.0 -0.8021838112
O  O38  1  0.09981000  0.03079000  0.15570000  1.0 -0.8021838112
O  O39  1  0.96921000  0.90019000  0.65570000  1.0 -0.8098170318
O  O40  1  0.90019000  0.96921000  0.84430000  1.0 -0.8098170318
O  O41  1  0.56515000  0.45385000  0.83560000  1.0 -0.7484892004
O  O42  1  0.45385000  0.56515000  0.66440000  1.0 -0.7484892004
O  O43  1  0.43485000  0.54615000  0.16440000  1.0 -0.7484892004
O  O44  1  0.54615000  0.43485000  0.33560000  1.0 -0.7484892004
O  O45  1  0.40457000  0.34383000  0.61780000  1.0 -0.8098170318
O  O46  1  0.34383000  0.40457000  0.88220000  1.0 -0.8098170318
O  O47  1  0.59543000  0.65617000  0.38220000  1.0 -0.8098170318
O  O48  1  0.65617000  0.59543000  0.11780000  1.0 -0.8098170318
O  O49  1  0.21629000  0.23023000  0.52910000  1.0 -0.8098170318
O  O50  1  0.23023000  0.21629000  0.97090000  1.0 -0.820057162
O  O51  1  0.78371000  0.76977000  0.47090000  1.0 -0.8098170318
O  O52  1  0.76977000  0.78371000  0.02910000  1.0 -0.8098170318
O  O53  1  0.36304000  0.24916000  0.37400000  1.0 -0.7819382169
O  O54  1  0.24916000  0.36304000  0.12600000  1.0 -0.7819382169
O  O55  1  0.63696000  0.75084000  0.62600000  1.0 -0.7819382169
O  O56  1  0.75084000  0.63696000  0.87400000  1.0 -0.7819382169
O  O57  1  0.32972000  0.41348000  0.40210000  1.0 -0.830199621
O  O58  1  0.41348000  0.32972000  0.09790000  1.0 -0.830199621
O  O59  1  0.67028000  0.58652000  0.59790000  1.0 -0.830199621
O  O60  1  0.58652000  0.67028000  0.90210000  1.0 -0.830199621
