# DDEC6 charges by PACMAN v1.1 (https://github.com/mtap-research/PACMAN-charge/)
data_FIPCUF_ASR_pacman
_symmetry_space_group_name_H-M   'P 1'
_cell_length_a   15.40900000
_cell_length_b   15.40900000
_cell_length_c   15.40900000
_cell_angle_alpha   90.00000000
_cell_angle_beta   90.00000000
_cell_angle_gamma   90.00000000
_symmetry_Int_Tables_number   1
_chemical_formula_structural   Zr6Co3H96C120(N3O8)4
_chemical_formula_sum   'Zr6 Co3 H96 C120 N12 O32'
_cell_volume   3658.67106293
_cell_formula_units_Z   1
loop_
 _symmetry_equiv_pos_site_id
 _symmetry_equiv_pos_as_xyz
  1  'x, y, z'
loop_
 _atom_site_type_symbol
 _atom_site_label
 _atom_site_symmetry_multiplicity
 _atom_site_fract_x
 _atom_site_fract_y
 _atom_site_fract_z
 _atom_site_occupancy
 _atom_site_charge
Zr  Zr1  1  0.33943000  0.50000000  0.50000000  1.0 2.4021288042
Zr  Zr2  1  0.66057000  0.50000000  0.50000000  1.0 2.4021288042
Zr  Zr3  1  0.50000000  0.33943000  0.50000000  1.0 2.4021288042
Zr  Zr4  1  0.50000000  0.66057000  0.50000000  1.0 2.4021288042
Zr  Zr5  1  0.50000000  0.50000000  0.33943000  1.0 2.4021288042
Zr  Zr6  1  0.50000000  0.50000000  0.66057000  1.0 2.4021288042
Co  Co1  1  0.00000000  0.00000000  0.50000000  1.0 0.2936207537
Co  Co2  1  0.50000000  0.00000000  0.00000000  1.0 0.2983355408
Co  Co3  1  0.00000000  0.50000000  0.00000000  1.0 0.2983355408
H  H1  1  0.14040000  0.29300000  0.42250000  1.0 0.1051652466
H  H2  1  0.03570000  0.18060000  0.41460000  1.0 0.0547169967
H  H3  1  0.85960000  0.70700000  0.42250000  1.0 0.1051652466
H  H4  1  0.96430000  0.81940000  0.41460000  1.0 0.0547169967
H  H5  1  0.85960000  0.29300000  0.57750000  1.0 0.1051652466
H  H6  1  0.96430000  0.18060000  0.58540000  1.0 0.0547169967
H  H7  1  0.14040000  0.70700000  0.57750000  1.0 0.1051652466
H  H8  1  0.03570000  0.81940000  0.58540000  1.0 0.0547169967
H  H9  1  0.42250000  0.14040000  0.29300000  1.0 0.1051652466
H  H10  1  0.41460000  0.03570000  0.18060000  1.0 0.0547169967
H  H11  1  0.42250000  0.85960000  0.70700000  1.0 0.1051652466
H  H12  1  0.41460000  0.96430000  0.81940000  1.0 0.0547169967
H  H13  1  0.57750000  0.85960000  0.29300000  1.0 0.1051652466
H  H14  1  0.58540000  0.96430000  0.18060000  1.0 0.0547169967
H  H15  1  0.57750000  0.14040000  0.70700000  1.0 0.1051652466
H  H16  1  0.58540000  0.03570000  0.81940000  1.0 0.0547169967
H  H17  1  0.29300000  0.42250000  0.14040000  1.0 0.1051652466
H  H18  1  0.18060000  0.41460000  0.03570000  1.0 0.0547169967
H  H19  1  0.70700000  0.42250000  0.85960000  1.0 0.1051652466
H  H20  1  0.81940000  0.41460000  0.96430000  1.0 0.0547169967
H  H21  1  0.29300000  0.57750000  0.85960000  1.0 0.1051652466
H  H22  1  0.18060000  0.58540000  0.96430000  1.0 0.0547169967
H  H23  1  0.70700000  0.57750000  0.14040000  1.0 0.1051652466
H  H24  1  0.81940000  0.58540000  0.03570000  1.0 0.0547169967
H  H25  1  0.29300000  0.14040000  0.57750000  1.0 0.1051652466
H  H26  1  0.18060000  0.03570000  0.58540000  1.0 0.0547169967
H  H27  1  0.70700000  0.85960000  0.57750000  1.0 0.1051652466
H  H28  1  0.81940000  0.96430000  0.58540000  1.0 0.0547169967
H  H29  1  0.29300000  0.85960000  0.42250000  1.0 0.1051652466
H  H30  1  0.18060000  0.96430000  0.41460000  1.0 0.0547169967
H  H31  1  0.70700000  0.14040000  0.42250000  1.0 0.1051652466
H  H32  1  0.81940000  0.03570000  0.41460000  1.0 0.0547169967
H  H33  1  0.14040000  0.42250000  0.70700000  1.0 0.1051652466
H  H34  1  0.03570000  0.41460000  0.81940000  1.0 0.0547169967
H  H35  1  0.85960000  0.42250000  0.29300000  1.0 0.1051652466
H  H36  1  0.96430000  0.41460000  0.18060000  1.0 0.0547169967
H  H37  1  0.85960000  0.57750000  0.70700000  1.0 0.1051652466
H  H38  1  0.96430000  0.58540000  0.81940000  1.0 0.0547169967
H  H39  1  0.14040000  0.57750000  0.29300000  1.0 0.1051652466
H  H40  1  0.03570000  0.58540000  0.18060000  1.0 0.0547169967
H  H41  1  0.42250000  0.29300000  0.85960000  1.0 0.1051652466
H  H42  1  0.41460000  0.18060000  0.96430000  1.0 0.0547169967
H  H43  1  0.42250000  0.70700000  0.14040000  1.0 0.1051652466
H  H44  1  0.41460000  0.81940000  0.03570000  1.0 0.0547169967
H  H45  1  0.57750000  0.29300000  0.14040000  1.0 0.1051652466
H  H46  1  0.58540000  0.18060000  0.03570000  1.0 0.0547169967
H  H47  1  0.57750000  0.70700000  0.85960000  1.0 0.1051652466
H  H48  1  0.58540000  0.81940000  0.96430000  1.0 0.0547169967
H  H49  1  0.85960000  0.70700000  0.57750000  1.0 0.1051652466
H  H50  1  0.96430000  0.81940000  0.58540000  1.0 0.0547169967
H  H51  1  0.14040000  0.29300000  0.57750000  1.0 0.1051652466
H  H52  1  0.03570000  0.18060000  0.58540000  1.0 0.0547169967
H  H53  1  0.14040000  0.70700000  0.42250000  1.0 0.1051652466
H  H54  1  0.03570000  0.81940000  0.41460000  1.0 0.0547169967
H  H55  1  0.85960000  0.29300000  0.42250000  1.0 0.1051652466
H  H56  1  0.96430000  0.18060000  0.41460000  1.0 0.0547169967
H  H57  1  0.57750000  0.85960000  0.70700000  1.0 0.1051652466
H  H58  1  0.58540000  0.96430000  0.81940000  1.0 0.0547169967
H  H59  1  0.57750000  0.14040000  0.29300000  1.0 0.1051652466
H  H60  1  0.58540000  0.03570000  0.18060000  1.0 0.0547169967
H  H61  1  0.42250000  0.14040000  0.70700000  1.0 0.1051652466
H  H62  1  0.41460000  0.03570000  0.81940000  1.0 0.0547169967
H  H63  1  0.42250000  0.85960000  0.29300000  1.0 0.1051652466
H  H64  1  0.41460000  0.96430000  0.18060000  1.0 0.0547169967
H  H65  1  0.70700000  0.57750000  0.85960000  1.0 0.1051652466
H  H66  1  0.81940000  0.58540000  0.96430000  1.0 0.0547169967
H  H67  1  0.29300000  0.57750000  0.14040000  1.0 0.1051652466
H  H68  1  0.18060000  0.58540000  0.03570000  1.0 0.0547169967
H  H69  1  0.70700000  0.42250000  0.14040000  1.0 0.1051652466
H  H70  1  0.81940000  0.41460000  0.03570000  1.0 0.0547169967
H  H71  1  0.29300000  0.42250000  0.85960000  1.0 0.1051652466
H  H72  1  0.18060000  0.41460000  0.96430000  1.0 0.0547169967
H  H73  1  0.70700000  0.85960000  0.42250000  1.0 0.1051652466
H  H74  1  0.81940000  0.96430000  0.41460000  1.0 0.0547169967
H  H75  1  0.29300000  0.14040000  0.42250000  1.0 0.1051652466
H  H76  1  0.18060000  0.03570000  0.41460000  1.0 0.0547169967
H  H77  1  0.70700000  0.14040000  0.57750000  1.0 0.1051652466
H  H78  1  0.81940000  0.03570000  0.58540000  1.0 0.0547169967
H  H79  1  0.29300000  0.85960000  0.57750000  1.0 0.1051652466
H  H80  1  0.18060000  0.96430000  0.58540000  1.0 0.0547169967
H  H81  1  0.85960000  0.57750000  0.29300000  1.0 0.1051652466
H  H82  1  0.96430000  0.58540000  0.18060000  1.0 0.0547169967
H  H83  1  0.14040000  0.57750000  0.70700000  1.0 0.1051652466
H  H84  1  0.03570000  0.58540000  0.81940000  1.0 0.0547169967
H  H85  1  0.14040000  0.42250000  0.29300000  1.0 0.1051652466
H  H86  1  0.03570000  0.41460000  0.18060000  1.0 0.0547169967
H  H87  1  0.85960000  0.42250000  0.70700000  1.0 0.1051652466
H  H88  1  0.96430000  0.41460000  0.81940000  1.0 0.0547169967
H  H89  1  0.57750000  0.70700000  0.14040000  1.0 0.1051652466
H  H90  1  0.58540000  0.81940000  0.03570000  1.0 0.0547169967
H  H91  1  0.57750000  0.29300000  0.85960000  1.0 0.1051652466
H  H92  1  0.58540000  0.18060000  0.96430000  1.0 0.0547169967
H  H93  1  0.42250000  0.70700000  0.85960000  1.0 0.1051652466
H  H94  1  0.41460000  0.81940000  0.96430000  1.0 0.0547169967
H  H95  1  0.42250000  0.29300000  0.14040000  1.0 0.1051652466
H  H96  1  0.41460000  0.18060000  0.03570000  1.0 0.0547169967
C  C1  1  0.15080000  0.23880000  0.45130000  1.0 -0.0957783431
C  C2  1  0.08650000  0.17250000  0.44970000  1.0 -0.0322904031
C  C3  1  0.84920000  0.76120000  0.45130000  1.0 -0.0957783431
C  C4  1  0.91350000  0.82750000  0.44970000  1.0 -0.0322904031
C  C5  1  0.84920000  0.23880000  0.54870000  1.0 -0.0957783431
C  C6  1  0.91350000  0.17250000  0.55030000  1.0 -0.0322904031
C  C7  1  0.15080000  0.76120000  0.54870000  1.0 -0.0957783431
C  C8  1  0.08650000  0.82750000  0.55030000  1.0 -0.0322904031
C  C9  1  0.45130000  0.15080000  0.23880000  1.0 -0.0957783431
C  C10  1  0.44970000  0.08650000  0.17250000  1.0 -0.0322904031
C  C11  1  0.45130000  0.84920000  0.76120000  1.0 -0.0957783431
C  C12  1  0.44970000  0.91350000  0.82750000  1.0 -0.0322904031
C  C13  1  0.54870000  0.84920000  0.23880000  1.0 -0.0957783431
C  C14  1  0.55030000  0.91350000  0.17250000  1.0 -0.0322904031
C  C15  1  0.54870000  0.15080000  0.76120000  1.0 -0.0957783431
C  C16  1  0.55030000  0.08650000  0.82750000  1.0 -0.0322904031
C  C17  1  0.23880000  0.45130000  0.15080000  1.0 -0.0957783431
C  C18  1  0.17250000  0.44970000  0.08650000  1.0 -0.0322904031
C  C19  1  0.76120000  0.45130000  0.84920000  1.0 -0.0957783431
C  C20  1  0.82750000  0.44970000  0.91350000  1.0 -0.0322904031
C  C21  1  0.23880000  0.54870000  0.84920000  1.0 -0.0957783431
C  C22  1  0.17250000  0.55030000  0.91350000  1.0 -0.0322904031
C  C23  1  0.76120000  0.54870000  0.15080000  1.0 -0.0957783431
C  C24  1  0.82750000  0.55030000  0.08650000  1.0 -0.0322904031
C  C25  1  0.23880000  0.15080000  0.54870000  1.0 -0.0957783431
C  C26  1  0.17250000  0.08650000  0.55030000  1.0 -0.0322904031
C  C27  1  0.76120000  0.84920000  0.54870000  1.0 -0.0957783431
C  C28  1  0.82750000  0.91350000  0.55030000  1.0 -0.0322904031
C  C29  1  0.23880000  0.84920000  0.45130000  1.0 -0.0957783431
C  C30  1  0.17250000  0.91350000  0.44970000  1.0 -0.0322904031
C  C31  1  0.76120000  0.15080000  0.45130000  1.0 -0.0957783431
C  C32  1  0.82750000  0.08650000  0.44970000  1.0 -0.0322904031
C  C33  1  0.15080000  0.45130000  0.76120000  1.0 -0.0957783431
C  C34  1  0.08650000  0.44970000  0.82750000  1.0 -0.0322904031
C  C35  1  0.84920000  0.45130000  0.23880000  1.0 -0.0957783431
C  C36  1  0.91350000  0.44970000  0.17250000  1.0 -0.0322904031
C  C37  1  0.84920000  0.54870000  0.76120000  1.0 -0.0957783431
C  C38  1  0.91350000  0.55030000  0.82750000  1.0 -0.0322904031
C  C39  1  0.15080000  0.54870000  0.23880000  1.0 -0.0957783431
C  C40  1  0.08650000  0.55030000  0.17250000  1.0 -0.0322904031
C  C41  1  0.45130000  0.23880000  0.84920000  1.0 -0.0957783431
C  C42  1  0.44970000  0.17250000  0.91350000  1.0 -0.0322904031
C  C43  1  0.45130000  0.76120000  0.15080000  1.0 -0.0957783431
C  C44  1  0.44970000  0.82750000  0.08650000  1.0 -0.0322904031
C  C45  1  0.54870000  0.23880000  0.15080000  1.0 -0.0957783431
C  C46  1  0.55030000  0.17250000  0.08650000  1.0 -0.0322904031
C  C47  1  0.54870000  0.76120000  0.84920000  1.0 -0.0957783431
C  C48  1  0.55030000  0.82750000  0.91350000  1.0 -0.0322904031
C  C49  1  0.84920000  0.76120000  0.54870000  1.0 -0.0957783431
C  C50  1  0.91350000  0.82750000  0.55030000  1.0 -0.0322904031
C  C51  1  0.15080000  0.23880000  0.54870000  1.0 -0.0957783431
C  C52  1  0.08650000  0.17250000  0.55030000  1.0 -0.0322904031
C  C53  1  0.15080000  0.76120000  0.45130000  1.0 -0.0957783431
C  C54  1  0.08650000  0.82750000  0.44970000  1.0 -0.0322904031
C  C55  1  0.84920000  0.23880000  0.45130000  1.0 -0.0957783431
C  C56  1  0.91350000  0.17250000  0.44970000  1.0 -0.0322904031
C  C57  1  0.54870000  0.84920000  0.76120000  1.0 -0.0957783431
C  C58  1  0.55030000  0.91350000  0.82750000  1.0 -0.0322904031
C  C59  1  0.54870000  0.15080000  0.23880000  1.0 -0.0957783431
C  C60  1  0.55030000  0.08650000  0.17250000  1.0 -0.0322904031
C  C61  1  0.45130000  0.15080000  0.76120000  1.0 -0.0957783431
C  C62  1  0.44970000  0.08650000  0.82750000  1.0 -0.0322904031
C  C63  1  0.45130000  0.84920000  0.23880000  1.0 -0.0957783431
C  C64  1  0.44970000  0.91350000  0.17250000  1.0 -0.0322904031
C  C65  1  0.76120000  0.54870000  0.84920000  1.0 -0.0957783431
C  C66  1  0.82750000  0.55030000  0.91350000  1.0 -0.0322904031
C  C67  1  0.23880000  0.54870000  0.15080000  1.0 -0.0957783431
C  C68  1  0.17250000  0.55030000  0.08650000  1.0 -0.0322904031
C  C69  1  0.76120000  0.45130000  0.15080000  1.0 -0.0957783431
C  C70  1  0.82750000  0.44970000  0.08650000  1.0 -0.0322904031
C  C71  1  0.23880000  0.45130000  0.84920000  1.0 -0.0957783431
C  C72  1  0.17250000  0.44970000  0.91350000  1.0 -0.0322904031
C  C73  1  0.76120000  0.84920000  0.45130000  1.0 -0.0957783431
C  C74  1  0.82750000  0.91350000  0.44970000  1.0 -0.0322904031
C  C75  1  0.23880000  0.15080000  0.45130000  1.0 -0.0957783431
C  C76  1  0.17250000  0.08650000  0.44970000  1.0 -0.0322904031
C  C77  1  0.76120000  0.15080000  0.54870000  1.0 -0.0957783431
C  C78  1  0.82750000  0.08650000  0.55030000  1.0 -0.0322904031
C  C79  1  0.23880000  0.84920000  0.54870000  1.0 -0.0957783431
C  C80  1  0.17250000  0.91350000  0.55030000  1.0 -0.0322904031
C  C81  1  0.84920000  0.54870000  0.23880000  1.0 -0.0957783431
C  C82  1  0.91350000  0.55030000  0.17250000  1.0 -0.0322904031
C  C83  1  0.15080000  0.54870000  0.76120000  1.0 -0.0957783431
C  C84  1  0.08650000  0.55030000  0.82750000  1.0 -0.0322904031
C  C85  1  0.15080000  0.45130000  0.23880000  1.0 -0.0957783431
C  C86  1  0.08650000  0.44970000  0.17250000  1.0 -0.0322904031
C  C87  1  0.84920000  0.45130000  0.76120000  1.0 -0.0957783431
C  C88  1  0.91350000  0.44970000  0.82750000  1.0 -0.0322904031
C  C89  1  0.54870000  0.76120000  0.15080000  1.0 -0.0957783431
C  C90  1  0.55030000  0.82750000  0.08650000  1.0 -0.0322904031
C  C91  1  0.54870000  0.23880000  0.84920000  1.0 -0.0957783431
C  C92  1  0.55030000  0.17250000  0.91350000  1.0 -0.0322904031
C  C93  1  0.45130000  0.76120000  0.84920000  1.0 -0.0957783431
C  C94  1  0.44970000  0.82750000  0.91350000  1.0 -0.0322904031
C  C95  1  0.45130000  0.23880000  0.15080000  1.0 -0.0957783431
C  C96  1  0.44970000  0.17250000  0.08650000  1.0 -0.0322904031
C  C97  1  0.29570000  0.29570000  0.50000000  1.0 0.6021967416
C  C98  1  0.22850000  0.22850000  0.50000000  1.0 0.0038895078
C  C99  1  0.70430000  0.70430000  0.50000000  1.0 0.6021967416
C  C100  1  0.77150000  0.77150000  0.50000000  1.0 0.0038895078
C  C101  1  0.70430000  0.29570000  0.50000000  1.0 0.6021967416
C  C102  1  0.77150000  0.22850000  0.50000000  1.0 0.0038895078
C  C103  1  0.29570000  0.70430000  0.50000000  1.0 0.6021967416
C  C104  1  0.22850000  0.77150000  0.50000000  1.0 0.0038895078
C  C105  1  0.50000000  0.29570000  0.29570000  1.0 0.6021967416
C  C106  1  0.50000000  0.22850000  0.22850000  1.0 0.0038895078
C  C107  1  0.50000000  0.70430000  0.70430000  1.0 0.6021967416
C  C108  1  0.50000000  0.77150000  0.77150000  1.0 0.0038895078
C  C109  1  0.50000000  0.70430000  0.29570000  1.0 0.6021967416
C  C110  1  0.50000000  0.77150000  0.22850000  1.0 0.0038895078
C  C111  1  0.50000000  0.29570000  0.70430000  1.0 0.6021967416
C  C112  1  0.50000000  0.22850000  0.77150000  1.0 0.0038895078
C  C113  1  0.29570000  0.50000000  0.29570000  1.0 0.6021967416
C  C114  1  0.22850000  0.50000000  0.22850000  1.0 0.0038895078
C  C115  1  0.70430000  0.50000000  0.70430000  1.0 0.6021967416
C  C116  1  0.77150000  0.50000000  0.77150000  1.0 0.0038895078
C  C117  1  0.29570000  0.50000000  0.70430000  1.0 0.6021967416
C  C118  1  0.22850000  0.50000000  0.77150000  1.0 0.0038895078
C  C119  1  0.70430000  0.50000000  0.29570000  1.0 0.6021967416
C  C120  1  0.77150000  0.50000000  0.22850000  1.0 0.0038895078
N  N1  1  0.09940000  0.09940000  0.50000000  1.0 -0.0526067412
N  N2  1  0.90060000  0.90060000  0.50000000  1.0 -0.0526067412
N  N3  1  0.90060000  0.09940000  0.50000000  1.0 -0.0526067412
N  N4  1  0.09940000  0.90060000  0.50000000  1.0 -0.0526067412
N  N5  1  0.50000000  0.09940000  0.09940000  1.0 -0.0526067412
N  N6  1  0.50000000  0.90060000  0.90060000  1.0 -0.0526067412
N  N7  1  0.50000000  0.90060000  0.09940000  1.0 -0.0526067412
N  N8  1  0.50000000  0.09940000  0.90060000  1.0 -0.0526067412
N  N9  1  0.09940000  0.50000000  0.09940000  1.0 -0.0526067412
N  N10  1  0.90060000  0.50000000  0.90060000  1.0 -0.0526067412
N  N11  1  0.09940000  0.50000000  0.90060000  1.0 -0.0526067412
N  N12  1  0.90060000  0.50000000  0.09940000  1.0 -0.0526067412
O  O1  1  0.41930000  0.41930000  0.41930000  1.0 -1.114816609
O  O2  1  0.58070000  0.58070000  0.41930000  1.0 -1.114816609
O  O3  1  0.58070000  0.41930000  0.58070000  1.0 -1.114816609
O  O4  1  0.41930000  0.58070000  0.58070000  1.0 -1.114816609
O  O5  1  0.41930000  0.41930000  0.58070000  1.0 -1.114816609
O  O6  1  0.58070000  0.58070000  0.58070000  1.0 -1.1186553355
O  O7  1  0.41930000  0.58070000  0.41930000  1.0 -1.114816609
O  O8  1  0.58070000  0.41930000  0.41930000  1.0 -1.114816609
O  O9  1  0.26850000  0.37370000  0.50000000  1.0 -0.6062289591
O  O10  1  0.73150000  0.62630000  0.50000000  1.0 -0.6062289591
O  O11  1  0.73150000  0.37370000  0.50000000  1.0 -0.6062289591
O  O12  1  0.26850000  0.62630000  0.50000000  1.0 -0.6062289591
O  O13  1  0.50000000  0.26850000  0.37370000  1.0 -0.6062289591
O  O14  1  0.50000000  0.73150000  0.62630000  1.0 -0.6062289591
O  O15  1  0.50000000  0.73150000  0.37370000  1.0 -0.6062289591
O  O16  1  0.50000000  0.26850000  0.62630000  1.0 -0.6062289591
O  O17  1  0.37370000  0.50000000  0.26850000  1.0 -0.6062289591
O  O18  1  0.62630000  0.50000000  0.73150000  1.0 -0.6062289591
O  O19  1  0.37370000  0.50000000  0.73150000  1.0 -0.6062289591
O  O20  1  0.62630000  0.50000000  0.26850000  1.0 -0.6062289591
O  O21  1  0.37370000  0.26850000  0.50000000  1.0 -0.6062289591
O  O22  1  0.62630000  0.73150000  0.50000000  1.0 -0.6062289591
O  O23  1  0.37370000  0.73150000  0.50000000  1.0 -0.6062289591
O  O24  1  0.62630000  0.26850000  0.50000000  1.0 -0.6062289591
O  O25  1  0.26850000  0.50000000  0.62630000  1.0 -0.6062289591
O  O26  1  0.73150000  0.50000000  0.37370000  1.0 -0.6062289591
O  O27  1  0.73150000  0.50000000  0.62630000  1.0 -0.6062289591
O  O28  1  0.26850000  0.50000000  0.37370000  1.0 -0.6062289591
O  O29  1  0.50000000  0.37370000  0.73150000  1.0 -0.6062289591
O  O30  1  0.50000000  0.62630000  0.26850000  1.0 -0.6062289591
O  O31  1  0.50000000  0.37370000  0.26850000  1.0 -0.6062289591
O  O32  1  0.50000000  0.62630000  0.73150000  1.0 -0.6062289591
