# DDEC6 charges by PACMAN v1.1 (https://github.com/mtap-research/PACMAN-charge/)
data_FIPCIT_ASR_pacman
_symmetry_space_group_name_H-M   'P 1'
_cell_length_a   21.16090000
_cell_length_b   21.16090000
_cell_length_c   21.16090000
_cell_angle_alpha   60.00000000
_cell_angle_beta   60.00000000
_cell_angle_gamma   60.00000000
_symmetry_Int_Tables_number   1
_chemical_formula_structural   Zr3Co3H24C36(N3O8)2
_chemical_formula_sum   'Zr6 Co6 H48 C72 N12 O32'
_cell_volume   6700.19444916
_cell_formula_units_Z   2
loop_
 _symmetry_equiv_pos_site_id
 _symmetry_equiv_pos_as_xyz
  1  'x, y, z'
loop_
 _atom_site_type_symbol
 _atom_site_label
 _atom_site_symmetry_multiplicity
 _atom_site_fract_x
 _atom_site_fract_y
 _atom_site_fract_z
 _atom_site_occupancy
 _atom_site_charge
Zr  Zr1  1  0.91793000  0.08207000  0.91793000  1.0 2.3786137534
Zr  Zr2  1  0.08207000  0.91793000  0.08207000  1.0 2.3786137534
Zr  Zr3  1  0.08207000  0.91793000  0.91793000  1.0 2.3786137534
Zr  Zr4  1  0.91793000  0.08207000  0.08207000  1.0 2.3786137534
Zr  Zr5  1  0.91793000  0.91793000  0.08207000  1.0 2.3786137534
Zr  Zr6  1  0.08207000  0.08207000  0.91793000  1.0 2.3786137534
Co  Co1  1  0.00000000  0.50000000  0.50000000  1.0 0.0532235256
Co  Co2  1  0.50000000  0.00000000  0.00000000  1.0 0.0532235256
Co  Co3  1  0.50000000  0.50000000  0.00000000  1.0 0.0532235256
Co  Co4  1  0.00000000  0.00000000  0.50000000  1.0 0.0378809864
Co  Co5  1  0.50000000  0.00000000  0.50000000  1.0 0.0378809864
Co  Co6  1  0.00000000  0.50000000  0.00000000  1.0 0.0532235256
H  H1  1  0.90000000  0.29060000  0.70940000  1.0 0.1402617607
H  H2  1  0.90790000  0.40090000  0.59910000  1.0 0.1008233926
H  H3  1  0.70940000  0.10000000  0.90000000  1.0 0.1402617607
H  H4  1  0.59910000  0.09210000  0.90790000  1.0 0.1008233926
H  H5  1  0.29060000  0.90000000  0.10000000  1.0 0.1402617607
H  H6  1  0.40090000  0.90790000  0.09210000  1.0 0.1008233926
H  H7  1  0.10000000  0.70940000  0.29060000  1.0 0.1402617607
H  H8  1  0.09210000  0.59910000  0.40090000  1.0 0.1008233926
H  H9  1  0.29060000  0.70940000  0.90000000  1.0 0.1402617607
H  H10  1  0.40090000  0.59910000  0.90790000  1.0 0.1008233926
H  H11  1  0.10000000  0.90000000  0.70940000  1.0 0.1402617607
H  H12  1  0.09210000  0.90790000  0.59910000  1.0 0.1008233926
H  H13  1  0.90000000  0.10000000  0.29060000  1.0 0.1402617607
H  H14  1  0.90790000  0.09210000  0.40090000  1.0 0.1008233926
H  H15  1  0.70940000  0.29060000  0.10000000  1.0 0.1402617607
H  H16  1  0.59910000  0.40090000  0.09210000  1.0 0.1008233926
H  H17  1  0.70940000  0.90000000  0.29060000  1.0 0.1402617607
H  H18  1  0.59910000  0.90790000  0.40090000  1.0 0.1008233926
H  H19  1  0.90000000  0.70940000  0.10000000  1.0 0.1402617607
H  H20  1  0.90790000  0.59910000  0.09210000  1.0 0.1008233926
H  H21  1  0.10000000  0.29060000  0.90000000  1.0 0.1402617607
H  H22  1  0.09210000  0.40090000  0.90790000  1.0 0.1008233926
H  H23  1  0.29060000  0.10000000  0.70940000  1.0 0.1402617607
H  H24  1  0.40090000  0.09210000  0.59910000  1.0 0.1008233926
H  H25  1  0.10000000  0.90000000  0.29060000  1.0 0.1402617607
H  H26  1  0.09210000  0.90790000  0.40090000  1.0 0.1008233926
H  H27  1  0.29060000  0.70940000  0.10000000  1.0 0.1402617607
H  H28  1  0.40090000  0.59910000  0.09210000  1.0 0.1008233926
H  H29  1  0.70940000  0.29060000  0.90000000  1.0 0.1402617607
H  H30  1  0.59910000  0.40090000  0.90790000  1.0 0.1008233926
H  H31  1  0.90000000  0.10000000  0.70940000  1.0 0.1402617607
H  H32  1  0.90790000  0.09210000  0.59910000  1.0 0.1008233926
H  H33  1  0.70940000  0.90000000  0.10000000  1.0 0.1402617607
H  H34  1  0.59910000  0.90790000  0.09210000  1.0 0.1008233926
H  H35  1  0.90000000  0.70940000  0.29060000  1.0 0.1402617607
H  H36  1  0.90790000  0.59910000  0.40090000  1.0 0.1008233926
H  H37  1  0.10000000  0.29060000  0.70940000  1.0 0.1402617607
H  H38  1  0.09210000  0.40090000  0.59910000  1.0 0.1008233926
H  H39  1  0.29060000  0.10000000  0.90000000  1.0 0.1402617607
H  H40  1  0.40090000  0.09210000  0.90790000  1.0 0.1008233926
H  H41  1  0.29060000  0.90000000  0.70940000  1.0 0.1402617607
H  H42  1  0.40090000  0.90790000  0.59910000  1.0 0.1008233926
H  H43  1  0.10000000  0.70940000  0.90000000  1.0 0.1402617607
H  H44  1  0.09210000  0.59910000  0.90790000  1.0 0.1008233926
H  H45  1  0.90000000  0.29060000  0.10000000  1.0 0.1402617607
H  H46  1  0.90790000  0.40090000  0.09210000  1.0 0.1008233926
H  H47  1  0.70940000  0.10000000  0.29060000  1.0 0.1402617607
H  H48  1  0.59910000  0.09210000  0.40090000  1.0 0.1008233926
C  C1  1  0.93990000  0.31110000  0.68890000  1.0 -0.1314724093
C  C2  1  0.94610000  0.37750000  0.62250000  1.0 0.0716057682
C  C3  1  0.68890000  0.06010000  0.93990000  1.0 -0.1314724093
C  C4  1  0.62250000  0.05390000  0.94610000  1.0 0.0716057682
C  C5  1  0.31110000  0.93990000  0.06010000  1.0 -0.1314724093
C  C6  1  0.37750000  0.94610000  0.05390000  1.0 0.0716057682
C  C7  1  0.06010000  0.68890000  0.31110000  1.0 -0.1314724093
C  C8  1  0.05390000  0.62250000  0.37750000  1.0 0.0716057682
C  C9  1  0.31110000  0.68890000  0.93990000  1.0 -0.1314724093
C  C10  1  0.37750000  0.62250000  0.94610000  1.0 0.0716057682
C  C11  1  0.06010000  0.93990000  0.68890000  1.0 -0.1314724093
C  C12  1  0.05390000  0.94610000  0.62250000  1.0 0.0716057682
C  C13  1  0.93990000  0.06010000  0.31110000  1.0 -0.1314724093
C  C14  1  0.94610000  0.05390000  0.37750000  1.0 0.0716057682
C  C15  1  0.68890000  0.31110000  0.06010000  1.0 -0.1314724093
C  C16  1  0.62250000  0.37750000  0.05390000  1.0 0.0716057682
C  C17  1  0.68890000  0.93990000  0.31110000  1.0 -0.1314724093
C  C18  1  0.62250000  0.94610000  0.37750000  1.0 0.0716057682
C  C19  1  0.93990000  0.68890000  0.06010000  1.0 -0.1314724093
C  C20  1  0.94610000  0.62250000  0.05390000  1.0 0.0716057682
C  C21  1  0.06010000  0.31110000  0.93990000  1.0 -0.1314724093
C  C22  1  0.05390000  0.37750000  0.94610000  1.0 0.0716057682
C  C23  1  0.31110000  0.06010000  0.68890000  1.0 -0.1314724093
C  C24  1  0.37750000  0.05390000  0.62250000  1.0 0.0716057682
C  C25  1  0.06010000  0.93990000  0.31110000  1.0 -0.1314724093
C  C26  1  0.05390000  0.94610000  0.37750000  1.0 0.0716057682
C  C27  1  0.31110000  0.68890000  0.06010000  1.0 -0.1314724093
C  C28  1  0.37750000  0.62250000  0.05390000  1.0 0.0716057682
C  C29  1  0.68890000  0.31110000  0.93990000  1.0 -0.1314724093
C  C30  1  0.62250000  0.37750000  0.94610000  1.0 0.0716057682
C  C31  1  0.93990000  0.06010000  0.68890000  1.0 -0.1314724093
C  C32  1  0.94610000  0.05390000  0.62250000  1.0 0.0716057682
C  C33  1  0.68890000  0.93990000  0.06010000  1.0 -0.1314724093
C  C34  1  0.62250000  0.94610000  0.05390000  1.0 0.0716057682
C  C35  1  0.93990000  0.68890000  0.31110000  1.0 -0.1314724093
C  C36  1  0.94610000  0.62250000  0.37750000  1.0 0.0716057682
C  C37  1  0.06010000  0.31110000  0.68890000  1.0 -0.1314724093
C  C38  1  0.05390000  0.37750000  0.62250000  1.0 0.0716057682
C  C39  1  0.31110000  0.06010000  0.93990000  1.0 -0.1314724093
C  C40  1  0.37750000  0.05390000  0.94610000  1.0 0.0716057682
C  C41  1  0.31110000  0.93990000  0.68890000  1.0 -0.1314724093
C  C42  1  0.37750000  0.94610000  0.62250000  1.0 0.0716057682
C  C43  1  0.06010000  0.68890000  0.93990000  1.0 -0.1314724093
C  C44  1  0.05390000  0.62250000  0.94610000  1.0 0.0716057682
C  C45  1  0.93990000  0.31110000  0.06010000  1.0 -0.1314724093
C  C46  1  0.94610000  0.37750000  0.05390000  1.0 0.0716057682
C  C47  1  0.68890000  0.06010000  0.31110000  1.0 -0.1314724093
C  C48  1  0.62250000  0.05390000  0.37750000  1.0 0.0716057682
C  C49  1  0.00000000  0.27600000  0.72400000  1.0 -0.053915769
C  C50  1  0.00000000  0.20860000  0.79140000  1.0 0.6223312698
C  C51  1  0.72400000  0.00000000  0.00000000  1.0 -0.053915769
C  C52  1  0.79140000  0.00000000  0.00000000  1.0 0.6223312698
C  C53  1  0.27600000  0.00000000  0.00000000  1.0 -0.053915769
C  C54  1  0.20860000  0.00000000  0.00000000  1.0 0.6223312698
C  C55  1  0.00000000  0.72400000  0.27600000  1.0 -0.053915769
C  C56  1  0.00000000  0.79140000  0.20860000  1.0 0.6223312698
C  C57  1  0.27600000  0.72400000  0.00000000  1.0 -0.053915769
C  C58  1  0.20860000  0.79140000  0.00000000  1.0 0.6223312698
C  C59  1  0.00000000  0.00000000  0.72400000  1.0 -0.053915769
C  C60  1  0.00000000  0.00000000  0.79140000  1.0 0.6223312698
C  C61  1  0.00000000  0.00000000  0.27600000  1.0 -0.053915769
C  C62  1  0.00000000  0.00000000  0.20860000  1.0 0.6223312698
C  C63  1  0.72400000  0.27600000  0.00000000  1.0 -0.053915769
C  C64  1  0.79140000  0.20860000  0.00000000  1.0 0.6223312698
C  C65  1  0.72400000  0.00000000  0.27600000  1.0 -0.053915769
C  C66  1  0.79140000  0.00000000  0.20860000  1.0 0.6223312698
C  C67  1  0.00000000  0.72400000  0.00000000  1.0 -0.0550043066
C  C68  1  0.00000000  0.79140000  0.00000000  1.0 0.6223312698
C  C69  1  0.00000000  0.27600000  0.00000000  1.0 -0.053915769
C  C70  1  0.00000000  0.20860000  0.00000000  1.0 0.6223312698
C  C71  1  0.27600000  0.00000000  0.72400000  1.0 -0.053915769
C  C72  1  0.20860000  0.00000000  0.79140000  1.0 0.6223312698
N  N1  1  0.00000000  0.41160000  0.58840000  1.0 -0.2390636173
N  N2  1  0.58840000  0.00000000  0.00000000  1.0 -0.2390636173
N  N3  1  0.41160000  0.00000000  0.00000000  1.0 -0.2390636173
N  N4  1  0.00000000  0.58840000  0.41160000  1.0 -0.2390636173
N  N5  1  0.41160000  0.58840000  0.00000000  1.0 -0.2390636173
N  N6  1  0.00000000  0.00000000  0.58840000  1.0 -0.2390636173
N  N7  1  0.00000000  0.00000000  0.41160000  1.0 -0.2390636173
N  N8  1  0.58840000  0.41160000  0.00000000  1.0 -0.2390636173
N  N9  1  0.58840000  0.00000000  0.41160000  1.0 -0.2390636173
N  N10  1  0.00000000  0.58840000  0.00000000  1.0 -0.2390636173
N  N11  1  0.00000000  0.41160000  0.00000000  1.0 -0.2390636173
N  N12  1  0.41160000  0.00000000  0.58840000  1.0 -0.2390636173
O  O1  1  0.95850000  0.12450000  0.95850000  1.0 -1.0927292791
O  O2  1  0.95850000  0.95850000  0.95850000  1.0 -1.0927292791
O  O3  1  0.12450000  0.95850000  0.95850000  1.0 -1.0927292791
O  O4  1  0.95850000  0.95850000  0.12450000  1.0 -1.0927292791
O  O5  1  0.04150000  0.04150000  0.04150000  1.0 -1.0964326826
O  O6  1  0.04150000  0.87550000  0.04150000  1.0 -1.0964326826
O  O7  1  0.87550000  0.04150000  0.04150000  1.0 -1.0964326826
O  O8  1  0.04150000  0.04150000  0.87550000  1.0 -1.0927292791
O  O9  1  0.94440000  0.18300000  0.81700000  1.0 -0.5878238546
O  O10  1  0.81700000  0.05560000  0.94440000  1.0 -0.5878238546
O  O11  1  0.18300000  0.94440000  0.05560000  1.0 -0.5878238546
O  O12  1  0.05560000  0.81700000  0.18300000  1.0 -0.5878238546
O  O13  1  0.18300000  0.81700000  0.94440000  1.0 -0.5878238546
O  O14  1  0.05560000  0.94440000  0.81700000  1.0 -0.5878238546
O  O15  1  0.94440000  0.05560000  0.18300000  1.0 -0.5878238546
O  O16  1  0.81700000  0.18300000  0.05560000  1.0 -0.5878238546
O  O17  1  0.81700000  0.94440000  0.18300000  1.0 -0.5878238546
O  O18  1  0.94440000  0.81700000  0.05560000  1.0 -0.5878238546
O  O19  1  0.05560000  0.18300000  0.94440000  1.0 -0.5878238546
O  O20  1  0.18300000  0.05560000  0.81700000  1.0 -0.5878238546
O  O21  1  0.05560000  0.94440000  0.18300000  1.0 -0.5878238546
O  O22  1  0.18300000  0.81700000  0.05560000  1.0 -0.5878238546
O  O23  1  0.81700000  0.18300000  0.94440000  1.0 -0.5878238546
O  O24  1  0.94440000  0.05560000  0.81700000  1.0 -0.5878238546
O  O25  1  0.81700000  0.94440000  0.05560000  1.0 -0.5878238546
O  O26  1  0.94440000  0.81700000  0.18300000  1.0 -0.5878238546
O  O27  1  0.05560000  0.18300000  0.81700000  1.0 -0.5878238546
O  O28  1  0.18300000  0.05560000  0.94440000  1.0 -0.5878238546
O  O29  1  0.18300000  0.94440000  0.81700000  1.0 -0.5878238546
O  O30  1  0.05560000  0.81700000  0.94440000  1.0 -0.5878238546
O  O31  1  0.94440000  0.18300000  0.05560000  1.0 -0.5878238546
O  O32  1  0.81700000  0.05560000  0.18300000  1.0 -0.5878238546
