# DDEC6 charges by PACMAN v1.1 (https://github.com/mtap-research/PACMAN-charge/)
data_FIPGAP_ASR_pacman
_symmetry_space_group_name_H-M   'P 1'
_cell_length_a   12.33380000
_cell_length_b   15.88000000
_cell_length_c   17.10300000
_cell_angle_alpha   78.17600000
_cell_angle_beta   82.00500000
_cell_angle_gamma   73.77300000
_symmetry_Int_Tables_number   1
_chemical_formula_structural   Zn2H25C41(N2O3)3
_chemical_formula_sum   'Zn4 H50 C82 N12 O18'
_cell_volume   3136.15548921
_cell_formula_units_Z   2
loop_
 _symmetry_equiv_pos_site_id
 _symmetry_equiv_pos_as_xyz
  1  'x, y, z'
loop_
 _atom_site_type_symbol
 _atom_site_label
 _atom_site_symmetry_multiplicity
 _atom_site_fract_x
 _atom_site_fract_y
 _atom_site_fract_z
 _atom_site_occupancy
 _atom_site_charge
Zn  Zn1  1  0.00073000  0.12309000  0.62335000  1.0 0.8301167608
Zn  Zn2  1  0.17731000  0.22242000  0.59342000  1.0 0.9127463818
Zn  Zn3  1  0.99927000  0.87691000  0.37665000  1.0 0.8301167608
Zn  Zn4  1  0.82269000  0.77758000  0.40658000  1.0 0.9127463818
H  H1  1  0.96780000  0.12210000  0.37480000  1.0 0.1198804532
H  H2  1  0.45850000  0.99440000  0.57700000  1.0 0.1198804532
H  H3  1  0.20520000  0.25830000  0.33400000  1.0 0.1198804532
H  H4  1  0.73020000  0.35000000  0.65180000  1.0 0.1285011261
H  H5  1  0.96090000  0.08960000  0.88300000  1.0 0.1285011261
H  H6  1  0.20610000  0.26320000  0.19850000  1.0 0.1198804532
H  H7  1  0.60040000  0.86660000  0.57640000  1.0 0.1285011261
H  H8  1  0.94720000  0.49820000  0.56820000  1.0 0.1285011261
H  H9  1  0.15840000  0.24930000  0.97740000  1.0 0.1198804532
H  H10  1  0.97110000  0.12580000  0.24070000  1.0 0.1285011261
H  H11  1  0.38030000  0.72110000  0.66220000  1.0 0.1198804532
H  H12  1  0.17800000  0.24160000  0.84290000  1.0 0.1285011261
H  H13  1  0.80160000  0.62560000  0.57540000  1.0 0.1198804532
H  H14  1  0.23400000  0.85110000  0.65950000  1.0 0.1285011261
H  H15  1  0.95010000  0.08980000  0.01730000  1.0 0.1285011261
H  H16  1  0.58540000  0.47820000  0.65960000  1.0 0.1285011261
H  H17  1  0.83980000  0.07020000  0.75690000  1.0 0.1285011261
H  H18  1  0.85810000  0.06460000  0.52840000  1.0 0.1198804532
H  H19  1  0.70540000  0.00650000  0.54700000  1.0 0.1285011261
H  H20  1  0.61700000  0.97880000  0.67350000  1.0 0.1285011261
H  H21  1  0.69420000  0.85940000  0.89800000  1.0 0.0886668384
H  H22  1  0.66820000  0.71170000  0.94660000  1.0 0.1198804532
H  H23  1  0.53220000  0.69340000  0.04960000  1.0 0.1198804532
H  H24  1  0.40040000  0.81730000  0.08980000  1.0 0.1198804532
H  H25  1  0.60920000  0.97930000  0.80780000  1.0 0.2845389962
H  H26  1  0.03220000  0.87790000  0.62520000  1.0 0.1198804532
H  H27  1  0.54150000  0.00560000  0.42300000  1.0 0.1198804532
H  H28  1  0.79480000  0.74170000  0.66600000  1.0 0.1198804532
H  H29  1  0.26980000  0.65000000  0.34820000  1.0 0.1285011261
H  H30  1  0.03910000  0.91040000  0.11700000  1.0 0.1285011261
H  H31  1  0.79390000  0.73680000  0.80150000  1.0 0.1198804532
H  H32  1  0.39960000  0.13340000  0.42360000  1.0 0.1285011261
H  H33  1  0.05280000  0.50180000  0.43180000  1.0 0.1285011261
H  H34  1  0.84160000  0.75070000  0.02260000  1.0 0.1198804532
H  H35  1  0.02890000  0.87420000  0.75930000  1.0 0.1285011261
H  H36  1  0.61970000  0.27890000  0.33780000  1.0 0.1198804532
H  H37  1  0.82200000  0.75840000  0.15710000  1.0 0.1285011261
H  H38  1  0.19840000  0.37440000  0.42460000  1.0 0.1198804532
H  H39  1  0.76600000  0.14890000  0.34050000  1.0 0.1285011261
H  H40  1  0.04990000  0.91020000  0.98270000  1.0 0.1285011261
H  H41  1  0.41460000  0.52180000  0.34040000  1.0 0.1285011261
H  H42  1  0.16020000  0.92980000  0.24310000  1.0 0.1285011261
H  H43  1  0.14190000  0.93540000  0.47160000  1.0 0.1198804532
H  H44  1  0.29460000  0.99350000  0.45300000  1.0 0.1285011261
H  H45  1  0.38300000  0.02120000  0.32650000  1.0 0.1285011261
H  H46  1  0.30580000  0.14060000  0.10200000  1.0 0.0886668384
H  H47  1  0.33180000  0.28830000  0.05340000  1.0 0.1198804532
H  H48  1  0.46780000  0.30660000  0.95040000  1.0 0.1198804532
H  H49  1  0.59960000  0.18270000  0.91020000  1.0 0.1198804532
H  H50  1  0.39080000  0.02070000  0.19220000  1.0 0.2845389962
C  C1  1  0.08970000  0.18232000  0.45722000  1.0 0.5713394403
C  C2  1  0.07890000  0.16505000  0.76017000  1.0 0.5891093135
C  C3  1  0.23720000  0.02036000  0.61698000  1.0 0.5713394403
C  C4  1  0.33020000  0.93598000  0.61899000  1.0 -0.0298935167
C  C5  1  0.08730000  0.18876000  0.36853000  1.0 -0.0298935167
C  C6  1  0.01650000  0.15010000  0.33926000  1.0 -0.0888243999
C  C7  1  0.94780000  0.32684000  0.60341000  1.0 0.5891093135
C  C8  1  0.44190000  0.93950000  0.59372000  1.0 -0.1182312585
C  C9  1  0.06970000  0.16660000  0.84871000  1.0 -0.0230453231
C  C10  1  0.85460000  0.41095000  0.60810000  1.0 -0.0298935167
C  C11  1  0.15810000  0.23170000  0.31523000  1.0 -0.0997136209
C  C12  1  0.74540000  0.40550000  0.63620000  1.0 -0.0888243999
C  C13  1  0.08830000  0.19600000  0.20579000  1.0 0.1590680674
C  C14  1  0.00220000  0.12090000  0.90204000  1.0 -0.0888243999
C  C15  1  0.50530000  0.78210000  0.61750000  1.0 0.1505163729
C  C16  1  0.15820000  0.23470000  0.23437000  1.0 -0.1583449158
C  C17  1  0.05500000  0.16780000  0.01107000  1.0 0.1590680674
C  C18  1  0.52660000  0.86300000  0.59340000  1.0 -0.1583449158
C  C19  1  0.87420000  0.49320000  0.58640000  1.0 -0.0796459719
C  C20  1  0.12060000  0.21530000  0.95850000  1.0 -0.1583449158
C  C21  1  0.01770000  0.15290000  0.25948000  1.0 -0.153125768
C  C22  1  0.39550000  0.77640000  0.64410000  1.0 -0.153125768
C  C23  1  0.13010000  0.21240000  0.87797000  1.0 -0.0888243999
C  C24  1  0.78690000  0.56990000  0.59110000  1.0 -0.1583449158
C  C25  1  0.30800000  0.85460000  0.64330000  1.0 -0.0997136209
C  C26  1  0.99540000  0.12120000  0.98200000  1.0 -0.1425731361
C  C27  1  0.68020000  0.56380000  0.61860000  1.0 0.1360929579
C  C28  1  0.65850000  0.48240000  0.64100000  1.0 -0.153125768
C  C29  1  0.81160000  0.05770000  0.71407000  1.0 -0.0080572215
C  C30  1  0.82280000  0.05410000  0.57987000  1.0 0.0700741828
C  C31  1  0.73150000  0.01930000  0.59054000  1.0 -0.1265917077
C  C32  1  0.67880000  0.00320000  0.66530000  1.0 -0.1425731361
C  C33  1  0.71820000  0.02340000  0.72855000  1.0 0.1809689224
C  C34  1  0.67680000  0.02910000  0.87450000  1.0 0.4544105649
C  C35  1  0.58630000  0.01280000  0.94010000  1.0 -0.1182312585
C  C36  1  0.57230000  0.92690000  0.96810000  1.0 0.0431606293
C  C37  1  0.48600000  0.91140000  0.02960000  1.0 0.0626399786
C  C38  1  0.63740000  0.85220000  0.93870000  1.0 -0.1765650391
C  C39  1  0.62220000  0.76020000  0.96810000  1.0 -0.111843995
C  C40  1  0.53940000  0.75030000  0.02710000  1.0 -0.0997136209
C  C41  1  0.46380000  0.82410000  0.05530000  1.0 -0.1583449158
C  C42  1  0.91030000  0.81768000  0.54278000  1.0 0.5713394403
C  C43  1  0.92110000  0.83495000  0.23983000  1.0 0.5891093135
C  C44  1  0.76280000  0.97964000  0.38302000  1.0 0.5713394403
C  C45  1  0.66980000  0.06402000  0.38101000  1.0 -0.0298935167
C  C46  1  0.91270000  0.81124000  0.63147000  1.0 -0.0298935167
C  C47  1  0.98350000  0.84990000  0.66074000  1.0 -0.0888243999
C  C48  1  0.05220000  0.67316000  0.39659000  1.0 0.5891093135
C  C49  1  0.55810000  0.06050000  0.40628000  1.0 -0.1182312585
C  C50  1  0.93030000  0.83340000  0.15129000  1.0 -0.0230453231
C  C51  1  0.14540000  0.58905000  0.39190000  1.0 -0.0298935167
C  C52  1  0.84190000  0.76830000  0.68477000  1.0 -0.0997136209
C  C53  1  0.25460000  0.59450000  0.36380000  1.0 -0.0888243999
C  C54  1  0.91170000  0.80400000  0.79421000  1.0 0.1590680674
C  C55  1  0.99780000  0.87910000  0.09796000  1.0 -0.0888243999
C  C56  1  0.49470000  0.21790000  0.38250000  1.0 0.1505163729
C  C57  1  0.84180000  0.76530000  0.76563000  1.0 -0.1583449158
C  C58  1  0.94500000  0.83220000  0.98893000  1.0 0.1590680674
C  C59  1  0.47340000  0.13700000  0.40660000  1.0 -0.1583449158
C  C60  1  0.12580000  0.50680000  0.41360000  1.0 -0.0796459719
C  C61  1  0.87940000  0.78470000  0.04150000  1.0 -0.1583449158
C  C62  1  0.98230000  0.84710000  0.74052000  1.0 -0.153125768
C  C63  1  0.60450000  0.22360000  0.35590000  1.0 -0.153125768
C  C64  1  0.86990000  0.78760000  0.12203000  1.0 -0.0888243999
C  C65  1  0.21310000  0.43010000  0.40890000  1.0 -0.1583449158
C  C66  1  0.69200000  0.14540000  0.35670000  1.0 -0.0997136209
C  C67  1  0.00460000  0.87880000  0.01800000  1.0 -0.1425731361
C  C68  1  0.31980000  0.43620000  0.38140000  1.0 0.1360929579
C  C69  1  0.34150000  0.51760000  0.35900000  1.0 -0.153125768
C  C70  1  0.18840000  0.94230000  0.28593000  1.0 -0.0080572215
C  C71  1  0.17720000  0.94590000  0.42013000  1.0 0.0700741828
C  C72  1  0.26850000  0.98070000  0.40946000  1.0 -0.1265917077
C  C73  1  0.32120000  0.99680000  0.33470000  1.0 -0.1425731361
C  C74  1  0.28180000  0.97660000  0.27145000  1.0 0.1809689224
C  C75  1  0.32320000  0.97090000  0.12550000  1.0 0.4544105649
C  C76  1  0.41370000  0.98720000  0.05990000  1.0 -0.1182312585
C  C77  1  0.42770000  0.07310000  0.03190000  1.0 0.0431606293
C  C78  1  0.51400000  0.08860000  0.97040000  1.0 0.0626399786
C  C79  1  0.36260000  0.14780000  0.06130000  1.0 -0.1765650391
C  C80  1  0.37780000  0.23980000  0.03190000  1.0 -0.111843995
C  C81  1  0.46060000  0.24970000  0.97290000  1.0 -0.0997136209
C  C82  1  0.53620000  0.17590000  0.94470000  1.0 -0.153125768
N  N1  1  0.86339000  0.07377000  0.63963000  1.0 -0.2039497673
N  N2  1  0.66090000  0.00690000  0.80468000  1.0 -0.3640875697
N  N3  1  0.57930000  0.63890000  0.62440000  1.0 -0.0746905833
N  N4  1  0.60300000  0.70700000  0.61350000  1.0 -0.111843995
N  N5  1  0.04150000  0.16360000  0.09653000  1.0 -0.0997136209
N  N6  1  0.09990000  0.20180000  0.12078000  1.0 -0.111843995
N  N7  1  0.13661000  0.92623000  0.36037000  1.0 -0.2039497673
N  N8  1  0.33910000  0.99310000  0.19532000  1.0 -0.3640875697
N  N9  1  0.42070000  0.36110000  0.37560000  1.0 -0.0746905833
N  N10  1  0.39700000  0.29300000  0.38650000  1.0 -0.111843995
N  N11  1  0.95850000  0.83640000  0.90347000  1.0 -0.0997136209
N  N12  1  0.90010000  0.79820000  0.87922000  1.0 -0.111843995
O  O1  1  0.13711000  0.01381000  0.62688000  1.0 -0.5304347455
O  O2  1  0.26648000  0.09081000  0.60485000  1.0 -0.5304347455
O  O3  1  0.01880000  0.12410000  0.73839000  1.0 -0.5304347455
O  O4  1  0.14430000  0.20440000  0.71600000  1.0 -0.5243060469
O  O5  1  0.02367000  0.14251000  0.50217000  1.0 -0.5410686413
O  O6  1  0.15677000  0.21647000  0.47968000  1.0 -0.5410686413
O  O7  1  0.91839000  0.25603000  0.61575000  1.0 -0.5410686413
O  O8  1  0.04708000  0.33451000  0.58764000  1.0 -0.5304347455
O  O9  1  0.74890000  0.06470000  0.88025000  1.0 -0.438314873
O  O10  1  0.86289000  0.98619000  0.37312000  1.0 -0.5304347455
O  O11  1  0.73352000  0.90919000  0.39515000  1.0 -0.5304347455
O  O12  1  0.98120000  0.87590000  0.26161000  1.0 -0.5304347455
O  O13  1  0.85570000  0.79560000  0.28400000  1.0 -0.5243060469
O  O14  1  0.97633000  0.85749000  0.49783000  1.0 -0.5410686413
O  O15  1  0.84323000  0.78353000  0.52032000  1.0 -0.5410686413
O  O16  1  0.08161000  0.74397000  0.38425000  1.0 -0.5410686413
O  O17  1  0.95292000  0.66549000  0.41236000  1.0 -0.5304347455
O  O18  1  0.25110000  0.93530000  0.11975000  1.0 -0.438314873
