# DDEC6 charges by PACMAN v1.1 (https://github.com/mtap-research/PACMAN-charge/)
data_FIQCEN_ASR_pacman
_symmetry_space_group_name_H-M   'P 1'
_cell_length_a   18.62730000
_cell_length_b   18.62730000
_cell_length_c   18.62730000
_cell_angle_alpha   60.00000000
_cell_angle_beta   60.00000000
_cell_angle_gamma   60.00000000
_symmetry_Int_Tables_number   1
_chemical_formula_structural   CuH2(C3O2)2
_chemical_formula_sum   'Cu12 H24 C72 O48'
_cell_volume   4570.19498574
_cell_formula_units_Z   12
loop_
 _symmetry_equiv_pos_site_id
 _symmetry_equiv_pos_as_xyz
  1  'x, y, z'
loop_
 _atom_site_type_symbol
 _atom_site_label
 _atom_site_symmetry_multiplicity
 _atom_site_fract_x
 _atom_site_fract_y
 _atom_site_fract_z
 _atom_site_occupancy
 _atom_site_charge
Cu  Cu1  1  0.00000000  0.42941000  0.00000000  1.0 0.8565400114
Cu  Cu2  1  0.42942000  0.00000000  0.00000000  1.0 0.8565400114
Cu  Cu3  1  0.57059000  0.00000000  0.42941000  1.0 0.8565400114
Cu  Cu4  1  0.00000000  0.00000000  0.42941000  1.0 0.8565400114
Cu  Cu5  1  0.42942000  0.00000000  0.57059000  1.0 0.8565400114
Cu  Cu6  1  0.00000000  0.57059000  0.42941000  1.0 0.8565400114
Cu  Cu7  1  0.42942000  0.57059000  0.00000000  1.0 0.8565400114
Cu  Cu8  1  0.00000000  0.42941000  0.57059000  1.0 0.8565400114
Cu  Cu9  1  0.00000000  0.57059000  0.00000000  1.0 0.8565400114
Cu  Cu10  1  0.00000000  0.00000000  0.57059000  1.0 0.8565400114
Cu  Cu11  1  0.57059000  0.00000000  0.00000000  1.0 0.8565400114
Cu  Cu12  1  0.57058000  0.42941000  0.00000000  1.0 0.8565400114
H  H1  1  0.03243000  0.51157000  0.72800000  1.0 0.1374423326
H  H2  1  0.27200000  0.27200000  0.96757000  1.0 0.1374423326
H  H3  1  0.72800000  0.72800000  0.51157000  1.0 0.1374423326
H  H4  1  0.72800000  0.03243000  0.51157000  1.0 0.1374423326
H  H5  1  0.51157000  0.03243000  0.72800000  1.0 0.1374423326
H  H6  1  0.96757000  0.48843000  0.27200000  1.0 0.1374423326
H  H7  1  0.27200000  0.48843000  0.27200000  1.0 0.1374423326
H  H8  1  0.27200000  0.27200000  0.48843000  1.0 0.1374423326
H  H9  1  0.72800000  0.72800000  0.03243000  1.0 0.1374423326
H  H10  1  0.03243000  0.72800000  0.72800000  1.0 0.1374423326
H  H11  1  0.48843000  0.96757000  0.27200000  1.0 0.1374423326
H  H12  1  0.48843000  0.27200000  0.96757000  1.0 0.1374423326
H  H13  1  0.72800000  0.51157000  0.03243000  1.0 0.1374423326
H  H14  1  0.96757000  0.27200000  0.48843000  1.0 0.1374423326
H  H15  1  0.51157000  0.72800000  0.72800000  1.0 0.1374423326
H  H16  1  0.27200000  0.96757000  0.27200000  1.0 0.1374423326
H  H17  1  0.51157000  0.72800000  0.03243000  1.0 0.1374423326
H  H18  1  0.27200000  0.96757000  0.48843000  1.0 0.1374423326
H  H19  1  0.48843000  0.27200000  0.27200000  1.0 0.1374423326
H  H20  1  0.72800000  0.03243000  0.72800000  1.0 0.1374423326
H  H21  1  0.27200000  0.48843000  0.96757000  1.0 0.1374423326
H  H22  1  0.03243000  0.72800000  0.51157000  1.0 0.1374423326
H  H23  1  0.72800000  0.51157000  0.72800000  1.0 0.1374423326
H  H24  1  0.96757000  0.27200000  0.27200000  1.0 0.1374423326
C  C1  1  0.38700000  0.38700000  0.96900000  1.0 -0.0316406834
C  C2  1  0.74300000  0.03100000  0.61300000  1.0 -0.0316406834
C  C3  1  0.25700000  0.96900000  0.38700000  1.0 -0.0316406834
C  C4  1  0.96900000  0.38700000  0.38700000  1.0 -0.0316406834
C  C5  1  0.38700000  0.38700000  0.25700000  1.0 -0.0316406834
C  C6  1  0.61300000  0.61300000  0.74300000  1.0 -0.0316406834
C  C7  1  0.74300000  0.61300000  0.03100000  1.0 -0.0316406834
C  C8  1  0.03100000  0.74300000  0.61300000  1.0 -0.0316406834
C  C9  1  0.96900000  0.25700000  0.38700000  1.0 -0.0316406834
C  C10  1  0.38700000  0.96900000  0.25700000  1.0 -0.0316406834
C  C11  1  0.61300000  0.61300000  0.03100000  1.0 -0.0316406834
C  C12  1  0.61300000  0.74300000  0.61300000  1.0 -0.0316406834
C  C13  1  0.25700000  0.38700000  0.38700000  1.0 -0.0316406834
C  C14  1  0.61300000  0.03100000  0.61300000  1.0 -0.0316406834
C  C15  1  0.38700000  0.25700000  0.96900000  1.0 -0.0316406834
C  C16  1  0.03100000  0.61300000  0.74300000  1.0 -0.0316406834
C  C17  1  0.38700000  0.96900000  0.38700000  1.0 -0.0316406834
C  C18  1  0.74300000  0.61300000  0.61300000  1.0 -0.0316406834
C  C19  1  0.61300000  0.03100000  0.74300000  1.0 -0.0316406834
C  C20  1  0.25700000  0.38700000  0.96900000  1.0 -0.0316406834
C  C21  1  0.03100000  0.61300000  0.61300000  1.0 -0.0316406834
C  C22  1  0.38700000  0.25700000  0.38700000  1.0 -0.0316406834
C  C23  1  0.96900000  0.38700000  0.25700000  1.0 -0.0316406834
C  C24  1  0.61300000  0.74300000  0.03100000  1.0 -0.0316406834
C  C25  1  0.02493000  0.83767000  0.56870000  1.0 0.5816858854
C  C26  1  0.43130000  0.43130000  0.97507000  1.0 0.5816858854
C  C27  1  0.56870000  0.56870000  0.83767000  1.0 0.5816858854
C  C28  1  0.56870000  0.02493000  0.83767000  1.0 0.5816858854
C  C29  1  0.83767000  0.02493000  0.56870000  1.0 0.5816858854
C  C30  1  0.97507000  0.16233000  0.43130000  1.0 0.5816858854
C  C31  1  0.43130000  0.16233000  0.43130000  1.0 0.5816858854
C  C32  1  0.43130000  0.43130000  0.16233000  1.0 0.5816858854
C  C33  1  0.56870000  0.56870000  0.02493000  1.0 0.5816858854
C  C34  1  0.02493000  0.56870000  0.56870000  1.0 0.5816858854
C  C35  1  0.16233000  0.97507000  0.43130000  1.0 0.5816858854
C  C36  1  0.16233000  0.43130000  0.97507000  1.0 0.5816858854
C  C37  1  0.56870000  0.83767000  0.02493000  1.0 0.5816858854
C  C38  1  0.97507000  0.43130000  0.16233000  1.0 0.5816858854
C  C39  1  0.83767000  0.56870000  0.56870000  1.0 0.5816858854
C  C40  1  0.43130000  0.97507000  0.43130000  1.0 0.5816858854
C  C41  1  0.83767000  0.56870000  0.02493000  1.0 0.5816858854
C  C42  1  0.43130000  0.97507000  0.16233000  1.0 0.5816858854
C  C43  1  0.16233000  0.43130000  0.43130000  1.0 0.5816858854
C  C44  1  0.56870000  0.02493000  0.56870000  1.0 0.5816858854
C  C45  1  0.43130000  0.16233000  0.97507000  1.0 0.5816858854
C  C46  1  0.02493000  0.56870000  0.83767000  1.0 0.5816858854
C  C47  1  0.56870000  0.83767000  0.56870000  1.0 0.5816858854
C  C48  1  0.97507000  0.43130000  0.43130000  1.0 0.5816858854
C  C49  1  0.30062000  0.43037000  0.96840000  1.0 -0.0839004018
C  C50  1  0.69939000  0.03160000  0.69939000  1.0 -0.0839004018
C  C51  1  0.30062000  0.96840000  0.43037000  1.0 -0.0839004018
C  C52  1  0.96840000  0.30062000  0.43037000  1.0 -0.0839004018
C  C53  1  0.43037000  0.30062000  0.30062000  1.0 -0.0839004018
C  C54  1  0.69939000  0.56963000  0.69939000  1.0 -0.0839004018
C  C55  1  0.69939000  0.56963000  0.03160000  1.0 -0.0853534544
C  C56  1  0.03160000  0.69939000  0.56963000  1.0 -0.0839004018
C  C57  1  0.96840000  0.30062000  0.30062000  1.0 -0.0839004018
C  C58  1  0.30062000  0.96840000  0.30062000  1.0 -0.0839004018
C  C59  1  0.56963000  0.69939000  0.03160000  1.0 -0.0853534544
C  C60  1  0.56963000  0.69939000  0.69939000  1.0 -0.0839004018
C  C61  1  0.30062000  0.43037000  0.30062000  1.0 -0.0839004018
C  C62  1  0.69939000  0.03160000  0.56963000  1.0 -0.0839004018
C  C63  1  0.43037000  0.30062000  0.96840000  1.0 -0.0839004018
C  C64  1  0.03160000  0.69939000  0.69939000  1.0 -0.0853534544
C  C65  1  0.43037000  0.96840000  0.30062000  1.0 -0.0839004018
C  C66  1  0.69939000  0.69939000  0.56963000  1.0 -0.0839004018
C  C67  1  0.56963000  0.03160000  0.69939000  1.0 -0.0839004018
C  C68  1  0.30061000  0.30062000  0.96840000  1.0 -0.0853534544
C  C69  1  0.03160000  0.56963000  0.69939000  1.0 -0.0839004018
C  C70  1  0.30061000  0.30062000  0.43037000  1.0 -0.0839004018
C  C71  1  0.96840000  0.43037000  0.30062000  1.0 -0.0839004018
C  C72  1  0.69939000  0.69939000  0.03160000  1.0 -0.0853534544
O  O1  1  0.02130000  0.87422000  0.49247000  1.0 -0.5145174691
O  O2  1  0.38799000  0.50753000  0.97870000  1.0 -0.5145174691
O  O3  1  0.61201000  0.49247000  0.87422000  1.0 -0.5160679189
O  O4  1  0.49247000  0.02130000  0.87422000  1.0 -0.5145174691
O  O5  1  0.87422000  0.02130000  0.61201000  1.0 -0.5160679189
O  O6  1  0.97870000  0.12578000  0.38799000  1.0 -0.5160679189
O  O7  1  0.38799000  0.12578000  0.50753000  1.0 -0.5160679189
O  O8  1  0.50753000  0.38799000  0.12578000  1.0 -0.5160679189
O  O9  1  0.49247000  0.61201000  0.02130000  1.0 -0.5160679189
O  O10  1  0.02130000  0.49247000  0.61201000  1.0 -0.5160679189
O  O11  1  0.12578000  0.97870000  0.50753000  1.0 -0.5160679189
O  O12  1  0.12578000  0.38799000  0.97870000  1.0 -0.5160679189
O  O13  1  0.61201000  0.87422000  0.02130000  1.0 -0.5145174691
O  O14  1  0.97870000  0.50753000  0.12578000  1.0 -0.5160679189
O  O15  1  0.87422000  0.61201000  0.49247000  1.0 -0.5160679189
O  O16  1  0.50753000  0.97870000  0.38799000  1.0 -0.5160679189
O  O17  1  0.87422000  0.49247000  0.02130000  1.0 -0.5145174691
O  O18  1  0.38799000  0.97870000  0.12578000  1.0 -0.5160679189
O  O19  1  0.12578000  0.50753000  0.38799000  1.0 -0.5160679189
O  O20  1  0.61201000  0.02130000  0.49247000  1.0 -0.5160679189
O  O21  1  0.50753000  0.12578000  0.97870000  1.0 -0.5160679189
O  O22  1  0.02130000  0.61201000  0.87422000  1.0 -0.5145174691
O  O23  1  0.49247000  0.87422000  0.61201000  1.0 -0.5160679189
O  O24  1  0.97870000  0.38799000  0.50753000  1.0 -0.5160679189
O  O25  1  0.97870000  0.12578000  0.50753000  1.0 -0.5160679189
O  O26  1  0.61201000  0.49247000  0.02130000  1.0 -0.5145174691
O  O27  1  0.38799000  0.50753000  0.12578000  1.0 -0.5160679189
O  O28  1  0.50753000  0.97870000  0.12578000  1.0 -0.5160679189
O  O29  1  0.12578000  0.97870000  0.38799000  1.0 -0.5160679189
O  O30  1  0.02130000  0.87422000  0.61201000  1.0 -0.5160679189
O  O31  1  0.61201000  0.87422000  0.49247000  1.0 -0.5160679189
O  O32  1  0.49247000  0.61201000  0.87422000  1.0 -0.5160679189
O  O33  1  0.50753000  0.38799000  0.97870000  1.0 -0.5160679189
O  O34  1  0.97870000  0.50753000  0.38799000  1.0 -0.5160679189
O  O35  1  0.87422000  0.02130000  0.49247000  1.0 -0.5160679189
O  O36  1  0.87422000  0.61201000  0.02130000  1.0 -0.5160679189
O  O37  1  0.38799000  0.12578000  0.97870000  1.0 -0.5160679189
O  O38  1  0.02130000  0.49247000  0.87422000  1.0 -0.5160679189
O  O39  1  0.12578000  0.38799000  0.50753000  1.0 -0.5160679189
O  O40  1  0.49247000  0.02130000  0.61201000  1.0 -0.5160679189
O  O41  1  0.12578000  0.50753000  0.97870000  1.0 -0.5160679189
O  O42  1  0.61201000  0.02130000  0.87422000  1.0 -0.5160679189
O  O43  1  0.87422000  0.49247000  0.61201000  1.0 -0.5145174691
O  O44  1  0.38799000  0.97870000  0.50753000  1.0 -0.5160679189
O  O45  1  0.49247000  0.87422000  0.02130000  1.0 -0.5145174691
O  O46  1  0.97870000  0.38799000  0.12578000  1.0 -0.5160679189
O  O47  1  0.50753000  0.12578000  0.38799000  1.0 -0.5160679189
O  O48  1  0.02130000  0.61201000  0.49247000  1.0 -0.5160679189
