# DDEC6 charges by PACMAN v1.1 (https://github.com/mtap-research/PACMAN-charge/)
data_FIQKIB_FSR_pacman
_symmetry_space_group_name_H-M   'P 1'
_cell_length_a   16.33090000
_cell_length_b   16.33090000
_cell_length_c   16.33090000
_cell_angle_alpha   144.25500000
_cell_angle_beta   110.03900000
_cell_angle_gamma   81.12530000
_symmetry_Int_Tables_number   1
_chemical_formula_structural   Ag3H38Rh2C18S6(NO4)6
_chemical_formula_sum   'Ag6 H76 Rh4 C36 S12 N12 O48'
_cell_volume   2328.66299031
_cell_formula_units_Z   2
loop_
 _symmetry_equiv_pos_site_id
 _symmetry_equiv_pos_as_xyz
  1  'x, y, z'
loop_
 _atom_site_type_symbol
 _atom_site_label
 _atom_site_symmetry_multiplicity
 _atom_site_fract_x
 _atom_site_fract_y
 _atom_site_fract_z
 _atom_site_occupancy
 _atom_site_charge
Ag  Ag1  1  0.17755000  0.33796000  0.58983000  1.0 0.2379018073
Ag  Ag2  1  0.74813000  0.58772000  0.41017000  1.0 0.2379018073
Ag  Ag3  1  0.82245000  0.41228000  0.16041000  1.0 0.2379018073
Ag  Ag4  1  0.25187000  0.66204000  0.83959000  1.0 0.2379018073
Ag  Ag5  1  0.07838000  0.50000000  0.57838000  1.0 0.1561394488
Ag  Ag6  1  0.92162000  0.50000000  0.42162000  1.0 0.1545929616
H  H1  1  0.06380000  0.31330000  0.00610000  1.0 0.2769155284
H  H2  1  0.30720000  0.05770000  0.99390000  1.0 0.2769155284
H  H3  1  0.93620000  0.94230000  0.24950000  1.0 0.2769155284
H  H4  1  0.69280000  0.68670000  0.75050000  1.0 0.2769155284
H  H5  1  0.53670000  0.88820000  0.94030000  1.0 0.2919313317
H  H6  1  0.94790000  0.59640000  0.05970000  1.0 0.2919313317
H  H7  1  0.46330000  0.40360000  0.35150000  1.0 0.2919313317
H  H8  1  0.05210000  0.11180000  0.64850000  1.0 0.2919313317
H  H9  1  0.24570000  0.14610000  0.22060000  1.0 0.2683850159
H  H10  1  0.92550000  0.02510000  0.77940000  1.0 0.2683850159
H  H11  1  0.75430000  0.97490000  0.90040000  1.0 0.2683850159
H  H12  1  0.07450000  0.85390000  0.09960000  1.0 0.2683850159
H  H13  1  0.32320000  0.20630000  0.24170000  1.0 0.2379018073
H  H14  1  0.96460000  0.08150000  0.75830000  1.0 0.2379018073
H  H15  1  0.67680000  0.91850000  0.88310000  1.0 0.2379018073
H  H16  1  0.03540000  0.79370000  0.11690000  1.0 0.2379018073
H  H17  1  0.25400000  0.53960000  0.43100000  1.0 0.2602332686
H  H18  1  0.10860000  0.82300000  0.56900000  1.0 0.2602332686
H  H19  1  0.74600000  0.17700000  0.28560000  1.0 0.2602332686
H  H20  1  0.89140000  0.46040000  0.71440000  1.0 0.2602332686
H  H21  1  0.30060000  0.42410000  0.33110000  1.0 0.2514665057
H  H22  1  0.09300000  0.96950000  0.66890000  1.0 0.2514665057
H  H23  1  0.69940000  0.03050000  0.12350000  1.0 0.2514665057
H  H24  1  0.90700000  0.57590000  0.87650000  1.0 0.2514665057
H  H25  1  0.45270000  0.49060000  0.61570000  1.0 0.2602332686
H  H26  1  0.87490000  0.83700000  0.38430000  1.0 0.2602332686
H  H27  1  0.54730000  0.16300000  0.03790000  1.0 0.2602332686
H  H28  1  0.12510000  0.50940000  0.96210000  1.0 0.2602332686
H  H29  1  0.43840000  0.45710000  0.49490000  1.0 0.2514665057
H  H30  1  0.96220000  0.94350000  0.50510000  1.0 0.2514665057
H  H31  1  0.56160000  0.05650000  0.01870000  1.0 0.2514665057
H  H32  1  0.03780000  0.54290000  0.98130000  1.0 0.2514665057
H  H33  1  0.36530000  0.16260000  0.46050000  1.0 0.1232576077
H  H34  1  0.70210000  0.90480000  0.53950000  1.0 0.1232576077
H  H35  1  0.63470000  0.09520000  0.79730000  1.0 0.1232576077
H  H36  1  0.29790000  0.83740000  0.20270000  1.0 0.1232576077
H  H37  1  0.26540000  0.11900000  0.35500000  1.0 0.1120846593
H  H38  1  0.76400000  0.91040000  0.64500000  1.0 0.1120846593
H  H39  1  0.73460000  0.08960000  0.85360000  1.0 0.1120846593
H  H40  1  0.23600000  0.88100000  0.14640000  1.0 0.1120846593
H  H41  1  0.42160000  0.23830000  0.40910000  1.0 0.0831794048
H  H42  1  0.82920000  0.01250000  0.59090000  1.0 0.0831794048
H  H43  1  0.57840000  0.98750000  0.81670000  1.0 0.0831794048
H  H44  1  0.17080000  0.76170000  0.18330000  1.0 0.0831794048
H  H45  1  0.04050000  0.31640000  0.20590000  1.0 0.1292032604
H  H46  1  0.11050000  0.83460000  0.79410000  1.0 0.1292032604
H  H47  1  0.95950000  0.16540000  0.27590000  1.0 0.1292032604
H  H48  1  0.88950000  0.68360000  0.72410000  1.0 0.1292032604
H  H49  1  0.09440000  0.48070000  0.36750000  1.0 0.1120846593
H  H50  1  0.11320000  0.72690000  0.63250000  1.0 0.1120846593
H  H51  1  0.90560000  0.27310000  0.38630000  1.0 0.1120846593
H  H52  1  0.88680000  0.51930000  0.61370000  1.0 0.1120846593
H  H53  1  0.17420000  0.24870000  0.15810000  1.0 0.0831794048
H  H54  1  0.09060000  0.01610000  0.84190000  1.0 0.0831794048
H  H55  1  0.82580000  0.98390000  0.07450000  1.0 0.0831794048
H  H56  1  0.90940000  0.75130000  0.92550000  1.0 0.0831794048
H  H57  1  0.40610000  0.83860000  0.87010000  1.0 0.0942404126
H  H58  1  0.96850000  0.53600000  0.12990000  1.0 0.0942404126
H  H59  1  0.59390000  0.46400000  0.43250000  1.0 0.0942404126
H  H60  1  0.03150000  0.16140000  0.56750000  1.0 0.0942404126
H  H61  1  0.42610000  0.72660000  0.85290000  1.0 0.1047801157
H  H62  1  0.87370000  0.57320000  0.14710000  1.0 0.1047801157
H  H63  1  0.57390000  0.42680000  0.30050000  1.0 0.1047801157
H  H64  1  0.12630000  0.27340000  0.69950000  1.0 0.1047801157
H  H65  1  0.40770000  0.67110000  0.63000000  1.0 0.0831794048
H  H66  1  0.04110000  0.77770000  0.37000000  1.0 0.0831794048
H  H67  1  0.59230000  0.22230000  0.26340000  1.0 0.0831794048
H  H68  1  0.95890000  0.32890000  0.73660000  1.0 0.0831794048
H  H69  1  0.43220000  0.89700000  0.18120000  1.0 0.3216877882
H  H70  1  0.71580000  0.25100000  0.81880000  1.0 0.3216877882
H  H71  1  0.56780000  0.74900000  0.46480000  1.0 0.3216877882
H  H72  1  0.28420000  0.10300000  0.53520000  1.0 0.3216877882
H  H73  1  0.63950000  0.67130000  0.73860000  1.0 0.2769155284
H  H74  1  0.93270000  0.90090000  0.26140000  1.0 0.2769155284
H  H75  1  0.36050000  0.09910000  0.03180000  1.0 0.2769155284
H  H76  1  0.06730000  0.32870000  0.96820000  1.0 0.2769155284
Rh  Rh1  1  0.28421000  0.41927000  0.47718000  1.0 0.5338725751
Rh  Rh2  1  0.94209000  0.80703000  0.52282000  1.0 0.5338725751
Rh  Rh3  1  0.71579000  0.19297000  0.13506000  1.0 0.5353374784
Rh  Rh4  1  0.05791000  0.58073000  0.86494000  1.0 0.5338725751
C  C1  1  0.32450000  0.18630000  0.42360000  1.0 -0.2183386033
C  C2  1  0.76270000  0.90090000  0.57640000  1.0 -0.2183386033
C  C3  1  0.67550000  0.09910000  0.86180000  1.0 -0.2183386033
C  C4  1  0.23730000  0.81370000  0.13820000  1.0 -0.2183386033
C  C5  1  0.36170000  0.17100000  0.33910000  1.0 0.0069762498
C  C6  1  0.83190000  0.02260000  0.66090000  1.0 0.0069762498
C  C7  1  0.63830000  0.97740000  0.80930000  1.0 0.0069762498
C  C8  1  0.16810000  0.82900000  0.19070000  1.0 0.0069762498
C  C9  1  0.37190000  0.01740000  0.20510000  1.0 0.478544422
C  C10  1  0.81230000  0.16680000  0.79490000  1.0 0.478544422
C  C11  1  0.62810000  0.83320000  0.64550000  1.0 0.478544422
C  C12  1  0.18770000  0.98260000  0.35450000  1.0 0.478544422
C  C13  1  0.09917000  0.37917000  0.29120000  1.0 -0.2183386033
C  C14  1  0.08797000  0.80797000  0.70880000  1.0 -0.2183386033
C  C15  1  0.90083000  0.19203000  0.28000000  1.0 -0.2183386033
C  C16  1  0.91203000  0.62083000  0.72000000  1.0 -0.2183386033
C  C17  1  0.17010000  0.35160000  0.23570000  1.0 -0.0327551029
C  C18  1  0.11590000  0.93440000  0.76430000  1.0 -0.0327551029
C  C19  1  0.82990000  0.06560000  0.18150000  1.0 -0.0327551029
C  C20  1  0.88410000  0.64840000  0.81850000  1.0 -0.0327551029
C  C21  1  0.14670000  0.38300000  0.16550000  1.0 0.4223454898
C  C22  1  0.21750000  0.98120000  0.83450000  1.0 0.4223454898
C  C23  1  0.85330000  0.01880000  0.23630000  1.0 0.4223454898
C  C24  1  0.78250000  0.61700000  0.76370000  1.0 0.4223454898
C  C25  1  0.39720000  0.73510000  0.79650000  1.0 -0.2585526849
C  C26  1  0.93860000  0.60070000  0.20350000  1.0 -0.2585526849
C  C27  1  0.60280000  0.39930000  0.33790000  1.0 -0.2585526849
C  C28  1  0.06140000  0.26490000  0.66210000  1.0 -0.2585526849
C  C29  1  0.43870000  0.65990000  0.68420000  1.0 -0.0858857459
C  C30  1  0.97570000  0.75450000  0.31580000  1.0 -0.0858857459
C  C31  1  0.56130000  0.24550000  0.22120000  1.0 -0.0858857459
C  C32  1  0.02430000  0.34010000  0.77880000  1.0 -0.0858857459
C  C33  1  0.53780000  0.72200000  0.75560000  1.0 0.4489183431
C  C34  1  0.96640000  0.78220000  0.24440000  1.0 0.4489183431
C  C35  1  0.46220000  0.21780000  0.18420000  1.0 0.4489183431
C  C36  1  0.03360000  0.27800000  0.81580000  1.0 0.4489183431
S  S1  1  0.31315000  0.37062000  0.58259000  1.0 -0.241363202
S  S2  1  0.78803000  0.73056000  0.41741000  1.0 -0.241363202
S  S3  1  0.68685000  0.26944000  0.05747000  1.0 -0.241363202
S  S4  1  0.21197000  0.62938000  0.94253000  1.0 -0.241363202
S  S5  1  0.13037000  0.34113000  0.37608000  1.0 -0.241363202
S  S6  1  0.96505000  0.75429000  0.62392000  1.0 -0.241363202
S  S7  1  0.86963000  0.24571000  0.21076000  1.0 -0.241363202
S  S8  1  0.03495000  0.65887000  0.78924000  1.0 -0.241363202
S  S9  1  0.27773000  0.65270000  0.69501000  1.0 -0.2703045862
S  S10  1  0.95769000  0.58272000  0.30499000  1.0 -0.2703045862
S  S11  1  0.72227000  0.41728000  0.37497000  1.0 -0.2703045862
S  S12  1  0.04231000  0.34730000  0.62503000  1.0 -0.2703045862
N  N1  1  0.30021000  0.21021000  0.28880000  1.0 -0.5132527421
N  N2  1  0.92141000  0.01141000  0.71120000  1.0 -0.5132527421
N  N3  1  0.69979000  0.98859000  0.91000000  1.0 -0.5132527421
N  N4  1  0.07859000  0.78979000  0.09000000  1.0 -0.5132527421
N  N5  1  0.25571000  0.44521000  0.36450000  1.0 -0.4895806457
N  N6  1  0.08071000  0.89121000  0.63550000  1.0 -0.4895806457
N  N7  1  0.74429000  0.10879000  0.18950000  1.0 -0.4895806457
N  N8  1  0.91929000  0.55479000  0.81050000  1.0 -0.4895806457
N  N9  1  0.42012000  0.50502000  0.57090000  1.0 -0.5132527421
N  N10  1  0.93412000  0.84922000  0.42910000  1.0 -0.5132527421
N  N11  1  0.57988000  0.15078000  0.08490000  1.0 -0.5132527421
N  N12  1  0.06588000  0.49498000  0.91510000  1.0 -0.5132527421
O  O1  1  0.31840000  0.93500000  0.07440000  1.0 -0.4269302482
O  O2  1  0.86060000  0.24400000  0.92560000  1.0 -0.4269302482
O  O3  1  0.68160000  0.75600000  0.61660000  1.0 -0.4269302482
O  O4  1  0.13940000  0.06500000  0.38340000  1.0 -0.4269302482
O  O5  1  0.43700000  0.98920000  0.24080000  1.0 -0.241363202
O  O6  1  0.74840000  0.19620000  0.75920000  1.0 -0.241363202
O  O7  1  0.56300000  0.80380000  0.55220000  1.0 -0.241363202
O  O8  1  0.25160000  0.01080000  0.44780000  1.0 -0.2469939287
O  O9  1  0.19660000  0.45320000  0.19340000  1.0 -0.1321800346
O  O10  1  0.25980000  0.00320000  0.80660000  1.0 -0.1321800346
O  O11  1  0.80340000  0.99680000  0.25660000  1.0 -0.1359669561
O  O12  1  0.74020000  0.54680000  0.74340000  1.0 -0.1321800346
O  O13  1  0.07460000  0.29260000  0.04140000  1.0 -0.241363202
O  O14  1  0.25120000  0.03320000  0.95860000  1.0 -0.241363202
O  O15  1  0.92540000  0.96680000  0.21800000  1.0 -0.241363202
O  O16  1  0.74880000  0.70740000  0.78200000  1.0 -0.241363202
O  O17  1  0.57990000  0.64610000  0.67420000  1.0 -0.1011651247
O  O18  1  0.97190000  0.90570000  0.32580000  1.0 -0.1011651247
O  O19  1  0.42010000  0.09430000  0.06620000  1.0 -0.1011651247
O  O20  1  0.02810000  0.35390000  0.93380000  1.0 -0.1011651247
O  O21  1  0.57550000  0.85220000  0.90130000  1.0 -0.2183386033
O  O22  1  0.95090000  0.67420000  0.09870000  1.0 -0.2183386033
O  O23  1  0.42450000  0.32580000  0.27670000  1.0 -0.2183386033
O  O24  1  0.04910000  0.14780000  0.72330000  1.0 -0.2183386033
O  O25  1  0.34240000  0.94180000  0.08160000  1.0 -0.3659248049
O  O26  1  0.86020000  0.26080000  0.91840000  1.0 -0.3659248049
O  O27  1  0.65760000  0.73920000  0.59940000  1.0 -0.3659248049
O  O28  1  0.13980000  0.05820000  0.40060000  1.0 -0.3659248049
O  O29  1  0.42660000  0.98170000  0.25530000  1.0 -0.2703045862
O  O30  1  0.72640000  0.17130000  0.74470000  1.0 -0.2703045862
O  O31  1  0.57340000  0.82870000  0.55510000  1.0 -0.2703045862
O  O32  1  0.27360000  0.01830000  0.44490000  1.0 -0.2703045862
O  O33  1  0.17120000  0.50950000  0.24790000  1.0 -0.2585526849
O  O34  1  0.26160000  0.92330000  0.75210000  1.0 -0.2585526849
O  O35  1  0.82880000  0.07670000  0.33830000  1.0 -0.2585526849
O  O36  1  0.73840000  0.49050000  0.66170000  1.0 -0.2585526849
O  O37  1  0.10020000  0.28530000  0.03330000  1.0 -0.1775463256
O  O38  1  0.25200000  0.06690000  0.96670000  1.0 -0.1775463256
O  O39  1  0.89980000  0.93310000  0.18510000  1.0 -0.1775463256
O  O40  1  0.74800000  0.71470000  0.81490000  1.0 -0.1775463256
O  O41  1  0.58580000  0.62930000  0.69330000  1.0 -0.1488115559
O  O42  1  0.93600000  0.89250000  0.30670000  1.0 -0.1488115559
O  O43  1  0.41420000  0.10750000  0.04350000  1.0 -0.1488115559
O  O44  1  0.06400000  0.37070000  0.95650000  1.0 -0.1488115559
O  O45  1  0.56880000  0.85280000  0.86760000  1.0 -0.1611110489
O  O46  1  0.98520000  0.70120000  0.13240000  1.0 -0.1611110489
O  O47  1  0.43120000  0.29880000  0.28400000  1.0 -0.1611110489
O  O48  1  0.01480000  0.14720000  0.71600000  1.0 -0.1611110489
