# DDEC6 charges by PACMAN v1.1 (https://github.com/mtap-research/PACMAN-charge/)
data_FIRZOX_FSR_pacman
_symmetry_space_group_name_H-M   'P 1'
_cell_length_a   15.52150000
_cell_length_b   15.52150000
_cell_length_c   13.84880000
_cell_angle_alpha   90.00000000
_cell_angle_beta   90.00000000
_cell_angle_gamma   120.00000000
_symmetry_Int_Tables_number   1
_chemical_formula_structural   Ce2Cu3H33(C12O17)2
_chemical_formula_sum   'Ce4 Cu6 H66 C48 O68'
_cell_volume   2889.41653348
_cell_formula_units_Z   2
loop_
 _symmetry_equiv_pos_site_id
 _symmetry_equiv_pos_as_xyz
  1  'x, y, z'
loop_
 _atom_site_type_symbol
 _atom_site_label
 _atom_site_symmetry_multiplicity
 _atom_site_fract_x
 _atom_site_fract_y
 _atom_site_fract_z
 _atom_site_occupancy
 _atom_site_charge
Ce  Ce1  1  0.33333333  0.66666667  0.03382000  1.0 1.8283801634
Ce  Ce2  1  0.33333333  0.66666667  0.46618000  1.0 1.8283801634
Ce  Ce3  1  0.66666667  0.33333333  0.96618000  1.0 1.8283801634
Ce  Ce4  1  0.66666667  0.33333333  0.53382000  1.0 1.8283801634
Cu  Cu1  1  0.49823000  0.47392000  0.25000000  1.0 0.9147639233
Cu  Cu2  1  0.52608000  0.02431000  0.25000000  1.0 0.9147639233
Cu  Cu3  1  0.97569000  0.50177000  0.25000000  1.0 0.9152896363
Cu  Cu4  1  0.47392000  0.49823000  0.75000000  1.0 0.9147639233
Cu  Cu5  1  0.02431000  0.52608000  0.75000000  1.0 0.9147639233
Cu  Cu6  1  0.50177000  0.97569000  0.75000000  1.0 0.9147639233
H  H1  1  0.37770000  0.65140000  0.25000000  1.0 0.31325921
H  H2  1  0.34860000  0.72630000  0.25000000  1.0 0.31325921
H  H3  1  0.27370000  0.62230000  0.25000000  1.0 0.31325921
H  H4  1  0.65140000  0.37770000  0.75000000  1.0 0.31325921
H  H5  1  0.72630000  0.34860000  0.75000000  1.0 0.31325921
H  H6  1  0.62230000  0.27370000  0.75000000  1.0 0.31325921
H  H7  1  0.53010000  0.31740000  0.20940000  1.0 0.2606139738
H  H8  1  0.68260000  0.21270000  0.20940000  1.0 0.2606139738
H  H9  1  0.78730000  0.46990000  0.20940000  1.0 0.2606139738
H  H10  1  0.53010000  0.31740000  0.29060000  1.0 0.2606139738
H  H11  1  0.68260000  0.21270000  0.29060000  1.0 0.2606139738
H  H12  1  0.78730000  0.46990000  0.29060000  1.0 0.2606139738
H  H13  1  0.31740000  0.53010000  0.79060000  1.0 0.2606139738
H  H14  1  0.21270000  0.68260000  0.79060000  1.0 0.2606139738
H  H15  1  0.46990000  0.78730000  0.79060000  1.0 0.2606139738
H  H16  1  0.31740000  0.53010000  0.70940000  1.0 0.2606139738
H  H17  1  0.21270000  0.68260000  0.70940000  1.0 0.2606139738
H  H18  1  0.46990000  0.78730000  0.70940000  1.0 0.2606139738
H  H19  1  0.28570000  0.38460000  0.99600000  1.0 0.1383619156
H  H20  1  0.61540000  0.90110000  0.99600000  1.0 0.1383619156
H  H21  1  0.09890000  0.71430000  0.99600000  1.0 0.1383619156
H  H22  1  0.28570000  0.38460000  0.50400000  1.0 0.1383619156
H  H23  1  0.61540000  0.90110000  0.50400000  1.0 0.1383619156
H  H24  1  0.09890000  0.71430000  0.50400000  1.0 0.1383619156
H  H25  1  0.38460000  0.28570000  0.00400000  1.0 0.1383619156
H  H26  1  0.90110000  0.61540000  0.00400000  1.0 0.1383619156
H  H27  1  0.71430000  0.09890000  0.00400000  1.0 0.1383619156
H  H28  1  0.38460000  0.28570000  0.49600000  1.0 0.1383619156
H  H29  1  0.90110000  0.61540000  0.49600000  1.0 0.1383619156
H  H30  1  0.71430000  0.09890000  0.49600000  1.0 0.1383619156
H  H31  1  0.21810000  0.35670000  0.08850000  1.0 0.1383619156
H  H32  1  0.64330000  0.86140000  0.08850000  1.0 0.1383619156
H  H33  1  0.13860000  0.78190000  0.08850000  1.0 0.1383619156
H  H34  1  0.21810000  0.35670000  0.41150000  1.0 0.1383619156
H  H35  1  0.64330000  0.86140000  0.41150000  1.0 0.1383619156
H  H36  1  0.13860000  0.78190000  0.41150000  1.0 0.1383619156
H  H37  1  0.35670000  0.21810000  0.91150000  1.0 0.1383619156
H  H38  1  0.86140000  0.64330000  0.91150000  1.0 0.1383619156
H  H39  1  0.78190000  0.13860000  0.91150000  1.0 0.1383619156
H  H40  1  0.35670000  0.21810000  0.58850000  1.0 0.1383619156
H  H41  1  0.86140000  0.64330000  0.58850000  1.0 0.1383619156
H  H42  1  0.78190000  0.13860000  0.58850000  1.0 0.1383619156
H  H43  1  0.08800000  0.39320000  0.01010000  1.0 0.1383619156
H  H44  1  0.60680000  0.69480000  0.01010000  1.0 0.1383619156
H  H45  1  0.30520000  0.91200000  0.01010000  1.0 0.1383619156
H  H46  1  0.08800000  0.39320000  0.48990000  1.0 0.1383619156
H  H47  1  0.60680000  0.69480000  0.48990000  1.0 0.1383619156
H  H48  1  0.30520000  0.91200000  0.48990000  1.0 0.1383619156
H  H49  1  0.39320000  0.08800000  0.98990000  1.0 0.1383619156
H  H50  1  0.69480000  0.60680000  0.98990000  1.0 0.1383619156
H  H51  1  0.91200000  0.30520000  0.98990000  1.0 0.1383619156
H  H52  1  0.39320000  0.08800000  0.51010000  1.0 0.1383619156
H  H53  1  0.69480000  0.60680000  0.51010000  1.0 0.1383619156
H  H54  1  0.91200000  0.30520000  0.51010000  1.0 0.1383619156
H  H55  1  0.14490000  0.37220000  0.92800000  1.0 0.1383619156
H  H56  1  0.62780000  0.77270000  0.92800000  1.0 0.1383619156
H  H57  1  0.22730000  0.85510000  0.92800000  1.0 0.1383619156
H  H58  1  0.14490000  0.37220000  0.57200000  1.0 0.1383619156
H  H59  1  0.62780000  0.77270000  0.57200000  1.0 0.1383619156
H  H60  1  0.22730000  0.85510000  0.57200000  1.0 0.1383619156
H  H61  1  0.37220000  0.14490000  0.07200000  1.0 0.1383619156
H  H62  1  0.77270000  0.62780000  0.07200000  1.0 0.1383619156
H  H63  1  0.85510000  0.22730000  0.07200000  1.0 0.1383619156
H  H64  1  0.37220000  0.14490000  0.42800000  1.0 0.1383619156
H  H65  1  0.77270000  0.62780000  0.42800000  1.0 0.1383619156
H  H66  1  0.85510000  0.22730000  0.42800000  1.0 0.1383619156
C  C1  1  0.26900000  0.41160000  0.05140000  1.0 -0.1690677172
C  C2  1  0.58840000  0.85740000  0.05140000  1.0 -0.1690677172
C  C3  1  0.14260000  0.73100000  0.05140000  1.0 -0.1690677172
C  C4  1  0.26900000  0.41160000  0.44860000  1.0 -0.1690677172
C  C5  1  0.58840000  0.85740000  0.44860000  1.0 -0.1690677172
C  C6  1  0.14260000  0.73100000  0.44860000  1.0 -0.1690677172
C  C7  1  0.41160000  0.26900000  0.94860000  1.0 -0.1690677172
C  C8  1  0.85740000  0.58840000  0.94860000  1.0 -0.1690677172
C  C9  1  0.73100000  0.14260000  0.94860000  1.0 -0.1690677172
C  C10  1  0.41160000  0.26900000  0.55140000  1.0 -0.1690677172
C  C11  1  0.85740000  0.58840000  0.55140000  1.0 -0.1690677172
C  C12  1  0.73100000  0.14260000  0.55140000  1.0 -0.1690677172
C  C13  1  0.36120000  0.47190000  0.11370000  1.0 0.6122482378
C  C14  1  0.52810000  0.88930000  0.11370000  1.0 0.6122482378
C  C15  1  0.11070000  0.63880000  0.11370000  1.0 0.6122482378
C  C16  1  0.36120000  0.47190000  0.38630000  1.0 0.6122482378
C  C17  1  0.52810000  0.88930000  0.38630000  1.0 0.6122482378
C  C18  1  0.11070000  0.63880000  0.38630000  1.0 0.6122482378
C  C19  1  0.47190000  0.36120000  0.88630000  1.0 0.6122482378
C  C20  1  0.88930000  0.52810000  0.88630000  1.0 0.6122482378
C  C21  1  0.63880000  0.11070000  0.88630000  1.0 0.6122482378
C  C22  1  0.47190000  0.36120000  0.61370000  1.0 0.6122482378
C  C23  1  0.88930000  0.52810000  0.61370000  1.0 0.6122482378
C  C24  1  0.63880000  0.11070000  0.61370000  1.0 0.6122482378
C  C25  1  0.14450000  0.42410000  0.96660000  1.0 -0.1854595434
C  C26  1  0.57590000  0.72040000  0.96660000  1.0 -0.1854595434
C  C27  1  0.27960000  0.85550000  0.96660000  1.0 -0.1854595434
C  C28  1  0.14450000  0.42410000  0.53340000  1.0 -0.1854595434
C  C29  1  0.57590000  0.72040000  0.53340000  1.0 -0.1854595434
C  C30  1  0.27960000  0.85550000  0.53340000  1.0 -0.1854595434
C  C31  1  0.42410000  0.14450000  0.03340000  1.0 -0.1854595434
C  C32  1  0.72040000  0.57590000  0.03340000  1.0 -0.1854595434
C  C33  1  0.85550000  0.27960000  0.03340000  1.0 -0.1854595434
C  C34  1  0.42410000  0.14450000  0.46660000  1.0 -0.1854595434
C  C35  1  0.72040000  0.57590000  0.46660000  1.0 -0.1854595434
C  C36  1  0.85550000  0.27960000  0.46660000  1.0 -0.1854595434
C  C37  1  0.13520000  0.49700000  0.90180000  1.0 0.6159827321
C  C38  1  0.50300000  0.63820000  0.90180000  1.0 0.6159827321
C  C39  1  0.36180000  0.86480000  0.90180000  1.0 0.6159827321
C  C40  1  0.13520000  0.49700000  0.59820000  1.0 0.6159827321
C  C41  1  0.50300000  0.63820000  0.59820000  1.0 0.6159827321
C  C42  1  0.36180000  0.86480000  0.59820000  1.0 0.6159827321
C  C43  1  0.49700000  0.13520000  0.09820000  1.0 0.6159827321
C  C44  1  0.63820000  0.50300000  0.09820000  1.0 0.6159827321
C  C45  1  0.86480000  0.36180000  0.09820000  1.0 0.6159827321
C  C46  1  0.49700000  0.13520000  0.40180000  1.0 0.6159827321
C  C47  1  0.63820000  0.50300000  0.40180000  1.0 0.6159827321
C  C48  1  0.86480000  0.36180000  0.40180000  1.0 0.6159827321
O  O1  1  0.33333333  0.66666667  0.25000000  1.0 -0.6124374908
O  O2  1  0.66666667  0.33333333  0.75000000  1.0 -0.6124374908
O  O3  1  0.39511000  0.56392000  0.12086000  1.0 -0.6284848493
O  O4  1  0.43608000  0.83119000  0.12086000  1.0 -0.6284848493
O  O5  1  0.16881000  0.60489000  0.12086000  1.0 -0.6284848493
O  O6  1  0.39511000  0.56392000  0.37914000  1.0 -0.6284848493
O  O7  1  0.43608000  0.83119000  0.37914000  1.0 -0.6284848493
O  O8  1  0.16881000  0.60489000  0.37914000  1.0 -0.6284848493
O  O9  1  0.56392000  0.39511000  0.87914000  1.0 -0.6284848493
O  O10  1  0.83119000  0.43608000  0.87914000  1.0 -0.6284848493
O  O11  1  0.60489000  0.16881000  0.87914000  1.0 -0.6284848493
O  O12  1  0.56392000  0.39511000  0.62086000  1.0 -0.6284848493
O  O13  1  0.83119000  0.43608000  0.62086000  1.0 -0.6284848493
O  O14  1  0.60489000  0.16881000  0.62086000  1.0 -0.6284848493
O  O15  1  0.39530000  0.42280000  0.15215000  1.0 -0.5212194365
O  O16  1  0.57720000  0.97250000  0.15215000  1.0 -0.5212194365
O  O17  1  0.02750000  0.60470000  0.15215000  1.0 -0.5212194365
O  O18  1  0.39530000  0.42280000  0.34785000  1.0 -0.5212194365
O  O19  1  0.57720000  0.97250000  0.34785000  1.0 -0.5212194365
O  O20  1  0.02750000  0.60470000  0.34785000  1.0 -0.5212194365
O  O21  1  0.42280000  0.39530000  0.84785000  1.0 -0.5212194365
O  O22  1  0.97250000  0.57720000  0.84785000  1.0 -0.5212194365
O  O23  1  0.60470000  0.02750000  0.84785000  1.0 -0.5212194365
O  O24  1  0.42280000  0.39530000  0.65215000  1.0 -0.5212194365
O  O25  1  0.97250000  0.57720000  0.65215000  1.0 -0.5212194365
O  O26  1  0.60470000  0.02750000  0.65215000  1.0 -0.5212194365
O  O27  1  0.23350000  0.47401000  0.02063000  1.0 -0.2042151842
O  O28  1  0.52599000  0.75949000  0.02063000  1.0 -0.2042151842
O  O29  1  0.24051000  0.76650000  0.02063000  1.0 -0.2042151842
O  O30  1  0.23350000  0.47401000  0.47937000  1.0 -0.2042151842
O  O31  1  0.52599000  0.75949000  0.47937000  1.0 -0.2042151842
O  O32  1  0.24051000  0.76650000  0.47937000  1.0 -0.2042151842
O  O33  1  0.47401000  0.23350000  0.97937000  1.0 -0.2042151842
O  O34  1  0.75949000  0.52599000  0.97937000  1.0 -0.2042151842
O  O35  1  0.76650000  0.24051000  0.97937000  1.0 -0.2042151842
O  O36  1  0.47401000  0.23350000  0.52063000  1.0 -0.2042151842
O  O37  1  0.75949000  0.52599000  0.52063000  1.0 -0.2042151842
O  O38  1  0.76650000  0.24051000  0.52063000  1.0 -0.2042151842
O  O39  1  0.20174000  0.58602000  0.90466000  1.0 -0.5835890811
O  O40  1  0.41398000  0.61572000  0.90466000  1.0 -0.5835890811
O  O41  1  0.38428000  0.79826000  0.90466000  1.0 -0.5835890811
O  O42  1  0.20174000  0.58602000  0.59534000  1.0 -0.5835890811
O  O43  1  0.41398000  0.61572000  0.59534000  1.0 -0.5835890811
O  O44  1  0.38428000  0.79826000  0.59534000  1.0 -0.5835890811
O  O45  1  0.58602000  0.20174000  0.09534000  1.0 -0.5835890811
O  O46  1  0.61572000  0.41398000  0.09534000  1.0 -0.5835890811
O  O47  1  0.79826000  0.38428000  0.09534000  1.0 -0.5835890811
O  O48  1  0.58602000  0.20174000  0.40466000  1.0 -0.5835890811
O  O49  1  0.61572000  0.41398000  0.40466000  1.0 -0.5835890811
O  O50  1  0.79826000  0.38428000  0.40466000  1.0 -0.5835890811
O  O51  1  0.06006000  0.45897000  0.84870000  1.0 -0.5378204029
O  O52  1  0.54103000  0.60109000  0.84870000  1.0 -0.5378204029
O  O53  1  0.39891000  0.93994000  0.84870000  1.0 -0.5378204029
O  O54  1  0.06006000  0.45897000  0.65130000  1.0 -0.5378204029
O  O55  1  0.54103000  0.60109000  0.65130000  1.0 -0.5378204029
O  O56  1  0.39891000  0.93994000  0.65130000  1.0 -0.5378204029
O  O57  1  0.45897000  0.06006000  0.15130000  1.0 -0.5378204029
O  O58  1  0.60109000  0.54103000  0.15130000  1.0 -0.5378204029
O  O59  1  0.93994000  0.39891000  0.15130000  1.0 -0.5378204029
O  O60  1  0.45897000  0.06006000  0.34870000  1.0 -0.5378204029
O  O61  1  0.60109000  0.54103000  0.34870000  1.0 -0.5378204029
O  O62  1  0.93994000  0.39891000  0.34870000  1.0 -0.5378204029
O  O63  1  0.49140000  0.31700000  0.25000000  1.0 -0.6677578133
O  O64  1  0.68300000  0.17440000  0.25000000  1.0 -0.6677578133
O  O65  1  0.82560000  0.50860000  0.25000000  1.0 -0.6677578133
O  O66  1  0.31700000  0.49140000  0.75000000  1.0 -0.6677578133
O  O67  1  0.17440000  0.68300000  0.75000000  1.0 -0.6677578133
O  O68  1  0.50860000  0.82560000  0.75000000  1.0 -0.6677578133
