# DDEC6 charges by PACMAN v1.1 (https://github.com/mtap-research/PACMAN-charge/)
data_FISCUI_FSR_pacman
_symmetry_space_group_name_H-M   'P 1'
_cell_length_a   17.87980000
_cell_length_b   17.87980000
_cell_length_c   17.87980000
_cell_angle_alpha   90.00000000
_cell_angle_beta   90.00000000
_cell_angle_gamma   90.00000000
_symmetry_Int_Tables_number   1
_chemical_formula_structural   Hf3(C3O4)4
_chemical_formula_sum   'Hf24 C96 O128'
_cell_volume   5715.94405751
_cell_formula_units_Z   8
loop_
 _symmetry_equiv_pos_site_id
 _symmetry_equiv_pos_as_xyz
  1  'x, y, z'
loop_
 _atom_site_type_symbol
 _atom_site_label
 _atom_site_symmetry_multiplicity
 _atom_site_fract_x
 _atom_site_fract_y
 _atom_site_fract_z
 _atom_site_occupancy
 _atom_site_charge
Hf  Hf1  1  0.11192000  0.25990000  0.75800000  1.0 1.5385739499
Hf  Hf2  1  0.88808000  0.74010000  0.75800000  1.0 1.5385739499
Hf  Hf3  1  0.88808000  0.25990000  0.24200000  1.0 1.5335988381
Hf  Hf4  1  0.11192000  0.74010000  0.24200000  1.0 1.5335988381
Hf  Hf5  1  0.75800000  0.11192000  0.25990000  1.0 1.5385739499
Hf  Hf6  1  0.75800000  0.88808000  0.74010000  1.0 1.5335988381
Hf  Hf7  1  0.24200000  0.88808000  0.25990000  1.0 1.5335988381
Hf  Hf8  1  0.24200000  0.11192000  0.74010000  1.0 1.5385739499
Hf  Hf9  1  0.25990000  0.75800000  0.11192000  1.0 1.5335988381
Hf  Hf10  1  0.74010000  0.75800000  0.88808000  1.0 1.5385739499
Hf  Hf11  1  0.25990000  0.24200000  0.88808000  1.0 1.5385739499
Hf  Hf12  1  0.74010000  0.24200000  0.11192000  1.0 1.5335988381
Hf  Hf13  1  0.38808000  0.24010000  0.74200000  1.0 1.5385739499
Hf  Hf14  1  0.61192000  0.75990000  0.74200000  1.0 1.5463372083
Hf  Hf15  1  0.61192000  0.24010000  0.25800000  1.0 1.5385739499
Hf  Hf16  1  0.38808000  0.75990000  0.25800000  1.0 1.5335988381
Hf  Hf17  1  0.74200000  0.38808000  0.24010000  1.0 1.5335988381
Hf  Hf18  1  0.74200000  0.61192000  0.75990000  1.0 1.5463372083
Hf  Hf19  1  0.25800000  0.61192000  0.24010000  1.0 1.5385739499
Hf  Hf20  1  0.25800000  0.38808000  0.75990000  1.0 1.5385739499
Hf  Hf21  1  0.24010000  0.74200000  0.38808000  1.0 1.5335988381
Hf  Hf22  1  0.75990000  0.74200000  0.61192000  1.0 1.5463372083
Hf  Hf23  1  0.24010000  0.25800000  0.61192000  1.0 1.5463372083
Hf  Hf24  1  0.75990000  0.25800000  0.38808000  1.0 1.5385739499
C  C1  1  0.08300000  0.43400000  0.76500000  1.0 0.6765786546
C  C2  1  0.03700000  0.50500000  0.77200000  1.0 -0.0026264532
C  C3  1  0.06600000  0.08700000  0.73200000  1.0 0.6884282608
C  C4  1  0.99700000  0.03700000  0.73400000  1.0 -0.0259965063
C  C5  1  0.91700000  0.56600000  0.76500000  1.0 0.6765786546
C  C6  1  0.96300000  0.49500000  0.77200000  1.0 -0.0026264532
C  C7  1  0.93400000  0.91300000  0.73200000  1.0 0.6884282608
C  C8  1  0.00300000  0.96300000  0.73400000  1.0 -0.0259965063
C  C9  1  0.91700000  0.43400000  0.23500000  1.0 0.6765786546
C  C10  1  0.96300000  0.50500000  0.22800000  1.0 -0.0026264532
C  C11  1  0.93400000  0.08700000  0.26800000  1.0 0.6884282608
C  C12  1  0.00300000  0.03700000  0.26600000  1.0 -0.0259965063
C  C13  1  0.08300000  0.56600000  0.23500000  1.0 0.6765786546
C  C14  1  0.03700000  0.49500000  0.22800000  1.0 -0.0026264532
C  C15  1  0.06600000  0.91300000  0.26800000  1.0 0.6884282608
C  C16  1  0.99700000  0.96300000  0.26600000  1.0 -0.0259965063
C  C17  1  0.76500000  0.08300000  0.43400000  1.0 0.6765786546
C  C18  1  0.77200000  0.03700000  0.50500000  1.0 -0.0026264532
C  C19  1  0.73200000  0.06600000  0.08700000  1.0 0.6884282608
C  C20  1  0.73400000  0.99700000  0.03700000  1.0 -0.0259965063
C  C21  1  0.76500000  0.91700000  0.56600000  1.0 0.6765786546
C  C22  1  0.77200000  0.96300000  0.49500000  1.0 -0.0026264532
C  C23  1  0.73200000  0.93400000  0.91300000  1.0 0.6884282608
C  C24  1  0.73400000  0.00300000  0.96300000  1.0 -0.0259965063
C  C25  1  0.23500000  0.91700000  0.43400000  1.0 0.6765786546
C  C26  1  0.22800000  0.96300000  0.50500000  1.0 -0.0026264532
C  C27  1  0.26800000  0.93400000  0.08700000  1.0 0.6884282608
C  C28  1  0.26600000  0.00300000  0.03700000  1.0 -0.0259965063
C  C29  1  0.23500000  0.08300000  0.56600000  1.0 0.6765786546
C  C30  1  0.22800000  0.03700000  0.49500000  1.0 -0.0026264532
C  C31  1  0.26800000  0.06600000  0.91300000  1.0 0.6884282608
C  C32  1  0.26600000  0.99700000  0.96300000  1.0 -0.0259965063
C  C33  1  0.43400000  0.76500000  0.08300000  1.0 0.6765786546
C  C34  1  0.50500000  0.77200000  0.03700000  1.0 -0.0026264532
C  C35  1  0.08700000  0.73200000  0.06600000  1.0 0.6884282608
C  C36  1  0.03700000  0.73400000  0.99700000  1.0 -0.0259965063
C  C37  1  0.56600000  0.76500000  0.91700000  1.0 0.6765786546
C  C38  1  0.49500000  0.77200000  0.96300000  1.0 -0.0026264532
C  C39  1  0.91300000  0.73200000  0.93400000  1.0 0.6884282608
C  C40  1  0.96300000  0.73400000  0.00300000  1.0 -0.0259965063
C  C41  1  0.43400000  0.23500000  0.91700000  1.0 0.6765786546
C  C42  1  0.50500000  0.22800000  0.96300000  1.0 -0.0026264532
C  C43  1  0.08700000  0.26800000  0.93400000  1.0 0.6884282608
C  C44  1  0.03700000  0.26600000  0.00300000  1.0 -0.0259965063
C  C45  1  0.56600000  0.23500000  0.08300000  1.0 0.6765786546
C  C46  1  0.49500000  0.22800000  0.03700000  1.0 -0.0026264532
C  C47  1  0.91300000  0.26800000  0.06600000  1.0 0.6884282608
C  C48  1  0.96300000  0.26600000  0.99700000  1.0 -0.0259965063
C  C49  1  0.41700000  0.06600000  0.73500000  1.0 0.6765786546
C  C50  1  0.46300000  0.99500000  0.72800000  1.0 -0.0026264532
C  C51  1  0.43400000  0.41300000  0.76800000  1.0 0.6884282608
C  C52  1  0.50300000  0.46300000  0.76600000  1.0 -0.0238732168
C  C53  1  0.58300000  0.93400000  0.73500000  1.0 0.6765786546
C  C54  1  0.53700000  0.00500000  0.72800000  1.0 -0.0026264532
C  C55  1  0.56600000  0.58700000  0.76800000  1.0 0.6954638275
C  C56  1  0.49700000  0.53700000  0.76600000  1.0 -0.0238732168
C  C57  1  0.58300000  0.06600000  0.26500000  1.0 0.6765786546
C  C58  1  0.53700000  0.99500000  0.27200000  1.0 -0.0026264532
C  C59  1  0.56600000  0.41300000  0.23200000  1.0 0.6954638275
C  C60  1  0.49700000  0.46300000  0.23400000  1.0 -0.0259965063
C  C61  1  0.41700000  0.93400000  0.26500000  1.0 0.6765786546
C  C62  1  0.46300000  0.00500000  0.27200000  1.0 -0.0026264532
C  C63  1  0.43400000  0.58700000  0.23200000  1.0 0.6884282608
C  C64  1  0.50300000  0.53700000  0.23400000  1.0 -0.0259965063
C  C65  1  0.73500000  0.41700000  0.06600000  1.0 0.6765786546
C  C66  1  0.72800000  0.46300000  0.99500000  1.0 -0.0026264532
C  C67  1  0.76800000  0.43400000  0.41300000  1.0 0.6884282608
C  C68  1  0.76600000  0.50300000  0.46300000  1.0 -0.0238732168
C  C69  1  0.73500000  0.58300000  0.93400000  1.0 0.6765786546
C  C70  1  0.72800000  0.53700000  0.00500000  1.0 -0.0026264532
C  C71  1  0.76800000  0.56600000  0.58700000  1.0 0.6954638275
C  C72  1  0.76600000  0.49700000  0.53700000  1.0 -0.0238732168
C  C73  1  0.26500000  0.58300000  0.06600000  1.0 0.6765786546
C  C74  1  0.27200000  0.53700000  0.99500000  1.0 -0.0026264532
C  C75  1  0.23200000  0.56600000  0.41300000  1.0 0.6954638275
C  C76  1  0.23400000  0.49700000  0.46300000  1.0 -0.0259965063
C  C77  1  0.26500000  0.41700000  0.93400000  1.0 0.6765786546
C  C78  1  0.27200000  0.46300000  0.00500000  1.0 -0.0026264532
C  C79  1  0.23200000  0.43400000  0.58700000  1.0 0.6884282608
C  C80  1  0.23400000  0.50300000  0.53700000  1.0 -0.0238732168
C  C81  1  0.06600000  0.73500000  0.41700000  1.0 0.6765786546
C  C82  1  0.99500000  0.72800000  0.46300000  1.0 -0.0026264532
C  C83  1  0.41300000  0.76800000  0.43400000  1.0 0.6884282608
C  C84  1  0.46300000  0.76600000  0.50300000  1.0 -0.0238732168
C  C85  1  0.93400000  0.73500000  0.58300000  1.0 0.6765786546
C  C86  1  0.00500000  0.72800000  0.53700000  1.0 -0.0026264532
C  C87  1  0.58700000  0.76800000  0.56600000  1.0 0.6954638275
C  C88  1  0.53700000  0.76600000  0.49700000  1.0 -0.0238732168
C  C89  1  0.06600000  0.26500000  0.58300000  1.0 0.6765786546
C  C90  1  0.99500000  0.27200000  0.53700000  1.0 -0.0026264532
C  C91  1  0.41300000  0.23200000  0.56600000  1.0 0.6954638275
C  C92  1  0.46300000  0.23400000  0.49700000  1.0 -0.0238732168
C  C93  1  0.93400000  0.26500000  0.41700000  1.0 0.6765786546
C  C94  1  0.00500000  0.27200000  0.46300000  1.0 -0.0026264532
C  C95  1  0.58700000  0.23200000  0.43400000  1.0 0.6884282608
C  C96  1  0.53700000  0.23400000  0.50300000  1.0 -0.0259965063
O  O1  1  0.18500000  0.32300000  0.83600000  1.0 -0.646571943
O  O2  1  0.05600000  0.37000000  0.77300000  1.0 -0.5076966918
O  O3  1  0.15200000  0.45100000  0.76400000  1.0 -0.5076966918
O  O4  1  0.04900000  0.15500000  0.73600000  1.0 -0.4835383894
O  O5  1  0.13100000  0.06000000  0.73000000  1.0 -0.5039075104
O  O6  1  0.81500000  0.67700000  0.83600000  1.0 -0.6436362739
O  O7  1  0.94400000  0.63000000  0.77300000  1.0 -0.5039075104
O  O8  1  0.84800000  0.54900000  0.76400000  1.0 -0.5076966918
O  O9  1  0.95100000  0.84500000  0.73600000  1.0 -0.4835383894
O  O10  1  0.86900000  0.94000000  0.73000000  1.0 -0.5039075104
O  O11  1  0.81500000  0.32300000  0.16400000  1.0 -0.6436362739
O  O12  1  0.94400000  0.37000000  0.22700000  1.0 -0.5076966918
O  O13  1  0.84800000  0.45100000  0.23600000  1.0 -0.5076966918
O  O14  1  0.95100000  0.15500000  0.26400000  1.0 -0.4835383894
O  O15  1  0.86900000  0.06000000  0.27000000  1.0 -0.5039075104
O  O16  1  0.18500000  0.67700000  0.16400000  1.0 -0.6436362739
O  O17  1  0.05600000  0.63000000  0.22700000  1.0 -0.5039075104
O  O18  1  0.15200000  0.54900000  0.23600000  1.0 -0.5076966918
O  O19  1  0.04900000  0.84500000  0.26400000  1.0 -0.4835383894
O  O20  1  0.13100000  0.94000000  0.27000000  1.0 -0.5039075104
O  O21  1  0.83600000  0.18500000  0.32300000  1.0 -0.6436362739
O  O22  1  0.77300000  0.05600000  0.37000000  1.0 -0.5076966918
O  O23  1  0.76400000  0.15200000  0.45100000  1.0 -0.5076966918
O  O24  1  0.73600000  0.04900000  0.15500000  1.0 -0.4835383894
O  O25  1  0.73000000  0.13100000  0.06000000  1.0 -0.5039075104
O  O26  1  0.83600000  0.81500000  0.67700000  1.0 -0.6436362739
O  O27  1  0.77300000  0.94400000  0.63000000  1.0 -0.5039075104
O  O28  1  0.76400000  0.84800000  0.54900000  1.0 -0.5076966918
O  O29  1  0.73600000  0.95100000  0.84500000  1.0 -0.4835383894
O  O30  1  0.73000000  0.86900000  0.94000000  1.0 -0.5039075104
O  O31  1  0.16400000  0.81500000  0.32300000  1.0 -0.6436362739
O  O32  1  0.22700000  0.94400000  0.37000000  1.0 -0.5076966918
O  O33  1  0.23600000  0.84800000  0.45100000  1.0 -0.5076966918
O  O34  1  0.26400000  0.95100000  0.15500000  1.0 -0.4835383894
O  O35  1  0.27000000  0.86900000  0.06000000  1.0 -0.5039075104
O  O36  1  0.16400000  0.18500000  0.67700000  1.0 -0.646571943
O  O37  1  0.22700000  0.05600000  0.63000000  1.0 -0.5076966918
O  O38  1  0.23600000  0.15200000  0.54900000  1.0 -0.5076966918
O  O39  1  0.26400000  0.04900000  0.84500000  1.0 -0.4835383894
O  O40  1  0.27000000  0.13100000  0.94000000  1.0 -0.5039075104
O  O41  1  0.32300000  0.83600000  0.18500000  1.0 -0.6436362739
O  O42  1  0.37000000  0.77300000  0.05600000  1.0 -0.5076966918
O  O43  1  0.45100000  0.76400000  0.15200000  1.0 -0.5076966918
O  O44  1  0.15500000  0.73600000  0.04900000  1.0 -0.4835383894
O  O45  1  0.06000000  0.73000000  0.13100000  1.0 -0.5039075104
O  O46  1  0.67700000  0.83600000  0.81500000  1.0 -0.6436362739
O  O47  1  0.63000000  0.77300000  0.94400000  1.0 -0.5039075104
O  O48  1  0.54900000  0.76400000  0.84800000  1.0 -0.5076966918
O  O49  1  0.84500000  0.73600000  0.95100000  1.0 -0.4835383894
O  O50  1  0.94000000  0.73000000  0.86900000  1.0 -0.5039075104
O  O51  1  0.32300000  0.16400000  0.81500000  1.0 -0.646571943
O  O52  1  0.37000000  0.22700000  0.94400000  1.0 -0.5076966918
O  O53  1  0.45100000  0.23600000  0.84800000  1.0 -0.5076966918
O  O54  1  0.15500000  0.26400000  0.95100000  1.0 -0.4835383894
O  O55  1  0.06000000  0.27000000  0.86900000  1.0 -0.5039075104
O  O56  1  0.67700000  0.16400000  0.18500000  1.0 -0.6436362739
O  O57  1  0.63000000  0.22700000  0.05600000  1.0 -0.5076966918
O  O58  1  0.54900000  0.23600000  0.15200000  1.0 -0.5076966918
O  O59  1  0.84500000  0.26400000  0.04900000  1.0 -0.4835383894
O  O60  1  0.94000000  0.27000000  0.13100000  1.0 -0.5039075104
O  O61  1  0.31500000  0.17700000  0.66400000  1.0 -0.646571943
O  O62  1  0.44400000  0.13000000  0.72700000  1.0 -0.5076966918
O  O63  1  0.34800000  0.04900000  0.73600000  1.0 -0.5076966918
O  O64  1  0.45100000  0.34500000  0.76400000  1.0 -0.4835383894
O  O65  1  0.36900000  0.44000000  0.77000000  1.0 -0.5039075104
O  O66  1  0.68500000  0.82300000  0.66400000  1.0 -0.6436362739
O  O67  1  0.55600000  0.87000000  0.72700000  1.0 -0.5076966918
O  O68  1  0.65200000  0.95100000  0.73600000  1.0 -0.5076966918
O  O69  1  0.54900000  0.65500000  0.76400000  1.0 -0.4835383894
O  O70  1  0.63100000  0.56000000  0.77000000  1.0 -0.5039075104
O  O71  1  0.68500000  0.17700000  0.33600000  1.0 -0.646571943
O  O72  1  0.55600000  0.13000000  0.27300000  1.0 -0.5076966918
O  O73  1  0.65200000  0.04900000  0.26400000  1.0 -0.5076966918
O  O74  1  0.54900000  0.34500000  0.23600000  1.0 -0.4835383894
O  O75  1  0.63100000  0.44000000  0.23000000  1.0 -0.5039075104
O  O76  1  0.31500000  0.82300000  0.33600000  1.0 -0.6436362739
O  O77  1  0.44400000  0.87000000  0.27300000  1.0 -0.5076966918
O  O78  1  0.34800000  0.95100000  0.26400000  1.0 -0.5076966918
O  O79  1  0.45100000  0.65500000  0.23600000  1.0 -0.4858579922
O  O80  1  0.36900000  0.56000000  0.23000000  1.0 -0.5076966918
O  O81  1  0.66400000  0.31500000  0.17700000  1.0 -0.6436362739
O  O82  1  0.72700000  0.44400000  0.13000000  1.0 -0.5076966918
O  O83  1  0.73600000  0.34800000  0.04900000  1.0 -0.5076966918
O  O84  1  0.76400000  0.45100000  0.34500000  1.0 -0.4835383894
O  O85  1  0.77000000  0.36900000  0.44000000  1.0 -0.5039075104
O  O86  1  0.66400000  0.68500000  0.82300000  1.0 -0.6436362739
O  O87  1  0.72700000  0.55600000  0.87000000  1.0 -0.5076966918
O  O88  1  0.73600000  0.65200000  0.95100000  1.0 -0.5076966918
O  O89  1  0.76400000  0.54900000  0.65500000  1.0 -0.4835383894
O  O90  1  0.77000000  0.63100000  0.56000000  1.0 -0.5039075104
O  O91  1  0.33600000  0.68500000  0.17700000  1.0 -0.6436362739
O  O92  1  0.27300000  0.55600000  0.13000000  1.0 -0.5076966918
O  O93  1  0.26400000  0.65200000  0.04900000  1.0 -0.5076966918
O  O94  1  0.23600000  0.54900000  0.34500000  1.0 -0.4835383894
O  O95  1  0.23000000  0.63100000  0.44000000  1.0 -0.5039075104
O  O96  1  0.33600000  0.31500000  0.82300000  1.0 -0.646571943
O  O97  1  0.27300000  0.44400000  0.87000000  1.0 -0.5076966918
O  O98  1  0.26400000  0.34800000  0.95100000  1.0 -0.5076966918
O  O99  1  0.23600000  0.45100000  0.65500000  1.0 -0.4858579922
O  O100  1  0.23000000  0.36900000  0.56000000  1.0 -0.5076966918
O  O101  1  0.17700000  0.66400000  0.31500000  1.0 -0.6436362739
O  O102  1  0.13000000  0.72700000  0.44400000  1.0 -0.5076966918
O  O103  1  0.04900000  0.73600000  0.34800000  1.0 -0.5076966918
O  O104  1  0.34500000  0.76400000  0.45100000  1.0 -0.4835383894
O  O105  1  0.44000000  0.77000000  0.36900000  1.0 -0.5039075104
O  O106  1  0.82300000  0.66400000  0.68500000  1.0 -0.6436362739
O  O107  1  0.87000000  0.72700000  0.55600000  1.0 -0.5076966918
O  O108  1  0.95100000  0.73600000  0.65200000  1.0 -0.5076966918
O  O109  1  0.65500000  0.76400000  0.54900000  1.0 -0.4835383894
O  O110  1  0.56000000  0.77000000  0.63100000  1.0 -0.5039075104
O  O111  1  0.17700000  0.33600000  0.68500000  1.0 -0.646571943
O  O112  1  0.13000000  0.27300000  0.55600000  1.0 -0.5076966918
O  O113  1  0.04900000  0.26400000  0.65200000  1.0 -0.5076966918
O  O114  1  0.34500000  0.23600000  0.54900000  1.0 -0.4835383894
O  O115  1  0.44000000  0.23000000  0.63100000  1.0 -0.5039075104
O  O116  1  0.82300000  0.33600000  0.31500000  1.0 -0.6436362739
O  O117  1  0.87000000  0.27300000  0.44400000  1.0 -0.5076966918
O  O118  1  0.95100000  0.26400000  0.34800000  1.0 -0.5076966918
O  O119  1  0.65500000  0.23600000  0.45100000  1.0 -0.4858579922
O  O120  1  0.56000000  0.23000000  0.36900000  1.0 -0.5076966918
O  O121  1  0.17700000  0.17700000  0.82300000  1.0 -0.6881667239
O  O122  1  0.82300000  0.82300000  0.82300000  1.0 -0.6881667239
O  O123  1  0.82300000  0.17700000  0.17700000  1.0 -0.6881667239
O  O124  1  0.17700000  0.82300000  0.17700000  1.0 -0.6881667239
O  O125  1  0.32300000  0.32300000  0.67700000  1.0 -0.6881667239
O  O126  1  0.67700000  0.67700000  0.67700000  1.0 -0.6881667239
O  O127  1  0.67700000  0.32300000  0.32300000  1.0 -0.6881667239
O  O128  1  0.32300000  0.67700000  0.32300000  1.0 -0.6881667239
