# DDEC6 charges by PACMAN v1.1 (https://github.com/mtap-research/PACMAN-charge/)
data_FISGOF_ASR_pacman
_symmetry_space_group_name_H-M   'P 1'
_cell_length_a   19.40170000
_cell_length_b   19.40170000
_cell_length_c   19.40170000
_cell_angle_alpha   84.98690000
_cell_angle_beta   84.98690000
_cell_angle_gamma   84.98690000
_symmetry_Int_Tables_number   1
_chemical_formula_structural   CuH7C15O4
_chemical_formula_sum   'Cu6 H42 C90 O24'
_cell_volume   7224.09651824
_cell_formula_units_Z   6
loop_
 _symmetry_equiv_pos_site_id
 _symmetry_equiv_pos_as_xyz
  1  'x, y, z'
loop_
 _atom_site_type_symbol
 _atom_site_label
 _atom_site_symmetry_multiplicity
 _atom_site_fract_x
 _atom_site_fract_y
 _atom_site_fract_z
 _atom_site_occupancy
 _atom_site_charge
Cu  Cu1  1  0.22782000  0.22781000  0.63464000  1.0 0.854260901
Cu  Cu2  1  0.22782000  0.63464000  0.22781000  1.0 0.854260901
Cu  Cu3  1  0.63464000  0.22781000  0.22781000  1.0 0.854260901
Cu  Cu4  1  0.19975000  0.19975000  0.51025000  1.0 0.8921409242
Cu  Cu5  1  0.19975000  0.51025000  0.19975000  1.0 0.8921409242
Cu  Cu6  1  0.51025000  0.19975000  0.19975000  1.0 0.8921409242
H  H1  1  0.19830000  0.40340000  0.40340000  1.0 0.1479430788
H  H2  1  0.40340000  0.40340000  0.19830000  1.0 0.1479430788
H  H3  1  0.40340000  0.19830000  0.40340000  1.0 0.1479430788
H  H4  1  0.22460000  0.45130000  0.60430000  1.0 0.1310033187
H  H5  1  0.45130000  0.60430000  0.22460000  1.0 0.1310033187
H  H6  1  0.60430000  0.22460000  0.45130000  1.0 0.1310033187
H  H7  1  0.22460000  0.60430000  0.45130000  1.0 0.1310033187
H  H8  1  0.60430000  0.45130000  0.22460000  1.0 0.1310033187
H  H9  1  0.45130000  0.22460000  0.60430000  1.0 0.1310033187
H  H10  1  0.22470000  0.75710000  0.60770000  1.0 0.1185440117
H  H11  1  0.75710000  0.60770000  0.22470000  1.0 0.1185440117
H  H12  1  0.60770000  0.22470000  0.75710000  1.0 0.1185440117
H  H13  1  0.22470000  0.60770000  0.75710000  1.0 0.1185440117
H  H14  1  0.60770000  0.75710000  0.22470000  1.0 0.1185440117
H  H15  1  0.75710000  0.22470000  0.60770000  1.0 0.1185440117
H  H16  1  0.23770000  0.80370000  0.80370000  1.0 0.1022879073
H  H17  1  0.80370000  0.80370000  0.23770000  1.0 0.1022879073
H  H18  1  0.80370000  0.23770000  0.80370000  1.0 0.1022879073
H  H19  1  0.19480000  0.86640000  0.58500000  1.0 0.1185440117
H  H20  1  0.86640000  0.58500000  0.19480000  1.0 0.1185440117
H  H21  1  0.58500000  0.19480000  0.86640000  1.0 0.1185440117
H  H22  1  0.19480000  0.58500000  0.86640000  1.0 0.1185440117
H  H23  1  0.58500000  0.86640000  0.19480000  1.0 0.1185440117
H  H24  1  0.86640000  0.19480000  0.58500000  1.0 0.1185440117
H  H25  1  0.19680000  0.98220000  0.54370000  1.0 0.1310033187
H  H26  1  0.98220000  0.54370000  0.19680000  1.0 0.1310033187
H  H27  1  0.54370000  0.19680000  0.98220000  1.0 0.1310033187
H  H28  1  0.19680000  0.54370000  0.98220000  1.0 0.1310033187
H  H29  1  0.54370000  0.98220000  0.19680000  1.0 0.1310033187
H  H30  1  0.98220000  0.19680000  0.54370000  1.0 0.1310033187
H  H31  1  0.24980000  0.02140000  0.72690000  1.0 0.1310033187
H  H32  1  0.02140000  0.72690000  0.24980000  1.0 0.1310033187
H  H33  1  0.72690000  0.24980000  0.02140000  1.0 0.1310033187
H  H34  1  0.24980000  0.72690000  0.02140000  1.0 0.1310033187
H  H35  1  0.72690000  0.02140000  0.24980000  1.0 0.1310033187
H  H36  1  0.02140000  0.24980000  0.72690000  1.0 0.1310033187
H  H37  1  0.27600000  0.89760000  0.75730000  1.0 0.1185440117
H  H38  1  0.89760000  0.75730000  0.27600000  1.0 0.1095466341
H  H39  1  0.75730000  0.27600000  0.89760000  1.0 0.1185440117
H  H40  1  0.27600000  0.75730000  0.89760000  1.0 0.1095466341
H  H41  1  0.75730000  0.89760000  0.27600000  1.0 0.1095466341
H  H42  1  0.89760000  0.27600000  0.75730000  1.0 0.1185440117
C  C1  1  0.20980000  0.33930000  0.54000000  1.0 0.5653504603
C  C2  1  0.33930000  0.54000000  0.20980000  1.0 0.5653504603
C  C3  1  0.54000000  0.20980000  0.33930000  1.0 0.5642104142
C  C4  1  0.20980000  0.54000000  0.33930000  1.0 0.5653504603
C  C5  1  0.54000000  0.33930000  0.20980000  1.0 0.5653504603
C  C6  1  0.33930000  0.20980000  0.54000000  1.0 0.5653504603
C  C7  1  0.20560000  0.43500000  0.43500000  1.0 -0.1615985564
C  C8  1  0.43500000  0.43500000  0.20560000  1.0 -0.1615985564
C  C9  1  0.43500000  0.20560000  0.43500000  1.0 -0.1615985564
C  C10  1  0.21210000  0.41770000  0.50910000  1.0 0.0275235064
C  C11  1  0.41770000  0.50910000  0.21210000  1.0 0.0275235064
C  C12  1  0.50910000  0.21210000  0.41770000  1.0 0.0275235064
C  C13  1  0.21210000  0.50910000  0.41770000  1.0 0.0275235064
C  C14  1  0.50910000  0.41770000  0.21210000  1.0 0.0275235064
C  C15  1  0.41770000  0.21210000  0.50910000  1.0 0.0275235064
C  C16  1  0.21980000  0.46590000  0.55790000  1.0 -0.1615985564
C  C17  1  0.46590000  0.55790000  0.21980000  1.0 -0.1615985564
C  C18  1  0.55790000  0.21980000  0.46590000  1.0 -0.1615985564
C  C19  1  0.21980000  0.55790000  0.46590000  1.0 -0.1615985564
C  C20  1  0.55790000  0.46590000  0.21980000  1.0 -0.1615985564
C  C21  1  0.46590000  0.21980000  0.55790000  1.0 -0.1615985564
C  C22  1  0.22010000  0.53500000  0.53500000  1.0 0.0685460213
C  C23  1  0.53500000  0.53500000  0.22010000  1.0 0.0685460213
C  C24  1  0.53500000  0.22010000  0.53500000  1.0 0.0685460213
C  C25  1  0.22550000  0.58000000  0.58000000  1.0 -0.0899945107
C  C26  1  0.58000000  0.58000000  0.22550000  1.0 -0.0899945107
C  C27  1  0.58000000  0.22550000  0.58000000  1.0 -0.0899945107
C  C28  1  0.22790000  0.61780000  0.61780000  1.0 -0.0192732962
C  C29  1  0.61780000  0.61780000  0.22790000  1.0 -0.0192732962
C  C30  1  0.61780000  0.22790000  0.61780000  1.0 -0.0192732962
C  C31  1  0.22780000  0.67110000  0.67110000  1.0 0.1185440117
C  C32  1  0.67110000  0.67110000  0.22780000  1.0 0.1185440117
C  C33  1  0.67110000  0.22780000  0.67110000  1.0 0.1185440117
C  C34  1  0.22700000  0.74230000  0.65440000  1.0 -0.2270195838
C  C35  1  0.74230000  0.65440000  0.22700000  1.0 -0.2270195838
C  C36  1  0.65440000  0.22700000  0.74230000  1.0 -0.2270195838
C  C37  1  0.22700000  0.65440000  0.74230000  1.0 -0.2270195838
C  C38  1  0.65440000  0.74230000  0.22700000  1.0 -0.2270195838
C  C39  1  0.74230000  0.22700000  0.65440000  1.0 -0.2270195838
C  C40  1  0.22920000  0.79420000  0.70020000  1.0 0.1022879073
C  C41  1  0.79420000  0.70020000  0.22920000  1.0 0.1022879073
C  C42  1  0.70020000  0.22920000  0.79420000  1.0 0.1095466341
C  C43  1  0.22920000  0.70020000  0.79420000  1.0 0.1095466341
C  C44  1  0.70020000  0.79420000  0.22920000  1.0 0.1095466341
C  C45  1  0.79420000  0.22920000  0.70020000  1.0 0.1095466341
C  C46  1  0.23280000  0.77180000  0.77180000  1.0 -0.2240714587
C  C47  1  0.77180000  0.77180000  0.23280000  1.0 -0.2240714587
C  C48  1  0.77180000  0.23280000  0.77180000  1.0 -0.2240714587
C  C49  1  0.22980000  0.87350000  0.67670000  1.0 0.0751922124
C  C50  1  0.87350000  0.67670000  0.22980000  1.0 0.0751922124
C  C51  1  0.67670000  0.22980000  0.87350000  1.0 0.0751922124
C  C52  1  0.22980000  0.67670000  0.87350000  1.0 0.0751922124
C  C53  1  0.67670000  0.87350000  0.22980000  1.0 0.0751922124
C  C54  1  0.87350000  0.22980000  0.67670000  1.0 0.0751922124
C  C55  1  0.20910000  0.89800000  0.61320000  1.0 -0.1656061517
C  C56  1  0.89800000  0.61320000  0.20910000  1.0 -0.1615985564
C  C57  1  0.61320000  0.20910000  0.89800000  1.0 -0.1656061517
C  C58  1  0.20910000  0.61320000  0.89800000  1.0 -0.1615985564
C  C59  1  0.61320000  0.89800000  0.20910000  1.0 -0.1656061517
C  C60  1  0.89800000  0.20910000  0.61320000  1.0 -0.1615985564
C  C61  1  0.20810000  0.96660000  0.58820000  1.0 -0.0899945107
C  C62  1  0.96660000  0.58820000  0.20810000  1.0 -0.0899945107
C  C63  1  0.58820000  0.20810000  0.96660000  1.0 -0.0899945107
C  C64  1  0.20810000  0.58820000  0.96660000  1.0 -0.0899945107
C  C65  1  0.58820000  0.96660000  0.20810000  1.0 -0.0899945107
C  C66  1  0.96660000  0.20810000  0.58820000  1.0 -0.0899945107
C  C67  1  0.22490000  0.00860000  0.63380000  1.0 -0.0273748215
C  C68  1  0.00860000  0.63380000  0.22490000  1.0 -0.0273748215
C  C69  1  0.63380000  0.22490000  0.00860000  1.0 -0.0192732962
C  C70  1  0.22490000  0.63380000  0.00860000  1.0 -0.0273748215
C  C71  1  0.63380000  0.00860000  0.22490000  1.0 -0.0273748215
C  C72  1  0.00860000  0.22490000  0.63380000  1.0 -0.0273748215
C  C73  1  0.24340000  0.98850000  0.69630000  1.0 -0.0899945107
C  C74  1  0.98850000  0.69630000  0.24340000  1.0 -0.0899945107
C  C75  1  0.69630000  0.24340000  0.98850000  1.0 -0.0899945107
C  C76  1  0.24340000  0.69630000  0.98850000  1.0 -0.0899945107
C  C77  1  0.69630000  0.98850000  0.24340000  1.0 -0.0899945107
C  C78  1  0.98850000  0.24340000  0.69630000  1.0 -0.0899945107
C  C79  1  0.25400000  0.91440000  0.71780000  1.0 -0.1484793928
C  C80  1  0.91440000  0.71780000  0.25400000  1.0 -0.1484793928
C  C81  1  0.71780000  0.25400000  0.91440000  1.0 -0.1484793928
C  C82  1  0.25400000  0.71780000  0.91440000  1.0 -0.1484793928
C  C83  1  0.71780000  0.91440000  0.25400000  1.0 -0.1484793928
C  C84  1  0.91440000  0.25400000  0.71780000  1.0 -0.1484793928
C  C85  1  0.21820000  0.08690000  0.61290000  1.0 0.5831505947
C  C86  1  0.08690000  0.61290000  0.21820000  1.0 0.5831505947
C  C87  1  0.61290000  0.21820000  0.08690000  1.0 0.5831505947
C  C88  1  0.21820000  0.61290000  0.08690000  1.0 0.5831505947
C  C89  1  0.61290000  0.08690000  0.21820000  1.0 0.5831505947
C  C90  1  0.08690000  0.21820000  0.61290000  1.0 0.5831505947
O  O1  1  0.19544000  0.29944000  0.48904000  1.0 -0.5634809143
O  O2  1  0.29944000  0.48904000  0.19544000  1.0 -0.5657371488
O  O3  1  0.48904000  0.19544000  0.29944000  1.0 -0.5634809143
O  O4  1  0.19544000  0.48904000  0.29944000  1.0 -0.5657371488
O  O5  1  0.48904000  0.29944000  0.19544000  1.0 -0.5634809143
O  O6  1  0.29944000  0.19544000  0.48904000  1.0 -0.5657371488
O  O7  1  0.22170000  0.32120000  0.59930000  1.0 -0.4434045858
O  O8  1  0.32120000  0.59930000  0.22170000  1.0 -0.4434045858
O  O9  1  0.59930000  0.22170000  0.32120000  1.0 -0.4452229447
O  O10  1  0.22170000  0.59930000  0.32120000  1.0 -0.4434045858
O  O11  1  0.59930000  0.32120000  0.22170000  1.0 -0.4434045858
O  O12  1  0.32120000  0.22170000  0.59930000  1.0 -0.4434045858
O  O13  1  0.20657000  0.10567000  0.54837000  1.0 -0.5292762525
O  O14  1  0.10567000  0.54837000  0.20657000  1.0 -0.5292762525
O  O15  1  0.54837000  0.20657000  0.10567000  1.0 -0.5292762525
O  O16  1  0.20657000  0.54837000  0.10567000  1.0 -0.5292762525
O  O17  1  0.54837000  0.10567000  0.20657000  1.0 -0.5292762525
O  O18  1  0.10567000  0.20657000  0.54837000  1.0 -0.5292762525
O  O19  1  0.23168000  0.12838000  0.65508000  1.0 -0.5023832328
O  O20  1  0.12838000  0.65508000  0.23168000  1.0 -0.5023832328
O  O21  1  0.65508000  0.23168000  0.12838000  1.0 -0.5023832328
O  O22  1  0.23168000  0.65508000  0.12838000  1.0 -0.5023832328
O  O23  1  0.65508000  0.12838000  0.23168000  1.0 -0.5023832328
O  O24  1  0.12838000  0.23168000  0.65508000  1.0 -0.5023832328
