# DDEC6 charges by PACMAN v1.1 (https://github.com/mtap-research/PACMAN-charge/)
data_FISXEM_ASR_pacman
_symmetry_space_group_name_H-M   'P 1'
_cell_length_a   22.40220000
_cell_length_b   22.40220000
_cell_length_c   9.16370000
_cell_angle_alpha   90.00000000
_cell_angle_beta   90.00000000
_cell_angle_gamma   120.00000000
_symmetry_Int_Tables_number   1
_chemical_formula_structural   CdH12C17O4
_chemical_formula_sum   'Cd6 H72 C102 O24'
_cell_volume   3982.74806131
_cell_formula_units_Z   6
loop_
 _symmetry_equiv_pos_site_id
 _symmetry_equiv_pos_as_xyz
  1  'x, y, z'
loop_
 _atom_site_type_symbol
 _atom_site_label
 _atom_site_symmetry_multiplicity
 _atom_site_fract_x
 _atom_site_fract_y
 _atom_site_fract_z
 _atom_site_occupancy
 _atom_site_charge
Cd  Cd1  1  0.30385000  0.69615000  0.58333000  1.0 0.9080765391
Cd  Cd2  1  0.30385000  0.60770000  0.25000000  1.0 0.9080765391
Cd  Cd3  1  0.39230000  0.69615000  0.91667000  1.0 0.9080765391
Cd  Cd4  1  0.69615000  0.30385000  0.08333000  1.0 0.9080765391
Cd  Cd5  1  0.69615000  0.39230000  0.75000000  1.0 0.9080765391
Cd  Cd6  1  0.60770000  0.30385000  0.41667000  1.0 0.9080765391
H  H1  1  0.59510000  0.61770000  0.72090000  1.0 0.0798490533
H  H2  1  0.38230000  0.97740000  0.38757000  1.0 0.0798490533
H  H3  1  0.02260000  0.40490000  0.05423000  1.0 0.0798490533
H  H4  1  0.40490000  0.38230000  0.22090000  1.0 0.0798490533
H  H5  1  0.61770000  0.02260000  0.88757000  1.0 0.0798490533
H  H6  1  0.97740000  0.59510000  0.55423000  1.0 0.0798490533
H  H7  1  0.61770000  0.59510000  0.94577000  1.0 0.0798490533
H  H8  1  0.97740000  0.38230000  0.27910000  1.0 0.0798490533
H  H9  1  0.40490000  0.02260000  0.61243000  1.0 0.0798490533
H  H10  1  0.38230000  0.40490000  0.44577000  1.0 0.0798490533
H  H11  1  0.02260000  0.61770000  0.77910000  1.0 0.0798490533
H  H12  1  0.59510000  0.97740000  0.11243000  1.0 0.0798490533
H  H13  1  0.64460000  0.54690000  0.70560000  1.0 0.0798490533
H  H14  1  0.45310000  0.09770000  0.37227000  1.0 0.0798490533
H  H15  1  0.90230000  0.35540000  0.03893000  1.0 0.0798490533
H  H16  1  0.35540000  0.45310000  0.20560000  1.0 0.0798490533
H  H17  1  0.54690000  0.90230000  0.87227000  1.0 0.0798490533
H  H18  1  0.09770000  0.64460000  0.53893000  1.0 0.0798490533
H  H19  1  0.54690000  0.64460000  0.96107000  1.0 0.0798490533
H  H20  1  0.09770000  0.45310000  0.29440000  1.0 0.0798490533
H  H21  1  0.35540000  0.90230000  0.62773000  1.0 0.0798490533
H  H22  1  0.45310000  0.35540000  0.46107000  1.0 0.0798490533
H  H23  1  0.90230000  0.54690000  0.79440000  1.0 0.0798490533
H  H24  1  0.64460000  0.09770000  0.12773000  1.0 0.0798490533
H  H25  1  0.48720000  0.41420000  0.44320000  1.0 0.0909045805
H  H26  1  0.58580000  0.07300000  0.10987000  1.0 0.0909045805
H  H27  1  0.92700000  0.51280000  0.77653000  1.0 0.0909045805
H  H28  1  0.51280000  0.58580000  0.94320000  1.0 0.0909045805
H  H29  1  0.41420000  0.92700000  0.60987000  1.0 0.0909045805
H  H30  1  0.07300000  0.48720000  0.27653000  1.0 0.0909045805
H  H31  1  0.41420000  0.48720000  0.22347000  1.0 0.0909045805
H  H32  1  0.07300000  0.58580000  0.55680000  1.0 0.0909045805
H  H33  1  0.51280000  0.92700000  0.89013000  1.0 0.0909045805
H  H34  1  0.58580000  0.51280000  0.72347000  1.0 0.0909045805
H  H35  1  0.92700000  0.41420000  0.05680000  1.0 0.0909045805
H  H36  1  0.48720000  0.07300000  0.39013000  1.0 0.0909045805
H  H37  1  0.43780000  0.48500000  0.45850000  1.0 0.0798490533
H  H38  1  0.51500000  0.95280000  0.12517000  1.0 0.0798490533
H  H39  1  0.04720000  0.56220000  0.79183000  1.0 0.0798490533
H  H40  1  0.56220000  0.51500000  0.95850000  1.0 0.0798490533
H  H41  1  0.48500000  0.04720000  0.62517000  1.0 0.0798490533
H  H42  1  0.95280000  0.43780000  0.29183000  1.0 0.0798490533
H  H43  1  0.48500000  0.43780000  0.20817000  1.0 0.0798490533
H  H44  1  0.95280000  0.51500000  0.54150000  1.0 0.0798490533
H  H45  1  0.56220000  0.04720000  0.87483000  1.0 0.0798490533
H  H46  1  0.51500000  0.56220000  0.70817000  1.0 0.0798490533
H  H47  1  0.04720000  0.48500000  0.04150000  1.0 0.0798490533
H  H48  1  0.43780000  0.95280000  0.37483000  1.0 0.0798490533
H  H49  1  0.39060000  0.53930000  0.53890000  1.0 0.1113928017
H  H50  1  0.46070000  0.85130000  0.20557000  1.0 0.1113928017
H  H51  1  0.14870000  0.60940000  0.87223000  1.0 0.1113928017
H  H52  1  0.60940000  0.46070000  0.03890000  1.0 0.1113928017
H  H53  1  0.53930000  0.14870000  0.70557000  1.0 0.1113928017
H  H54  1  0.85130000  0.39060000  0.37223000  1.0 0.1113928017
H  H55  1  0.53930000  0.39060000  0.12777000  1.0 0.1113928017
H  H56  1  0.85130000  0.46070000  0.46110000  1.0 0.1113928017
H  H57  1  0.60940000  0.14870000  0.79443000  1.0 0.1113928017
H  H58  1  0.46070000  0.60940000  0.62777000  1.0 0.1113928017
H  H59  1  0.14870000  0.53930000  0.96110000  1.0 0.1113928017
H  H60  1  0.39060000  0.85130000  0.29443000  1.0 0.1113928017
H  H61  1  0.50020000  0.63600000  0.69520000  1.0 0.0686085219
H  H62  1  0.36400000  0.86420000  0.36187000  1.0 0.0686085219
H  H63  1  0.13580000  0.49980000  0.02853000  1.0 0.0686085219
H  H64  1  0.49980000  0.36400000  0.19520000  1.0 0.0686085219
H  H65  1  0.63600000  0.13580000  0.86187000  1.0 0.0686085219
H  H66  1  0.86420000  0.50020000  0.52853000  1.0 0.0686085219
H  H67  1  0.63600000  0.50020000  0.97147000  1.0 0.0686085219
H  H68  1  0.86420000  0.36400000  0.30480000  1.0 0.0686085219
H  H69  1  0.49980000  0.13580000  0.63813000  1.0 0.0686085219
H  H70  1  0.36400000  0.49980000  0.47147000  1.0 0.0686085219
H  H71  1  0.13580000  0.63600000  0.80480000  1.0 0.0686085219
H  H72  1  0.50020000  0.86420000  0.13813000  1.0 0.0686085219
C  C1  1  0.37744000  0.62256000  0.58333000  1.0 0.5237877215
C  C2  1  0.37744000  0.75488000  0.25000000  1.0 0.5237877215
C  C3  1  0.24512000  0.62256000  0.91667000  1.0 0.5237877215
C  C4  1  0.62256000  0.37744000  0.08333000  1.0 0.5237877215
C  C5  1  0.62256000  0.24512000  0.75000000  1.0 0.5237877215
C  C6  1  0.75488000  0.37744000  0.41667000  1.0 0.5237877215
C  C7  1  0.58620000  0.41380000  0.58333000  1.0 0.4560393835
C  C8  1  0.58620000  0.17240000  0.25000000  1.0 0.4560393835
C  C9  1  0.82760000  0.41380000  0.91667000  1.0 0.4560393835
C  C10  1  0.41380000  0.58620000  0.08333000  1.0 0.4560393835
C  C11  1  0.41380000  0.82760000  0.75000000  1.0 0.4560393835
C  C12  1  0.17240000  0.58620000  0.41667000  1.0 0.4560393835
C  C13  1  0.47540000  0.59300000  0.62550000  1.0 -0.1506392539
C  C14  1  0.40700000  0.88240000  0.29217000  1.0 -0.1506392539
C  C15  1  0.11760000  0.52460000  0.95883000  1.0 -0.1506392539
C  C16  1  0.52460000  0.40700000  0.12550000  1.0 -0.1506392539
C  C17  1  0.59300000  0.11760000  0.79217000  1.0 -0.1506392539
C  C18  1  0.88240000  0.47540000  0.45883000  1.0 -0.1506392539
C  C19  1  0.59300000  0.47540000  0.04117000  1.0 -0.1506392539
C  C20  1  0.88240000  0.40700000  0.37450000  1.0 -0.1506392539
C  C21  1  0.52460000  0.11760000  0.70783000  1.0 -0.1506392539
C  C22  1  0.40700000  0.52460000  0.54117000  1.0 -0.1506392539
C  C23  1  0.11760000  0.59300000  0.87450000  1.0 -0.1506392539
C  C24  1  0.47540000  0.88240000  0.20783000  1.0 -0.1506392539
C  C25  1  0.51310000  0.55620000  0.58800000  1.0 -0.0017396337
C  C26  1  0.44380000  0.95690000  0.25467000  1.0 -0.0017396337
C  C27  1  0.04310000  0.48690000  0.92133000  1.0 -0.0017396337
C  C28  1  0.48690000  0.44380000  0.08800000  1.0 -0.0017396337
C  C29  1  0.55620000  0.04310000  0.75467000  1.0 -0.0017396337
C  C30  1  0.95690000  0.51310000  0.42133000  1.0 -0.0017396337
C  C31  1  0.55620000  0.51310000  0.07867000  1.0 -0.0017396337
C  C32  1  0.95690000  0.44380000  0.41200000  1.0 -0.0017396337
C  C33  1  0.48690000  0.04310000  0.74533000  1.0 -0.0017396337
C  C34  1  0.44380000  0.48690000  0.57867000  1.0 -0.0017396337
C  C35  1  0.04310000  0.55620000  0.91200000  1.0 -0.0017396337
C  C36  1  0.51310000  0.95690000  0.24533000  1.0 -0.0017396337
C  C37  1  0.57490000  0.57470000  0.65860000  1.0 -0.1118830783
C  C38  1  0.42530000  0.00020000  0.32527000  1.0 -0.1118830783
C  C39  1  0.99980000  0.42510000  0.99193000  1.0 -0.1118830783
C  C40  1  0.42510000  0.42530000  0.15860000  1.0 -0.1118830783
C  C41  1  0.57470000  0.99980000  0.82527000  1.0 -0.1118830783
C  C42  1  0.00020000  0.57490000  0.49193000  1.0 -0.1118830783
C  C43  1  0.57470000  0.57490000  0.00807000  1.0 -0.1118830783
C  C44  1  0.00020000  0.42530000  0.34140000  1.0 -0.1118830783
C  C45  1  0.42510000  0.99980000  0.67473000  1.0 -0.1118830783
C  C46  1  0.42530000  0.42510000  0.50807000  1.0 -0.1118830783
C  C47  1  0.99980000  0.57470000  0.84140000  1.0 -0.1118830783
C  C48  1  0.57490000  0.00020000  0.17473000  1.0 -0.1118830783
C  C49  1  0.60410000  0.53280000  0.64770000  1.0 -0.1598033985
C  C50  1  0.46720000  0.07130000  0.31437000  1.0 -0.1598033985
C  C51  1  0.92870000  0.39590000  0.98103000  1.0 -0.1598033985
C  C52  1  0.39590000  0.46720000  0.14770000  1.0 -0.1598033985
C  C53  1  0.53280000  0.92870000  0.81437000  1.0 -0.1598033985
C  C54  1  0.07130000  0.60410000  0.48103000  1.0 -0.1598033985
C  C55  1  0.53280000  0.60410000  0.01897000  1.0 -0.1598033985
C  C56  1  0.07130000  0.46720000  0.35230000  1.0 -0.1598033985
C  C57  1  0.39590000  0.92870000  0.68563000  1.0 -0.1598033985
C  C58  1  0.46720000  0.39590000  0.51897000  1.0 -0.1598033985
C  C59  1  0.92870000  0.53280000  0.85230000  1.0 -0.1598033985
C  C60  1  0.60410000  0.07130000  0.18563000  1.0 -0.1598033985
C  C61  1  0.57150000  0.47240000  0.56630000  1.0 -0.0017396337
C  C62  1  0.52760000  0.09910000  0.23297000  1.0 -0.0017396337
C  C63  1  0.90090000  0.42850000  0.89963000  1.0 -0.0017396337
C  C64  1  0.42850000  0.52760000  0.06630000  1.0 -0.0017396337
C  C65  1  0.47240000  0.90090000  0.73297000  1.0 -0.0017396337
C  C66  1  0.09910000  0.57150000  0.39963000  1.0 -0.0017396337
C  C67  1  0.47240000  0.57150000  0.10037000  1.0 -0.0017396337
C  C68  1  0.09910000  0.52760000  0.43370000  1.0 -0.0017396337
C  C69  1  0.42850000  0.90090000  0.76703000  1.0 -0.0017396337
C  C70  1  0.52760000  0.42850000  0.60037000  1.0 -0.0017396337
C  C71  1  0.90090000  0.47240000  0.93370000  1.0 -0.0017396337
C  C72  1  0.57150000  0.09910000  0.26703000  1.0 -0.0017396337
C  C73  1  0.50970000  0.45390000  0.49570000  1.0 -0.0343945454
C  C74  1  0.54610000  0.05580000  0.16237000  1.0 -0.0343945454
C  C75  1  0.94420000  0.49030000  0.82903000  1.0 -0.0343945454
C  C76  1  0.49030000  0.54610000  0.99570000  1.0 -0.0343945454
C  C77  1  0.45390000  0.94420000  0.66237000  1.0 -0.0343945454
C  C78  1  0.05580000  0.50970000  0.32903000  1.0 -0.0343945454
C  C79  1  0.45390000  0.50970000  0.17097000  1.0 -0.0343945454
C  C80  1  0.05580000  0.54610000  0.50430000  1.0 -0.0343945454
C  C81  1  0.49030000  0.94420000  0.83763000  1.0 -0.0343945454
C  C82  1  0.54610000  0.49030000  0.67097000  1.0 -0.0343945454
C  C83  1  0.94420000  0.45390000  0.00430000  1.0 -0.0343945454
C  C84  1  0.50970000  0.05580000  0.33763000  1.0 -0.0343945454
C  C85  1  0.48050000  0.49580000  0.50660000  1.0 -0.0558380415
C  C86  1  0.50420000  0.98470000  0.17327000  1.0 -0.0558380415
C  C87  1  0.01530000  0.51950000  0.83993000  1.0 -0.0558380415
C  C88  1  0.51950000  0.50420000  0.00660000  1.0 -0.0558380415
C  C89  1  0.49580000  0.01530000  0.67327000  1.0 -0.0558380415
C  C90  1  0.98470000  0.48050000  0.33993000  1.0 -0.0558380415
C  C91  1  0.49580000  0.48050000  0.16007000  1.0 -0.0558380415
C  C92  1  0.98470000  0.50420000  0.49340000  1.0 -0.0558380415
C  C93  1  0.51950000  0.01530000  0.82673000  1.0 -0.0558380415
C  C94  1  0.50420000  0.51950000  0.66007000  1.0 -0.0558380415
C  C95  1  0.01530000  0.49580000  0.99340000  1.0 -0.0558380415
C  C96  1  0.48050000  0.98470000  0.32673000  1.0 -0.0558380415
C  C97  1  0.41570000  0.58430000  0.58333000  1.0 -0.1831373726
C  C98  1  0.41570000  0.83140000  0.25000000  1.0 -0.1831373726
C  C99  1  0.16860000  0.58430000  0.91667000  1.0 -0.1831373726
C  C100  1  0.58430000  0.41570000  0.08333000  1.0 -0.1831373726
C  C101  1  0.58430000  0.16860000  0.75000000  1.0 -0.1831373726
C  C102  1  0.83140000  0.41570000  0.41667000  1.0 -0.1831373726
O  O1  1  0.33920000  0.61440000  0.49080000  1.0 -0.4149564361
O  O2  1  0.38560000  0.72480000  0.15747000  1.0 -0.4158134615
O  O3  1  0.27520000  0.66080000  0.82413000  1.0 -0.4158134615
O  O4  1  0.66080000  0.38560000  0.99080000  1.0 -0.4149564361
O  O5  1  0.61440000  0.27520000  0.65747000  1.0 -0.4149564361
O  O6  1  0.72480000  0.33920000  0.32413000  1.0 -0.4149564361
O  O7  1  0.61440000  0.33920000  0.17587000  1.0 -0.4149564361
O  O8  1  0.72480000  0.38560000  0.50920000  1.0 -0.4149564361
O  O9  1  0.66080000  0.27520000  0.84253000  1.0 -0.4149564361
O  O10  1  0.38560000  0.66080000  0.67587000  1.0 -0.4158134615
O  O11  1  0.27520000  0.61440000  0.00920000  1.0 -0.4149564361
O  O12  1  0.33920000  0.72480000  0.34253000  1.0 -0.4158134615
O  O13  1  0.57650000  0.37680000  0.48480000  1.0 -0.4315565035
O  O14  1  0.62320000  0.19970000  0.15147000  1.0 -0.4315565035
O  O15  1  0.80030000  0.42350000  0.81813000  1.0 -0.4315565035
O  O16  1  0.42350000  0.62320000  0.98480000  1.0 -0.4315565035
O  O17  1  0.37680000  0.80030000  0.65147000  1.0 -0.4315565035
O  O18  1  0.19970000  0.57650000  0.31813000  1.0 -0.4315565035
O  O19  1  0.37680000  0.57650000  0.18187000  1.0 -0.4315565035
O  O20  1  0.19970000  0.62320000  0.51520000  1.0 -0.4315565035
O  O21  1  0.42350000  0.80030000  0.84853000  1.0 -0.4315565035
O  O22  1  0.62320000  0.42350000  0.68187000  1.0 -0.4315565035
O  O23  1  0.80030000  0.37680000  0.01520000  1.0 -0.4315565035
O  O24  1  0.57650000  0.19970000  0.34853000  1.0 -0.4315565035
