# DDEC6 charges by PACMAN v1.1 (https://github.com/mtap-research/PACMAN-charge/)
data_FISZIT_ASR_pacman
_symmetry_space_group_name_H-M   'P 1'
_cell_length_a   14.06250000
_cell_length_b   14.06250000
_cell_length_c   15.00200000
_cell_angle_alpha   79.13110000
_cell_angle_beta   100.86900000
_cell_angle_gamma   86.98900000
_symmetry_Int_Tables_number   1
_chemical_formula_structural   Co5H28C40(N5O4)2
_chemical_formula_sum   'Co10 H56 C80 N20 O16'
_cell_volume   2849.26140456
_cell_formula_units_Z   2
loop_
 _symmetry_equiv_pos_site_id
 _symmetry_equiv_pos_as_xyz
  1  'x, y, z'
loop_
 _atom_site_type_symbol
 _atom_site_label
 _atom_site_symmetry_multiplicity
 _atom_site_fract_x
 _atom_site_fract_y
 _atom_site_fract_z
 _atom_site_occupancy
 _atom_site_charge
Co  Co1  1  0.63758000  0.37982000  0.39715000  1.0 0.7329308723
Co  Co2  1  0.69607000  0.31953000  0.62357000  1.0 0.819175664
Co  Co3  1  0.37982000  0.63758000  0.60285000  1.0 0.7329308723
Co  Co4  1  0.31953000  0.69607000  0.37643000  1.0 0.819175664
Co  Co5  1  0.36242000  0.62018000  0.60285000  1.0 0.7329308723
Co  Co6  1  0.30393000  0.68047000  0.37643000  1.0 0.819175664
Co  Co7  1  0.62018000  0.36242000  0.39715000  1.0 0.7329308723
Co  Co8  1  0.68047000  0.30393000  0.62357000  1.0 0.819175664
Co  Co9  1  0.72445000  0.72445000  0.50000000  1.0 0.5273807977
Co  Co10  1  0.27555000  0.27555000  0.50000000  1.0 0.5273807977
H  H1  1  0.13466000  0.60354000  0.07813000  1.0 0.1386770523
H  H2  1  0.76668000  0.50512000  0.58551000  1.0 0.1298170472
H  H3  1  0.83925000  0.40375000  0.37260000  1.0 0.1091380177
H  H4  1  0.67582000  0.56810000  0.09218000  1.0 0.1386770523
H  H5  1  0.92856000  0.47014000  0.26682000  1.0 0.1234389081
H  H6  1  0.59810000  0.51110000  0.20671000  1.0 0.1018346582
H  H7  1  0.96030000  0.64646000  0.25049000  1.0 0.1298170472
H  H8  1  0.09118000  0.67060000  0.35225000  1.0 0.1091380177
H  H9  1  0.26333000  0.62365000  0.18754000  1.0 0.1018346582
H  H10  1  0.70348000  0.58794000  0.83431000  1.0 0.1234389081
H  H11  1  0.91008000  0.70270000  0.65317000  1.0 0.1018346582
H  H12  1  0.96607000  0.66823000  0.80868000  1.0 0.1386770523
H  H13  1  0.65712000  0.62694000  0.67649000  1.0 0.1018346582
H  H14  1  0.60354000  0.13466000  0.92187000  1.0 0.1386770523
H  H15  1  0.50512000  0.76668000  0.41449000  1.0 0.1298170472
H  H16  1  0.40375000  0.83925000  0.62740000  1.0 0.1091380177
H  H17  1  0.56810000  0.67582000  0.90782000  1.0 0.1386770523
H  H18  1  0.47014000  0.92856000  0.73318000  1.0 0.1234389081
H  H19  1  0.51110000  0.59810000  0.79329000  1.0 0.1018346582
H  H20  1  0.64646000  0.96030000  0.74951000  1.0 0.1298170472
H  H21  1  0.67060000  0.09118000  0.64775000  1.0 0.1091380177
H  H22  1  0.62365000  0.26333000  0.81246000  1.0 0.1018346582
H  H23  1  0.58794000  0.70348000  0.16569000  1.0 0.1234389081
H  H24  1  0.70270000  0.91008000  0.34683000  1.0 0.1018346582
H  H25  1  0.66823000  0.96607000  0.19132000  1.0 0.1386770523
H  H26  1  0.62694000  0.65712000  0.32351000  1.0 0.1018346582
H  H27  1  0.86534000  0.39646000  0.92187000  1.0 0.1386770523
H  H28  1  0.23332000  0.49488000  0.41449000  1.0 0.1298170472
H  H29  1  0.16075000  0.59625000  0.62740000  1.0 0.1091380177
H  H30  1  0.32418000  0.43190000  0.90782000  1.0 0.1386770523
H  H31  1  0.07144000  0.52986000  0.73318000  1.0 0.1234389081
H  H32  1  0.40190000  0.48890000  0.79329000  1.0 0.1018346582
H  H33  1  0.03970000  0.35354000  0.74951000  1.0 0.1298170472
H  H34  1  0.90882000  0.32940000  0.64775000  1.0 0.1091380177
H  H35  1  0.73667000  0.37635000  0.81246000  1.0 0.1018346582
H  H36  1  0.29652000  0.41206000  0.16569000  1.0 0.1234389081
H  H37  1  0.08992000  0.29730000  0.34683000  1.0 0.1018346582
H  H38  1  0.03393000  0.33177000  0.19132000  1.0 0.1386770523
H  H39  1  0.34288000  0.37306000  0.32351000  1.0 0.1018346582
H  H40  1  0.39646000  0.86534000  0.07813000  1.0 0.1386770523
H  H41  1  0.49488000  0.23332000  0.58551000  1.0 0.1298170472
H  H42  1  0.59625000  0.16075000  0.37260000  1.0 0.1091380177
H  H43  1  0.43190000  0.32418000  0.09218000  1.0 0.1386770523
H  H44  1  0.52986000  0.07144000  0.26682000  1.0 0.1234389081
H  H45  1  0.48890000  0.40190000  0.20671000  1.0 0.1018346582
H  H46  1  0.35354000  0.03970000  0.25049000  1.0 0.1298170472
H  H47  1  0.32940000  0.90882000  0.35225000  1.0 0.1091380177
H  H48  1  0.37635000  0.73667000  0.18754000  1.0 0.1018346582
H  H49  1  0.41206000  0.29652000  0.83431000  1.0 0.1234389081
H  H50  1  0.29730000  0.08992000  0.65317000  1.0 0.1018346582
H  H51  1  0.33177000  0.03393000  0.80868000  1.0 0.1386770523
H  H52  1  0.37306000  0.34288000  0.67649000  1.0 0.1018346582
H  H53  1  0.52400000  0.47600000  0.56660000  1.0 0.1386770523
H  H54  1  0.83428000  0.16572000  0.49789000  1.0 0.1298170472
H  H55  1  0.47600000  0.52400000  0.43340000  1.0 0.1386770523
H  H56  1  0.16572000  0.83428000  0.50211000  1.0 0.1234389081
C  C1  1  0.81340000  0.52880000  0.16440000  1.0 0.1091380177
C  C2  1  0.12390000  0.61510000  0.13460000  1.0 -0.1597844477
C  C3  1  0.73090000  0.50490000  0.52670000  1.0 0.2345890139
C  C4  1  0.80580000  0.43920000  0.31550000  1.0 0.0843196508
C  C5  1  0.02990000  0.61630000  0.15150000  1.0 0.1091380177
C  C6  1  0.71200000  0.53700000  0.14970000  1.0 -0.1741251613
C  C7  1  0.86100000  0.47800000  0.25140000  1.0 -0.2224229987
C  C8  1  0.94940000  0.60120000  0.08280000  1.0 0.0385401376
C  C9  1  0.66540000  0.50000000  0.21830000  1.0 0.0385401376
C  C10  1  0.86120000  0.56480000  0.08800000  1.0 0.051050849
C  C11  1  0.87000000  0.60760000  0.94160000  1.0 0.2693576847
C  C12  1  0.02140000  0.64100000  0.23560000  1.0 -0.2121861878
C  C13  1  0.10040000  0.65720000  0.29590000  1.0 0.051050849
C  C14  1  0.20100000  0.63040000  0.19940000  1.0 0.0316628075
C  C15  1  0.84100000  0.62800000  0.84080000  1.0 0.0843196508
C  C16  1  0.74710000  0.61330000  0.79860000  1.0 -0.1971368457
C  C17  1  0.86660000  0.68060000  0.69040000  1.0 0.051050849
C  C18  1  0.90180000  0.66020000  0.78440000  1.0 -0.1860523786
C  C19  1  0.72000000  0.63660000  0.70370000  1.0 0.0385401376
C  C20  1  0.52880000  0.81340000  0.83560000  1.0 0.1091380177
C  C21  1  0.61510000  0.12390000  0.86540000  1.0 -0.1597844477
C  C22  1  0.50490000  0.73090000  0.47330000  1.0 0.2345890139
C  C23  1  0.43920000  0.80580000  0.68450000  1.0 0.0843196508
C  C24  1  0.61630000  0.02990000  0.84850000  1.0 0.1091380177
C  C25  1  0.53700000  0.71200000  0.85030000  1.0 -0.1741251613
C  C26  1  0.47800000  0.86100000  0.74860000  1.0 -0.2224229987
C  C27  1  0.60120000  0.94940000  0.91720000  1.0 0.0385401376
C  C28  1  0.50000000  0.66540000  0.78170000  1.0 0.0385401376
C  C29  1  0.56480000  0.86120000  0.91200000  1.0 0.051050849
C  C30  1  0.60760000  0.87000000  0.05840000  1.0 0.2693576847
C  C31  1  0.64100000  0.02140000  0.76440000  1.0 -0.2121861878
C  C32  1  0.65720000  0.10040000  0.70410000  1.0 0.051050849
C  C33  1  0.63040000  0.20100000  0.80060000  1.0 0.0316628075
C  C34  1  0.62800000  0.84100000  0.15920000  1.0 0.0843196508
C  C35  1  0.61330000  0.74710000  0.20140000  1.0 -0.1971368457
C  C36  1  0.68060000  0.86660000  0.30960000  1.0 0.051050849
C  C37  1  0.66020000  0.90180000  0.21560000  1.0 -0.1860523786
C  C38  1  0.63660000  0.72000000  0.29630000  1.0 0.0385401376
C  C39  1  0.18660000  0.47120000  0.83560000  1.0 0.1091380177
C  C40  1  0.87610000  0.38490000  0.86540000  1.0 -0.1597844477
C  C41  1  0.26910000  0.49510000  0.47330000  1.0 0.2345890139
C  C42  1  0.19420000  0.56080000  0.68450000  1.0 0.0843196508
C  C43  1  0.97010000  0.38370000  0.84850000  1.0 0.1091380177
C  C44  1  0.28800000  0.46300000  0.85030000  1.0 -0.1741251613
C  C45  1  0.13900000  0.52200000  0.74860000  1.0 -0.2224229987
C  C46  1  0.05060000  0.39880000  0.91720000  1.0 0.0385401376
C  C47  1  0.33460000  0.50000000  0.78170000  1.0 0.0385401376
C  C48  1  0.13880000  0.43520000  0.91200000  1.0 0.051050849
C  C49  1  0.13000000  0.39240000  0.05840000  1.0 0.2693576847
C  C50  1  0.97860000  0.35900000  0.76440000  1.0 -0.2121861878
C  C51  1  0.89960000  0.34280000  0.70410000  1.0 0.051050849
C  C52  1  0.79900000  0.36960000  0.80060000  1.0 0.0316628075
C  C53  1  0.15900000  0.37200000  0.15920000  1.0 0.0843196508
C  C54  1  0.25290000  0.38670000  0.20140000  1.0 -0.1971368457
C  C55  1  0.13340000  0.31940000  0.30960000  1.0 0.051050849
C  C56  1  0.09820000  0.33980000  0.21560000  1.0 -0.1860523786
C  C57  1  0.28000000  0.36340000  0.29630000  1.0 0.0385401376
C  C58  1  0.47120000  0.18660000  0.16440000  1.0 0.1091380177
C  C59  1  0.38490000  0.87610000  0.13460000  1.0 -0.1597844477
C  C60  1  0.49510000  0.26910000  0.52670000  1.0 0.2345890139
C  C61  1  0.56080000  0.19420000  0.31550000  1.0 0.0843196508
C  C62  1  0.38370000  0.97010000  0.15150000  1.0 0.1091380177
C  C63  1  0.46300000  0.28800000  0.14970000  1.0 -0.1741251613
C  C64  1  0.52200000  0.13900000  0.25140000  1.0 -0.2224229987
C  C65  1  0.39880000  0.05060000  0.08280000  1.0 0.0385401376
C  C66  1  0.50000000  0.33460000  0.21830000  1.0 0.0385401376
C  C67  1  0.43520000  0.13880000  0.08800000  1.0 0.051050849
C  C68  1  0.39240000  0.13000000  0.94160000  1.0 0.2693576847
C  C69  1  0.35900000  0.97860000  0.23560000  1.0 -0.2121861878
C  C70  1  0.34280000  0.89960000  0.29590000  1.0 0.051050849
C  C71  1  0.36960000  0.79900000  0.19940000  1.0 0.0316628075
C  C72  1  0.37200000  0.15900000  0.84080000  1.0 0.0843196508
C  C73  1  0.38670000  0.25290000  0.79860000  1.0 -0.1971368457
C  C74  1  0.31940000  0.13340000  0.69040000  1.0 0.051050849
C  C75  1  0.33980000  0.09820000  0.78440000  1.0 -0.1860523786
C  C76  1  0.36340000  0.28000000  0.70370000  1.0 0.0385401376
C  C77  1  0.53240000  0.46760000  0.62850000  1.0 0.191699486
C  C78  1  0.78730000  0.21270000  0.50240000  1.0 0.247024927
C  C79  1  0.46760000  0.53240000  0.37150000  1.0 0.191699486
C  C80  1  0.21270000  0.78730000  0.49760000  1.0 0.247024927
N  N1  1  0.71040000  0.44860000  0.30160000  1.0 -0.3172627728
N  N2  1  0.95420000  0.62560000  0.98950000  1.0 -0.3863493543
N  N3  1  0.80930000  0.56890000  0.99900000  1.0 -0.4202945347
N  N4  1  0.18980000  0.65520000  0.28020000  1.0 -0.3644333969
N  N5  1  0.77940000  0.67240000  0.64860000  1.0 -0.2524872016
N  N6  1  0.44860000  0.71040000  0.69840000  1.0 -0.3172627728
N  N7  1  0.62560000  0.95420000  0.01050000  1.0 -0.3863493543
N  N8  1  0.56890000  0.80930000  0.00100000  1.0 -0.4202945347
N  N9  1  0.65520000  0.18980000  0.71980000  1.0 -0.3644333969
N  N10  1  0.67240000  0.77940000  0.35140000  1.0 -0.2524872016
N  N11  1  0.28960000  0.55140000  0.69840000  1.0 -0.3172627728
N  N12  1  0.04580000  0.37440000  0.01050000  1.0 -0.3863493543
N  N13  1  0.19070000  0.43110000  0.00100000  1.0 -0.4202945347
N  N14  1  0.81020000  0.34480000  0.71980000  1.0 -0.3644333969
N  N15  1  0.22060000  0.32760000  0.35140000  1.0 -0.2524872016
N  N16  1  0.55140000  0.28960000  0.30160000  1.0 -0.3172627728
N  N17  1  0.37440000  0.04580000  0.98950000  1.0 -0.3863493543
N  N18  1  0.43110000  0.19070000  0.99900000  1.0 -0.4202945347
N  N19  1  0.34480000  0.81020000  0.28020000  1.0 -0.3644333969
N  N20  1  0.32760000  0.22060000  0.64860000  1.0 -0.2524872016
O  O1  1  0.70610000  0.42510000  0.51240000  1.0 -0.5683524425
O  O2  1  0.71380000  0.58380000  0.47260000  1.0 -0.4361721839
O  O3  1  0.42510000  0.70610000  0.48760000  1.0 -0.5683524425
O  O4  1  0.58380000  0.71380000  0.52740000  1.0 -0.4344900713
O  O5  1  0.29390000  0.57490000  0.48760000  1.0 -0.5683524425
O  O6  1  0.28620000  0.41620000  0.52740000  1.0 -0.4344900713
O  O7  1  0.57490000  0.29390000  0.51240000  1.0 -0.5683524425
O  O8  1  0.41620000  0.28620000  0.47260000  1.0 -0.4344900713
O  O9  1  0.59700000  0.40300000  0.66850000  1.0 -0.5239991213
O  O10  1  0.78080000  0.21920000  0.58310000  1.0 -0.5362786616
O  O11  1  0.73950000  0.26050000  0.42720000  1.0 -0.5144857432
O  O12  1  0.47960000  0.52040000  0.65310000  1.0 -0.4481742198
O  O13  1  0.40300000  0.59700000  0.33150000  1.0 -0.5239991213
O  O14  1  0.21920000  0.78080000  0.41690000  1.0 -0.5362786616
O  O15  1  0.26050000  0.73950000  0.57280000  1.0 -0.5144857432
O  O16  1  0.52040000  0.47960000  0.34690000  1.0 -0.4481742198
