# DDEC6 charges by PACMAN v1.1 (https://github.com/mtap-research/PACMAN-charge/)
data_FITFAS_ASR_pacman
_symmetry_space_group_name_H-M   'P 1'
_cell_length_a   9.57410000
_cell_length_b   9.05500000
_cell_length_c   20.42990000
_cell_angle_alpha   90.00000000
_cell_angle_beta   94.87000000
_cell_angle_gamma   90.00000000
_symmetry_Int_Tables_number   1
_chemical_formula_structural   ZnH20C13(NO)6
_chemical_formula_sum   'Zn4 H80 C52 N24 O24'
_cell_volume   1764.74501741
_cell_formula_units_Z   4
loop_
 _symmetry_equiv_pos_site_id
 _symmetry_equiv_pos_as_xyz
  1  'x, y, z'
loop_
 _atom_site_type_symbol
 _atom_site_label
 _atom_site_symmetry_multiplicity
 _atom_site_fract_x
 _atom_site_fract_y
 _atom_site_fract_z
 _atom_site_occupancy
 _atom_site_charge
Zn  Zn1  1  0.81342000  0.56720000  0.45777000  1.0 0.6431954969
Zn  Zn2  1  0.31767000  0.26682000  0.95485000  1.0 0.7128730883
Zn  Zn3  1  0.18658000  0.06720000  0.54223000  1.0 0.6431954969
Zn  Zn4  1  0.68233000  0.76682000  0.04515000  1.0 0.7128730883
H  H1  1  0.90920000  0.28880000  0.04670000  1.0 0.2596727778
H  H2  1  0.38700000  0.54860000  0.53460000  1.0 0.2781164516
H  H3  1  0.92220000  0.87640000  0.51180000  1.0 0.1092626258
H  H4  1  0.19280000  0.21360000  0.84550000  1.0 0.2396474202
H  H5  1  0.33950000  0.18890000  0.83930000  1.0 0.2154725362
H  H6  1  0.95930000  0.58690000  0.03520000  1.0 0.088862287
H  H7  1  0.63680000  0.28800000  0.91810000  1.0 0.1299398921
H  H8  1  0.37630000  0.70760000  0.42530000  1.0 0.1226604973
H  H9  1  0.37450000  0.87820000  0.43840000  1.0 0.1299398921
H  H10  1  0.87870000  0.41610000  0.92320000  1.0 0.1299398921
H  H11  1  0.86430000  0.58730000  0.93050000  1.0 0.1299398921
H  H12  1  0.72760000  0.61200000  0.34190000  1.0 0.2396474202
H  H13  1  0.66960000  0.47310000  0.36040000  1.0 0.2043375392
H  H14  1  0.37670000  0.40460000  0.63040000  1.0 0.1022097208
H  H15  1  0.22340000  0.46820000  0.62550000  1.0 0.1092626258
H  H16  1  0.35940000  0.56480000  0.73580000  1.0 0.2596727778
H  H17  1  0.43460000  0.84650000  0.54970000  1.0 0.088862287
H  H18  1  0.93140000  0.51360000  0.32420000  1.0 0.088862287
H  H19  1  0.88340000  0.36350000  0.35340000  1.0 0.1022097208
H  H20  1  0.13050000  0.58440000  0.41930000  1.0 0.1092626258
H  H21  1  0.43240000  0.55960000  0.02250000  1.0 0.1022097208
H  H22  1  0.21410000  0.45640000  0.83560000  1.0 0.1022097208
H  H23  1  0.37660000  0.43710000  0.83530000  1.0 0.1092626258
H  H24  1  0.94610000  0.25870000  0.25280000  1.0 0.1299398921
H  H25  1  0.89700000  0.18540000  0.14780000  1.0 0.088862287
H  H26  1  0.75370000  0.27040000  0.14720000  1.0 0.0774588884
H  H27  1  0.10930000  0.98410000  0.34710000  1.0 0.0689282615
H  H28  1  0.14990000  0.12380000  0.38990000  1.0 0.0579484124
H  H29  1  0.99210000  0.09070000  0.36810000  1.0 0.0689282615
H  H30  1  0.00250000  0.18240000  0.16010000  1.0 0.088862287
H  H31  1  0.84310000  0.22590000  0.15600000  1.0 0.088862287
H  H32  1  0.02340000  0.27660000  0.26180000  1.0 0.1299398921
H  H33  1  0.75660000  0.58630000  0.33410000  1.0 0.2301210706
H  H34  1  0.70600000  0.44460000  0.35320000  1.0 0.207936002
H  H35  1  0.97950000  0.50200000  0.33590000  1.0 0.0689282615
H  H36  1  0.92550000  0.34720000  0.35790000  1.0 0.0689282615
H  H37  1  0.87700000  0.30230000  0.04600000  1.0 0.2683587392
H  H38  1  0.14530000  0.12770000  0.36670000  1.0 0.0774588884
H  H39  1  0.22240000  0.00270000  0.33080000  1.0 0.0689282615
H  H40  1  0.30950000  0.12110000  0.37280000  1.0 0.0774588884
H  H41  1  0.09080000  0.78880000  0.95330000  1.0 0.2596727778
H  H42  1  0.61300000  0.04860000  0.46540000  1.0 0.2781164516
H  H43  1  0.07780000  0.37640000  0.48820000  1.0 0.1092626258
H  H44  1  0.80720000  0.71360000  0.15450000  1.0 0.2396474202
H  H45  1  0.66050000  0.68890000  0.16070000  1.0 0.2154725362
H  H46  1  0.04070000  0.08690000  0.96480000  1.0 0.088862287
H  H47  1  0.36320000  0.78800000  0.08190000  1.0 0.1299398921
H  H48  1  0.62370000  0.20760000  0.57470000  1.0 0.1226604973
H  H49  1  0.62550000  0.37820000  0.56160000  1.0 0.1299398921
H  H50  1  0.12130000  0.91610000  0.07680000  1.0 0.1299398921
H  H51  1  0.13570000  0.08730000  0.06950000  1.0 0.1299398921
H  H52  1  0.27240000  0.11200000  0.65810000  1.0 0.2396474202
H  H53  1  0.33040000  0.97310000  0.63960000  1.0 0.2043375392
H  H54  1  0.62330000  0.90460000  0.36960000  1.0 0.1022097208
H  H55  1  0.77660000  0.96820000  0.37450000  1.0 0.1092626258
H  H56  1  0.64060000  0.06480000  0.26420000  1.0 0.2596727778
H  H57  1  0.56540000  0.34650000  0.45030000  1.0 0.088862287
H  H58  1  0.06860000  0.01360000  0.67580000  1.0 0.088862287
H  H59  1  0.11660000  0.86350000  0.64660000  1.0 0.1022097208
H  H60  1  0.86950000  0.08440000  0.58070000  1.0 0.1092626258
H  H61  1  0.56760000  0.05960000  0.97750000  1.0 0.1022097208
H  H62  1  0.78590000  0.95640000  0.16440000  1.0 0.1022097208
H  H63  1  0.62340000  0.93710000  0.16470000  1.0 0.1092626258
H  H64  1  0.05390000  0.75870000  0.74720000  1.0 0.1299398921
H  H65  1  0.10300000  0.68540000  0.85220000  1.0 0.088862287
H  H66  1  0.24630000  0.77040000  0.85280000  1.0 0.0774588884
H  H67  1  0.89070000  0.48410000  0.65290000  1.0 0.0689282615
H  H68  1  0.85010000  0.62380000  0.61010000  1.0 0.0579484124
H  H69  1  0.00790000  0.59070000  0.63190000  1.0 0.0689282615
H  H70  1  0.99750000  0.68240000  0.83990000  1.0 0.088862287
H  H71  1  0.15690000  0.72590000  0.84400000  1.0 0.088862287
H  H72  1  0.97660000  0.77660000  0.73820000  1.0 0.1299398921
H  H73  1  0.24340000  0.08630000  0.66590000  1.0 0.2301210706
H  H74  1  0.29400000  0.94460000  0.64680000  1.0 0.207936002
H  H75  1  0.02050000  0.00200000  0.66410000  1.0 0.0689282615
H  H76  1  0.07450000  0.84720000  0.64210000  1.0 0.0689282615
H  H77  1  0.12300000  0.80230000  0.95400000  1.0 0.2683587392
H  H78  1  0.85470000  0.62770000  0.63330000  1.0 0.0774588884
H  H79  1  0.77760000  0.50270000  0.66920000  1.0 0.0689282615
H  H80  1  0.69050000  0.62110000  0.62720000  1.0 0.0774588884
C  C1  1  0.99510000  0.82720000  0.49380000  1.0 0.0774588884
C  C2  1  0.10520000  0.46700000  0.98930000  1.0 0.5277224948
C  C3  1  0.19900000  0.77550000  0.46410000  1.0 0.1584719737
C  C4  1  0.96040000  0.49040000  0.01350000  1.0 -0.0971089564
C  C5  1  0.61520000  0.36690000  0.94450000  1.0 -0.1389439608
C  C6  1  0.59720000  0.74430000  0.50530000  1.0 0.5417010952
C  C7  1  0.35260000  0.78260000  0.45640000  1.0 -0.2902853022
C  C8  1  0.85480000  0.49390000  0.95290000  1.0 -0.3302946742
C  C9  1  0.27180000  0.38000000  0.74820000  1.0 0.4598808159
C  C10  1  0.31880000  0.48510000  0.64400000  1.0 -0.2508241366
C  C11  1  0.70610000  0.47540000  0.96650000  1.0 0.1519388874
C  C12  1  0.44310000  0.75940000  0.52180000  1.0 0.0190135949
C  C13  1  0.85140000  0.44900000  0.32800000  1.0 0.0279569068
C  C14  1  0.10810000  0.66750000  0.44300000  1.0 -0.1610391642
C  C15  1  0.50430000  0.51510000  0.00180000  1.0 0.1584719737
C  C16  1  0.37230000  0.63090000  0.61900000  1.0 0.4598808159
C  C17  1  0.28690000  0.39190000  0.82180000  1.0 -0.2166712451
C  C18  1  0.79500000  0.40050000  0.26030000  1.0 0.207936002
C  C19  1  0.91700000  0.40900000  0.12120000  1.0 0.2495720704
C  C20  1  0.85360000  0.27760000  0.15930000  1.0 -0.1171357817
C  C21  1  0.08610000  0.08500000  0.35530000  1.0 -0.2166712451
C  C22  1  0.93800000  0.26200000  0.16710000  1.0 -0.0971089564
C  C23  1  0.86200000  0.39300000  0.25940000  1.0 0.1705150624
C  C24  1  0.90000000  0.43500000  0.33250000  1.0 -0.1389439608
C  C25  1  0.96600000  0.38800000  0.12440000  1.0 0.2301210706
C  C26  1  0.22600000  0.10400000  0.34400000  1.0 -0.0477892812
C  C27  1  0.00490000  0.32720000  0.50620000  1.0 0.0774588884
C  C28  1  0.89480000  0.96700000  0.01070000  1.0 0.5277224948
C  C29  1  0.80100000  0.27550000  0.53590000  1.0 0.1584719737
C  C30  1  0.03960000  0.99040000  0.98650000  1.0 -0.0971089564
C  C31  1  0.38480000  0.86690000  0.05550000  1.0 -0.1389439608
C  C32  1  0.40280000  0.24430000  0.49470000  1.0 0.5417010952
C  C33  1  0.64740000  0.28260000  0.54360000  1.0 -0.2902853022
C  C34  1  0.14520000  0.99390000  0.04710000  1.0 -0.3302946742
C  C35  1  0.72820000  0.88000000  0.25180000  1.0 0.4598808159
C  C36  1  0.68120000  0.98510000  0.35600000  1.0 -0.2508241366
C  C37  1  0.29390000  0.97540000  0.03350000  1.0 0.1519388874
C  C38  1  0.55690000  0.25940000  0.47820000  1.0 0.0190135949
C  C39  1  0.14860000  0.94900000  0.67200000  1.0 0.0279569068
C  C40  1  0.89190000  0.16750000  0.55700000  1.0 -0.1610391642
C  C41  1  0.49570000  0.01510000  0.99820000  1.0 0.1584719737
C  C42  1  0.62770000  0.13090000  0.38100000  1.0 0.4598808159
C  C43  1  0.71310000  0.89190000  0.17820000  1.0 -0.2166712451
C  C44  1  0.20500000  0.90050000  0.73970000  1.0 0.207936002
C  C45  1  0.08300000  0.90900000  0.87880000  1.0 0.2495720704
C  C46  1  0.14640000  0.77760000  0.84070000  1.0 -0.1171357817
C  C47  1  0.91390000  0.58500000  0.64470000  1.0 -0.2166712451
C  C48  1  0.06200000  0.76200000  0.83290000  1.0 -0.0971089564
C  C49  1  0.13800000  0.89300000  0.74060000  1.0 0.1705150624
C  C50  1  0.10000000  0.93500000  0.66750000  1.0 -0.1389439608
C  C51  1  0.03400000  0.88800000  0.87560000  1.0 0.2301210706
C  C52  1  0.77400000  0.60400000  0.65600000  1.0 -0.0477892812
N  N1  1  0.12640000  0.87860000  0.49760000  1.0 -0.4072458128
N  N2  1  0.92520000  0.37780000  0.06010000  1.0 -0.2727496903
N  N3  1  0.39780000  0.63010000  0.55610000  1.0 -0.3917030375
N  N4  1  0.48620000  0.39230000  0.96760000  1.0 -0.2902853022
N  N5  1  0.27820000  0.25100000  0.85470000  1.0 -0.5584318022
N  N6  1  0.97790000  0.70040000  0.46210000  1.0 -0.3302946742
N  N7  1  0.74800000  0.52700000  0.36210000  1.0 -0.3985052089
N  N8  1  0.63380000  0.57090000  0.00470000  1.0 -0.3917030375
N  N9  1  0.32300000  0.48970000  0.71500000  1.0 -0.3985052089
N  N10  1  0.87900000  0.30380000  0.23030000  1.0 -0.0025044372
N  N11  1  0.95310000  0.30700000  0.23650000  1.0 -0.1307823043
N  N12  1  0.77900000  0.50600000  0.35790000  1.0 -0.2409949209
N  N13  1  0.87360000  0.37860000  0.50240000  1.0 -0.4072458128
N  N14  1  0.07480000  0.87780000  0.93990000  1.0 -0.2727496903
N  N15  1  0.60220000  0.13010000  0.44390000  1.0 -0.3917030375
N  N16  1  0.51380000  0.89230000  0.03240000  1.0 -0.2902853022
N  N17  1  0.72180000  0.75100000  0.14530000  1.0 -0.5584318022
N  N18  1  0.02210000  0.20040000  0.53790000  1.0 -0.3302946742
N  N19  1  0.25200000  0.02700000  0.63790000  1.0 -0.3985052089
N  N20  1  0.36620000  0.07090000  0.99530000  1.0 -0.3917030375
N  N21  1  0.67700000  0.98970000  0.28500000  1.0 -0.3985052089
N  N22  1  0.12100000  0.80380000  0.76970000  1.0 -0.0025044372
N  N23  1  0.04690000  0.80700000  0.76350000  1.0 -0.1307823043
N  N24  1  0.22100000  0.00600000  0.64210000  1.0 -0.2409949209
O  O1  1  0.63460000  0.61460000  0.49100000  1.0 -0.5205726634
O  O2  1  0.15310000  0.33420000  0.99500000  1.0 -0.5584318022
O  O3  1  0.16360000  0.56950000  0.96260000  1.0 -0.577608956
O  O4  1  0.67060000  0.85540000  0.50430000  1.0 -0.5348032843
O  O5  1  0.38860000  0.74050000  0.65550000  1.0 -0.5205726634
O  O6  1  0.20930000  0.27510000  0.71950000  1.0 -0.5205726634
O  O7  1  0.68270000  0.44880000  0.23250000  1.0 -0.2000481467
O  O8  1  0.94390000  0.52740000  0.14800000  1.0 -0.1171357817
O  O9  1  0.09600000  0.16700000  0.29870000  1.0 -0.1655825506
O  O10  1  0.75100000  0.43470000  0.22800000  1.0 -0.0264799166
O  O11  1  0.01300000  0.51400000  0.14640000  1.0 -0.1070979069
O  O12  1  0.22900000  0.19700000  0.28680000  1.0 -0.354277743
O  O13  1  0.36540000  0.11460000  0.50900000  1.0 -0.5205726634
O  O14  1  0.84690000  0.83420000  0.00500000  1.0 -0.5584318022
O  O15  1  0.83640000  0.06950000  0.03740000  1.0 -0.577608956
O  O16  1  0.32940000  0.35540000  0.49570000  1.0 -0.5348032843
O  O17  1  0.61140000  0.24050000  0.34450000  1.0 -0.5205726634
O  O18  1  0.79070000  0.77510000  0.28050000  1.0 -0.5142868291
O  O19  1  0.31730000  0.94880000  0.76750000  1.0 -0.2000481467
O  O20  1  0.05610000  0.02740000  0.85200000  1.0 -0.1171357817
O  O21  1  0.90400000  0.66700000  0.70130000  1.0 -0.1655825506
O  O22  1  0.24900000  0.93470000  0.77200000  1.0 -0.0235638059
O  O23  1  0.98700000  0.01400000  0.85360000  1.0 -0.1070979069
O  O24  1  0.77100000  0.69700000  0.71320000  1.0 -0.3561119567
