# DDEC6 charges by PACMAN v1.1 (https://github.com/mtap-research/PACMAN-charge/)
data_FIVQIL_ASR_pacman
_symmetry_space_group_name_H-M   'P 1'
_cell_length_a   10.28260000
_cell_length_b   12.69770000
_cell_length_c   18.53930000
_cell_angle_alpha   90.00000000
_cell_angle_beta   109.98600000
_cell_angle_gamma   90.00000000
_symmetry_Int_Tables_number   1
_chemical_formula_structural   Sc2P2O8F
_chemical_formula_sum   'Sc16 P16 O64 F8'
_cell_volume   2274.81331528
_cell_formula_units_Z   8
loop_
 _symmetry_equiv_pos_site_id
 _symmetry_equiv_pos_as_xyz
  1  'x, y, z'
loop_
 _atom_site_type_symbol
 _atom_site_label
 _atom_site_symmetry_multiplicity
 _atom_site_fract_x
 _atom_site_fract_y
 _atom_site_fract_z
 _atom_site_occupancy
 _atom_site_charge
Sc  Sc1  1  0.68785000  0.02145000  0.12748000  1.0 1.9399652294
Sc  Sc2  1  0.31215000  0.52145000  0.37252000  1.0 1.9457816493
Sc  Sc3  1  0.31215000  0.97855000  0.87252000  1.0 1.9399652294
Sc  Sc4  1  0.68785000  0.47855000  0.62748000  1.0 1.9399652294
Sc  Sc5  1  0.03303000  0.06920000  0.27905000  1.0 1.8212085079
Sc  Sc6  1  0.96697000  0.56920000  0.22095000  1.0 1.8212085079
Sc  Sc7  1  0.96697000  0.93080000  0.72095000  1.0 1.8212085079
Sc  Sc8  1  0.03303000  0.43080000  0.77905000  1.0 1.8212085079
Sc  Sc9  1  0.23916000  0.88639000  0.20811000  1.0 1.9145191323
Sc  Sc10  1  0.76084000  0.38639000  0.29189000  1.0 1.9161031853
Sc  Sc11  1  0.76084000  0.11361000  0.79189000  1.0 1.9282932889
Sc  Sc12  1  0.23916000  0.61361000  0.70811000  1.0 1.9161031853
Sc  Sc13  1  0.55765000  0.14671000  0.42316000  1.0 1.8698249471
Sc  Sc14  1  0.44235000  0.64671000  0.07684000  1.0 1.8635749232
Sc  Sc15  1  0.44235000  0.85329000  0.57684000  1.0 1.8635749232
Sc  Sc16  1  0.55765000  0.35329000  0.92316000  1.0 1.8698249471
P  P1  1  0.35738000  0.91130000  0.05789000  1.0 1.486320914
P  P2  1  0.64262000  0.41130000  0.44211000  1.0 1.4824421616
P  P3  1  0.64262000  0.08870000  0.94211000  1.0 1.4824421616
P  P4  1  0.35738000  0.58870000  0.55789000  1.0 1.4824421616
P  P5  1  0.74269000  0.11791000  0.30734000  1.0 1.5298936378
P  P6  1  0.25731000  0.61791000  0.19266000  1.0 1.5298936378
P  P7  1  0.25731000  0.88209000  0.69266000  1.0 1.5298936378
P  P8  1  0.74269000  0.38209000  0.80734000  1.0 1.5298936378
P  P9  1  0.07637000  0.33851000  0.29917000  1.0 1.5104924154
P  P10  1  0.92363000  0.83851000  0.20083000  1.0 1.5104924154
P  P11  1  0.92363000  0.66149000  0.70083000  1.0 1.5104924154
P  P12  1  0.07637000  0.16149000  0.79917000  1.0 1.5104924154
P  P13  1  0.31241000  0.95350000  0.39262000  1.0 1.5379657757
P  P14  1  0.68759000  0.45350000  0.10738000  1.0 1.5379657757
P  P15  1  0.68759000  0.04650000  0.60738000  1.0 1.5379657757
P  P16  1  0.31241000  0.54650000  0.89262000  1.0 1.5379657757
O  O1  1  0.30226000  0.97200000  0.98216000  1.0 -0.7587758424
O  O2  1  0.69774000  0.47200000  0.51784000  1.0 -0.7587758424
O  O3  1  0.69774000  0.02800000  0.01784000  1.0 -0.7587758424
O  O4  1  0.30226000  0.52800000  0.48216000  1.0 -0.7587758424
O  O5  1  0.25974000  0.92390000  0.10414000  1.0 -0.7508572542
O  O6  1  0.74026000  0.42390000  0.39586000  1.0 -0.7508572542
O  O7  1  0.74026000  0.07610000  0.89586000  1.0 -0.7508572542
O  O8  1  0.25974000  0.57610000  0.60414000  1.0 -0.7508572542
O  O9  1  0.50193000  0.95090000  0.10543000  1.0 -0.7877509582
O  O10  1  0.49807000  0.45090000  0.39457000  1.0 -0.7877509582
O  O11  1  0.49807000  0.04910000  0.89457000  1.0 -0.7877509582
O  O12  1  0.50193000  0.54910000  0.60543000  1.0 -0.7877509582
O  O13  1  0.36555000  0.79399000  0.03945000  1.0 -0.7785675614
O  O14  1  0.63445000  0.29399000  0.46055000  1.0 -0.7785675614
O  O15  1  0.63445000  0.20601000  0.96055000  1.0 -0.7785675614
O  O16  1  0.36555000  0.70601000  0.53945000  1.0 -0.7785675614
O  O17  1  0.69833000  0.23248000  0.28453000  1.0 -0.8101751942
O  O18  1  0.30167000  0.73248000  0.21547000  1.0 -0.8101751942
O  O19  1  0.30167000  0.76752000  0.71547000  1.0 -0.8101751942
O  O20  1  0.69833000  0.26752000  0.78453000  1.0 -0.8101751942
O  O21  1  0.67846000  0.04618000  0.23786000  1.0 -0.7587758424
O  O22  1  0.32154000  0.54618000  0.26214000  1.0 -0.7508572542
O  O23  1  0.32154000  0.95382000  0.76214000  1.0 -0.7587758424
O  O24  1  0.67846000  0.45382000  0.73786000  1.0 -0.7587758424
O  O25  1  0.68832000  0.08744000  0.37212000  1.0 -0.7508572542
O  O26  1  0.31168000  0.58744000  0.12788000  1.0 -0.7508572542
O  O27  1  0.31168000  0.91256000  0.62788000  1.0 -0.7508572542
O  O28  1  0.68832000  0.41256000  0.87212000  1.0 -0.7508572542
O  O29  1  0.90110000  0.10740000  0.33670000  1.0 -0.7587758424
O  O30  1  0.09890000  0.60740000  0.16330000  1.0 -0.7587758424
O  O31  1  0.09890000  0.89260000  0.66330000  1.0 -0.7696269541
O  O32  1  0.90110000  0.39260000  0.83670000  1.0 -0.7587758424
O  O33  1  0.96685000  0.34310000  0.33795000  1.0 -0.7785675614
O  O34  1  0.03315000  0.84310000  0.16205000  1.0 -0.7696269541
O  O35  1  0.03315000  0.65690000  0.66205000  1.0 -0.7696269541
O  O36  1  0.96685000  0.15690000  0.83795000  1.0 -0.7785675614
O  O37  1  0.21880000  0.37253000  0.35610000  1.0 -0.744517961
O  O38  1  0.78120000  0.87253000  0.14390000  1.0 -0.7508572542
O  O39  1  0.78120000  0.62747000  0.64390000  1.0 -0.744517961
O  O40  1  0.21880000  0.12747000  0.85610000  1.0 -0.744517961
O  O41  1  0.09176000  0.22545000  0.27346000  1.0 -0.7137799848
O  O42  1  0.90824000  0.72545000  0.22654000  1.0 -0.7170022417
O  O43  1  0.90824000  0.77455000  0.72654000  1.0 -0.7170022417
O  O44  1  0.09176000  0.27455000  0.77346000  1.0 -0.7137799848
O  O45  1  0.03591000  0.41297000  0.22971000  1.0 -0.8198464054
O  O46  1  0.96409000  0.91297000  0.27029000  1.0 -0.8198464054
O  O47  1  0.96409000  0.58703000  0.77029000  1.0 -0.8198464054
O  O48  1  0.03591000  0.08703000  0.72971000  1.0 -0.8198464054
O  O49  1  0.27307000  0.87307000  0.32717000  1.0 -0.7587758424
O  O50  1  0.72693000  0.37307000  0.17283000  1.0 -0.7587758424
O  O51  1  0.72693000  0.12693000  0.67283000  1.0 -0.7587758424
O  O52  1  0.27307000  0.62693000  0.82717000  1.0 -0.7587758424
O  O53  1  0.19644000  0.03707000  0.37974000  1.0 -0.7587758424
O  O54  1  0.80356000  0.53707000  0.12026000  1.0 -0.7587758424
O  O55  1  0.80356000  0.96293000  0.62026000  1.0 -0.7587758424
O  O56  1  0.19644000  0.46293000  0.87974000  1.0 -0.7587758424
O  O57  1  0.44515000  0.01014000  0.39375000  1.0 -0.8014422644
O  O58  1  0.55485000  0.51014000  0.10625000  1.0 -0.8014422644
O  O59  1  0.55485000  0.98986000  0.60625000  1.0 -0.8014422644
O  O60  1  0.44515000  0.48986000  0.89375000  1.0 -0.8014422644
O  O61  1  0.33557000  0.89870000  0.46887000  1.0 -0.7508572542
O  O62  1  0.66443000  0.39870000  0.03113000  1.0 -0.7508572542
O  O63  1  0.66443000  0.10130000  0.53113000  1.0 -0.7508572542
O  O64  1  0.33557000  0.60130000  0.96887000  1.0 -0.7508572542
F  F1  1  0.88359000  0.08579000  0.17319000  1.0 -0.6662470091
F  F2  1  0.11641000  0.58579000  0.32681000  1.0 -0.6662470091
F  F3  1  0.11641000  0.91421000  0.82681000  1.0 -0.6636826027
F  F4  1  0.88359000  0.41421000  0.67319000  1.0 -0.6636826027
F  F5  1  0.16722000  0.03385000  0.22052000  1.0 -0.6636826027
F  F6  1  0.83278000  0.53385000  0.27948000  1.0 -0.6636826027
F  F7  1  0.83278000  0.96615000  0.77948000  1.0 -0.6662470091
F  F8  1  0.16722000  0.46615000  0.72052000  1.0 -0.6636826027
