# DDEC6 charges by PACMAN v1.1 (https://github.com/mtap-research/PACMAN-charge/)
data_FIVQOR_FSR_pacman
_symmetry_space_group_name_H-M   'P 1'
_cell_length_a   8.12170000
_cell_length_b   8.96010000
_cell_length_c   10.74860000
_cell_angle_alpha   108.31700000
_cell_angle_beta   110.72700000
_cell_angle_gamma   101.90300000
_symmetry_Int_Tables_number   1
_chemical_formula_structural   Ga5P4C2(O11F)2
_chemical_formula_sum   'Ga5 P4 C2 O22 F2'
_cell_volume   648.58140285
_cell_formula_units_Z   1
loop_
 _symmetry_equiv_pos_site_id
 _symmetry_equiv_pos_as_xyz
  1  'x, y, z'
loop_
 _atom_site_type_symbol
 _atom_site_label
 _atom_site_symmetry_multiplicity
 _atom_site_fract_x
 _atom_site_fract_y
 _atom_site_fract_z
 _atom_site_occupancy
 _atom_site_charge
Ga  Ga1  1  0.16437000  0.01129000  0.36296000  1.0 1.4392647147
Ga  Ga2  1  0.83563000  0.98871000  0.63704000  1.0 1.4392647147
Ga  Ga3  1  0.72346000  0.44598000  0.44691000  1.0 1.5430141091
Ga  Ga4  1  0.27654000  0.55402000  0.55309000  1.0 1.5430141091
Ga  Ga5  1  0.00000000  0.00000000  0.00000000  1.0 1.4392647147
P  P1  1  0.03276000  0.75786000  0.48356000  1.0 1.5969732404
P  P2  1  0.96724000  0.24214000  0.51644000  1.0 1.5946272016
P  P3  1  0.30029000  0.32099000  0.29119000  1.0 1.5691502094
P  P4  1  0.69971000  0.67901000  0.70881000  1.0 1.5691502094
C  C1  1  0.49480000  0.94770000  0.42550000  1.0 0.5180898905
C  C2  1  0.50520000  0.05230000  0.57450000  1.0 0.5180898905
O  O1  1  0.34580000  0.90530000  0.31390000  1.0 -0.3969166875
O  O2  1  0.65420000  0.09470000  0.68610000  1.0 -0.3969166875
O  O3  1  0.03670000  0.80120000  0.35830000  1.0 -0.7185752789
O  O4  1  0.96330000  0.19880000  0.64170000  1.0 -0.7185752789
O  O5  1  0.63910000  0.91320000  0.42970000  1.0 -0.4169368744
O  O6  1  0.36090000  0.08680000  0.57030000  1.0 -0.4169368744
O  O7  1  0.00370000  0.88800000  0.59350000  1.0 -0.7185752789
O  O8  1  0.99630000  0.11200000  0.40650000  1.0 -0.7185752789
O  O9  1  0.32130000  0.21290000  0.37440000  1.0 -0.7704414129
O  O10  1  0.67870000  0.78710000  0.62560000  1.0 -0.7704414129
O  O11  1  0.49400000  0.39900000  0.30010000  1.0 -0.6770660281
O  O12  1  0.50600000  0.60100000  0.69990000  1.0 -0.6770660281
O  O13  1  0.22230000  0.74610000  0.57200000  1.0 -0.6966971358
O  O14  1  0.77770000  0.25390000  0.42800000  1.0 -0.6966971358
O  O15  1  0.88010000  0.58210000  0.40880000  1.0 -0.7185752789
O  O16  1  0.11990000  0.41790000  0.59120000  1.0 -0.7185752789
O  O17  1  0.78280000  0.04980000  0.99620000  1.0 -0.5064880848
O  O18  1  0.21720000  0.95020000  0.00380000  1.0 -0.4842588305
O  O19  1  0.15390000  0.23250000  0.13210000  1.0 -0.6405537129
O  O20  1  0.84610000  0.76750000  0.86790000  1.0 -0.6405537129
O  O21  1  0.24630000  0.46770000  0.36660000  1.0 -0.6940851808
O  O22  1  0.75370000  0.53230000  0.63340000  1.0 -0.6966971358
F  F1  1  0.01310000  0.93100000  0.15800000  1.0 -0.4398491979
F  F2  1  0.98690000  0.06900000  0.84200000  1.0 -0.4398491979
