# DDEC6 charges by PACMAN v1.1 (https://github.com/mtap-research/PACMAN-charge/)
data_FIVXUG_ASR_pacman
_symmetry_space_group_name_H-M   'P 1'
_cell_length_a   12.90600000
_cell_length_b   16.15800000
_cell_length_c   16.35000000
_cell_angle_alpha   100.66400000
_cell_angle_beta   89.30200000
_cell_angle_gamma   103.86500000
_symmetry_Int_Tables_number   1
_chemical_formula_structural   Cd3H88(C59O16)2
_chemical_formula_sum   'Cd3 H88 C118 O32'
_cell_volume   3251.18728342
_cell_formula_units_Z   1
loop_
 _symmetry_equiv_pos_site_id
 _symmetry_equiv_pos_as_xyz
  1  'x, y, z'
loop_
 _atom_site_type_symbol
 _atom_site_label
 _atom_site_symmetry_multiplicity
 _atom_site_fract_x
 _atom_site_fract_y
 _atom_site_fract_z
 _atom_site_occupancy
 _atom_site_charge
Cd  Cd1  1  0.78302000  0.35380000  0.65436000  1.0 0.9737141939
Cd  Cd2  1  0.21698000  0.64620000  0.34564000  1.0 0.9737141939
Cd  Cd3  1  0.00000000  0.50000000  0.50000000  1.0 0.8752418371
H  H1  1  0.44220000  0.31010000  0.76160000  1.0 0.1296342147
H  H2  1  0.38400000  0.11510000  0.94000000  1.0 0.1208029512
H  H3  1  0.48170000  0.03640000  0.75060000  1.0 0.1087757572
H  H4  1  0.39730000  0.98680000  0.89910000  1.0 0.0921082931
H  H5  1  0.44230000  0.92380000  0.83140000  1.0 0.0989004331
H  H6  1  0.56820000  0.98780000  0.93570000  1.0 0.1296342147
H  H7  1  0.56450000  0.08010000  0.92030000  1.0 0.1208029512
H  H8  1  0.60950000  0.01700000  0.85240000  1.0 0.1296342147
H  H9  1  0.21400000  0.03670000  0.78330000  1.0 0.1296342147
H  H10  1  0.26110000  0.80260000  0.58970000  1.0 0.1500975105
H  H11  1  0.98490000  0.93410000  0.65710000  1.0 0.0989004331
H  H12  1  0.97580000  0.82530000  0.73820000  1.0 0.0989004331
H  H13  1  0.98930000  0.89750000  0.81820000  1.0 0.0921082931
H  H14  1  0.81610000  0.82770000  0.79460000  1.0 0.1296342147
H  H15  1  0.81790000  0.85220000  0.70610000  1.0 0.1208029512
H  H16  1  0.83140000  0.92490000  0.78610000  1.0 0.1296342147
H  H17  1  0.04610000  0.22940000  0.69650000  1.0 0.1385738589
H  H18  1  0.99410000  0.02730000  0.86780000  1.0 0.1208029512
H  H19  1  0.92530000  0.21500000  0.96070000  1.0 0.1087757572
H  H20  1  0.98220000  0.06840000  0.99990000  1.0 0.0921082931
H  H21  1  0.93360000  0.13110000  0.06520000  1.0 0.0989004331
H  H22  1  0.80100000  0.00950000  0.00990000  1.0 0.1296342147
H  H23  1  0.82310000  0.02860000  0.91990000  1.0 0.1296342147
H  H24  1  0.77440000  0.09150000  0.98520000  1.0 0.1385738589
H  H25  1  0.13690000  0.39800000  0.16960000  1.0 0.1385738589
H  H26  1  0.19100000  0.19280000  0.95030000  1.0 0.1296342147
H  H27  1  0.42830000  0.32980000  0.04470000  1.0 0.0989004331
H  H28  1  0.41670000  0.24690000  0.63890000  1.0 0.1208029512
H  H29  1  0.44620000  0.17290000  0.57340000  1.0 0.1385738589
H  H30  1  0.52640000  0.43310000  0.84040000  1.0 0.1296342147
H  H31  1  0.49510000  0.50360000  0.90910000  1.0 0.1385738589
H  H32  1  0.28880000  0.49160000  0.72740000  1.0 0.2200316948
H  H33  1  0.38650000  0.42400000  0.27540000  1.0 0.1385738589
H  H34  1  0.26840000  0.36910000  0.26130000  1.0 0.1296342147
H  H35  1  0.98390000  0.34910000  0.21020000  1.0 0.1208029512
H  H36  1  0.93630000  0.41130000  0.16640000  1.0 0.1296342147
H  H37  1  0.12910000  0.34790000  0.78150000  1.0 0.1208029512
H  H38  1  0.09770000  0.41560000  0.85260000  1.0 0.1296342147
H  H39  1  0.97950000  0.15340000  0.57150000  1.0 0.1296342147
H  H40  1  0.02580000  0.09280000  0.50220000  1.0 0.1296342147
H  H41  1  0.25920000  0.30350000  0.55360000  1.0 0.2200316948
H  H42  1  0.98150000  0.69850000  0.55840000  1.0 0.1296342147
H  H43  1  0.08560000  0.70920000  0.61150000  1.0 0.1296342147
H  H44  1  0.69910000  0.78830000  0.60860000  1.0 0.1635606946
H  H45  1  0.55780000  0.68990000  0.23840000  1.0 0.1296342147
H  H46  1  0.61600000  0.88490000  0.06000000  1.0 0.1208029512
H  H47  1  0.51830000  0.96360000  0.24940000  1.0 0.1087757572
H  H48  1  0.60270000  0.01320000  0.10090000  1.0 0.0921082931
H  H49  1  0.55770000  0.07620000  0.16860000  1.0 0.0989004331
H  H50  1  0.43180000  0.01220000  0.06430000  1.0 0.1296342147
H  H51  1  0.43550000  0.91990000  0.07970000  1.0 0.1208029512
H  H52  1  0.39050000  0.98300000  0.14760000  1.0 0.1296342147
H  H53  1  0.78600000  0.96330000  0.21670000  1.0 0.1296342147
H  H54  1  0.73890000  0.19740000  0.41030000  1.0 0.1500975105
H  H55  1  0.01510000  0.06590000  0.34290000  1.0 0.0989004331
H  H56  1  0.02420000  0.17470000  0.26180000  1.0 0.0989004331
H  H57  1  0.01070000  0.10250000  0.18180000  1.0 0.0921082931
H  H58  1  0.18390000  0.17230000  0.20540000  1.0 0.1296342147
H  H59  1  0.18210000  0.14780000  0.29390000  1.0 0.1208029512
H  H60  1  0.16860000  0.07510000  0.21390000  1.0 0.1296342147
H  H61  1  0.95390000  0.77060000  0.30350000  1.0 0.1385738589
H  H62  1  0.00590000  0.97270000  0.13220000  1.0 0.1208029512
H  H63  1  0.07470000  0.78500000  0.03930000  1.0 0.1087757572
H  H64  1  0.01780000  0.93160000  0.00010000  1.0 0.0921082931
H  H65  1  0.06640000  0.86890000  0.93480000  1.0 0.0989004331
H  H66  1  0.19900000  0.99050000  0.99010000  1.0 0.1296342147
H  H67  1  0.17690000  0.97140000  0.08010000  1.0 0.1296342147
H  H68  1  0.22560000  0.90850000  0.01480000  1.0 0.1385738589
H  H69  1  0.86310000  0.60200000  0.83040000  1.0 0.1385738589
H  H70  1  0.80900000  0.80720000  0.04970000  1.0 0.1296342147
H  H71  1  0.57170000  0.67020000  0.95530000  1.0 0.0989004331
H  H72  1  0.58330000  0.75310000  0.36110000  1.0 0.1208029512
H  H73  1  0.55380000  0.82710000  0.42660000  1.0 0.1385738589
H  H74  1  0.47360000  0.56690000  0.15960000  1.0 0.1296342147
H  H75  1  0.50490000  0.49640000  0.09090000  1.0 0.1385738589
H  H76  1  0.71120000  0.50840000  0.27260000  1.0 0.2200316948
H  H77  1  0.61350000  0.57600000  0.72460000  1.0 0.1385738589
H  H78  1  0.73160000  0.63090000  0.73870000  1.0 0.1296342147
H  H79  1  0.01610000  0.65090000  0.78980000  1.0 0.1208029512
H  H80  1  0.06370000  0.58870000  0.83360000  1.0 0.1296342147
H  H81  1  0.87090000  0.65210000  0.21850000  1.0 0.1208029512
H  H82  1  0.90230000  0.58440000  0.14740000  1.0 0.1296342147
H  H83  1  0.02050000  0.84660000  0.42850000  1.0 0.1296342147
H  H84  1  0.97420000  0.90720000  0.49780000  1.0 0.1296342147
H  H85  1  0.74080000  0.69650000  0.44640000  1.0 0.2200316948
H  H86  1  0.01850000  0.30150000  0.44160000  1.0 0.1296342147
H  H87  1  0.91440000  0.29080000  0.38850000  1.0 0.1296342147
H  H88  1  0.30090000  0.21170000  0.39140000  1.0 0.1635606946
C  C1  1  0.43050000  0.27090000  0.79770000  1.0 -0.3505343584
C  C2  1  0.41510000  0.29810000  0.88230000  1.0 0.2200316948
C  C3  1  0.39620000  0.24070000  0.93690000  1.0 -0.0182587363
C  C4  1  0.39630000  0.15440000  0.90390000  1.0 -0.1979460729
C  C5  1  0.41320000  0.12350000  0.82160000  1.0 -0.0027868901
C  C6  1  0.42780000  0.18390000  0.76880000  1.0 0.2112071427
C  C7  1  0.42120000  0.03130000  0.78770000  1.0 -0.0574930779
C  C8  1  0.44910000  0.98440000  0.85580000  1.0 -0.1493650861
C  C9  1  0.55730000  0.02050000  0.89440000  1.0 -0.3621288626
C  C10  1  0.32620000  0.97570000  0.73500000  1.0 -0.0076895703
C  C11  1  0.22330000  0.98970000  0.74410000  1.0 -0.1804414348
C  C12  1  0.13460000  0.93710000  0.69760000  1.0 -0.0027868901
C  C13  1  0.15150000  0.86760000  0.63800000  1.0 0.2006143046
C  C14  1  0.25170000  0.85020000  0.62810000  1.0 -0.3116286931
C  C15  1  0.33760000  0.90510000  0.67620000  1.0 0.2254373046
C  C16  1  0.02110000  0.94760000  0.71200000  1.0 -0.0515234197
C  C17  1  0.96130000  0.88100000  0.76120000  1.0 -0.1493650861
C  C18  1  0.84710000  0.87060000  0.76210000  1.0 -0.3505343584
C  C19  1  0.02020000  0.04060000  0.74900000  1.0 -0.0076895703
C  C20  1  0.03390000  0.10270000  0.69860000  1.0 0.2112071427
C  C21  1  0.03520000  0.18840000  0.73090000  1.0 -0.3505343584
C  C22  1  0.01990000  0.21250000  0.81530000  1.0 0.2112071427
C  C23  1  0.00220000  0.15290000  0.86860000  1.0 -0.0076895703
C  C24  1  0.00410000  0.06810000  0.83330000  1.0 -0.1893818674
C  C25  1  0.97970000  0.18170000  0.95970000  1.0 -0.0574930779
C  C26  1  0.93440000  0.10700000  0.00630000  1.0 -0.1493650861
C  C27  1  0.82310000  0.05430000  0.97770000  1.0 -0.3505343584
C  C28  1  0.07590000  0.24150000  0.00900000  1.0 -0.0076895703
C  C29  1  0.06270000  0.30310000  0.07770000  1.0 0.2006143046
C  C30  1  0.14780000  0.35540000  0.12600000  1.0 -0.3357600061
C  C31  1  0.24920000  0.34510000  0.11040000  1.0 0.2006143046
C  C32  1  0.26760000  0.28480000  0.04350000  1.0 0.0088347165
C  C33  1  0.17960000  0.23410000  0.99490000  1.0 -0.1893818674
C  C34  1  0.37950000  0.27240000  0.02890000  1.0 -0.0909523977
C  C35  1  0.40970000  0.21510000  0.08520000  1.0 0.1087757572
C  C36  1  0.53150000  0.23020000  0.08980000  1.0 -0.0027868901
C  C37  1  0.46270000  0.20680000  0.62920000  1.0 -0.1415632603
C  C38  1  0.57840000  0.25840000  0.63410000  1.0 0.575954518
C  C39  1  0.46690000  0.44990000  0.87020000  1.0 -0.0515234197
C  C40  1  0.39340000  0.46480000  0.81110000  1.0 0.0428257833
C  C41  1  0.33510000  0.47970000  0.76440000  1.0 -0.288162866
C  C42  1  0.32000000  0.41700000  0.24500000  1.0 -0.15879242
C  C43  1  0.28070000  0.49860000  0.27020000  1.0 0.5728279563
C  C44  1  0.93290000  0.35100000  0.16790000  1.0 -0.0182587363
C  C45  1  0.83200000  0.31010000  0.18650000  1.0 -0.0336623894
C  C46  1  0.73360000  0.30800000  0.20500000  1.0 0.0303429008
C  C47  1  0.06920000  0.36390000  0.81120000  1.0 -0.15879242
C  C48  1  0.99840000  0.38630000  0.75040000  1.0 0.5889688345
C  C49  1  0.04000000  0.12830000  0.55750000  1.0 -0.0515234197
C  C50  1  0.13460000  0.19810000  0.55560000  1.0 0.0303429008
C  C51  1  0.20260000  0.25560000  0.55450000  1.0 -0.3001344887
C  C52  1  0.05640000  0.72860000  0.56610000  1.0 -0.1688692855
C  C53  1  0.11340000  0.70260000  0.48750000  1.0 0.5889688345
C  C54  1  0.45340000  0.81810000  0.61000000  1.0 0.1208029512
C  C55  1  0.55040000  0.80800000  0.61400000  1.0 0.0807642552
C  C56  1  0.63050000  0.79740000  0.61110000  1.0 -0.2086417986
C  C57  1  0.79300000  0.23160000  0.19250000  1.0 -0.130943024
C  C58  1  0.43530000  0.74940000  0.64030000  1.0 -0.1688692855
C  C59  1  0.41380000  0.23720000  0.17210000  1.0 -0.1804414348
C  C60  1  0.56950000  0.72910000  0.20230000  1.0 -0.3505343584
C  C61  1  0.58490000  0.70190000  0.11770000  1.0 0.2200316948
C  C62  1  0.60380000  0.75930000  0.06310000  1.0 -0.0182587363
C  C63  1  0.60370000  0.84560000  0.09610000  1.0 -0.1979460729
C  C64  1  0.58680000  0.87650000  0.17840000  1.0 -0.0027868901
C  C65  1  0.57220000  0.81610000  0.23120000  1.0 0.2112071427
C  C66  1  0.57880000  0.96870000  0.21230000  1.0 -0.0574930779
C  C67  1  0.55090000  0.01560000  0.14420000  1.0 -0.1493650861
C  C68  1  0.44270000  0.97950000  0.10560000  1.0 -0.3621288626
C  C69  1  0.67380000  0.02430000  0.26500000  1.0 -0.0076895703
C  C70  1  0.77670000  0.01030000  0.25590000  1.0 -0.1804414348
C  C71  1  0.86540000  0.06290000  0.30240000  1.0 -0.0027868901
C  C72  1  0.84850000  0.13240000  0.36200000  1.0 0.2006143046
C  C73  1  0.74830000  0.14980000  0.37190000  1.0 -0.3116286931
C  C74  1  0.66240000  0.09490000  0.32380000  1.0 0.2254373046
C  C75  1  0.97890000  0.05240000  0.28800000  1.0 -0.0515234197
C  C76  1  0.03870000  0.11900000  0.23880000  1.0 -0.1493650861
C  C77  1  0.15290000  0.12940000  0.23790000  1.0 -0.3505343584
C  C78  1  0.97980000  0.95940000  0.25100000  1.0 -0.0076895703
C  C79  1  0.96610000  0.89730000  0.30140000  1.0 0.2112071427
C  C80  1  0.96480000  0.81160000  0.26910000  1.0 -0.3505343584
C  C81  1  0.98010000  0.78750000  0.18470000  1.0 0.2112071427
C  C82  1  0.99780000  0.84710000  0.13140000  1.0 -0.0027868901
C  C83  1  0.99590000  0.93190000  0.16670000  1.0 -0.1893818674
C  C84  1  0.02030000  0.81830000  0.04030000  1.0 -0.0574930779
C  C85  1  0.06560000  0.89300000  0.99370000  1.0 -0.1493650861
C  C86  1  0.17690000  0.94570000  0.02230000  1.0 -0.3505343584
C  C87  1  0.92410000  0.75850000  0.99100000  1.0 -0.0076895703
C  C88  1  0.93730000  0.69690000  0.92230000  1.0 0.2006143046
C  C89  1  0.85220000  0.64460000  0.87400000  1.0 -0.3357600061
C  C90  1  0.75080000  0.65490000  0.88960000  1.0 0.2006143046
C  C91  1  0.73240000  0.71520000  0.95650000  1.0 0.0088347165
C  C92  1  0.82040000  0.76590000  0.00510000  1.0 -0.1893818674
C  C93  1  0.62050000  0.72760000  0.97110000  1.0 -0.0909523977
C  C94  1  0.59030000  0.78490000  0.91480000  1.0 0.1087757572
C  C95  1  0.46850000  0.76980000  0.91020000  1.0 -0.0027868901
C  C96  1  0.53730000  0.79320000  0.37080000  1.0 -0.1415632603
C  C97  1  0.42160000  0.74160000  0.36590000  1.0 0.575954518
C  C98  1  0.53310000  0.55010000  0.12980000  1.0 -0.0515234197
C  C99  1  0.60660000  0.53520000  0.18890000  1.0 0.0428257833
C  C100  1  0.66490000  0.52030000  0.23560000  1.0 -0.288162866
C  C101  1  0.68000000  0.58300000  0.75500000  1.0 -0.15879242
C  C102  1  0.71930000  0.50140000  0.72980000  1.0 0.5728279563
C  C103  1  0.06710000  0.64900000  0.83210000  1.0 -0.0182587363
C  C104  1  0.16800000  0.68990000  0.81350000  1.0 -0.0336623894
C  C105  1  0.26640000  0.69200000  0.79500000  1.0 0.0303429008
C  C106  1  0.93080000  0.63610000  0.18880000  1.0 -0.15879242
C  C107  1  0.00160000  0.61370000  0.24960000  1.0 0.5889688345
C  C108  1  0.96000000  0.87170000  0.44250000  1.0 -0.0515234197
C  C109  1  0.86540000  0.80190000  0.44440000  1.0 0.0303429008
C  C110  1  0.79740000  0.74440000  0.44550000  1.0 -0.3001344887
C  C111  1  0.94360000  0.27140000  0.43390000  1.0 -0.1688692855
C  C112  1  0.88660000  0.29740000  0.51250000  1.0 0.5889688345
C  C113  1  0.54660000  0.18190000  0.39000000  1.0 0.1208029512
C  C114  1  0.44960000  0.19200000  0.38600000  1.0 0.0807642552
C  C115  1  0.36950000  0.20260000  0.38890000  1.0 -0.2086417986
C  C116  1  0.20700000  0.76840000  0.80750000  1.0 -0.130943024
C  C117  1  0.56470000  0.25060000  0.35970000  1.0 -0.1804414348
C  C118  1  0.58620000  0.76280000  0.82790000  1.0 -0.1804414348
O  O1  1  0.44010000  0.89210000  0.66960000  1.0 -0.15879242
O  O2  1  0.06390000  0.81849000  0.58917000  1.0 -0.15879242
O  O3  1  0.04820000  0.07348000  0.61547000  1.0 -0.1804414348
O  O4  1  0.02080000  0.29672000  0.85278000  1.0 -0.1415632603
O  O5  1  0.95810000  0.30830000  0.08940000  1.0 -0.15879242
O  O6  1  0.33680000  0.39540000  0.15903000  1.0 -0.15879242
O  O7  1  0.41780000  0.38358000  0.91616000  1.0 -0.1893818674
O  O8  1  0.44020000  0.15109000  0.68631000  1.0 -0.1415632603
O  O9  1  0.15650000  0.75553000  0.44405000  1.0 -0.4860615519
O  O10  1  0.11400000  0.62273000  0.46755000  1.0 -0.5708041576
O  O11  1  0.04780000  0.44190000  0.70910000  1.0 -0.5933983115
O  O12  1  0.90330000  0.35060000  0.74760000  1.0 -0.4987480206
O  O13  1  0.64360000  0.24630000  0.68280000  1.0 -0.4726264266
O  O14  1  0.60280000  0.31100000  0.58630000  1.0 -0.5144469527
O  O15  1  0.23710000  0.50690000  0.34010000  1.0 -0.5508866099
O  O16  1  0.29530000  0.55530000  0.22820000  1.0 -0.4987480206
O  O17  1  0.55990000  0.10790000  0.33040000  1.0 -0.15879242
O  O18  1  0.93610000  0.18151000  0.41083000  1.0 -0.15879242
O  O19  1  0.95180000  0.92652000  0.38453000  1.0 -0.1804414348
O  O20  1  0.97920000  0.70328000  0.14722000  1.0 -0.1415632603
O  O21  1  0.04190000  0.69170000  0.91060000  1.0 -0.15879242
O  O22  1  0.66320000  0.60460000  0.84097000  1.0 -0.15879242
O  O23  1  0.58220000  0.61642000  0.08384000  1.0 -0.1804414348
O  O24  1  0.55980000  0.84891000  0.31369000  1.0 -0.1415632603
O  O25  1  0.84350000  0.24447000  0.55595000  1.0 -0.4860615519
O  O26  1  0.88600000  0.37727000  0.53245000  1.0 -0.5708041576
O  O27  1  0.95220000  0.55810000  0.29090000  1.0 -0.5933983115
O  O28  1  0.09670000  0.64940000  0.25240000  1.0 -0.4987480206
O  O29  1  0.35640000  0.75370000  0.31720000  1.0 -0.4726264266
O  O30  1  0.39720000  0.68900000  0.41370000  1.0 -0.5144469527
O  O31  1  0.76290000  0.49310000  0.65990000  1.0 -0.5508866099
O  O32  1  0.70470000  0.44470000  0.77180000  1.0 -0.4987480206
