# DDEC6 charges by PACMAN v1.1 (https://github.com/mtap-research/PACMAN-charge/)
data_FIVYEP01_FSR_pacman
_symmetry_space_group_name_H-M   'P 1'
_cell_length_a   12.06820000
_cell_length_b   12.06820000
_cell_length_c   14.61400000
_cell_angle_alpha   86.17390000
_cell_angle_beta   93.82610000
_cell_angle_gamma   115.71600000
_symmetry_Int_Tables_number   1
_chemical_formula_structural   KMgUH2C7O15
_chemical_formula_sum   'K4 Mg4 U4 H8 C28 O60'
_cell_volume   1911.63432472
_cell_formula_units_Z   4
loop_
 _symmetry_equiv_pos_site_id
 _symmetry_equiv_pos_as_xyz
  1  'x, y, z'
loop_
 _atom_site_type_symbol
 _atom_site_label
 _atom_site_symmetry_multiplicity
 _atom_site_fract_x
 _atom_site_fract_y
 _atom_site_fract_z
 _atom_site_occupancy
 _atom_site_charge
K  K1  1  0.21232000  0.78768000  0.56496000  1.0 0.8848102032
K  K2  1  0.78768000  0.21232000  0.43504000  1.0 0.8851557313
K  K3  1  0.06132000  0.93868000  0.40896000  1.0 0.8693898259
K  K4  1  0.93868000  0.06132000  0.59104000  1.0 0.8693898259
Mg  Mg1  1  0.78714000  0.63086000  0.43330000  1.0 0.8693898259
Mg  Mg2  1  0.63086000  0.78714000  0.56670000  1.0 0.8693898259
Mg  Mg3  1  0.21286000  0.36914000  0.56670000  1.0 0.8693898259
Mg  Mg4  1  0.36914000  0.21286000  0.43330000  1.0 0.8693898259
U  U1  1  0.94580000  0.55638000  0.78904000  1.0 2.2417644201
U  U2  1  0.55638000  0.94580000  0.21096000  1.0 2.2417644201
U  U3  1  0.05420000  0.44362000  0.21096000  1.0 2.2417644201
U  U4  1  0.44362000  0.05420000  0.78904000  1.0 2.2417644201
H  H1  1  0.50260000  0.56700000  0.40710000  1.0 0.3305221102
H  H2  1  0.56700000  0.50260000  0.59290000  1.0 0.3305221102
H  H3  1  0.49740000  0.43300000  0.59290000  1.0 0.3305221102
H  H4  1  0.43300000  0.49740000  0.40710000  1.0 0.3305221102
H  H5  1  0.43730000  0.29890000  0.55730000  1.0 0.3305221102
H  H6  1  0.29890000  0.43730000  0.44270000  1.0 0.3305221102
H  H7  1  0.56270000  0.70110000  0.44270000  1.0 0.3305221102
H  H8  1  0.70110000  0.56270000  0.55730000  1.0 0.3305221102
C  C1  1  0.86690000  0.77730000  0.72390000  1.0 0.5114423393
C  C2  1  0.77730000  0.86690000  0.27610000  1.0 0.5114423393
C  C3  1  0.13310000  0.22270000  0.27610000  1.0 0.5114423393
C  C4  1  0.22270000  0.13310000  0.72390000  1.0 0.5114423393
C  C5  1  0.94560000  0.77380000  0.64750000  1.0 0.5012054904
C  C6  1  0.77380000  0.94560000  0.35250000  1.0 0.5012054904
C  C7  1  0.05440000  0.22620000  0.35250000  1.0 0.5012054904
C  C8  1  0.22620000  0.05440000  0.64750000  1.0 0.5012054904
C  C9  1  0.14070000  0.56470000  0.40950000  1.0 0.4935185302
C  C10  1  0.56470000  0.14070000  0.59050000  1.0 0.4935185302
C  C11  1  0.85930000  0.43530000  0.59050000  1.0 0.4935185302
C  C12  1  0.43530000  0.85930000  0.40950000  1.0 0.4935185302
C  C13  1  0.04760000  0.61440000  0.37170000  1.0 0.5114423393
C  C14  1  0.61440000  0.04760000  0.62830000  1.0 0.5114423393
C  C15  1  0.95240000  0.38560000  0.62830000  1.0 0.5114423393
C  C16  1  0.38560000  0.95240000  0.37170000  1.0 0.5114423393
C  C17  1  0.18800000  0.81200000  0.85120000  1.0 0.5114423393
C  C18  1  0.81200000  0.18800000  0.14880000  1.0 0.5114423393
C  C19  1  0.24200000  0.75800000  0.78430000  1.0 0.4935185302
C  C20  1  0.75800000  0.24200000  0.21570000  1.0 0.4935185302
C  C21  1  0.65420000  0.34580000  0.81370000  1.0 0.5012054904
C  C22  1  0.34580000  0.65420000  0.18630000  1.0 0.5012054904
C  C23  1  0.72920000  0.27080000  0.82600000  1.0 0.5012054904
C  C24  1  0.27080000  0.72920000  0.17400000  1.0 0.5012054904
C  C25  1  0.05210000  0.48410000  0.98610000  1.0 0.5230707465
C  C26  1  0.48410000  0.05210000  0.01390000  1.0 0.5230707465
C  C27  1  0.94790000  0.51590000  0.01390000  1.0 0.5230707465
C  C28  1  0.51590000  0.94790000  0.98610000  1.0 0.5230707465
O  O1  1  0.85325000  0.69875000  0.78960000  1.0 -0.4966496767
O  O2  1  0.69875000  0.85325000  0.21040000  1.0 -0.4966496767
O  O3  1  0.14675000  0.30125000  0.21040000  1.0 -0.4946929277
O  O4  1  0.30125000  0.14675000  0.78960000  1.0 -0.4966496767
O  O5  1  0.00880000  0.71380000  0.67000000  1.0 -0.6164698811
O  O6  1  0.71380000  0.00880000  0.33000000  1.0 -0.6164698811
O  O7  1  0.99120000  0.28620000  0.33000000  1.0 -0.6164698811
O  O8  1  0.28620000  0.99120000  0.67000000  1.0 -0.6164698811
O  O9  1  0.94250000  0.82450000  0.57120000  1.0 -0.5825801776
O  O10  1  0.82450000  0.94250000  0.42880000  1.0 -0.5825801776
O  O11  1  0.05750000  0.17550000  0.42880000  1.0 -0.5825801776
O  O12  1  0.17550000  0.05750000  0.57120000  1.0 -0.5825801776
O  O13  1  0.82350000  0.85310000  0.71740000  1.0 -0.5270888866
O  O14  1  0.85310000  0.82350000  0.28260000  1.0 -0.5270888866
O  O15  1  0.17650000  0.14690000  0.28260000  1.0 -0.5270888866
O  O16  1  0.14690000  0.17650000  0.71740000  1.0 -0.5270888866
O  O17  1  0.98755000  0.56205000  0.29980000  1.0 -0.5200551809
O  O18  1  0.56205000  0.98755000  0.70020000  1.0 -0.5200551809
O  O19  1  0.01245000  0.43795000  0.70020000  1.0 -0.5200551809
O  O20  1  0.43795000  0.01245000  0.29980000  1.0 -0.5200551809
O  O21  1  0.17440000  0.51680000  0.34790000  1.0 -0.5715343715
O  O22  1  0.51680000  0.17440000  0.65210000  1.0 -0.5715343715
O  O23  1  0.82560000  0.48320000  0.65210000  1.0 -0.5715343715
O  O24  1  0.48320000  0.82560000  0.34790000  1.0 -0.5715343715
O  O25  1  0.03680000  0.69680000  0.41080000  1.0 -0.5825801776
O  O26  1  0.69680000  0.03680000  0.58920000  1.0 -0.5825801776
O  O27  1  0.96320000  0.30320000  0.58920000  1.0 -0.5825801776
O  O28  1  0.30320000  0.96320000  0.41080000  1.0 -0.5825801776
O  O29  1  0.17560000  0.57320000  0.49120000  1.0 -0.5436008335
O  O30  1  0.57320000  0.17560000  0.50880000  1.0 -0.5436008335
O  O31  1  0.82440000  0.42680000  0.50880000  1.0 -0.5436008335
O  O32  1  0.42680000  0.82440000  0.49120000  1.0 -0.5436008335
O  O33  1  0.08100000  0.74500000  0.87530000  1.0 -0.5113834303
O  O34  1  0.74500000  0.08100000  0.12470000  1.0 -0.5113834303
O  O35  1  0.91900000  0.25500000  0.12470000  1.0 -0.5113834303
O  O36  1  0.25500000  0.91900000  0.87530000  1.0 -0.5113834303
O  O37  1  0.17428000  0.65212000  0.75880000  1.0 -0.5113834303
O  O38  1  0.65212000  0.17428000  0.24120000  1.0 -0.5113834303
O  O39  1  0.82572000  0.34788000  0.24120000  1.0 -0.5113834303
O  O40  1  0.34788000  0.82572000  0.75880000  1.0 -0.5113834303
O  O41  1  0.71392000  0.46088000  0.80990000  1.0 -0.4766921909
O  O42  1  0.46088000  0.71392000  0.19010000  1.0 -0.4766921909
O  O43  1  0.28608000  0.53912000  0.19010000  1.0 -0.4766921909
O  O44  1  0.53912000  0.28608000  0.80990000  1.0 -0.4766921909
O  O45  1  0.84351000  0.33009000  0.83050000  1.0 -0.5113834303
O  O46  1  0.33009000  0.84351000  0.16950000  1.0 -0.5113834303
O  O47  1  0.15649000  0.66991000  0.16950000  1.0 -0.5113834303
O  O48  1  0.66991000  0.15649000  0.83050000  1.0 -0.5113834303
O  O49  1  0.06951000  0.48969000  0.90210000  1.0 -0.4966496767
O  O50  1  0.48969000  0.06951000  0.09790000  1.0 -0.4966496767
O  O51  1  0.93049000  0.51031000  0.09790000  1.0 -0.4946929277
O  O52  1  0.51031000  0.93049000  0.90210000  1.0 -0.4966496767
O  O53  1  0.11088000  0.45612000  0.04970000  1.0 -0.4966496767
O  O54  1  0.45612000  0.11088000  0.95030000  1.0 -0.4966496767
O  O55  1  0.88912000  0.54388000  0.95030000  1.0 -0.4966496767
O  O56  1  0.54388000  0.88912000  0.04970000  1.0 -0.4966496767
O  O57  1  0.56880000  0.64660000  0.39810000  1.0 -0.7500275882
O  O58  1  0.64660000  0.56880000  0.60190000  1.0 -0.7500275882
O  O59  1  0.43120000  0.35340000  0.60190000  1.0 -0.7500275882
O  O60  1  0.35340000  0.43120000  0.39810000  1.0 -0.7500275882
