# DDEC6 charges by PACMAN v1.1 (https://github.com/mtap-research/PACMAN-charge/)
data_FIVYUF_ASR_pacman
_symmetry_space_group_name_H-M   'P 1'
_cell_length_a   14.13330000
_cell_length_b   14.13330000
_cell_length_c   24.20000000
_cell_angle_alpha   66.82210000
_cell_angle_beta   113.17800000
_cell_angle_gamma   140.38200000
_symmetry_Int_Tables_number   1
_chemical_formula_structural   SnH21C15NO4
_chemical_formula_sum   'Sn6 H126 C90 N6 O24'
_cell_volume   2799.75494462
_cell_formula_units_Z   6
loop_
 _symmetry_equiv_pos_site_id
 _symmetry_equiv_pos_as_xyz
  1  'x, y, z'
loop_
 _atom_site_type_symbol
 _atom_site_label
 _atom_site_symmetry_multiplicity
 _atom_site_fract_x
 _atom_site_fract_y
 _atom_site_fract_z
 _atom_site_occupancy
 _atom_site_charge
Sn  Sn1  1  0.38486000  0.28568000  0.23417000  1.0 1.1994952136
Sn  Sn2  1  0.71432000  0.61514000  0.73417000  1.0 1.1994952136
Sn  Sn3  1  0.59499000  0.85183000  0.49518000  1.0 1.1917814785
Sn  Sn4  1  0.14817000  0.40501000  0.99518000  1.0 1.1917814785
Sn  Sn5  1  0.31595000  0.09433000  0.03440000  1.0 1.1831597262
Sn  Sn6  1  0.90567000  0.68405000  0.53440000  1.0 1.1831597262
H  H1  1  0.43080000  0.06980000  0.34520000  1.0 0.1300350296
H  H2  1  0.93020000  0.56920000  0.84520000  1.0 0.1300350296
H  H3  1  0.59840000  0.01320000  0.27410000  1.0 0.1300350296
H  H4  1  0.98680000  0.40160000  0.77410000  1.0 0.1300350296
H  H5  1  0.55220000  0.11540000  0.17840000  1.0 0.1487786234
H  H6  1  0.88460000  0.44780000  0.67840000  1.0 0.1487786234
H  H7  1  0.16600000  0.01900000  0.20070000  1.0 0.119956946
H  H8  1  0.98100000  0.83400000  0.70070000  1.0 0.119956946
H  H9  1  0.18350000  0.13530000  0.14320000  1.0 0.141146613
H  H10  1  0.86470000  0.81650000  0.64320000  1.0 0.141146613
H  H11  1  0.02030000  0.99870000  0.23810000  1.0 0.0897964848
H  H12  1  0.00130000  0.97970000  0.73810000  1.0 0.0897964848
H  H13  1  0.04440000  0.12340000  0.18320000  1.0 0.1013869257
H  H14  1  0.87660000  0.95560000  0.68320000  1.0 0.1013869257
H  H15  1  0.89560000  0.83920000  0.16420000  1.0 0.0897964848
H  H16  1  0.16080000  0.10440000  0.66420000  1.0 0.0897964848
H  H17  1  0.91450000  0.96230000  0.11060000  1.0 0.0897964848
H  H18  1  0.03770000  0.08550000  0.61060000  1.0 0.0897964848
H  H19  1  0.76070000  0.92250000  0.15780000  1.0 0.119956946
H  H20  1  0.07750000  0.23930000  0.65780000  1.0 0.119956946
H  H21  1  0.67260000  0.78280000  0.12870000  1.0 0.1109049145
H  H22  1  0.21720000  0.32740000  0.62870000  1.0 0.1109049145
H  H23  1  0.72500000  0.78080000  0.20060000  1.0 0.119956946
H  H24  1  0.21920000  0.27500000  0.70060000  1.0 0.119956946
H  H25  1  0.58240000  0.41060000  0.32920000  1.0 0.1300350296
H  H26  1  0.58940000  0.41760000  0.82920000  1.0 0.1300350296
H  H27  1  0.59660000  0.53400000  0.27960000  1.0 0.141146613
H  H28  1  0.46600000  0.40340000  0.77960000  1.0 0.141146613
H  H29  1  0.73520000  0.45940000  0.28100000  1.0 0.0897964848
H  H30  1  0.54060000  0.26480000  0.78100000  1.0 0.0897964848
H  H31  1  0.75180000  0.58620000  0.23240000  1.0 0.1013869257
H  H32  1  0.41380000  0.24820000  0.73240000  1.0 0.1013869257
H  H33  1  0.85720000  0.59600000  0.35970000  1.0 0.0897964848
H  H34  1  0.40400000  0.14280000  0.85970000  1.0 0.0897964848
H  H35  1  0.86930000  0.72090000  0.31250000  1.0 0.0897964848
H  H36  1  0.27910000  0.13070000  0.81250000  1.0 0.0897964848
H  H37  1  0.02580000  0.76380000  0.26380000  1.0 0.119956946
H  H38  1  0.23620000  0.97420000  0.76380000  1.0 0.119956946
H  H39  1  0.10030000  0.82790000  0.32620000  1.0 0.1300350296
H  H40  1  0.17210000  0.89970000  0.82620000  1.0 0.1300350296
H  H41  1  0.03990000  0.67470000  0.32630000  1.0 0.119956946
H  H42  1  0.32530000  0.96010000  0.82630000  1.0 0.119956946
H  H43  1  0.21720000  0.70260000  0.99240000  1.0 0.1300350296
H  H44  1  0.29740000  0.78280000  0.49240000  1.0 0.1300350296
H  H45  1  0.46630000  0.86070000  0.15360000  1.0 0.1300350296
H  H46  1  0.13930000  0.53370000  0.65360000  1.0 0.1300350296
H  H47  1  0.45330000  0.67310000  0.18590000  1.0 0.1487786234
H  H48  1  0.32690000  0.54670000  0.68590000  1.0 0.1487786234
H  H49  1  0.48440000  0.66100000  0.43400000  1.0 0.141146613
H  H50  1  0.33900000  0.51560000  0.93400000  1.0 0.141146613
H  H51  1  0.34770000  0.60690000  0.44970000  1.0 0.1300350296
H  H52  1  0.39310000  0.65230000  0.94970000  1.0 0.1300350296
H  H53  1  0.51500000  0.55280000  0.53770000  1.0 0.1109049145
H  H54  1  0.44720000  0.48500000  0.03770000  1.0 0.1109049145
H  H55  1  0.36180000  0.48240000  0.54550000  1.0 0.0787892738
H  H56  1  0.51760000  0.63820000  0.04550000  1.0 0.0787892738
H  H57  1  0.37880000  0.41340000  0.45410000  1.0 0.0897964848
H  H58  1  0.58660000  0.62120000  0.95410000  1.0 0.0897964848
H  H59  1  0.22610000  0.33750000  0.46590000  1.0 0.0787892738
H  H60  1  0.66250000  0.77390000  0.96590000  1.0 0.0787892738
H  H61  1  0.27230000  0.23870000  0.56810000  1.0 0.119956946
H  H62  1  0.76130000  0.72770000  0.06810000  1.0 0.119956946
H  H63  1  0.23480000  0.16720000  0.51570000  1.0 0.1013869257
H  H64  1  0.83280000  0.76520000  0.01570000  1.0 0.1013869257
H  H65  1  0.40480000  0.29420000  0.54700000  1.0 0.1300350296
H  H66  1  0.70580000  0.59520000  0.04700000  1.0 0.1300350296
H  H67  1  0.82710000  0.07890000  0.55250000  1.0 0.1487786234
H  H68  1  0.92110000  0.17290000  0.05250000  1.0 0.1487786234
H  H69  1  0.69740000  0.06760000  0.53440000  1.0 0.1300350296
H  H70  1  0.93240000  0.30260000  0.03440000  1.0 0.1300350296
H  H71  1  0.75420000  0.18740000  0.43450000  1.0 0.0897964848
H  H72  1  0.81260000  0.24580000  0.93450000  1.0 0.0897964848
H  H73  1  0.87580000  0.18920000  0.44880000  1.0 0.1013869257
H  H74  1  0.81080000  0.12420000  0.94880000  1.0 0.1013869257
H  H75  1  0.90760000  0.35740000  0.50300000  1.0 0.0897964848
H  H76  1  0.64260000  0.09240000  0.00300000  1.0 0.0897964848
H  H77  1  0.03152000  0.36488000  0.51170000  1.0 0.0897964848
H  H78  1  0.63512000  0.96848000  0.01170000  1.0 0.0897964848
H  H79  1  0.93460000  0.46420000  0.40200000  1.0 0.119956946
H  H80  1  0.53580000  0.06540000  0.90200000  1.0 0.119956946
H  H81  1  0.09812000  0.56852000  0.44190000  1.0 0.119956946
H  H82  1  0.43148000  0.90188000  0.94190000  1.0 0.119956946
H  H83  1  0.04440000  0.45680000  0.40560000  1.0 0.119956946
H  H84  1  0.54320000  0.95560000  0.90560000  1.0 0.119956946
H  H85  1  0.12960000  0.92880000  0.42110000  1.0 0.1300350296
H  H86  1  0.07120000  0.87040000  0.92110000  1.0 0.1300350296
H  H87  1  0.10990000  0.22470000  0.33840000  1.0 0.141146613
H  H88  1  0.77530000  0.89010000  0.83840000  1.0 0.141146613
H  H89  1  0.94880000  0.11060000  0.40170000  1.0 0.1487786234
H  H90  1  0.88940000  0.05120000  0.90170000  1.0 0.1487786234
H  H91  1  0.09120000  0.92960000  0.09070000  1.0 0.1300350296
H  H92  1  0.07040000  0.90880000  0.59070000  1.0 0.1300350296
H  H93  1  0.22500000  0.96280000  0.14070000  1.0 0.1300350296
H  H94  1  0.03720000  0.77500000  0.64070000  1.0 0.1300350296
H  H95  1  0.15260000  0.76340000  0.11360000  1.0 0.0787892738
H  H96  1  0.23660000  0.84740000  0.61360000  1.0 0.0787892738
H  H97  1  0.01140000  0.72580000  0.06810000  1.0 0.0897964848
H  H98  1  0.27420000  0.98860000  0.56810000  1.0 0.0897964848
H  H99  1  0.91790000  0.66950000  0.15320000  1.0 0.0897964848
H  H100  1  0.33050000  0.08210000  0.65320000  1.0 0.0897964848
H  H101  1  0.05790000  0.70450000  0.19840000  1.0 0.0897964848
H  H102  1  0.29550000  0.94210000  0.69840000  1.0 0.0897964848
H  H103  1  0.97270000  0.49690000  0.17850000  1.0 0.119956946
H  H104  1  0.50310000  0.02730000  0.67850000  1.0 0.119956946
H  H105  1  0.83120000  0.43660000  0.19340000  1.0 0.1109049145
H  H106  1  0.56340000  0.16880000  0.69340000  1.0 0.1109049145
H  H107  1  0.84650000  0.47070000  0.12430000  1.0 0.119956946
H  H108  1  0.52930000  0.15350000  0.62430000  1.0 0.119956946
H  H109  1  0.50030000  0.36550000  0.97390000  1.0 0.141146613
H  H110  1  0.63450000  0.49970000  0.47390000  1.0 0.141146613
H  H111  1  0.43430000  0.25210000  0.93440000  1.0 0.1300350296
H  H112  1  0.74790000  0.56570000  0.43440000  1.0 0.1300350296
H  H113  1  0.60820000  0.25060000  0.98610000  1.0 0.1013869257
H  H114  1  0.74940000  0.39180000  0.48610000  1.0 0.1013869257
H  H115  1  0.65500000  0.32560000  0.03950000  1.0 0.1013869257
H  H116  1  0.67440000  0.34500000  0.53950000  1.0 0.1013869257
H  H117  1  0.71800000  0.47740000  0.91930000  1.0 0.0897964848
H  H118  1  0.52260000  0.28200000  0.41930000  1.0 0.0897964848
H  H119  1  0.76730000  0.55190000  0.97350000  1.0 0.0897964848
H  H120  1  0.44810000  0.23270000  0.47350000  1.0 0.0897964848
H  H121  1  0.88050000  0.45090000  0.97210000  1.0 0.119956946
H  H122  1  0.54910000  0.11950000  0.47210000  1.0 0.119956946
H  H123  1  0.97260000  0.62340000  0.95830000  1.0 0.119956946
H  H124  1  0.37660000  0.02740000  0.45830000  1.0 0.119956946
H  H125  1  0.93230000  0.53030000  0.02500000  1.0 0.119956946
H  H126  1  0.46970000  0.06770000  0.52500000  1.0 0.119956946
C  C1  1  0.46280000  0.08540000  0.31170000  1.0 0.0621710667
C  C2  1  0.91460000  0.53720000  0.81170000  1.0 0.0621710667
C  C3  1  0.51260000  0.02700000  0.31820000  1.0 -0.0495555908
C  C4  1  0.97300000  0.48740000  0.81820000  1.0 -0.0495555908
C  C5  1  0.55680000  0.04620000  0.26940000  1.0 -0.0596503866
C  C6  1  0.95380000  0.44320000  0.76940000  1.0 -0.0596503866
C  C7  1  0.53850000  0.11470000  0.21400000  1.0 -0.1278124167
C  C8  1  0.88530000  0.46150000  0.71400000  1.0 -0.1278124167
C  C9  1  0.50020000  0.18240000  0.21020000  1.0 0.0672012218
C  C10  1  0.81760000  0.49980000  0.71020000  1.0 0.0672012218
C  C11  1  0.49560000  0.27300000  0.15400000  1.0 0.5244933539
C  C12  1  0.72700000  0.50440000  0.65400000  1.0 0.5244933539
C  C13  1  0.52970000  0.95110000  0.38030000  1.0 0.5318960273
C  C14  1  0.04890000  0.47030000  0.88030000  1.0 0.5318960273
C  C15  1  0.17670000  0.10250000  0.18710000  1.0 -0.5479816026
C  C16  1  0.89750000  0.82330000  0.68710000  1.0 -0.5479816026
C  C17  1  0.03560000  0.04160000  0.19500000  1.0 -0.1163182326
C  C18  1  0.95840000  0.96440000  0.69500000  1.0 -0.1163182326
C  C19  1  0.89940000  0.91720000  0.15360000  1.0 -0.1002000286
C  C20  1  0.08280000  0.10060000  0.65360000  1.0 -0.1002000286
C  C21  1  0.75140000  0.84440000  0.16080000  1.0 -0.3993819258
C  C22  1  0.15560000  0.24860000  0.66080000  1.0 -0.3993819258
C  C23  1  0.59020000  0.45580000  0.28580000  1.0 -0.5238174624
C  C24  1  0.54420000  0.40980000  0.78580000  1.0 -0.5238174624
C  C25  1  0.73810000  0.53490000  0.27510000  1.0 -0.1163182326
C  C26  1  0.46510000  0.26190000  0.77510000  1.0 -0.1163182326
C  C27  1  0.87050000  0.64890000  0.31720000  1.0 -0.1100608225
C  C28  1  0.35110000  0.12950000  0.81720000  1.0 -0.1100608225
C  C29  1  0.02240000  0.73640000  0.30760000  1.0 -0.3993819258
C  C30  1  0.26360000  0.97760000  0.80760000  1.0 -0.3993819258
C  C31  1  0.26490000  0.69670000  0.03220000  1.0 0.0537196738
C  C32  1  0.30330000  0.73510000  0.53220000  1.0 0.0537196738
C  C33  1  0.33990000  0.79950000  0.06910000  1.0 -0.0495555908
C  C34  1  0.20050000  0.66010000  0.56910000  1.0 -0.0495555908
C  C35  1  0.41280000  0.79100000  0.12770000  1.0 -0.0596503866
C  C36  1  0.20900000  0.58720000  0.62770000  1.0 -0.0596503866
C  C37  1  0.40510000  0.68070000  0.14660000  1.0 -0.1278124167
C  C38  1  0.31930000  0.59490000  0.64660000  1.0 -0.1278124167
C  C39  1  0.32700000  0.58040000  0.10840000  1.0 0.0897964848
C  C40  1  0.41960000  0.67300000  0.60840000  1.0 0.0897964848
C  C41  1  0.31290000  0.45610000  0.12660000  1.0 0.5318960273
C  C42  1  0.54390000  0.68710000  0.62660000  1.0 0.5318960273
C  C43  1  0.34760000  0.92040000  0.04870000  1.0 0.5244933539
C  C44  1  0.07960000  0.65240000  0.54870000  1.0 0.5244933539
C  C45  1  0.44580000  0.64300000  0.46720000  1.0 -0.5110077338
C  C46  1  0.35700000  0.55420000  0.96720000  1.0 -0.5110077338
C  C47  1  0.41760000  0.51520000  0.51560000  1.0 -0.1163182326
C  C48  1  0.48480000  0.58240000  0.01560000  1.0 -0.1163182326
C  C49  1  0.32620000  0.37960000  0.48570000  1.0 -0.1002000286
C  C50  1  0.62040000  0.67380000  0.98570000  1.0 -0.1002000286
C  C51  1  0.30790000  0.25930000  0.53330000  1.0 -0.3993819258
C  C52  1  0.74070000  0.69210000  0.03330000  1.0 -0.3993819258
C  C53  1  0.75030000  0.06470000  0.51880000  1.0 -0.5110077338
C  C54  1  0.93530000  0.24970000  0.01880000  1.0 -0.5110077338
C  C55  1  0.83090000  0.19790000  0.46660000  1.0 -0.1100608225
C  C56  1  0.80210000  0.16910000  0.96660000  1.0 -0.1100608225
C  C57  1  0.94920000  0.34940000  0.48260000  1.0 -0.1100608225
C  C58  1  0.65060000  0.05080000  0.98260000  1.0 -0.1100608225
C  C59  1  0.01200000  0.47020000  0.42830000  1.0 -0.3888372904
C  C60  1  0.52980000  0.98800000  0.92830000  1.0 -0.3888372904
C  C61  1  0.08910000  0.96310000  0.41600000  1.0 0.0621710667
C  C62  1  0.03690000  0.91090000  0.91600000  1.0 0.0621710667
C  C63  1  0.13170000  0.08450000  0.37130000  1.0 -0.0596503866
C  C64  1  0.91550000  0.86830000  0.87130000  1.0 -0.0596503866
C  C65  1  0.07920000  0.13960000  0.36760000  1.0 -0.0596503866
C  C66  1  0.86040000  0.92080000  0.86760000  1.0 -0.0596503866
C  C67  1  0.98620000  0.07440000  0.40470000  1.0 -0.1163182326
C  C68  1  0.92560000  0.01380000  0.90470000  1.0 -0.1163182326
C  C69  1  0.94560000  0.95060000  0.44840000  1.0 0.0897964848
C  C70  1  0.04940000  0.05440000  0.94840000  1.0 0.0897964848
C  C71  1  0.83730000  0.86750000  0.48980000  1.0 0.5318960273
C  C72  1  0.13250000  0.16270000  0.98980000  1.0 0.5318960273
C  C73  1  0.23130000  0.15530000  0.32810000  1.0 0.5318960273
C  C74  1  0.84470000  0.76870000  0.82810000  1.0 0.5318960273
C  C75  1  0.16640000  0.92980000  0.10040000  1.0 -0.5388749368
C  C76  1  0.07020000  0.83360000  0.60040000  1.0 -0.5388749368
C  C77  1  0.08030000  0.76570000  0.10640000  1.0 -0.1100608225
C  C78  1  0.23430000  0.91970000  0.60640000  1.0 -0.1163182326
C  C79  1  0.98910000  0.66610000  0.15990000  1.0 -0.1100608225
C  C80  1  0.33390000  0.01090000  0.65990000  1.0 -0.1100608225
C  C81  1  0.90180000  0.50260000  0.16440000  1.0 -0.3842761344
C  C82  1  0.49740000  0.09820000  0.66440000  1.0 -0.3842761344
C  C83  1  0.47800000  0.27860000  0.97590000  1.0 -0.5110077338
C  C84  1  0.72140000  0.52200000  0.47590000  1.0 -0.5110077338
C  C85  1  0.62490000  0.32570000  0.99500000  1.0 -0.1100608225
C  C86  1  0.67430000  0.37510000  0.49500000  1.0 -0.1100608225
C  C87  1  0.74950000  0.47690000  0.96380000  1.0 -0.1100608225
C  C88  1  0.52310000  0.25050000  0.46380000  1.0 -0.1100608225
C  C89  1  0.89690000  0.52470000  0.98140000  1.0 -0.3993819258
C  C90  1  0.47530000  0.10310000  0.48140000  1.0 -0.3993819258
N  N1  1  0.45920000  0.16440000  0.25840000  1.0 -0.2430182522
N  N2  1  0.83560000  0.54080000  0.75840000  1.0 -0.2430182522
N  N3  1  0.25880000  0.58740000  0.05230000  1.0 -0.2496423027
N  N4  1  0.41260000  0.74120000  0.55230000  1.0 -0.2496423027
N  N5  1  0.99190000  0.89350000  0.45200000  1.0 -0.2496423027
N  N6  1  0.10650000  0.00810000  0.95200000  1.0 -0.2496423027
O  O1  1  0.48760000  0.35280000  0.15790000  1.0 -0.4716758556
O  O2  1  0.64720000  0.51240000  0.65790000  1.0 -0.4716758556
O  O3  1  0.49790000  0.26170000  0.10430000  1.0 -0.5110077338
O  O4  1  0.73830000  0.50210000  0.60430000  1.0 -0.5110077338
O  O5  1  0.61950000  0.94590000  0.39090000  1.0 -0.5110077338
O  O6  1  0.05410000  0.38050000  0.89090000  1.0 -0.5110077338
O  O7  1  0.45900000  0.90060000  0.42100000  1.0 -0.5388749368
O  O8  1  0.09940000  0.54100000  0.92100000  1.0 -0.5388749368
O  O9  1  0.22960000  0.36180000  0.09160000  1.0 -0.4773679948
O  O10  1  0.63820000  0.77040000  0.59160000  1.0 -0.4773679948
O  O11  1  0.38280000  0.45200000  0.17970000  1.0 -0.498537394
O  O12  1  0.54800000  0.61720000  0.67970000  1.0 -0.498537394
O  O13  1  0.42990000  0.01650000  0.08240000  1.0 -0.5110077338
O  O14  1  0.98350000  0.57010000  0.58240000  1.0 -0.5110077338
O  O15  1  0.26310000  0.91570000  0.00150000  1.0 -0.5313846892
O  O16  1  0.08430000  0.73690000  0.50150000  1.0 -0.5313846892
O  O17  1  0.79320000  0.74840000  0.52360000  1.0 -0.4857881493
O  O18  1  0.25160000  0.20680000  0.02360000  1.0 -0.4857881493
O  O19  1  0.79770000  0.92410000  0.48790000  1.0 -0.498537394
O  O20  1  0.07590000  0.20230000  0.98790000  1.0 -0.498537394
O  O21  1  0.26610000  0.26570000  0.28880000  1.0 -0.498537394
O  O22  1  0.73430000  0.73390000  0.78880000  1.0 -0.498537394
O  O23  1  0.27900000  0.10580000  0.33070000  1.0 -0.5479816026
O  O24  1  0.89420000  0.72100000  0.83070000  1.0 -0.5479816026
