# DDEC6 charges by PACMAN v1.1 (https://github.com/mtap-research/PACMAN-charge/)
data_FIWGIE_ASR_pacman
_symmetry_space_group_name_H-M   'P 1'
_cell_length_a   16.61500000
_cell_length_b   16.89800000
_cell_length_c   19.18800000
_cell_angle_alpha   80.34600000
_cell_angle_beta   112.57900000
_cell_angle_gamma   118.04600000
_symmetry_Int_Tables_number   1
_chemical_formula_structural   Cd3H42C66(NO7)2
_chemical_formula_sum   'Cd6 H84 C132 N4 O28'
_cell_volume   4389.62785527
_cell_formula_units_Z   2
loop_
 _symmetry_equiv_pos_site_id
 _symmetry_equiv_pos_as_xyz
  1  'x, y, z'
loop_
 _atom_site_type_symbol
 _atom_site_label
 _atom_site_symmetry_multiplicity
 _atom_site_fract_x
 _atom_site_fract_y
 _atom_site_fract_z
 _atom_site_occupancy
 _atom_site_charge
Cd  Cd1  1  0.71365000  0.94887000  0.06955000  1.0 0.9114561466
Cd  Cd2  1  0.79138000  0.82774000  0.25702000  1.0 1.0485167889
Cd  Cd3  1  0.87091000  0.70663000  0.44356000  1.0 0.8712972192
Cd  Cd4  1  0.28635000  0.05113000  0.93045000  1.0 0.9114561466
Cd  Cd5  1  0.20862000  0.17226000  0.74298000  1.0 1.0485167889
Cd  Cd6  1  0.12909000  0.29337000  0.55644000  1.0 0.8712972192
H  H1  1  0.65586000  0.95820000  0.89138000  1.0 0.1110891142
H  H2  1  0.53159000  0.95036000  0.77931000  1.0 0.1407265204
H  H3  1  0.35793000  0.88345000  0.90473000  1.0 0.1407265204
H  H4  1  0.49219000  0.89710000  0.00815000  1.0 0.1004210592
H  H5  1  0.35877000  0.94576000  0.71901000  1.0 0.1004210592
H  H6  1  0.29482000  0.92026000  0.77143000  1.0 0.1199667923
H  H7  1  0.26966000  0.76875000  0.77106000  1.0 0.1110891142
H  H8  1  0.32484000  0.79665000  0.71222000  1.0 0.1110891142
H  H9  1  0.19837000  0.91500000  0.64863000  1.0 0.1288175745
H  H10  1  0.05225000  0.86849000  0.53960000  1.0 0.1004210592
H  H11  1  0.00220000  0.62140000  0.56084000  1.0 0.0893914377
H  H12  1  0.14363000  0.65260000  0.66562000  1.0 0.1407265204
H  H13  1  0.47883000  0.67047000  0.21483000  1.0 0.1199667923
H  H14  1  0.31538000  0.60135000  0.20931000  1.0 0.1110891142
H  H15  1  0.27740000  0.80963000  0.09788000  1.0 0.1110891142
H  H16  1  0.44026000  0.88192000  0.10423000  1.0 0.1004210592
H  H17  1  0.84412000  0.22862000  0.18156000  1.0 0.1199667923
H  H18  1  0.91477000  0.38850000  0.19318000  1.0 0.1110891142
H  H19  1  0.03159000  0.39854000  0.03828000  1.0 0.1110891142
H  H20  1  0.93861000  0.24073000  0.02338000  1.0 0.1110891142
H  H21  1  0.97248000  0.86558000  0.18936000  1.0 0.1110891142
H  H22  1  0.06653000  0.78925000  0.20250000  1.0 0.1110891142
H  H23  1  0.85011000  0.62765000  0.02604000  1.0 0.1199667923
H  H24  1  0.77048000  0.71250000  0.00471000  1.0 0.1110891142
H  H25  1  0.16171000  0.52614000  0.12785000  1.0 0.1110891142
H  H26  1  0.91155000  0.52925000  0.10815000  1.0 0.1110891142
H  H27  1  0.15938000  0.76223000  0.13758000  1.0 0.1110891142
H  H28  1  0.61408000  0.79574000  0.32565000  1.0 0.1110891142
H  H29  1  0.52011000  0.86548000  0.31836000  1.0 0.1199667923
H  H30  1  0.72465000  0.01448000  0.50166000  1.0 0.1110891142
H  H31  1  0.81656000  0.93829000  0.51405000  1.0 0.1288175745
H  H32  1  0.10502000  0.99025000  0.30034000  1.0 0.1199667923
H  H33  1  0.26214000  0.05606000  0.30831000  1.0 0.1110891142
H  H34  1  0.29140000  0.83734000  0.41220000  1.0 0.1110891142
H  H35  1  0.13198000  0.77253000  0.40668000  1.0 0.1199667923
H  H36  1  0.82375000  0.40662000  0.48685000  1.0 0.1004210592
H  H37  1  0.73996000  0.25010000  0.47636000  1.0 0.1004210592
H  H38  1  0.49712000  0.26759000  0.32935000  1.0 0.1110891142
H  H39  1  0.58091000  0.42412000  0.33984000  1.0 0.1110891142
H  H40  1  0.42341000  0.89429000  0.37211000  1.0 0.1199667923
H  H41  1  0.42206000  0.13094000  0.37919000  1.0 0.1110891142
H  H42  1  0.67446000  0.12182000  0.42290000  1.0 0.1110891142
H  H43  1  0.34414000  0.04180000  0.10862000  1.0 0.1110891142
H  H44  1  0.46841000  0.04964000  0.22069000  1.0 0.1407265204
H  H45  1  0.64207000  0.11655000  0.09527000  1.0 0.1407265204
H  H46  1  0.50781000  0.10290000  0.99185000  1.0 0.1004210592
H  H47  1  0.64123000  0.05424000  0.28099000  1.0 0.1004210592
H  H48  1  0.70518000  0.07974000  0.22857000  1.0 0.1199667923
H  H49  1  0.73034000  0.23125000  0.22894000  1.0 0.1110891142
H  H50  1  0.67516000  0.20335000  0.28778000  1.0 0.1110891142
H  H51  1  0.80163000  0.08500000  0.35137000  1.0 0.1288175745
H  H52  1  0.94775000  0.13151000  0.46040000  1.0 0.1004210592
H  H53  1  0.99780000  0.37860000  0.43916000  1.0 0.0893914377
H  H54  1  0.85637000  0.34740000  0.33438000  1.0 0.1407265204
H  H55  1  0.52117000  0.32953000  0.78517000  1.0 0.1199667923
H  H56  1  0.68462000  0.39865000  0.79069000  1.0 0.1110891142
H  H57  1  0.72260000  0.19037000  0.90212000  1.0 0.1110891142
H  H58  1  0.55974000  0.11808000  0.89577000  1.0 0.1004210592
H  H59  1  0.15588000  0.77138000  0.81844000  1.0 0.1199667923
H  H60  1  0.08523000  0.61150000  0.80682000  1.0 0.1110891142
H  H61  1  0.96841000  0.60146000  0.96172000  1.0 0.1110891142
H  H62  1  0.06139000  0.75927000  0.97662000  1.0 0.1110891142
H  H63  1  0.02752000  0.13442000  0.81064000  1.0 0.1110891142
H  H64  1  0.93347000  0.21075000  0.79750000  1.0 0.1110891142
H  H65  1  0.14989000  0.37235000  0.97396000  1.0 0.1199667923
H  H66  1  0.22952000  0.28750000  0.99529000  1.0 0.1110891142
H  H67  1  0.83829000  0.47386000  0.87215000  1.0 0.1110891142
H  H68  1  0.08845000  0.47075000  0.89185000  1.0 0.1110891142
H  H69  1  0.84062000  0.23777000  0.86242000  1.0 0.1110891142
H  H70  1  0.38592000  0.20426000  0.67435000  1.0 0.1110891142
H  H71  1  0.47989000  0.13452000  0.68164000  1.0 0.1199667923
H  H72  1  0.27535000  0.98552000  0.49834000  1.0 0.1110891142
H  H73  1  0.18344000  0.06171000  0.48595000  1.0 0.1288175745
H  H74  1  0.89498000  0.00975000  0.69966000  1.0 0.1199667923
H  H75  1  0.73786000  0.94394000  0.69169000  1.0 0.1110891142
H  H76  1  0.70860000  0.16266000  0.58780000  1.0 0.1110891142
H  H77  1  0.86802000  0.22747000  0.59332000  1.0 0.1199667923
H  H78  1  0.17625000  0.59338000  0.51315000  1.0 0.1004210592
H  H79  1  0.26004000  0.74990000  0.52364000  1.0 0.1110891142
H  H80  1  0.50288000  0.73241000  0.67065000  1.0 0.1110891142
H  H81  1  0.41909000  0.57588000  0.66016000  1.0 0.1110891142
H  H82  1  0.57659000  0.10571000  0.62789000  1.0 0.1199667923
H  H83  1  0.57794000  0.86906000  0.62081000  1.0 0.1110891142
H  H84  1  0.32554000  0.87818000  0.57710000  1.0 0.1110891142
C  C1  1  0.59430000  0.94410000  0.89350000  1.0 0.0893914377
C  C2  1  0.52100000  0.93870000  0.82600000  1.0 -0.2183313431
C  C3  1  0.42840000  0.91480000  0.82980000  1.0 0.1808949796
C  C4  1  0.41820000  0.89950000  0.89940000  1.0 -0.1894758182
C  C5  1  0.49910000  0.90850000  0.96010000  1.0 0.0363969369
C  C6  1  0.33770000  0.90440000  0.75850000  1.0 -0.245687923
C  C7  1  0.28260000  0.80940000  0.72890000  1.0 -0.2390969196
C  C8  1  0.19020000  0.78790000  0.66666667  1.0 0.1595571278
C  C9  1  0.16120000  0.85420000  0.63180000  1.0 -0.2084906591
C  C10  1  0.06970000  0.82360000  0.56790000  1.0 0.1110891142
C  C11  1  0.04130000  0.68140000  0.57970000  1.0 0.0710240312
C  C12  1  0.12780000  0.69980000  0.64130000  1.0 -0.2183313431
C  C13  1  0.58270000  0.82760000  0.16640000  1.0 0.5721168506
C  C14  1  0.47980000  0.78600000  0.16430000  1.0 -0.0511424081
C  C15  1  0.43950000  0.70090000  0.19200000  1.0 -0.0982129017
C  C16  1  0.34120000  0.65820000  0.18720000  1.0 -0.1585193375
C  C17  1  0.28300000  0.70120000  0.14920000  1.0 0.0710240312
C  C18  1  0.31820000  0.78090000  0.12160000  1.0 -0.1398496987
C  C19  1  0.41650000  0.82490000  0.12670000  1.0 -0.1111493396
C  C20  1  0.82820000  0.12730000  0.09330000  1.0 0.5546073107
C  C21  1  0.88170000  0.23020000  0.10080000  1.0 -0.0005068263
C  C22  1  0.87790000  0.26560000  0.14910000  1.0 -0.0982129017
C  C23  1  0.92280000  0.36130000  0.15840000  1.0 -0.1666990878
C  C24  1  0.98060000  0.41390000  0.11230000  1.0 0.0710240312
C  C25  1  0.98900000  0.36690000  0.06580000  1.0 -0.1585193375
C  C26  1  0.93580000  0.27260000  0.05800000  1.0 -0.1191701205
C  C27  1  0.80480000  0.84520000  0.08720000  1.0 0.5721168506
C  C28  1  0.86270000  0.79720000  0.09750000  1.0 -0.044384318
C  C29  1  0.94890000  0.81900000  0.15460000  1.0 -0.0982129017
C  C30  1  0.00510000  0.77260000  0.16300000  1.0 -0.149566207
C  C31  1  0.96940000  0.70290000  0.11330000  1.0 0.0807785896
C  C32  1  0.87800000  0.67870000  0.05730000  1.0 -0.149566207
C  C33  1  0.82910000  0.72620000  0.04690000  1.0 -0.0812966125
C  C34  1  0.17690000  0.65300000  0.13970000  1.0 0.1004210592
C  C35  1  0.12760000  0.55770000  0.12880000  1.0 -0.2084906591
C  C36  1  0.03000000  0.51200000  0.11980000  1.0 0.0807785896
C  C37  1  0.97910000  0.56050000  0.11570000  1.0 -0.2084906591
C  C38  1  0.02490000  0.65180000  0.12240000  1.0 0.0807785896
C  C39  1  0.12700000  0.69860000  0.13400000  1.0 -0.2005842638
C  C40  1  0.78300000  0.81370000  0.42550000  1.0 0.5631773857
C  C41  1  0.72670000  0.86300000  0.42140000  1.0 -0.0224506544
C  C42  1  0.63660000  0.84000000  0.36220000  1.0 -0.1111493396
C  C43  1  0.58170000  0.88240000  0.35770000  1.0 -0.1398496987
C  C44  1  0.61280000  0.94750000  0.40770000  1.0 0.0710240312
C  C45  1  0.70140000  0.96910000  0.46590000  1.0 -0.1585193375
C  C46  1  0.75710000  0.92450000  0.47280000  1.0 -0.0901405639
C  C47  1  0.00060000  0.83530000  0.34990000  1.0 0.5631773857
C  C48  1  0.10250000  0.87620000  0.35350000  1.0 -0.0558548035
C  C49  1  0.14370000  0.95950000  0.32470000  1.0 -0.0901405639
C  C50  1  0.23770000  0.99880000  0.33020000  1.0 -0.149566207
C  C51  1  0.30080000  0.96080000  0.36570000  1.0 0.0710240312
C  C52  1  0.25450000  0.87020000  0.39150000  1.0 -0.1666990878
C  C53  1  0.15920000  0.83070000  0.38700000  1.0 -0.0982129017
C  C54  1  0.76480000  0.52720000  0.42100000  1.0 0.3813827721
C  C55  1  0.71020000  0.43010000  0.41430000  1.0 -0.0812966125
C  C56  1  0.75740000  0.37840000  0.45490000  1.0 -0.0982129017
C  C57  1  0.70770000  0.28540000  0.44860000  1.0 -0.1585193375
C  C58  1  0.61070000  0.24410000  0.40190000  1.0 0.0710240312
C  C59  1  0.56340000  0.29580000  0.36130000  1.0 -0.1585193375
C  C60  1  0.61320000  0.38880000  0.36760000  1.0 -0.0812966125
C  C61  1  0.55620000  0.99780000  0.40150000  1.0 0.0807785896
C  C62  1  0.45800000  0.95700000  0.38230000  1.0 -0.2005842638
C  C63  1  0.40510000  0.00590000  0.37680000  1.0 0.0710240312
C  C64  1  0.45630000  0.09730000  0.38380000  1.0 -0.2084906591
C  C65  1  0.55690000  0.14420000  0.39740000  1.0 0.0807785896
C  C66  1  0.60560000  0.09270000  0.40920000  1.0 -0.2005842638
C  C67  1  0.40570000  0.05590000  0.10650000  1.0 0.0893914377
C  C68  1  0.47900000  0.06130000  0.17400000  1.0 -0.2183313431
C  C69  1  0.57160000  0.08520000  0.17020000  1.0 0.1808949796
C  C70  1  0.58180000  0.10050000  0.10060000  1.0 -0.1894758182
C  C71  1  0.50090000  0.09150000  0.03990000  1.0 0.0363969369
C  C72  1  0.66230000  0.09560000  0.24150000  1.0 -0.245687923
C  C73  1  0.71740000  0.19060000  0.27110000  1.0 -0.2390969196
C  C74  1  0.80980000  0.21210000  0.33333333  1.0 0.1595571278
C  C75  1  0.83880000  0.14580000  0.36820000  1.0 -0.2084906591
C  C76  1  0.93030000  0.17640000  0.43210000  1.0 0.1110891142
C  C77  1  0.95870000  0.31860000  0.42030000  1.0 0.0710240312
C  C78  1  0.87220000  0.30020000  0.35870000  1.0 -0.2183313431
C  C79  1  0.41730000  0.17240000  0.83360000  1.0 0.575410345
C  C80  1  0.52020000  0.21400000  0.83570000  1.0 -0.0511424081
C  C81  1  0.56050000  0.29910000  0.80800000  1.0 -0.0982129017
C  C82  1  0.65880000  0.34180000  0.81280000  1.0 -0.1585193375
C  C83  1  0.71700000  0.29880000  0.85080000  1.0 0.0710240312
C  C84  1  0.68180000  0.21910000  0.87840000  1.0 -0.1398496987
C  C85  1  0.58350000  0.17510000  0.87330000  1.0 -0.1111493396
C  C86  1  0.17180000  0.87270000  0.90670000  1.0 0.5546073107
C  C87  1  0.11830000  0.76980000  0.89920000  1.0 -0.0005068263
C  C88  1  0.12210000  0.73440000  0.85090000  1.0 -0.0982129017
C  C89  1  0.07720000  0.63870000  0.84160000  1.0 -0.1666990878
C  C90  1  0.01940000  0.58610000  0.88770000  1.0 0.0710240312
C  C91  1  0.01100000  0.63310000  0.93420000  1.0 -0.1585193375
C  C92  1  0.06420000  0.72740000  0.94200000  1.0 -0.1191701205
C  C93  1  0.19520000  0.15480000  0.91280000  1.0 0.5721168506
C  C94  1  0.13730000  0.20280000  0.90250000  1.0 -0.044384318
C  C95  1  0.05110000  0.18100000  0.84540000  1.0 -0.0982129017
C  C96  1  0.99490000  0.22740000  0.83700000  1.0 -0.149566207
C  C97  1  0.03060000  0.29710000  0.88670000  1.0 0.0807785896
C  C98  1  0.12200000  0.32130000  0.94270000  1.0 -0.149566207
C  C99  1  0.17090000  0.27380000  0.95310000  1.0 -0.0812966125
C  C100  1  0.82310000  0.34700000  0.86030000  1.0 0.1004210592
C  C101  1  0.87240000  0.44230000  0.87120000  1.0 -0.2084906591
C  C102  1  0.97000000  0.48800000  0.88020000  1.0 0.0807785896
C  C103  1  0.02090000  0.43950000  0.88430000  1.0 -0.2084906591
C  C104  1  0.97510000  0.34820000  0.87760000  1.0 0.0807785896
C  C105  1  0.87300000  0.30140000  0.86600000  1.0 -0.2005842638
C  C106  1  0.21700000  0.18630000  0.57450000  1.0 0.5631773857
C  C107  1  0.27330000  0.13700000  0.57860000  1.0 -0.0224506544
C  C108  1  0.36340000  0.16000000  0.63780000  1.0 -0.1111493396
C  C109  1  0.41830000  0.11760000  0.64230000  1.0 -0.1398496987
C  C110  1  0.38720000  0.05250000  0.59230000  1.0 0.0710240312
C  C111  1  0.29860000  0.03090000  0.53410000  1.0 -0.1585193375
C  C112  1  0.24290000  0.07550000  0.52720000  1.0 -0.0901405639
C  C113  1  0.99940000  0.16470000  0.65010000  1.0 0.5631773857
C  C114  1  0.89750000  0.12380000  0.64650000  1.0 -0.0558548035
C  C115  1  0.85630000  0.04050000  0.67530000  1.0 -0.0901405639
C  C116  1  0.76230000  0.00120000  0.66980000  1.0 -0.149566207
C  C117  1  0.69920000  0.03920000  0.63430000  1.0 0.0710240312
C  C118  1  0.74550000  0.12980000  0.60850000  1.0 -0.1666990878
C  C119  1  0.84080000  0.16930000  0.61300000  1.0 -0.0982129017
C  C120  1  0.23520000  0.47280000  0.57900000  1.0 0.3813827721
C  C121  1  0.28980000  0.56990000  0.58570000  1.0 -0.0812966125
C  C122  1  0.24260000  0.62160000  0.54510000  1.0 -0.0982129017
C  C123  1  0.29230000  0.71460000  0.55140000  1.0 -0.1585193375
C  C124  1  0.38930000  0.75590000  0.59810000  1.0 0.0710240312
C  C125  1  0.43660000  0.70420000  0.63870000  1.0 -0.1585193375
C  C126  1  0.38680000  0.61120000  0.63240000  1.0 -0.0901405639
C  C127  1  0.44380000  0.00220000  0.59850000  1.0 0.0807785896
C  C128  1  0.54200000  0.04300000  0.61770000  1.0 -0.2005842638
C  C129  1  0.59490000  0.99410000  0.62320000  1.0 0.0710240312
C  C130  1  0.54370000  0.90270000  0.61620000  1.0 -0.2084906591
C  C131  1  0.44310000  0.85580000  0.60260000  1.0 0.0807785896
C  C132  1  0.39440000  0.90730000  0.59080000  1.0 -0.2005842638
N  N1  1  0.58680000  0.93170000  0.95870000  1.0 -0.2390969196
N  N2  1  0.01060000  0.74220000  0.54590000  1.0 -0.2696346404
N  N3  1  0.41320000  0.06830000  0.04130000  1.0 -0.2390969196
N  N4  1  0.98940000  0.25780000  0.45410000  1.0 -0.2696346404
O  O1  1  0.61110000  0.89940000  0.13210000  1.0 -0.5583069237
O  O2  1  0.63330000  0.78620000  0.20180000  1.0 -0.5756582828
O  O3  1  0.81370000  0.08870000  0.03510000  1.0 -0.5530365618
O  O4  1  0.79710000  0.07830000  0.14420000  1.0 -0.5583069237
O  O5  1  0.74680000  0.85010000  0.02440000  1.0 -0.5243833275
O  O6  1  0.81680000  0.88420000  0.14530000  1.0 -0.6014284702
O  O7  1  0.77100000  0.77560000  0.37100000  1.0 -0.5374253007
O  O8  1  0.84730000  0.81310000  0.48810000  1.0 -0.5374253007
O  O9  1  0.96600000  0.75580000  0.37310000  1.0 -0.5689334484
O  O10  1  0.95340000  0.87830000  0.32180000  1.0 -0.5530365618
O  O11  1  0.82210000  0.56890000  0.48250000  1.0 -0.044384318
O  O12  1  0.74300000  0.57720000  0.36780000  1.0 -0.1894758182
O  O13  1  0.85690000  0.56460000  0.44390000  1.0 -0.1585193375
O  O14  1  0.73130000  0.57770000  0.42750000  1.0 -0.0901405639
O  O15  1  0.38890000  0.10060000  0.86790000  1.0 -0.5583069237
O  O16  1  0.36670000  0.21380000  0.79820000  1.0 -0.5756582828
O  O17  1  0.18630000  0.91130000  0.96490000  1.0 -0.5530365618
O  O18  1  0.20290000  0.92170000  0.85580000  1.0 -0.5583069237
O  O19  1  0.25320000  0.14990000  0.97560000  1.0 -0.5243833275
O  O20  1  0.18320000  0.11580000  0.85470000  1.0 -0.6014284702
O  O21  1  0.22900000  0.22440000  0.62900000  1.0 -0.5374253007
O  O22  1  0.15270000  0.18690000  0.51190000  1.0 -0.5374253007
O  O23  1  0.03400000  0.24420000  0.62690000  1.0 -0.5689334484
O  O24  1  0.04660000  0.12170000  0.67820000  1.0 -0.5530365618
O  O25  1  0.17790000  0.43110000  0.51750000  1.0 -0.0511424081
O  O26  1  0.25700000  0.42280000  0.63220000  1.0 -0.1894758182
O  O27  1  0.14310000  0.43540000  0.55610000  1.0 -0.1585193375
O  O28  1  0.26870000  0.42230000  0.57250000  1.0 -0.0901405639
