# DDEC6 charges by PACMAN v1.1 (https://github.com/mtap-research/PACMAN-charge/)
data_FIWPEJ_ASR_pacman
_symmetry_space_group_name_H-M   'P 1'
_cell_length_a   16.54100000
_cell_length_b   17.01600000
_cell_length_c   21.12800000
_cell_angle_alpha   83.33600000
_cell_angle_beta   112.39300000
_cell_angle_gamma   118.58000000
_symmetry_Int_Tables_number   1
_chemical_formula_structural   Cd3H66C100(NO2)6
_chemical_formula_sum   'Cd6 H132 C200 N12 O24'
_cell_volume   4812.25324447
_cell_formula_units_Z   2
loop_
 _symmetry_equiv_pos_site_id
 _symmetry_equiv_pos_as_xyz
  1  'x, y, z'
loop_
 _atom_site_type_symbol
 _atom_site_label
 _atom_site_symmetry_multiplicity
 _atom_site_fract_x
 _atom_site_fract_y
 _atom_site_fract_z
 _atom_site_occupancy
 _atom_site_charge
Cd  Cd1  1  0.38591000  0.72105000  0.43954000  1.0 0.9054835777
Cd  Cd2  1  0.29023000  0.82312000  0.25501000  1.0 0.961671565
Cd  Cd3  1  0.18866000  0.92635000  0.06600000  1.0 0.8935211043
Cd  Cd4  1  0.61409000  0.27895000  0.56046000  1.0 0.9054835777
Cd  Cd5  1  0.70977000  0.17688000  0.74499000  1.0 0.961671565
Cd  Cd6  1  0.81134000  0.07365000  0.93400000  1.0 0.8935211043
H  H1  1  0.51566000  0.64401000  0.55705000  1.0 0.1106441709
H  H2  1  0.64810000  0.68808000  0.66129000  1.0 0.1186603356
H  H3  1  0.70732000  0.93950000  0.63772000  1.0 0.1186603356
H  H4  1  0.56967000  0.89217000  0.53690000  1.0 0.1106441709
H  H5  1  0.81731000  0.92660000  0.73597000  1.0 0.1186603356
H  H6  1  0.77814000  0.75050000  0.76255000  1.0 0.1006557445
H  H7  1  0.87832000  0.72852000  0.85538000  1.0 0.1186603356
H  H8  1  0.00581000  0.76472000  0.96039000  1.0 0.1006557445
H  H9  1  0.07111000  0.01677000  0.95156000  1.0 0.1106441709
H  H10  1  0.93799000  0.98429000  0.84959000  1.0 0.1314271937
H  H11  1  0.16981000  0.64995000  0.31730000  1.0 0.1106441709
H  H12  1  0.07103000  0.49740000  0.29816000  1.0 0.1374747123
H  H13  1  0.14319000  0.49696000  0.13893000  1.0 0.1314271937
H  H14  1  0.23709000  0.65129000  0.15952000  1.0 0.1006557445
H  H15  1  0.94948000  0.37023000  0.10639000  1.0 0.1186603356
H  H16  1  0.85179000  0.21510000  0.09461000  1.0 0.1186603356
H  H17  1  0.00243000  0.20110000  0.29160000  1.0 0.1106441709
H  H18  1  0.09233000  0.35501000  0.30567000  1.0 0.1106441709
H  H19  1  0.73840000  0.08107000  0.10095000  1.0 0.1314271937
H  H20  1  0.65033000  0.92777000  0.09116000  1.0 0.1006557445
H  H21  1  0.87021000  0.91265000  0.24201000  1.0 0.1006557445
H  H22  1  0.95361000  0.06241000  0.26072000  1.0 0.1186603356
H  H23  1  0.48477000  0.98069000  0.36645000  1.0 0.1106441709
H  H24  1  0.58682000  0.13432000  0.38218000  1.0 0.1374747123
H  H25  1  0.38748000  0.15779000  0.21508000  1.0 0.1186603356
H  H26  1  0.28040000  0.00801000  0.20630000  1.0 0.1006557445
H  H27  1  0.63922000  0.27674000  0.40839000  1.0 0.1186603356
H  H28  1  0.73410000  0.43210000  0.42197000  1.0 0.1186603356
H  H29  1  0.57875000  0.44242000  0.22656000  1.0 0.1106441709
H  H30  1  0.49061000  0.28644000  0.21165000  1.0 0.1006557445
H  H31  1  0.85528000  0.56550000  0.40021000  1.0 0.1314271937
H  H32  1  0.94453000  0.71693000  0.40778000  1.0 0.1006557445
H  H33  1  0.71770000  0.73687000  0.27250000  1.0 0.1006557445
H  H34  1  0.61888000  0.57962000  0.26237000  1.0 0.1314271937
H  H35  1  0.32944000  0.94204000  0.51681000  1.0 0.1186603356
H  H36  1  0.24053000  0.01708000  0.51261000  1.0 0.1106441709
H  H37  1  0.04355000  0.89084000  0.32686000  1.0 0.1106441709
H  H38  1  0.13876000  0.82557000  0.32661000  1.0 0.1106441709
H  H39  1  0.64075000  0.76826000  0.40119000  1.0 0.1186603356
H  H40  1  0.80850000  0.84454000  0.42061000  1.0 0.1106441709
H  H41  1  0.77852000  0.05180000  0.32255000  1.0 0.1186603356
H  H42  1  0.60878000  0.97309000  0.29867000  1.0 0.1186603356
H  H43  1  0.10168000  0.42754000  0.44435000  1.0 0.1186603356
H  H44  1  0.01844000  0.27307000  0.43545000  1.0 0.1186603356
H  H45  1  0.26523000  0.26811000  0.45286000  1.0 0.1106441709
H  H46  1  0.34704000  0.42433000  0.45842000  1.0 0.1186603356
H  H47  1  0.94127000  0.90159000  0.38878000  1.0 0.1106441709
H  H48  1  0.93799000  0.13262000  0.40942000  1.0 0.1106441709
H  H49  1  0.92983000  0.84876000  0.08839000  1.0 0.1106441709
H  H50  1  0.76296000  0.77983000  0.07028000  1.0 0.1186603356
H  H51  1  0.80250000  0.60352000  0.20696000  1.0 0.1106441709
H  H52  1  0.96976000  0.68071000  0.23090000  1.0 0.1186603356
H  H53  1  0.44634000  0.22043000  0.03713000  1.0 0.1186603356
H  H54  1  0.52801000  0.37669000  0.04506000  1.0 0.1106441709
H  H55  1  0.34191000  0.38046000  0.11986000  1.0 0.1106441709
H  H56  1  0.25672000  0.22612000  0.10791000  1.0 0.1106441709
H  H57  1  0.23650000  0.68788000  0.00944000  1.0 0.1186603356
H  H58  1  0.32594000  0.61427000  0.01394000  1.0 0.1186603356
H  H59  1  0.55071000  0.77971000  0.17747000  1.0 0.1186603356
H  H60  1  0.46033000  0.84905000  0.17648000  1.0 0.1186603356
H  H61  1  0.63644000  0.50873000  0.11299000  1.0 0.1186603356
H  H62  1  0.38375000  0.51516000  0.07962000  1.0 0.1186603356
H  H63  1  0.64077000  0.74584000  0.12546000  1.0 0.1106441709
H  H64  1  0.19620000  0.13498000  0.44218000  1.0 0.1106441709
H  H65  1  0.76810000  0.74959000  0.73544000  1.0 0.1006557445
H  H66  1  0.82320000  0.92600000  0.76042000  1.0 0.1186603356
H  H67  1  0.48434000  0.35599000  0.44295000  1.0 0.1106441709
H  H68  1  0.35190000  0.31192000  0.33871000  1.0 0.1186603356
H  H69  1  0.29268000  0.06050000  0.36228000  1.0 0.1186603356
H  H70  1  0.43033000  0.10783000  0.46310000  1.0 0.1106441709
H  H71  1  0.18269000  0.07340000  0.26403000  1.0 0.1186603356
H  H72  1  0.22186000  0.24950000  0.23745000  1.0 0.1006557445
H  H73  1  0.12168000  0.27148000  0.14462000  1.0 0.1186603356
H  H74  1  0.99419000  0.23528000  0.03961000  1.0 0.1006557445
H  H75  1  0.92889000  0.98323000  0.04844000  1.0 0.1106441709
H  H76  1  0.06201000  0.01571000  0.15041000  1.0 0.1314271937
H  H77  1  0.83019000  0.35005000  0.68270000  1.0 0.1106441709
H  H78  1  0.92897000  0.50260000  0.70184000  1.0 0.1374747123
H  H79  1  0.85681000  0.50304000  0.86107000  1.0 0.1314271937
H  H80  1  0.76291000  0.34871000  0.84048000  1.0 0.1006557445
H  H81  1  0.05052000  0.62977000  0.89361000  1.0 0.1186603356
H  H82  1  0.14821000  0.78490000  0.90539000  1.0 0.1186603356
H  H83  1  0.99757000  0.79890000  0.70840000  1.0 0.1106441709
H  H84  1  0.90767000  0.64499000  0.69433000  1.0 0.1106441709
H  H85  1  0.26160000  0.91893000  0.89905000  1.0 0.1314271937
H  H86  1  0.34967000  0.07223000  0.90884000  1.0 0.1006557445
H  H87  1  0.12979000  0.08735000  0.75799000  1.0 0.1006557445
H  H88  1  0.04639000  0.93759000  0.73928000  1.0 0.1186603356
H  H89  1  0.51523000  0.01931000  0.63355000  1.0 0.1106441709
H  H90  1  0.41318000  0.86568000  0.61782000  1.0 0.1374747123
H  H91  1  0.61252000  0.84221000  0.78492000  1.0 0.1186603356
H  H92  1  0.71960000  0.99199000  0.79370000  1.0 0.1006557445
H  H93  1  0.36078000  0.72326000  0.59161000  1.0 0.1186603356
H  H94  1  0.26590000  0.56790000  0.57803000  1.0 0.1186603356
H  H95  1  0.42125000  0.55758000  0.77344000  1.0 0.1106441709
H  H96  1  0.50939000  0.71356000  0.78835000  1.0 0.1006557445
H  H97  1  0.14472000  0.43450000  0.59979000  1.0 0.1314271937
H  H98  1  0.05547000  0.28307000  0.59222000  1.0 0.1006557445
H  H99  1  0.28230000  0.26313000  0.72750000  1.0 0.1006557445
H  H100  1  0.38112000  0.42038000  0.73763000  1.0 0.1314271937
H  H101  1  0.67056000  0.05796000  0.48319000  1.0 0.1186603356
H  H102  1  0.75947000  0.98292000  0.48739000  1.0 0.1106441709
H  H103  1  0.95645000  0.10916000  0.67314000  1.0 0.1106441709
H  H104  1  0.86124000  0.17443000  0.67339000  1.0 0.1106441709
H  H105  1  0.35925000  0.23174000  0.59881000  1.0 0.1186603356
H  H106  1  0.19150000  0.15546000  0.57939000  1.0 0.1106441709
H  H107  1  0.22148000  0.94820000  0.67745000  1.0 0.1186603356
H  H108  1  0.39122000  0.02691000  0.70133000  1.0 0.1186603356
H  H109  1  0.89832000  0.57246000  0.55565000  1.0 0.1186603356
H  H110  1  0.98156000  0.72693000  0.56455000  1.0 0.1186603356
H  H111  1  0.73477000  0.73189000  0.54714000  1.0 0.1106441709
H  H112  1  0.65296000  0.57567000  0.54158000  1.0 0.1186603356
H  H113  1  0.05873000  0.09841000  0.61122000  1.0 0.1106441709
H  H114  1  0.06201000  0.86738000  0.59058000  1.0 0.1106441709
H  H115  1  0.07017000  0.15124000  0.91161000  1.0 0.1106441709
H  H116  1  0.23704000  0.22017000  0.92972000  1.0 0.1186603356
H  H117  1  0.19750000  0.39648000  0.79304000  1.0 0.1106441709
H  H118  1  0.03024000  0.31929000  0.76910000  1.0 0.1186603356
H  H119  1  0.55366000  0.77957000  0.96287000  1.0 0.1186603356
H  H120  1  0.47199000  0.62331000  0.95494000  1.0 0.1106441709
H  H121  1  0.65809000  0.61954000  0.88014000  1.0 0.1186603356
H  H122  1  0.74328000  0.77388000  0.89209000  1.0 0.1106441709
H  H123  1  0.76350000  0.31212000  0.99056000  1.0 0.1186603356
H  H124  1  0.67406000  0.38573000  0.98606000  1.0 0.1186603356
H  H125  1  0.44929000  0.22029000  0.82253000  1.0 0.1186603356
H  H126  1  0.53967000  0.15095000  0.82352000  1.0 0.1186603356
H  H127  1  0.36356000  0.49127000  0.88701000  1.0 0.1186603356
H  H128  1  0.61625000  0.48484000  0.92038000  1.0 0.1186603356
H  H129  1  0.35923000  0.25416000  0.87454000  1.0 0.1106441709
H  H130  1  0.80380000  0.86502000  0.55782000  1.0 0.1106441709
H  H131  1  0.23190000  0.25041000  0.26456000  1.0 0.1006557445
H  H132  1  0.17680000  0.07400000  0.23958000  1.0 0.1186603356
C  C1  1  0.55220000  0.70480000  0.57360000  1.0 0.090495799
C  C2  1  0.63390000  0.73220000  0.63600000  1.0 -0.2660580535
C  C3  1  0.69190000  0.81700000  0.66110000  1.0 0.1186603356
C  C4  1  0.66810000  0.87800000  0.62320000  1.0 -0.2506441583
C  C5  1  0.58500000  0.84870000  0.56230000  1.0 0.0786161439
C  C6  1  0.78320000  0.86380000  0.72760000  1.0 -0.0389457572
C  C7  1  0.81130000  0.81320000  0.77190000  1.0 -0.0501129783
C  C8  1  0.89620000  0.85620000  0.83680000  1.0 0.1186603356
C  C9  1  0.91700000  0.78860000  0.87390000  1.0 -0.2561833719
C  C10  1  0.99360000  0.81070000  0.93700000  1.0 0.090495799
C  C11  1  0.03080000  0.95700000  0.93240000  1.0 0.0786161439
C  C12  1  0.95210000  0.93780000  0.86960000  1.0 -0.2404460588
C  C13  1  0.16430000  0.61970000  0.28020000  1.0 0.090495799
C  C14  1  0.10480000  0.52730000  0.26850000  1.0 -0.1790809591
C  C15  1  0.09300000  0.47880000  0.21750000  1.0 0.1186603356
C  C16  1  0.14620000  0.52670000  0.17520000  1.0 -0.2075939685
C  C17  1  0.20330000  0.61950000  0.18880000  1.0 0.090495799
C  C18  1  0.03410000  0.37940000  0.20680000  1.0 0.0603941775
C  C19  1  0.96050000  0.33660000  0.14430000  1.0 -0.1428826605
C  C20  1  0.90240000  0.24330000  0.13720000  1.0 -0.1305997331
C  C21  1  0.91750000  0.19160000  0.19140000  1.0 0.0603941775
C  C22  1  0.99040000  0.23490000  0.25400000  1.0 -0.1491561513
C  C23  1  0.04560000  0.32680000  0.26200000  1.0 -0.1428826605
C  C24  1  0.85770000  0.09180000  0.18160000  1.0 0.1106441709
C  C25  1  0.76610000  0.04810000  0.13180000  1.0 -0.1790809591
C  C26  1  0.71360000  0.95570000  0.12610000  1.0 0.0786161439
C  C27  1  0.84080000  0.94670000  0.21480000  1.0 0.0411668013
C  C28  1  0.89190000  0.03580000  0.22410000  1.0 -0.2075939685
C  C29  1  0.46280000  0.01740000  0.33580000  1.0 0.0690102787
C  C30  1  0.52470000  0.10930000  0.34580000  1.0 -0.1905890663
C  C31  1  0.49210000  0.16360000  0.30000000  1.0 0.1186603356
C  C32  1  0.40690000  0.12270000  0.24900000  1.0 -0.1905890663
C  C33  1  0.34370000  0.03180000  0.24150000  1.0 0.0603941775
C  C34  1  0.55710000  0.26490000  0.30880000  1.0 0.0690102787
C  C35  1  0.62800000  0.31000000  0.37030000  1.0 -0.1305997331
C  C36  1  0.68480000  0.40380000  0.37900000  1.0 -0.1305997331
C  C37  1  0.66840000  0.45460000  0.32450000  1.0 0.0603941775
C  C38  1  0.59400000  0.40920000  0.26380000  1.0 -0.1491561513
C  C39  1  0.53930000  0.31500000  0.25470000  1.0 -0.1491561513
C  C40  1  0.72770000  0.55450000  0.33040000  1.0 0.1106441709
C  C41  1  0.82450000  0.59860000  0.37300000  1.0 -0.1990451003
C  C42  1  0.87810000  0.68980000  0.37710000  1.0 0.0690102787
C  C43  1  0.74640000  0.70160000  0.29860000  1.0 0.0786161439
C  C44  1  0.68590000  0.60640000  0.29210000  1.0 -0.2075939685
C  C45  1  0.30280000  0.82900000  0.42540000  1.0 0.5595733265
C  C46  1  0.24410000  0.87710000  0.42250000  1.0 -0.0264838298
C  C47  1  0.27310000  0.93310000  0.47760000  1.0 -0.108384833
C  C48  1  0.21880000  0.97710000  0.47540000  1.0 -0.1491561513
C  C49  1  0.13390000  0.96230000  0.41930000  1.0 0.0690102787
C  C50  1  0.10280000  0.90330000  0.36450000  1.0 -0.162315428
C  C51  1  0.15840000  0.86280000  0.36490000  1.0 -0.108384833
C  C52  1  0.50010000  0.81790000  0.33750000  1.0 0.5806571583
C  C53  1  0.60890000  0.86430000  0.34840000  1.0 -0.0389457572
C  C54  1  0.66830000  0.82530000  0.38510000  1.0 -0.108384833
C  C55  1  0.76880000  0.87200000  0.39750000  1.0 -0.1428826605
C  C56  1  0.81370000  0.95890000  0.37700000  1.0 0.0690102787
C  C57  1  0.75150000  0.99490000  0.33890000  1.0 -0.1491561513
C  C58  1  0.64970000  0.94780000  0.32460000  1.0 -0.108384833
C  C59  1  0.28150000  0.54090000  0.44640000  1.0 0.5377371649
C  C60  1  0.22930000  0.44220000  0.44800000  1.0 -0.0389457572
C  C61  1  0.13510000  0.39590000  0.44410000  1.0 -0.108384833
C  C62  1  0.08510000  0.30240000  0.43950000  1.0 -0.1491561513
C  C63  1  0.13020000  0.25140000  0.44080000  1.0 0.0786161439
C  C64  1  0.23020000  0.29960000  0.44930000  1.0 -0.162315428
C  C65  1  0.27980000  0.39370000  0.45280000  1.0 -0.0923311074
C  C66  1  0.07830000  0.01050000  0.41690000  1.0 0.0786161439
C  C67  1  0.97550000  0.96410000  0.39900000  1.0 -0.1990451003
C  C68  1  0.92290000  0.00990000  0.39620000  1.0 0.090495799
C  C69  1  0.97400000  0.10270000  0.41130000  1.0 -0.1990451003
C  C70  1  0.07580000  0.15260000  0.42900000  1.0 0.0786161439
C  C71  1  0.07750000  0.82070000  0.17230000  1.0 0.5806571583
C  C72  1  0.96780000  0.77260000  0.16070000  1.0 -0.0389457572
C  C73  1  0.90440000  0.79990000  0.11350000  1.0 -0.108384833
C  C74  1  0.80390000  0.75760000  0.10150000  1.0 -0.1305997331
C  C75  1  0.76380000  0.68300000  0.13540000  1.0 0.0690102787
C  C76  1  0.82810000  0.65440000  0.18350000  1.0 -0.1428826605
C  C77  1  0.92750000  0.69940000  0.19680000  1.0 -0.1029415202
C  C78  1  0.28750000  0.10590000  0.06840000  1.0 0.5250650386
C  C79  1  0.34220000  0.20800000  0.07400000  1.0 -0.0264838298
C  C80  1  0.42500000  0.25300000  0.05390000  1.0 -0.1029415202
C  C81  1  0.47400000  0.34620000  0.05940000  1.0 -0.1491561513
C  C82  1  0.44560000  0.39490000  0.08520000  1.0 0.0690102787
C  C83  1  0.36370000  0.34860000  0.10290000  1.0 -0.162315428
C  C84  1  0.31320000  0.25600000  0.09630000  1.0 -0.1209132482
C  C85  1  0.28120000  0.82240000  0.08970000  1.0 0.5672686438
C  C86  1  0.33810000  0.77540000  0.09240000  1.0 -0.0501129783
C  C87  1  0.29950000  0.70590000  0.04420000  1.0 -0.108384833
C  C88  1  0.35370000  0.66210000  0.04670000  1.0 -0.162315428
C  C89  1  0.44770000  0.68790000  0.09660000  1.0 0.0786161439
C  C90  1  0.48640000  0.75980000  0.14400000  1.0 -0.1428826605
C  C91  1  0.43310000  0.80210000  0.14310000  1.0 -0.0923311074
C  C92  1  0.65550000  0.63490000  0.11990000  1.0 0.0786161439
C  C93  1  0.60300000  0.54180000  0.10940000  1.0 -0.1990451003
C  C94  1  0.50000000  0.49690000  0.09340000  1.0 0.0786161439
C  C95  1  0.45250000  0.54540000  0.08980000  1.0 -0.1990451003
C  C96  1  0.50340000  0.63810000  0.10080000  1.0 0.0786161439
C  C97  1  0.60550000  0.68300000  0.11680000  1.0 -0.1990451003
C  C98  1  0.12720000  0.10340000  0.43100000  1.0 -0.2223469128
C  C99  1  0.76600000  0.80400000  0.72740000  1.0 -0.0389457572
C  C100  1  0.82300000  0.87100000  0.76890000  1.0 -0.0389457572
C  C101  1  0.44780000  0.29520000  0.42640000  1.0 0.090495799
C  C102  1  0.36610000  0.26780000  0.36400000  1.0 -0.2660580535
C  C103  1  0.30810000  0.18300000  0.33890000  1.0 0.1186603356
C  C104  1  0.33190000  0.12200000  0.37680000  1.0 -0.2506441583
C  C105  1  0.41500000  0.15130000  0.43770000  1.0 0.0786161439
C  C106  1  0.21680000  0.13620000  0.27240000  1.0 -0.0389457572
C  C107  1  0.18870000  0.18680000  0.22810000  1.0 -0.0501129783
C  C108  1  0.10380000  0.14380000  0.16320000  1.0 0.1186603356
C  C109  1  0.08300000  0.21140000  0.12610000  1.0 -0.2561833719
C  C110  1  0.00640000  0.18930000  0.06300000  1.0 0.090495799
C  C111  1  0.96920000  0.04300000  0.06760000  1.0 0.0786161439
C  C112  1  0.04790000  0.06220000  0.13040000  1.0 -0.2404460588
C  C113  1  0.83570000  0.38030000  0.71980000  1.0 0.090495799
C  C114  1  0.89520000  0.47270000  0.73150000  1.0 -0.1790809591
C  C115  1  0.90700000  0.52120000  0.78250000  1.0 0.1186603356
C  C116  1  0.85380000  0.47330000  0.82480000  1.0 -0.2075939685
C  C117  1  0.79670000  0.38050000  0.81120000  1.0 0.090495799
C  C118  1  0.96590000  0.62060000  0.79320000  1.0 0.0603941775
C  C119  1  0.03950000  0.66340000  0.85570000  1.0 -0.1428826605
C  C120  1  0.09760000  0.75670000  0.86280000  1.0 -0.1305997331
C  C121  1  0.08250000  0.80840000  0.80860000  1.0 0.0603941775
C  C122  1  0.00960000  0.76510000  0.74600000  1.0 -0.1491561513
C  C123  1  0.95440000  0.67320000  0.73800000  1.0 -0.1428826605
C  C124  1  0.14230000  0.90820000  0.81840000  1.0 0.1106441709
C  C125  1  0.23390000  0.95190000  0.86820000  1.0 -0.1790809591
C  C126  1  0.28640000  0.04430000  0.87390000  1.0 0.0786161439
C  C127  1  0.15920000  0.05330000  0.78520000  1.0 0.0411668013
C  C128  1  0.10810000  0.96420000  0.77590000  1.0 -0.2075939685
C  C129  1  0.53720000  0.98260000  0.66420000  1.0 0.0690102787
C  C130  1  0.47530000  0.89070000  0.65420000  1.0 -0.1905890663
C  C131  1  0.50790000  0.83640000  0.70000000  1.0 0.1186603356
C  C132  1  0.59310000  0.87730000  0.75100000  1.0 -0.1905890663
C  C133  1  0.65630000  0.96820000  0.75850000  1.0 0.0603941775
C  C134  1  0.44290000  0.73510000  0.69120000  1.0 0.0690102787
C  C135  1  0.37200000  0.69000000  0.62970000  1.0 -0.1305997331
C  C136  1  0.31520000  0.59620000  0.62100000  1.0 -0.1305997331
C  C137  1  0.33160000  0.54540000  0.67550000  1.0 0.0603941775
C  C138  1  0.40600000  0.59080000  0.73620000  1.0 -0.1491561513
C  C139  1  0.46070000  0.68500000  0.74530000  1.0 -0.1491561513
C  C140  1  0.27230000  0.44550000  0.66960000  1.0 0.1106441709
C  C141  1  0.17550000  0.40140000  0.62700000  1.0 -0.1990451003
C  C142  1  0.12190000  0.31020000  0.62290000  1.0 0.0690102787
C  C143  1  0.25360000  0.29840000  0.70140000  1.0 0.0786161439
C  C144  1  0.31410000  0.39360000  0.70790000  1.0 -0.2075939685
C  C145  1  0.69720000  0.17100000  0.57460000  1.0 0.5595733265
C  C146  1  0.75590000  0.12290000  0.57750000  1.0 -0.0264838298
C  C147  1  0.72690000  0.06690000  0.52240000  1.0 -0.108384833
C  C148  1  0.78120000  0.02290000  0.52460000  1.0 -0.1491561513
C  C149  1  0.86610000  0.03770000  0.58070000  1.0 0.0690102787
C  C150  1  0.89720000  0.09670000  0.63550000  1.0 -0.162315428
C  C151  1  0.84160000  0.13720000  0.63510000  1.0 -0.108384833
C  C152  1  0.49990000  0.18210000  0.66250000  1.0 0.5806571583
C  C153  1  0.39110000  0.13570000  0.65160000  1.0 -0.0389457572
C  C154  1  0.33170000  0.17470000  0.61490000  1.0 -0.108384833
C  C155  1  0.23120000  0.12800000  0.60250000  1.0 -0.1428826605
C  C156  1  0.18630000  0.04110000  0.62300000  1.0 0.0690102787
C  C157  1  0.24850000  0.00510000  0.66110000  1.0 -0.1491561513
C  C158  1  0.35030000  0.05220000  0.67540000  1.0 -0.108384833
C  C159  1  0.71850000  0.45910000  0.55360000  1.0 0.5377371649
C  C160  1  0.77070000  0.55780000  0.55200000  1.0 -0.0389457572
C  C161  1  0.86490000  0.60410000  0.55590000  1.0 -0.108384833
C  C162  1  0.91490000  0.69760000  0.56050000  1.0 -0.1491561513
C  C163  1  0.86980000  0.74860000  0.55920000  1.0 0.0786161439
C  C164  1  0.76980000  0.70040000  0.55070000  1.0 -0.162315428
C  C165  1  0.72020000  0.60630000  0.54720000  1.0 -0.0923311074
C  C166  1  0.92170000  0.98950000  0.58310000  1.0 0.0786161439
C  C167  1  0.02450000  0.03590000  0.60100000  1.0 -0.1990451003
C  C168  1  0.07710000  0.99010000  0.60380000  1.0 0.090495799
C  C169  1  0.02600000  0.89730000  0.58870000  1.0 -0.1990451003
C  C170  1  0.92420000  0.84740000  0.57100000  1.0 0.0786161439
C  C171  1  0.92250000  0.17930000  0.82770000  1.0 0.5806571583
C  C172  1  0.03220000  0.22740000  0.83930000  1.0 -0.0389457572
C  C173  1  0.09560000  0.20010000  0.88650000  1.0 -0.108384833
C  C174  1  0.19610000  0.24240000  0.89850000  1.0 -0.1305997331
C  C175  1  0.23620000  0.31700000  0.86460000  1.0 0.0690102787
C  C176  1  0.17190000  0.34560000  0.81650000  1.0 -0.1428826605
C  C177  1  0.07250000  0.30060000  0.80320000  1.0 -0.1029415202
C  C178  1  0.71250000  0.89410000  0.93160000  1.0 0.5248682241
C  C179  1  0.65780000  0.79200000  0.92600000  1.0 -0.0264838298
C  C180  1  0.57500000  0.74700000  0.94610000  1.0 -0.1029415202
C  C181  1  0.52600000  0.65380000  0.94060000  1.0 -0.1491561513
C  C182  1  0.55440000  0.60510000  0.91480000  1.0 0.0690102787
C  C183  1  0.63630000  0.65140000  0.89710000  1.0 -0.162315428
C  C184  1  0.68680000  0.74400000  0.90370000  1.0 -0.1209132482
C  C185  1  0.71880000  0.17760000  0.91030000  1.0 0.5672686438
C  C186  1  0.66190000  0.22460000  0.90760000  1.0 -0.0501129783
C  C187  1  0.70050000  0.29410000  0.95580000  1.0 -0.108384833
C  C188  1  0.64630000  0.33790000  0.95330000  1.0 -0.162315428
C  C189  1  0.55230000  0.31210000  0.90340000  1.0 0.0786161439
C  C190  1  0.51360000  0.24020000  0.85600000  1.0 -0.1428826605
C  C191  1  0.56690000  0.19790000  0.85690000  1.0 -0.0923311074
C  C192  1  0.34450000  0.36510000  0.88010000  1.0 0.0786161439
C  C193  1  0.39700000  0.45820000  0.89060000  1.0 -0.1990451003
C  C194  1  0.50000000  0.50310000  0.90660000  1.0 0.0786161439
C  C195  1  0.54750000  0.45460000  0.91020000  1.0 -0.1990451003
C  C196  1  0.49660000  0.36190000  0.89920000  1.0 0.0786161439
C  C197  1  0.39450000  0.31700000  0.88320000  1.0 -0.1990451003
C  C198  1  0.87280000  0.89660000  0.56900000  1.0 -0.2223469128
C  C199  1  0.23400000  0.19600000  0.27260000  1.0 -0.0389457572
C  C200  1  0.17700000  0.12900000  0.23110000  1.0 -0.0389457572
N  N1  1  0.52600000  0.76360000  0.53780000  1.0 -0.2404460588
N  N2  1  0.05070000  0.89350000  0.96600000  1.0 -0.2404460588
N  N3  1  0.21370000  0.66640000  0.24000000  1.0 -0.2404460588
N  N4  1  0.74740000  0.90370000  0.16720000  1.0 -0.2506441583
N  N5  1  0.37180000  0.97700000  0.28410000  1.0 -0.2561833719
N  N6  1  0.84190000  0.74280000  0.34010000  1.0 -0.2561833719
N  N7  1  0.47400000  0.23640000  0.46220000  1.0 -0.2404460588
N  N8  1  0.94930000  0.10650000  0.03400000  1.0 -0.2404460588
N  N9  1  0.78630000  0.33360000  0.76000000  1.0 -0.2404460588
N  N10  1  0.25260000  0.09630000  0.83280000  1.0 -0.2506441583
N  N11  1  0.62820000  0.02300000  0.71590000  1.0 -0.2561833719
N  N12  1  0.15810000  0.25720000  0.65990000  1.0 -0.2561833719
O  O1  1  0.35900000  0.82290000  0.48270000  1.0 -0.5415415923
O  O2  1  0.28960000  0.79390000  0.37030000  1.0 -0.5899634619
O  O3  1  0.46910000  0.75230000  0.37200000  1.0 -0.5562110205
O  O4  1  0.44650000  0.84750000  0.29340000  1.0 -0.5691350808
O  O5  1  0.36600000  0.57700000  0.44090000  1.0 -0.5415415923
O  O6  1  0.24410000  0.58870000  0.44860000  1.0 -0.5415415923
O  O7  1  0.13100000  0.79370000  0.21680000  1.0 -0.5462984402
O  O8  1  0.10550000  0.88460000  0.13560000  1.0 -0.5691350808
O  O9  1  0.31650000  0.06080000  0.04850000  1.0 -0.5113460381
O  O10  1  0.21570000  0.06850000  0.08570000  1.0 -0.5113460381
O  O11  1  0.29570000  0.86120000  0.14370000  1.0 -0.5832237263
O  O12  1  0.21950000  0.82540000  0.03230000  1.0 -0.5462984402
O  O13  1  0.64100000  0.17710000  0.51730000  1.0 -0.5415415923
O  O14  1  0.71040000  0.20610000  0.62970000  1.0 -0.5899634619
O  O15  1  0.53090000  0.24770000  0.62800000  1.0 -0.5562110205
O  O16  1  0.55350000  0.15250000  0.70660000  1.0 -0.5691350808
O  O17  1  0.63400000  0.42300000  0.55910000  1.0 -0.5415415923
O  O18  1  0.75590000  0.41130000  0.55140000  1.0 -0.5415415923
O  O19  1  0.86900000  0.20630000  0.78320000  1.0 -0.5462984402
O  O20  1  0.89450000  0.11540000  0.86440000  1.0 -0.5691350808
O  O21  1  0.68350000  0.93920000  0.95150000  1.0 -0.5113460381
O  O22  1  0.78430000  0.93150000  0.91430000  1.0 -0.5113460381
O  O23  1  0.70430000  0.13880000  0.85630000  1.0 -0.5832237263
O  O24  1  0.78050000  0.17460000  0.96770000  1.0 -0.5462984402
