# DDEC6 charges by PACMAN v1.1 (https://github.com/mtap-research/PACMAN-charge/)
data_FIWPAF_FSR_pacman
_symmetry_space_group_name_H-M   'P 1'
_cell_length_a   16.79300000
_cell_length_b   16.82100000
_cell_length_c   20.73620000
_cell_angle_alpha   63.72600000
_cell_angle_beta   72.00550000
_cell_angle_gamma   61.40800000
_symmetry_Int_Tables_number   1
_chemical_formula_structural   Cd3H78C100N7O12
_chemical_formula_sum   'Cd6 H156 C200 N14 O24'
_cell_volume   4576.59793763
_cell_formula_units_Z   2
loop_
 _symmetry_equiv_pos_site_id
 _symmetry_equiv_pos_as_xyz
  1  'x, y, z'
loop_
 _atom_site_type_symbol
 _atom_site_label
 _atom_site_symmetry_multiplicity
 _atom_site_fract_x
 _atom_site_fract_y
 _atom_site_fract_z
 _atom_site_occupancy
 _atom_site_charge
Cd  Cd1  1  0.54715000  0.65818000  0.54832000  1.0 0.894954902
Cd  Cd2  1  0.66587000  0.55535000  0.73606000  1.0 0.9568091751
Cd  Cd3  1  0.78620000  0.44836000  0.91696000  1.0 0.8728644073
Cd  Cd4  1  0.45285000  0.34182000  0.45168000  1.0 0.894954902
Cd  Cd5  1  0.33413000  0.44465000  0.26394000  1.0 0.9568091751
Cd  Cd6  1  0.21380000  0.55164000  0.08304000  1.0 0.8728644073
H  H1  1  0.60846000  0.76135000  0.38069000  1.0 0.1105201507
H  H2  1  0.65137000  0.74595000  0.26701000  1.0 0.1369950941
H  H3  1  0.60248000  0.50424000  0.35960000  1.0 0.1504302592
H  H4  1  0.56956000  0.52167000  0.47106000  1.0 0.1105201507
H  H5  1  0.71457000  0.62485000  0.20145000  1.0 0.1198350748
H  H6  1  0.58692000  0.54902000  0.23998000  1.0 0.1287302782
H  H7  1  0.80045000  0.53195000  0.12673000  1.0 0.1369950941
H  H8  1  0.84434000  0.49479000  0.02156000  1.0 0.1105201507
H  H9  1  0.60268000  0.52344000  0.02242000  1.0 0.1105201507
H  H10  1  0.55034000  0.55637000  0.13017000  1.0 0.1287302782
H  H11  1  0.84906000  0.37882000  0.74205000  1.0 0.1003963368
H  H12  1  0.00553000  0.32074000  0.71992000  1.0 0.1198350748
H  H13  1  0.97748000  0.60087000  0.63360000  1.0 0.1369950941
H  H14  1  0.82345000  0.64127000  0.66832000  1.0 0.1003963368
H  H15  1  0.12666000  0.47700000  0.64786000  1.0 0.1105201507
H  H16  1  0.14261000  0.36733000  0.69272000  1.0 0.1105201507
H  H17  1  0.10122000  0.40540000  0.56238000  1.0 0.0882523165
H  H18  1  0.19718000  0.33493000  0.59147000  1.0 0.0882523165
H  H19  1  0.21687000  0.45025000  0.47835000  1.0 0.1198350748
H  H20  1  0.24669000  0.46142000  0.53790000  1.0 0.1105201507
H  H21  1  0.05588000  0.56868000  0.44297000  1.0 0.1287302782
H  H22  1  0.96305000  0.72017000  0.41099000  1.0 0.0803215781
H  H23  1  0.09379000  0.77849000  0.49875000  1.0 0.0882523165
H  H24  1  0.19361000  0.62081000  0.53624000  1.0 0.1198350748
H  H25  1  0.47090000  0.59650000  0.70254000  1.0 0.1003963368
H  H26  1  0.31874000  0.68154000  0.72665000  1.0 0.1198350748
H  H27  1  0.36818000  0.69469000  0.89826000  1.0 0.1287302782
H  H28  1  0.51939000  0.61616000  0.86791000  1.0 0.1003963368
H  H29  1  0.21811000  0.83304000  0.81197000  1.0 0.0882523165
H  H30  1  0.19741000  0.74671000  0.87551000  1.0 0.0705208883
H  H31  1  0.17398000  0.80569000  0.72981000  1.0 0.0705208883
H  H32  1  0.15391000  0.71781000  0.79356000  1.0 0.0882523165
H  H33  1  0.03943000  0.82549000  0.85264000  1.0 0.0705208883
H  H34  1  0.01533000  0.85366000  0.77539000  1.0 0.0705208883
H  H35  1  0.95520000  0.96680000  0.86937000  1.0 0.0803215781
H  H36  1  0.93592000  0.12193000  0.85034000  1.0 0.1003963368
H  H37  1  0.11758000  0.12262000  0.66957000  1.0 0.0882523165
H  H38  1  0.13686000  0.96749000  0.68860000  1.0 0.0803215781
H  H39  1  0.79471000  0.27706000  0.71049000  1.0 0.1105201507
H  H40  1  0.86625000  0.12491000  0.70335000  1.0 0.1003963368
H  H41  1  0.67379000  0.20509000  0.58045000  1.0 0.1105201507
H  H42  1  0.60773000  0.35619000  0.58854000  1.0 0.1105201507
H  H43  1  0.77937000  0.78427000  0.48814000  1.0 0.1105201507
H  H44  1  0.85849000  0.85150000  0.50670000  1.0 0.1105201507
H  H45  1  0.67728000  0.88820000  0.68263000  1.0 0.1198350748
H  H46  1  0.61184000  0.80366000  0.67161000  1.0 0.1198350748
H  H47  1  0.24326000  0.66720000  0.62867000  1.0 0.1198350748
H  H48  1  0.08383000  0.73814000  0.64446000  1.0 0.1198350748
H  H49  1  0.09329000  0.99842000  0.55729000  1.0 0.1105201507
H  H50  1  0.24994000  0.92971000  0.54196000  1.0 0.1198350748
H  H51  1  0.71692000  0.03395000  0.63150000  1.0 0.1198350748
H  H52  1  0.95437000  0.82294000  0.59182000  1.0 0.1105201507
H  H53  1  0.95463000  0.03922000  0.62745000  1.0 0.1105201507
H  H54  1  0.53070000  0.80600000  0.79798000  1.0 0.1198350748
H  H55  1  0.45642000  0.94939000  0.81958000  1.0 0.1105201507
H  H56  1  0.67089000  0.88483000  0.90730000  1.0 0.1105201507
H  H57  1  0.74657000  0.73838000  0.88624000  1.0 0.1198350748
H  H58  1  0.09115000  0.22187000  0.84817000  1.0 0.1105201507
H  H59  1  0.24725000  0.14366000  0.84561000  1.0 0.1105201507
H  H60  1  0.23896000  0.25105000  0.98664000  1.0 0.1105201507
H  H61  1  0.07425000  0.33882000  0.98523000  1.0 0.1287302782
H  H62  1  0.67894000  0.32442000  0.80443000  1.0 0.1105201507
H  H63  1  0.61677000  0.22672000  0.80614000  1.0 0.1198350748
H  H64  1  0.50027000  0.20670000  0.01256000  1.0 0.1105201507
H  H65  1  0.57186000  0.29256000  0.01251000  1.0 0.1198350748
H  H66  1  0.38035000  0.02710000  0.89220000  1.0 0.1105201507
H  H67  1  0.37514000  0.24220000  0.93232000  1.0 0.1105201507
H  H68  1  0.61368000  0.04855000  0.87807000  1.0 0.1287302782
H  H69  1  0.21585000  0.76257000  0.89035000  1.0 0.0705208883
H  H70  1  0.22451000  0.65966000  0.89995000  1.0 0.0803215781
H  H71  1  0.17876000  0.80211000  0.76610000  1.0 0.0705208883
H  H72  1  0.14351000  0.71912000  0.81164000  1.0 0.1105201507
H  H73  1  0.03976000  0.82589000  0.88145000  1.0 0.0705208883
H  H74  1  0.01510000  0.84450000  0.80685000  1.0 0.0705208883
H  H75  1  0.98419000  0.00364000  0.87833000  1.0 0.0882523165
H  H76  1  0.02658000  0.13445000  0.82443000  1.0 0.0803215781
H  H77  1  0.17559000  0.03885000  0.65941000  1.0 0.0882523165
H  H78  1  0.13320000  0.90803000  0.71331000  1.0 0.0705208883
H  H79  1  0.39154000  0.23865000  0.61931000  1.0 0.1105201507
H  H80  1  0.34863000  0.25405000  0.73299000  1.0 0.1369950941
H  H81  1  0.39752000  0.49576000  0.64040000  1.0 0.1504302592
H  H82  1  0.43044000  0.47833000  0.52894000  1.0 0.1105201507
H  H83  1  0.28543000  0.37515000  0.79855000  1.0 0.1198350748
H  H84  1  0.41308000  0.45098000  0.76002000  1.0 0.1287302782
H  H85  1  0.19955000  0.46805000  0.87327000  1.0 0.1369950941
H  H86  1  0.15566000  0.50521000  0.97844000  1.0 0.1105201507
H  H87  1  0.39732000  0.47656000  0.97758000  1.0 0.1105201507
H  H88  1  0.44966000  0.44363000  0.86983000  1.0 0.1287302782
H  H89  1  0.15094000  0.62118000  0.25795000  1.0 0.1003963368
H  H90  1  0.99447000  0.67926000  0.28008000  1.0 0.1198350748
H  H91  1  0.02252000  0.39913000  0.36640000  1.0 0.1369950941
H  H92  1  0.17655000  0.35873000  0.33168000  1.0 0.1003963368
H  H93  1  0.87334000  0.52300000  0.35214000  1.0 0.1105201507
H  H94  1  0.85739000  0.63267000  0.30728000  1.0 0.1105201507
H  H95  1  0.89878000  0.59460000  0.43762000  1.0 0.0882523165
H  H96  1  0.80282000  0.66507000  0.40853000  1.0 0.0882523165
H  H97  1  0.78313000  0.54975000  0.52165000  1.0 0.1198350748
H  H98  1  0.75331000  0.53858000  0.46210000  1.0 0.1105201507
H  H99  1  0.94412000  0.43132000  0.55703000  1.0 0.1287302782
H  H100  1  0.03695000  0.27983000  0.58901000  1.0 0.0803215781
H  H101  1  0.90621000  0.22151000  0.50125000  1.0 0.0882523165
H  H102  1  0.80639000  0.37919000  0.46376000  1.0 0.1198350748
H  H103  1  0.52910000  0.40350000  0.29746000  1.0 0.1003963368
H  H104  1  0.68126000  0.31846000  0.27335000  1.0 0.1198350748
H  H105  1  0.63182000  0.30531000  0.10174000  1.0 0.1287302782
H  H106  1  0.48061000  0.38384000  0.13209000  1.0 0.1003963368
H  H107  1  0.78189000  0.16696000  0.18803000  1.0 0.0882523165
H  H108  1  0.80259000  0.25329000  0.12449000  1.0 0.0705208883
H  H109  1  0.82602000  0.19431000  0.27019000  1.0 0.0705208883
H  H110  1  0.84609000  0.28219000  0.20644000  1.0 0.0882523165
H  H111  1  0.96057000  0.17451000  0.14736000  1.0 0.0705208883
H  H112  1  0.98467000  0.14634000  0.22461000  1.0 0.0705208883
H  H113  1  0.04480000  0.03320000  0.13063000  1.0 0.0803215781
H  H114  1  0.06408000  0.87807000  0.14966000  1.0 0.1003963368
H  H115  1  0.88242000  0.87738000  0.33043000  1.0 0.0882523165
H  H116  1  0.86314000  0.03251000  0.31140000  1.0 0.0803215781
H  H117  1  0.20529000  0.72294000  0.28951000  1.0 0.1105201507
H  H118  1  0.13375000  0.87509000  0.29665000  1.0 0.1003963368
H  H119  1  0.32621000  0.79491000  0.41955000  1.0 0.1105201507
H  H120  1  0.39227000  0.64381000  0.41146000  1.0 0.1105201507
H  H121  1  0.22063000  0.21573000  0.51186000  1.0 0.1105201507
H  H122  1  0.14151000  0.14850000  0.49330000  1.0 0.1105201507
H  H123  1  0.32272000  0.11180000  0.31737000  1.0 0.1198350748
H  H124  1  0.38816000  0.19634000  0.32839000  1.0 0.1198350748
H  H125  1  0.75674000  0.33280000  0.37133000  1.0 0.1198350748
H  H126  1  0.91617000  0.26186000  0.35554000  1.0 0.1198350748
H  H127  1  0.90671000  0.00158000  0.44271000  1.0 0.1105201507
H  H128  1  0.75006000  0.07029000  0.45804000  1.0 0.1198350748
H  H129  1  0.28308000  0.96605000  0.36850000  1.0 0.1198350748
H  H130  1  0.04563000  0.17706000  0.40818000  1.0 0.1105201507
H  H131  1  0.04537000  0.96078000  0.37255000  1.0 0.1105201507
H  H132  1  0.46930000  0.19400000  0.20202000  1.0 0.1198350748
H  H133  1  0.54358000  0.05061000  0.18042000  1.0 0.1105201507
H  H134  1  0.32911000  0.11517000  0.09270000  1.0 0.1105201507
H  H135  1  0.25343000  0.26162000  0.11376000  1.0 0.1198350748
H  H136  1  0.90885000  0.77813000  0.15183000  1.0 0.1105201507
H  H137  1  0.75275000  0.85634000  0.15439000  1.0 0.1105201507
H  H138  1  0.76104000  0.74895000  0.01336000  1.0 0.1105201507
H  H139  1  0.92575000  0.66118000  0.01477000  1.0 0.1287302782
H  H140  1  0.32106000  0.67558000  0.19557000  1.0 0.1105201507
H  H141  1  0.38323000  0.77328000  0.19386000  1.0 0.1198350748
H  H142  1  0.49973000  0.79330000  0.98744000  1.0 0.1105201507
H  H143  1  0.42814000  0.70744000  0.98749000  1.0 0.1198350748
H  H144  1  0.61965000  0.97290000  0.10780000  1.0 0.1105201507
H  H145  1  0.62486000  0.75780000  0.06768000  1.0 0.1105201507
H  H146  1  0.38632000  0.95145000  0.12193000  1.0 0.1287302782
H  H147  1  0.78415000  0.23743000  0.10965000  1.0 0.0705208883
H  H148  1  0.77549000  0.34034000  0.10005000  1.0 0.0803215781
H  H149  1  0.82124000  0.19789000  0.23390000  1.0 0.0705208883
H  H150  1  0.85649000  0.28088000  0.18836000  1.0 0.1105201507
H  H151  1  0.96024000  0.17411000  0.11855000  1.0 0.0705208883
H  H152  1  0.98490000  0.15550000  0.19315000  1.0 0.0705208883
H  H153  1  0.01581000  0.99636000  0.12167000  1.0 0.0882523165
H  H154  1  0.97342000  0.86555000  0.17557000  1.0 0.0803215781
H  H155  1  0.82441000  0.96115000  0.34059000  1.0 0.0882523165
H  H156  1  0.86680000  0.09197000  0.28669000  1.0 0.0705208883
C  C1  1  0.60570000  0.70970000  0.37590000  1.0 0.0803215781
C  C2  1  0.63320000  0.70040000  0.30760000  1.0 -0.1923006951
C  C3  1  0.63260000  0.62190000  0.30230000  1.0 0.1559222162
C  C4  1  0.60520000  0.55680000  0.36290000  1.0 -0.1821552098
C  C5  1  0.58170000  0.56990000  0.42900000  1.0 0.0705208883
C  C6  1  0.66730000  0.60560000  0.23160000  1.0 -0.1500612882
C  C7  1  0.63520000  0.56640000  0.21000000  1.0 -0.129291624
C  C8  1  0.66970000  0.54700000  0.14110000  1.0 0.1504302592
C  C9  1  0.75820000  0.52910000  0.10770000  1.0 -0.2190505296
C  C10  1  0.78420000  0.50620000  0.04460000  1.0 0.0803215781
C  C11  1  0.64390000  0.52210000  0.04530000  1.0 0.1003963368
C  C12  1  0.61150000  0.54400000  0.10950000  1.0 -0.1821552098
C  C13  1  0.87600000  0.42390000  0.72050000  1.0 0.0882523165
C  C14  1  0.97040000  0.38770000  0.70670000  1.0 -0.2269748181
C  C15  1  0.01200000  0.45330000  0.67260000  1.0 0.1793124497
C  C16  1  0.95410000  0.55270000  0.65670000  1.0 -0.2099655374
C  C17  1  0.86130000  0.57550000  0.67680000  1.0 0.0882523165
C  C18  1  0.11180000  0.42470000  0.65290000  1.0 -0.2487677946
C  C19  1  0.15080000  0.40140000  0.58060000  1.0 -0.129291624
C  C20  1  0.19380000  0.47040000  0.52060000  1.0 -0.2594031175
C  C21  1  0.13690000  0.57150000  0.49680000  1.0 0.1559222162
C  C22  1  0.06510000  0.61050000  0.45580000  1.0 -0.201168632
C  C23  1  0.01170000  0.70090000  0.43530000  1.0 0.0207333484
C  C24  1  0.08740000  0.73460000  0.48640000  1.0 0.0403220578
C  C25  1  0.14650000  0.63970000  0.51050000  1.0 -0.201168632
C  C26  1  0.45040000  0.61910000  0.74130000  1.0 0.0882523165
C  C27  1  0.35820000  0.66920000  0.75680000  1.0 -0.3097659826
C  C28  1  0.31810000  0.70430000  0.81730000  1.0 0.1287302782
C  C29  1  0.38630000  0.67820000  0.85660000  1.0 -0.2487677946
C  C30  1  0.47790000  0.63010000  0.83880000  1.0 0.0495129478
C  C31  1  0.22109000  0.76844000  0.82410000  1.0 -0.1099301271
C  C32  1  0.15447000  0.78074000  0.78186000  1.0 -0.1205416612
C  C33  1  0.05770000  0.85170000  0.80000000  1.0 -0.1005867689
C  C34  1  0.04800000  0.95220000  0.78080000  1.0 0.0403220578
C  C35  1  0.98800000  0.99820000  0.82910000  1.0 -0.1005867689
C  C36  1  0.97650000  0.09080000  0.81770000  1.0 -0.0615421228
C  C37  1  0.08480000  0.09120000  0.70990000  1.0 0.0495129478
C  C38  1  0.09630000  0.99870000  0.72120000  1.0 -0.0032816734
C  C39  1  0.65510000  0.43880000  0.64500000  1.0 0.5714749913
C  C40  1  0.69690000  0.33580000  0.64630000  1.0 -0.0397773102
C  C41  1  0.77180000  0.26280000  0.68280000  1.0 -0.1005867689
C  C42  1  0.81380000  0.17070000  0.68020000  1.0 -0.1821552098
C  C43  1  0.77730000  0.14610000  0.64240000  1.0 0.1003963368
C  C44  1  0.69910000  0.21900000  0.60670000  1.0 -0.1500612882
C  C45  1  0.66070000  0.30990000  0.61080000  1.0 -0.1099301271
C  C46  1  0.64550000  0.73080000  0.57030000  1.0 0.5714749913
C  C47  1  0.68990000  0.78450000  0.57800000  1.0 -0.0397773102
C  C48  1  0.76110000  0.80180000  0.52930000  1.0 -0.1099301271
C  C49  1  0.80690000  0.84450000  0.53910000  1.0 -0.1673787787
C  C50  1  0.77630000  0.87790000  0.59810000  1.0 0.0803215781
C  C51  1  0.70100000  0.86390000  0.64460000  1.0 -0.1396136586
C  C52  1  0.66020000  0.81580000  0.63710000  1.0 -0.1005867689
C  C53  1  0.36430000  0.74590000  0.56530000  1.0 0.5355233968
C  C54  1  0.26140000  0.79270000  0.57850000  1.0 -0.0276275381
C  C55  1  0.21230000  0.73490000  0.61260000  1.0 -0.129291624
C  C56  1  0.11720000  0.77730000  0.62300000  1.0 -0.1821552098
C  C57  1  0.07210000  0.87600000  0.60200000  1.0 0.0606710248
C  C58  1  0.12360000  0.93080000  0.57140000  1.0 -0.2099655374
C  C59  1  0.21690000  0.89050000  0.56100000  1.0 -0.129291624
C  C60  1  0.82780000  0.05060000  0.63160000  1.0 0.0882523165
C  C61  1  0.78120000  0.00650000  0.62510000  1.0 -0.1821552098
C  C62  1  0.82850000  0.92010000  0.60900000  1.0 0.0803215781
C  C63  1  0.92190000  0.88050000  0.60200000  1.0 -0.1821552098
C  C64  1  0.96950000  0.92310000  0.60960000  1.0 0.0882523165
C  C65  1  0.92220000  0.00920000  0.62350000  1.0 -0.2487677946
C  C66  1  0.69290000  0.66240000  0.82550000  1.0 0.5714749913
C  C67  1  0.64520000  0.75920000  0.83860000  1.0 -0.0276275381
C  C68  1  0.55980000  0.82160000  0.82000000  1.0 -0.1099301271
C  C69  1  0.51540000  0.90730000  0.83300000  1.0 -0.1581733554
C  C70  1  0.55630000  0.93260000  0.86560000  1.0 0.0705208883
C  C71  1  0.64220000  0.86920000  0.88500000  1.0 -0.1581733554
C  C72  1  0.68800000  0.78140000  0.87230000  1.0 -0.1099301271
C  C73  1  0.96560000  0.34280000  0.91570000  1.0 0.5116742075
C  C74  1  0.06780000  0.28840000  0.91750000  1.0 -0.0032816734
C  C75  1  0.12040000  0.22940000  0.87580000  1.0 -0.1205416612
C  C76  1  0.21340000  0.18240000  0.87440000  1.0 -0.1500612882
C  C77  1  0.25670000  0.19150000  0.91450000  1.0 0.0705208883
C  C78  1  0.20890000  0.24660000  0.95770000  1.0 -0.1673787787
C  C79  1  0.10880000  0.29880000  0.95750000  1.0 -0.1099301271
C  C80  1  0.67850000  0.37490000  0.90830000  1.0 0.5602956236
C  C81  1  0.62950000  0.31860000  0.90860000  1.0 -0.0276275381
C  C82  1  0.64370000  0.29920000  0.84640000  1.0 -0.1099301271
C  C83  1  0.60530000  0.24230000  0.84730000  1.0 -0.1500612882
C  C84  1  0.55020000  0.20750000  0.90770000  1.0 0.0803215781
C  C85  1  0.53740000  0.22910000  0.97080000  1.0 -0.1500612882
C  C86  1  0.57830000  0.28140000  0.97020000  1.0 -0.1099301271
C  C87  1  0.50550000  0.02160000  0.88370000  1.0 0.0803215781
C  C88  1  0.41110000  0.05920000  0.89540000  1.0 -0.2099655374
C  C89  1  0.36070000  0.14280000  0.91160000  1.0 0.0803215781
C  C90  1  0.40820000  0.18710000  0.91900000  1.0 -0.201168632
C  C91  1  0.50410000  0.15130000  0.90680000  1.0 0.0803215781
C  C92  1  0.54970000  0.07160000  0.88830000  1.0 -0.1923006951
C  C93  1  0.22614000  0.72138000  0.86431000  1.0 -0.1396136586
C  C94  1  0.15267000  0.77071000  0.81456000  1.0 -0.0397773102
C  C95  1  0.05900000  0.84500000  0.82900000  1.0 -0.1099301271
C  C96  1  0.05500000  0.94300000  0.80100000  1.0 0.0207333484
C  C97  1  0.02300000  0.01100000  0.83400000  1.0 -0.0397773102
C  C98  1  0.04800000  0.08900000  0.80200000  1.0 0.0495129478
C  C99  1  0.13700000  0.03100000  0.70400000  1.0 -0.0738012671
C  C100  1  0.11200000  0.95300000  0.73600000  1.0 -0.1005867689
C  C101  1  0.39430000  0.29030000  0.62410000  1.0 0.0803215781
C  C102  1  0.36680000  0.29960000  0.69240000  1.0 -0.1923006951
C  C103  1  0.36740000  0.37810000  0.69770000  1.0 0.1559222162
C  C104  1  0.39480000  0.44320000  0.63710000  1.0 -0.1821552098
C  C105  1  0.41830000  0.43010000  0.57100000  1.0 0.0705208883
C  C106  1  0.33270000  0.39440000  0.76840000  1.0 -0.1500612882
C  C107  1  0.36480000  0.43360000  0.79000000  1.0 -0.129291624
C  C108  1  0.33030000  0.45300000  0.85890000  1.0 0.1504302592
C  C109  1  0.24180000  0.47090000  0.89230000  1.0 -0.2190505296
C  C110  1  0.21580000  0.49380000  0.95540000  1.0 0.0803215781
C  C111  1  0.35610000  0.47790000  0.95470000  1.0 0.1003963368
C  C112  1  0.38850000  0.45600000  0.89050000  1.0 -0.1821552098
C  C113  1  0.12400000  0.57610000  0.27950000  1.0 0.0882523165
C  C114  1  0.02960000  0.61230000  0.29330000  1.0 -0.2269748181
C  C115  1  0.98800000  0.54670000  0.32740000  1.0 0.1793124497
C  C116  1  0.04590000  0.44730000  0.34330000  1.0 -0.2099655374
C  C117  1  0.13870000  0.42450000  0.32320000  1.0 0.0882523165
C  C118  1  0.88820000  0.57530000  0.34710000  1.0 -0.2487677946
C  C119  1  0.84920000  0.59860000  0.41940000  1.0 -0.129291624
C  C120  1  0.80620000  0.52960000  0.47940000  1.0 -0.2594031175
C  C121  1  0.86310000  0.42850000  0.50320000  1.0 0.1559222162
C  C122  1  0.93490000  0.38950000  0.54420000  1.0 -0.201168632
C  C123  1  0.98830000  0.29910000  0.56470000  1.0 0.0207333484
C  C124  1  0.91260000  0.26540000  0.51360000  1.0 0.0403220578
C  C125  1  0.85350000  0.36030000  0.48950000  1.0 -0.201168632
C  C126  1  0.54960000  0.38090000  0.25870000  1.0 0.0882523165
C  C127  1  0.64180000  0.33080000  0.24320000  1.0 -0.3097659826
C  C128  1  0.68190000  0.29570000  0.18270000  1.0 0.1287302782
C  C129  1  0.61370000  0.32180000  0.14340000  1.0 -0.2487677946
C  C130  1  0.52210000  0.36990000  0.16120000  1.0 0.0495129478
C  C131  1  0.77891000  0.23156000  0.17590000  1.0 -0.1099301271
C  C132  1  0.84553000  0.21926000  0.21814000  1.0 -0.1205416612
C  C133  1  0.94230000  0.14830000  0.20000000  1.0 -0.1005867689
C  C134  1  0.95200000  0.04780000  0.21920000  1.0 0.0403220578
C  C135  1  0.01200000  0.00180000  0.17090000  1.0 -0.1005867689
C  C136  1  0.02350000  0.90920000  0.18230000  1.0 -0.0615421228
C  C137  1  0.91520000  0.90880000  0.29010000  1.0 0.0495129478
C  C138  1  0.90370000  0.00130000  0.27880000  1.0 0.0001893852
C  C139  1  0.34490000  0.56120000  0.35500000  1.0 0.5714749913
C  C140  1  0.30310000  0.66420000  0.35370000  1.0 -0.0397773102
C  C141  1  0.22820000  0.73720000  0.31720000  1.0 -0.1005867689
C  C142  1  0.18620000  0.82930000  0.31980000  1.0 -0.1821552098
C  C143  1  0.22270000  0.85390000  0.35760000  1.0 0.1003963368
C  C144  1  0.30090000  0.78100000  0.39330000  1.0 -0.1500612882
C  C145  1  0.33930000  0.69010000  0.38920000  1.0 -0.1099301271
C  C146  1  0.35450000  0.26920000  0.42970000  1.0 0.5714749913
C  C147  1  0.31010000  0.21550000  0.42200000  1.0 -0.0397773102
C  C148  1  0.23890000  0.19820000  0.47070000  1.0 -0.1099301271
C  C149  1  0.19310000  0.15550000  0.46090000  1.0 -0.1673787787
C  C150  1  0.22370000  0.12210000  0.40190000  1.0 0.0803215781
C  C151  1  0.29900000  0.13610000  0.35540000  1.0 -0.1396136586
C  C152  1  0.33980000  0.18420000  0.36290000  1.0 -0.1005867689
C  C153  1  0.63570000  0.25410000  0.43470000  1.0 0.5355233968
C  C154  1  0.73860000  0.20730000  0.42150000  1.0 -0.0276275381
C  C155  1  0.78770000  0.26510000  0.38740000  1.0 -0.129291624
C  C156  1  0.88280000  0.22270000  0.37700000  1.0 -0.1821552098
C  C157  1  0.92790000  0.12400000  0.39800000  1.0 0.0606710248
C  C158  1  0.87640000  0.06920000  0.42860000  1.0 -0.2099655374
C  C159  1  0.78310000  0.10950000  0.43900000  1.0 -0.129291624
C  C160  1  0.17220000  0.94940000  0.36840000  1.0 0.0882523165
C  C161  1  0.21880000  0.99350000  0.37490000  1.0 -0.1821552098
C  C162  1  0.17150000  0.07990000  0.39100000  1.0 0.0803215781
C  C163  1  0.07810000  0.11950000  0.39800000  1.0 -0.1821552098
C  C164  1  0.03050000  0.07690000  0.39040000  1.0 0.0882523165
C  C165  1  0.07780000  0.99080000  0.37650000  1.0 -0.2487677946
C  C166  1  0.30710000  0.33760000  0.17450000  1.0 0.5714749913
C  C167  1  0.35480000  0.24080000  0.16140000  1.0 -0.0276275381
C  C168  1  0.44020000  0.17840000  0.18000000  1.0 -0.1099301271
C  C169  1  0.48460000  0.09270000  0.16700000  1.0 -0.1500612882
C  C170  1  0.44370000  0.06740000  0.13440000  1.0 0.0705208883
C  C171  1  0.35780000  0.13080000  0.11500000  1.0 -0.1581733554
C  C172  1  0.31200000  0.21860000  0.12770000  1.0 -0.1099301271
C  C173  1  0.03440000  0.65720000  0.08430000  1.0 0.5116742075
C  C174  1  0.93220000  0.71160000  0.08250000  1.0 -0.0032816734
C  C175  1  0.87960000  0.77060000  0.12420000  1.0 -0.1205416612
C  C176  1  0.78660000  0.81760000  0.12560000  1.0 -0.1500612882
C  C177  1  0.74330000  0.80850000  0.08550000  1.0 0.0705208883
C  C178  1  0.79110000  0.75340000  0.04230000  1.0 -0.1673787787
C  C179  1  0.89120000  0.70120000  0.04250000  1.0 -0.1099301271
C  C180  1  0.32150000  0.62510000  0.09170000  1.0 0.5602956236
C  C181  1  0.37050000  0.68140000  0.09140000  1.0 -0.0276275381
C  C182  1  0.35630000  0.70080000  0.15360000  1.0 -0.1099301271
C  C183  1  0.39470000  0.75770000  0.15270000  1.0 -0.1500612882
C  C184  1  0.44980000  0.79250000  0.09230000  1.0 0.0803215781
C  C185  1  0.46260000  0.77090000  0.02920000  1.0 -0.1500612882
C  C186  1  0.42170000  0.71860000  0.02980000  1.0 -0.1099301271
C  C187  1  0.49450000  0.97840000  0.11630000  1.0 0.0803215781
C  C188  1  0.58890000  0.94080000  0.10460000  1.0 -0.2099655374
C  C189  1  0.63930000  0.85720000  0.08840000  1.0 0.0803215781
C  C190  1  0.59180000  0.81290000  0.08100000  1.0 -0.201168632
C  C191  1  0.49590000  0.84870000  0.09320000  1.0 0.0803215781
C  C192  1  0.45030000  0.92840000  0.11170000  1.0 -0.1923006951
C  C193  1  0.77386000  0.27862000  0.13569000  1.0 -0.1396136586
C  C194  1  0.84733000  0.22929000  0.18544000  1.0 -0.0397773102
C  C195  1  0.94100000  0.15500000  0.17100000  1.0 -0.1099301271
C  C196  1  0.94500000  0.05700000  0.19900000  1.0 0.0207333484
C  C197  1  0.97700000  0.98900000  0.16600000  1.0 -0.0397773102
C  C198  1  0.95200000  0.91100000  0.19800000  1.0 0.0495129478
C  C199  1  0.86300000  0.96900000  0.29600000  1.0 -0.0738012671
C  C200  1  0.88800000  0.04700000  0.26400000  1.0 -0.1005867689
N  N1  1  0.57570000  0.64880000  0.43480000  1.0 -0.2487677946
N  N2  1  0.72860000  0.50020000  0.01690000  1.0 -0.2487677946
N  N3  1  0.82050000  0.51610000  0.70620000  1.0 -0.2594031175
N  N4  1  0.01940000  0.77000000  0.44560000  1.0 -0.3040160715
N  N5  1  0.51090000  0.60170000  0.77940000  1.0 -0.2594031175
N  N6  1  0.02490000  0.13730000  0.75810000  1.0 -0.1396136586
N  N7  1  0.10500000  0.09900000  0.73700000  1.0 -0.1500612882
N  N8  1  0.42430000  0.35120000  0.56520000  1.0 -0.2487677946
N  N9  1  0.27140000  0.49980000  0.98310000  1.0 -0.2487677946
N  N10  1  0.17950000  0.48390000  0.29380000  1.0 -0.2594031175
N  N11  1  0.98060000  0.23000000  0.55440000  1.0 -0.3040160715
N  N12  1  0.48910000  0.39830000  0.22060000  1.0 -0.2594031175
N  N13  1  0.97510000  0.86270000  0.24190000  1.0 -0.1396136586
N  N14  1  0.89500000  0.90100000  0.26300000  1.0 -0.1500612882
O  O1  1  0.60150000  0.49860000  0.60210000  1.0 -0.5257766425
O  O2  1  0.68520000  0.45100000  0.68790000  1.0 -0.5798508207
O  O3  1  0.60910000  0.68200000  0.62610000  1.0 -0.5798508207
O  O4  1  0.64250000  0.74010000  0.50610000  1.0 -0.5531693875
O  O5  1  0.40920000  0.79640000  0.53560000  1.0 -0.5078845799
O  O6  1  0.40260000  0.65380000  0.58770000  1.0 -0.5680743634
O  O7  1  0.65270000  0.65380000  0.78910000  1.0 -0.5680743634
O  O8  1  0.76750000  0.60100000  0.85120000  1.0 -0.5413313984
O  O9  1  0.92430000  0.32700000  0.88950000  1.0 -0.4471525132
O  O10  1  0.92880000  0.40730000  0.94190000  1.0 -0.4992810666
O  O11  1  0.70960000  0.42500000  0.84970000  1.0 -0.5798508207
O  O12  1  0.68680000  0.37010000  0.96810000  1.0 -0.5413313984
O  O13  1  0.39850000  0.50140000  0.39790000  1.0 -0.5257766425
O  O14  1  0.31480000  0.54900000  0.31210000  1.0 -0.5798508207
O  O15  1  0.39090000  0.31800000  0.37390000  1.0 -0.5798508207
O  O16  1  0.35750000  0.25990000  0.49390000  1.0 -0.5531693875
O  O17  1  0.59080000  0.20360000  0.46440000  1.0 -0.5078845799
O  O18  1  0.59740000  0.34620000  0.41230000  1.0 -0.5680743634
O  O19  1  0.34730000  0.34620000  0.21090000  1.0 -0.5680743634
O  O20  1  0.23250000  0.39900000  0.14880000  1.0 -0.5413313984
O  O21  1  0.07570000  0.67300000  0.11050000  1.0 -0.4471525132
O  O22  1  0.07120000  0.59270000  0.05810000  1.0 -0.4992810666
O  O23  1  0.29040000  0.57500000  0.15030000  1.0 -0.5798508207
O  O24  1  0.31320000  0.62990000  0.03190000  1.0 -0.5413313984
