# DDEC6 charges by PACMAN v1.1 (https://github.com/mtap-research/PACMAN-charge/)
data_FIXLUW_ion_pacman
_symmetry_space_group_name_H-M   'P 1'
_cell_length_a   9.75150000
_cell_length_b   31.26680000
_cell_length_c   16.32060000
_cell_angle_alpha   90.00000000
_cell_angle_beta   103.50200000
_cell_angle_gamma   90.00000000
_symmetry_Int_Tables_number   1
_chemical_formula_structural   Cd4Co3H46C78(NO14)4
_chemical_formula_sum   'Cd8 Co6 H92 C156 N8 O112'
_cell_volume   4838.59037893
_cell_formula_units_Z   2
loop_
 _symmetry_equiv_pos_site_id
 _symmetry_equiv_pos_as_xyz
  1  'x, y, z'
loop_
 _atom_site_type_symbol
 _atom_site_label
 _atom_site_symmetry_multiplicity
 _atom_site_fract_x
 _atom_site_fract_y
 _atom_site_fract_z
 _atom_site_occupancy
 _atom_site_charge
Cd  Cd1  1  0.88659000  0.51980000  0.28609000  1.0 0.9923952608
Cd  Cd2  1  0.21042000  0.68505000  0.86739000  1.0 0.9923952608
Cd  Cd3  1  0.11341000  0.01980000  0.21391000  1.0 0.9923952608
Cd  Cd4  1  0.78958000  0.18505000  0.63261000  1.0 0.9923952608
Cd  Cd5  1  0.11341000  0.48020000  0.71391000  1.0 0.9923952608
Cd  Cd6  1  0.78958000  0.31495000  0.13261000  1.0 0.9923952608
Cd  Cd7  1  0.88659000  0.98020000  0.78609000  1.0 0.9923952608
Cd  Cd8  1  0.21042000  0.81495000  0.36739000  1.0 0.9923952608
Co  Co1  1  0.62491000  0.37138000  0.74695000  1.0 0.8093082397
Co  Co2  1  0.37509000  0.87138000  0.75305000  1.0 0.8093082397
Co  Co3  1  0.37509000  0.62862000  0.25305000  1.0 0.8093082397
Co  Co4  1  0.62491000  0.12862000  0.24695000  1.0 0.8093082397
Co  Co5  1  0.00000000  0.50000000  0.50000000  1.0 1.0998711078
Co  Co6  1  0.00000000  0.00000000  0.00000000  1.0 1.0998711078
H  H1  1  0.56073000  0.59911000  0.04178000  1.0 0.1293749786
H  H2  1  0.72562000  0.67383000  0.88700000  1.0 0.1293749786
H  H3  1  0.98066000  0.59728000  0.05616000  1.0 0.1293749786
H  H4  1  0.02854000  0.90337000  0.06847000  1.0 0.1390763962
H  H5  1  0.20514000  0.78500000  0.09628000  1.0 0.1293749786
H  H6  1  0.07596000  0.83666000  0.86450000  1.0 0.1293749786
H  H7  1  0.65701000  0.42678000  0.51201000  1.0 0.1390763962
H  H8  1  0.42074000  0.50428000  0.33505000  1.0 0.1293749786
H  H9  1  0.23179000  0.42867000  0.47742000  1.0 0.1390763962
H  H10  1  0.43927000  0.09911000  0.45822000  1.0 0.1293749786
H  H11  1  0.27438000  0.17383000  0.61300000  1.0 0.1293749786
H  H12  1  0.01934000  0.09728000  0.44384000  1.0 0.1293749786
H  H13  1  0.97146000  0.40337000  0.43153000  1.0 0.1390763962
H  H14  1  0.79486000  0.28500000  0.40372000  1.0 0.1293749786
H  H15  1  0.92404000  0.33666000  0.63550000  1.0 0.1293749786
H  H16  1  0.34299000  0.92678000  0.98799000  1.0 0.1390763962
H  H17  1  0.57926000  0.00428000  0.16495000  1.0 0.1293749786
H  H18  1  0.76821000  0.92867000  0.02258000  1.0 0.1390763962
H  H19  1  0.43927000  0.40089000  0.95822000  1.0 0.1293749786
H  H20  1  0.27438000  0.32617000  0.11300000  1.0 0.1293749786
H  H21  1  0.01934000  0.40272000  0.94384000  1.0 0.1293749786
H  H22  1  0.97146000  0.09663000  0.93153000  1.0 0.1390763962
H  H23  1  0.79486000  0.21500000  0.90372000  1.0 0.1293749786
H  H24  1  0.92404000  0.16334000  0.13550000  1.0 0.1293749786
H  H25  1  0.34299000  0.57322000  0.48799000  1.0 0.1390763962
H  H26  1  0.57926000  0.49572000  0.66495000  1.0 0.1293749786
H  H27  1  0.76821000  0.57133000  0.52258000  1.0 0.1390763962
H  H28  1  0.56073000  0.90089000  0.54178000  1.0 0.1293749786
H  H29  1  0.72562000  0.82617000  0.38700000  1.0 0.1293749786
H  H30  1  0.98066000  0.90272000  0.55616000  1.0 0.1293749786
H  H31  1  0.02854000  0.59663000  0.56847000  1.0 0.1390763962
H  H32  1  0.20514000  0.71500000  0.59628000  1.0 0.1293749786
H  H33  1  0.07596000  0.66334000  0.36450000  1.0 0.1293749786
H  H34  1  0.65701000  0.07322000  0.01201000  1.0 0.1390763962
H  H35  1  0.42074000  0.99572000  0.83505000  1.0 0.1293749786
H  H36  1  0.23179000  0.07133000  0.97742000  1.0 0.1390763962
H  H37  1  0.16951000  0.09606000  0.74081000  1.0 0.1576895995
H  H38  1  0.21563000  0.04147000  0.65449000  1.0 0.1390763962
H  H39  1  0.62221000  0.07231000  0.70892000  1.0 0.1493773094
H  H40  1  0.58311000  0.12785000  0.79339000  1.0 0.1493773094
H  H41  1  0.50141000  0.03013000  0.57889000  1.0 0.1576895995
H  H42  1  0.36473000  0.00468000  0.59032000  1.0 0.1493773094
H  H43  1  0.51372000  0.99677000  0.65461000  1.0 0.1676855846
H  H44  1  0.14149000  0.16516000  0.77273000  1.0 0.1576895995
H  H45  1  0.10149000  0.21785000  0.86441000  1.0 0.1390763962
H  H46  1  0.48783000  0.20554000  0.00361000  1.0 0.1390763962
H  H47  1  0.54271000  0.15495000  0.91278000  1.0 0.1493773094
H  H48  1  0.34087000  0.26461000  0.02334000  1.0 0.1576895995
H  H49  1  0.23790000  0.23059000  0.05128000  1.0 0.1676855846
H  H50  1  0.17755000  0.26323000  0.97596000  1.0 0.1576895995
H  H51  1  0.83049000  0.59606000  0.75919000  1.0 0.1576895995
H  H52  1  0.78437000  0.54147000  0.84551000  1.0 0.1390763962
H  H53  1  0.37779000  0.57231000  0.79108000  1.0 0.1493773094
H  H54  1  0.41689000  0.62785000  0.70661000  1.0 0.1493773094
H  H55  1  0.49859000  0.53013000  0.92111000  1.0 0.1576895995
H  H56  1  0.63527000  0.50468000  0.90968000  1.0 0.1493773094
H  H57  1  0.48628000  0.49677000  0.84539000  1.0 0.1676855846
H  H58  1  0.85851000  0.66516000  0.72727000  1.0 0.1576895995
H  H59  1  0.89851000  0.71785000  0.63559000  1.0 0.1390763962
H  H60  1  0.51217000  0.70554000  0.49639000  1.0 0.1390763962
H  H61  1  0.45729000  0.65495000  0.58722000  1.0 0.1493773094
H  H62  1  0.65913000  0.76461000  0.47666000  1.0 0.1576895995
H  H63  1  0.76210000  0.73059000  0.44872000  1.0 0.1676855846
H  H64  1  0.82245000  0.76323000  0.52404000  1.0 0.1576895995
H  H65  1  0.83049000  0.90394000  0.25919000  1.0 0.1576895995
H  H66  1  0.78437000  0.95853000  0.34551000  1.0 0.1390763962
H  H67  1  0.37779000  0.92769000  0.29108000  1.0 0.1493773094
H  H68  1  0.41689000  0.87215000  0.20661000  1.0 0.1493773094
H  H69  1  0.49859000  0.96987000  0.42111000  1.0 0.1576895995
H  H70  1  0.63527000  0.99532000  0.40968000  1.0 0.1493773094
H  H71  1  0.48628000  0.00323000  0.34539000  1.0 0.1676855846
H  H72  1  0.85851000  0.83484000  0.22727000  1.0 0.1576895995
H  H73  1  0.89851000  0.78215000  0.13559000  1.0 0.1390763962
H  H74  1  0.51217000  0.79446000  0.99639000  1.0 0.1390763962
H  H75  1  0.45729000  0.84505000  0.08722000  1.0 0.1493773094
H  H76  1  0.65913000  0.73539000  0.97666000  1.0 0.1576895995
H  H77  1  0.76210000  0.76941000  0.94872000  1.0 0.1676855846
H  H78  1  0.82245000  0.73677000  0.02404000  1.0 0.1576895995
H  H79  1  0.16951000  0.40394000  0.24081000  1.0 0.1576895995
H  H80  1  0.21563000  0.45853000  0.15449000  1.0 0.1390763962
H  H81  1  0.62221000  0.42769000  0.20892000  1.0 0.1493773094
H  H82  1  0.58311000  0.37215000  0.29339000  1.0 0.1493773094
H  H83  1  0.50141000  0.46987000  0.07889000  1.0 0.1576895995
H  H84  1  0.36473000  0.49532000  0.09032000  1.0 0.1493773094
H  H85  1  0.51372000  0.50323000  0.15461000  1.0 0.1676855846
H  H86  1  0.14149000  0.33484000  0.27273000  1.0 0.1576895995
H  H87  1  0.10149000  0.28215000  0.36441000  1.0 0.1390763962
H  H88  1  0.48783000  0.29446000  0.50361000  1.0 0.1390763962
H  H89  1  0.54271000  0.34505000  0.41278000  1.0 0.1493773094
H  H90  1  0.34087000  0.23539000  0.52334000  1.0 0.1576895995
H  H91  1  0.23790000  0.26941000  0.55128000  1.0 0.1676855846
H  H92  1  0.17755000  0.23677000  0.47596000  1.0 0.1576895995
C  C1  1  0.79710000  0.56326000  0.13360000  1.0 0.534023413
C  C2  1  0.77370000  0.59362000  0.06020000  1.0 -0.0199003743
C  C3  1  0.64030000  0.60897000  0.02290000  1.0 -0.1092081529
C  C4  1  0.62270000  0.63874000  0.95810000  1.0 -0.0276887241
C  C5  1  0.48010000  0.65639000  0.91880000  1.0 0.5381525918
C  C6  1  0.73820000  0.65315000  0.93080000  1.0 -0.1212038284
C  C7  1  0.87200000  0.63784000  0.96630000  1.0 -0.0276887241
C  C8  1  0.88920000  0.60800000  0.03130000  1.0 -0.1036863462
C  C9  1  0.99750000  0.65320000  0.93720000  1.0 0.5381525918
C  C10  1  0.97760000  0.91093000  0.90100000  1.0 0.6011776417
C  C11  1  0.04400000  0.87537000  0.95810000  1.0 -0.0112893381
C  C12  1  0.05900000  0.87839000  0.04470000  1.0 -0.0884565101
C  C13  1  0.11920000  0.84447000  0.09690000  1.0 -0.0276887241
C  C14  1  0.13490000  0.84600000  0.19120000  1.0 0.5144665926
C  C15  1  0.16370000  0.80799000  0.06100000  1.0 -0.1386590362
C  C16  1  0.14820000  0.80490000  0.97500000  1.0 -0.0199003743
C  C17  1  0.08760000  0.83872000  0.92380000  1.0 -0.1092081529
C  C18  1  0.18840000  0.76440000  0.93730000  1.0 0.5381525918
C  C19  1  0.45550000  0.38930000  0.57290000  1.0 0.5381525918
C  C20  1  0.44610000  0.42224000  0.50400000  1.0 -0.0199003743
C  C21  1  0.56740000  0.43735000  0.48320000  1.0 -0.1092081529
C  C22  1  0.55800000  0.46822000  0.41970000  1.0 -0.0199003743
C  C23  1  0.69420000  0.48363000  0.39980000  1.0 0.585419008
C  C24  1  0.42730000  0.48382000  0.37880000  1.0 -0.1212038284
C  C25  1  0.30540000  0.46999000  0.40090000  1.0 -0.0199003743
C  C26  1  0.16480000  0.48881000  0.35800000  1.0 0.5588139384
C  C27  1  0.31500000  0.43877000  0.46300000  1.0 -0.1092081529
C  C28  1  0.20290000  0.06326000  0.36640000  1.0 0.534023413
C  C29  1  0.22630000  0.09362000  0.43980000  1.0 -0.0199003743
C  C30  1  0.35970000  0.10897000  0.47710000  1.0 -0.1092081529
C  C31  1  0.37730000  0.13874000  0.54190000  1.0 -0.0276887241
C  C32  1  0.51990000  0.15639000  0.58120000  1.0 0.5381525918
C  C33  1  0.26180000  0.15315000  0.56920000  1.0 -0.1212038284
C  C34  1  0.12800000  0.13784000  0.53370000  1.0 -0.0276887241
C  C35  1  0.11080000  0.10800000  0.46870000  1.0 -0.1036863462
C  C36  1  0.00250000  0.15320000  0.56280000  1.0 0.5381525918
C  C37  1  0.02240000  0.41093000  0.59900000  1.0 0.6011776417
C  C38  1  0.95600000  0.37537000  0.54190000  1.0 -0.0112893381
C  C39  1  0.94100000  0.37839000  0.45530000  1.0 -0.0884565101
C  C40  1  0.88080000  0.34447000  0.40310000  1.0 -0.0276887241
C  C41  1  0.86510000  0.34600000  0.30880000  1.0 0.5144665926
C  C42  1  0.83630000  0.30799000  0.43900000  1.0 -0.1386590362
C  C43  1  0.85180000  0.30490000  0.52500000  1.0 -0.0199003743
C  C44  1  0.91240000  0.33872000  0.57620000  1.0 -0.1092081529
C  C45  1  0.81160000  0.26440000  0.56270000  1.0 0.5381525918
C  C46  1  0.54450000  0.88930000  0.92710000  1.0 0.5381525918
C  C47  1  0.55390000  0.92224000  0.99600000  1.0 -0.0199003743
C  C48  1  0.43260000  0.93735000  0.01680000  1.0 -0.1092081529
C  C49  1  0.44200000  0.96822000  0.08030000  1.0 -0.0199003743
C  C50  1  0.30580000  0.98363000  0.10020000  1.0 0.585419008
C  C51  1  0.57270000  0.98382000  0.12120000  1.0 -0.1212038284
C  C52  1  0.69460000  0.96999000  0.09910000  1.0 -0.0199003743
C  C53  1  0.83520000  0.98881000  0.14200000  1.0 0.5588139384
C  C54  1  0.68500000  0.93877000  0.03700000  1.0 -0.1092081529
C  C55  1  0.20290000  0.43674000  0.86640000  1.0 0.534023413
C  C56  1  0.22630000  0.40638000  0.93980000  1.0 -0.0199003743
C  C57  1  0.35970000  0.39103000  0.97710000  1.0 -0.1092081529
C  C58  1  0.37730000  0.36126000  0.04190000  1.0 -0.0276887241
C  C59  1  0.51990000  0.34361000  0.08120000  1.0 0.5381525918
C  C60  1  0.26180000  0.34685000  0.06920000  1.0 -0.1212038284
C  C61  1  0.12800000  0.36216000  0.03370000  1.0 -0.0276887241
C  C62  1  0.11080000  0.39200000  0.96870000  1.0 -0.1036863462
C  C63  1  0.00250000  0.34680000  0.06280000  1.0 0.5381525918
C  C64  1  0.02240000  0.08907000  0.09900000  1.0 0.6011776417
C  C65  1  0.95600000  0.12463000  0.04190000  1.0 -0.0112893381
C  C66  1  0.94100000  0.12161000  0.95530000  1.0 -0.0884565101
C  C67  1  0.88080000  0.15553000  0.90310000  1.0 -0.0276887241
C  C68  1  0.86510000  0.15400000  0.80880000  1.0 0.5144665926
C  C69  1  0.83630000  0.19201000  0.93900000  1.0 -0.1386590362
C  C70  1  0.85180000  0.19510000  0.02500000  1.0 -0.0199003743
C  C71  1  0.91240000  0.16128000  0.07620000  1.0 -0.1092081529
C  C72  1  0.81160000  0.23560000  0.06270000  1.0 0.5381525918
C  C73  1  0.54450000  0.61070000  0.42710000  1.0 0.5381525918
C  C74  1  0.55390000  0.57776000  0.49600000  1.0 -0.0199003743
C  C75  1  0.43260000  0.56265000  0.51680000  1.0 -0.1092081529
C  C76  1  0.44200000  0.53178000  0.58030000  1.0 -0.0199003743
C  C77  1  0.30580000  0.51637000  0.60020000  1.0 0.585419008
C  C78  1  0.57270000  0.51618000  0.62120000  1.0 -0.1092081529
C  C79  1  0.69460000  0.53001000  0.59910000  1.0 -0.0199003743
C  C80  1  0.83520000  0.51119000  0.64200000  1.0 0.5588139384
C  C81  1  0.68500000  0.56123000  0.53700000  1.0 -0.1092081529
C  C82  1  0.79710000  0.93674000  0.63360000  1.0 0.534023413
C  C83  1  0.77370000  0.90638000  0.56020000  1.0 -0.0199003743
C  C84  1  0.64030000  0.89103000  0.52290000  1.0 -0.1092081529
C  C85  1  0.62270000  0.86126000  0.45810000  1.0 -0.0276887241
C  C86  1  0.48010000  0.84361000  0.41880000  1.0 0.5381525918
C  C87  1  0.73820000  0.84685000  0.43080000  1.0 -0.1212038284
C  C88  1  0.87200000  0.86216000  0.46630000  1.0 -0.0276887241
C  C89  1  0.88920000  0.89200000  0.53130000  1.0 -0.1036863462
C  C90  1  0.99750000  0.84680000  0.43720000  1.0 0.5381525918
C  C91  1  0.97760000  0.58907000  0.40100000  1.0 0.6011776417
C  C92  1  0.04400000  0.62463000  0.45810000  1.0 -0.0112893381
C  C93  1  0.05900000  0.62161000  0.54470000  1.0 -0.0884565101
C  C94  1  0.11920000  0.65553000  0.59690000  1.0 -0.0276887241
C  C95  1  0.13490000  0.65400000  0.69120000  1.0 0.5144665926
C  C96  1  0.16370000  0.69201000  0.56100000  1.0 -0.1386590362
C  C97  1  0.14820000  0.69510000  0.47500000  1.0 -0.0199003743
C  C98  1  0.08760000  0.66128000  0.42380000  1.0 -0.1092081529
C  C99  1  0.18840000  0.73560000  0.43730000  1.0 0.5381525918
C  C100  1  0.45550000  0.11070000  0.07290000  1.0 0.5381525918
C  C101  1  0.44610000  0.07776000  0.00400000  1.0 -0.0199003743
C  C102  1  0.56740000  0.06265000  0.98320000  1.0 -0.1092081529
C  C103  1  0.55800000  0.03178000  0.91970000  1.0 -0.0199003743
C  C104  1  0.69420000  0.01637000  0.89980000  1.0 0.585419008
C  C105  1  0.42730000  0.01618000  0.87880000  1.0 -0.1092081529
C  C106  1  0.30540000  0.03001000  0.90090000  1.0 -0.0199003743
C  C107  1  0.16480000  0.01119000  0.85800000  1.0 0.5588139384
C  C108  1  0.31500000  0.06123000  0.96300000  1.0 -0.1092081529
C  C109  1  0.26290000  0.09160000  0.73450000  1.0 -0.1733257682
C  C110  1  0.29020000  0.05930000  0.68350000  1.0 0.0468403701
C  C111  1  0.52950000  0.07770000  0.71550000  1.0 0.0332056872
C  C112  1  0.50670000  0.11030000  0.76580000  1.0 -0.1733257682
C  C113  1  0.37220000  0.11800000  0.77690000  1.0 0.1113555445
C  C114  1  0.45310000  0.01820000  0.62000000  1.0 -0.3714609654
C  C115  1  0.34640000  0.15250000  0.83310000  1.0 0.1225664183
C  C116  1  0.21460000  0.17290000  0.81990000  1.0 -0.1615793915
C  C117  1  0.19050000  0.20390000  0.87460000  1.0 0.0332056872
C  C118  1  0.41760000  0.19700000  0.95570000  1.0 0.0585419903
C  C119  1  0.45010000  0.16650000  0.90250000  1.0 -0.190193987
C  C120  1  0.25920000  0.24590000  0.00340000  1.0 -0.3550836355
C  C121  1  0.73710000  0.59160000  0.76550000  1.0 -0.1733257682
C  C122  1  0.70980000  0.55930000  0.81650000  1.0 0.0468403701
C  C123  1  0.47050000  0.57770000  0.78450000  1.0 0.0354252621
C  C124  1  0.49330000  0.61030000  0.73420000  1.0 -0.1733257682
C  C125  1  0.62780000  0.61800000  0.72310000  1.0 0.1113555445
C  C126  1  0.54690000  0.51820000  0.88000000  1.0 -0.3714609654
C  C127  1  0.65360000  0.65250000  0.66690000  1.0 0.1225664183
C  C128  1  0.78540000  0.67290000  0.68010000  1.0 -0.1615793915
C  C129  1  0.80950000  0.70390000  0.62540000  1.0 0.0332056872
C  C130  1  0.58240000  0.69700000  0.54430000  1.0 0.0585419903
C  C131  1  0.54990000  0.66650000  0.59750000  1.0 -0.190193987
C  C132  1  0.74080000  0.74590000  0.49660000  1.0 -0.3539311102
C  C133  1  0.73710000  0.90840000  0.26550000  1.0 -0.1733257682
C  C134  1  0.70980000  0.94070000  0.31650000  1.0 0.0468403701
C  C135  1  0.47050000  0.92230000  0.28450000  1.0 0.0354252621
C  C136  1  0.49330000  0.88970000  0.23420000  1.0 -0.1733257682
C  C137  1  0.62780000  0.88200000  0.22310000  1.0 0.1113555445
C  C138  1  0.54690000  0.98180000  0.38000000  1.0 -0.3714609654
C  C139  1  0.65360000  0.84750000  0.16690000  1.0 0.1225664183
C  C140  1  0.78540000  0.82710000  0.18010000  1.0 -0.1615793915
C  C141  1  0.80950000  0.79610000  0.12540000  1.0 0.0332056872
C  C142  1  0.58240000  0.80300000  0.04430000  1.0 0.0585419903
C  C143  1  0.54990000  0.83350000  0.09750000  1.0 -0.190193987
C  C144  1  0.74080000  0.75410000  0.99660000  1.0 -0.3539311102
C  C145  1  0.26290000  0.40840000  0.23450000  1.0 -0.1733257682
C  C146  1  0.29020000  0.44070000  0.18350000  1.0 0.0468403701
C  C147  1  0.52950000  0.42230000  0.21550000  1.0 0.0354252621
C  C148  1  0.50670000  0.38970000  0.26580000  1.0 -0.1733257682
C  C149  1  0.37220000  0.38200000  0.27690000  1.0 0.1113555445
C  C150  1  0.45310000  0.48180000  0.12000000  1.0 -0.3714609654
C  C151  1  0.34640000  0.34750000  0.33310000  1.0 0.1225664183
C  C152  1  0.21460000  0.32710000  0.31990000  1.0 -0.1615793915
C  C153  1  0.19050000  0.29610000  0.37460000  1.0 0.0332056872
C  C154  1  0.41760000  0.30300000  0.45570000  1.0 0.0585419903
C  C155  1  0.45010000  0.33350000  0.40250000  1.0 -0.190193987
C  C156  1  0.25920000  0.25410000  0.50340000  1.0 -0.3539311102
N  N1  1  0.42200000  0.05280000  0.67480000  1.0 0.1390763962
N  N2  1  0.29150000  0.21460000  0.94190000  1.0 0.1576895995
N  N3  1  0.57800000  0.55280000  0.82520000  1.0 0.1390763962
N  N4  1  0.70850000  0.71460000  0.55810000  1.0 0.1576895995
N  N5  1  0.57800000  0.94720000  0.32520000  1.0 0.1390763962
N  N6  1  0.70850000  0.78540000  0.05810000  1.0 0.1576895995
N  N7  1  0.42200000  0.44720000  0.17480000  1.0 0.1390763962
N  N8  1  0.29150000  0.28540000  0.44190000  1.0 0.1576895995
O  O1  1  0.91480000  0.54564000  0.15650000  1.0 -0.4906152994
O  O2  1  0.70190000  0.55743000  0.17180000  1.0 -0.5024773688
O  O3  1  0.46760000  0.69168000  0.88120000  1.0 -0.5302376659
O  O4  1  0.37350000  0.63474000  0.92500000  1.0 -0.4906152994
O  O5  1  0.97740000  0.67635000  0.87210000  1.0 -0.541192776
O  O6  1  0.11720000  0.64328000  0.97770000  1.0 -0.4503962048
O  O7  1  0.93730000  0.94418000  0.93240000  1.0 -0.5767138512
O  O8  1  0.96250000  0.90701000  0.82200000  1.0 -0.5024773688
O  O9  1  0.09600000  0.87806000  0.22370000  1.0 -0.4503962048
O  O10  1  0.18300000  0.81350000  0.23070000  1.0 -0.508788994
O  O11  1  0.16840000  0.76115000  0.85870000  1.0 -0.5024773688
O  O12  1  0.23800000  0.73383000  0.98430000  1.0 -0.508788994
O  O13  1  0.68590000  0.50395000  0.33170000  1.0 -0.5302376659
O  O14  1  0.80490000  0.47419000  0.45300000  1.0 -0.5677648247
O  O15  1  0.57860000  0.38300000  0.61810000  1.0 -0.5302376659
O  O16  1  0.34570000  0.37164000  0.58150000  1.0 -0.4845903725
O  O17  1  0.05700000  0.47944000  0.38710000  1.0 -0.5677648247
O  O18  1  0.15520000  0.51159000  0.29520000  1.0 -0.4734475524
O  O19  1  0.85600000  0.45599000  0.21300000  1.0 -0.1036863462
O  O20  1  0.74100000  0.31480000  0.74480000  1.0 0.0236546113
O  O21  1  0.80460000  0.40800000  0.76310000  1.0 0.1493773094
O  O22  1  0.50760000  0.42830000  0.75570000  1.0 -0.1615793915
O  O23  1  0.43130000  0.33510000  0.72610000  1.0 -0.0465157568
O  O24  1  0.64630000  0.36218000  0.87620000  1.0 -0.2765490175
O  O25  1  0.62600000  0.30870000  0.71000000  1.0 0.0016365562
O  O26  1  0.85600000  0.37410000  0.77290000  1.0 -0.0199003743
O  O27  1  0.66800000  0.43970000  0.79360000  1.0 -0.1272934326
O  O28  1  0.41400000  0.36980000  0.75990000  1.0 0.0796625516
O  O29  1  0.08520000  0.04564000  0.34350000  1.0 -0.4906152994
O  O30  1  0.29810000  0.05743000  0.32820000  1.0 -0.5024773688
O  O31  1  0.53240000  0.19168000  0.61880000  1.0 -0.5302376659
O  O32  1  0.62650000  0.13474000  0.57500000  1.0 -0.4906152994
O  O33  1  0.02260000  0.17635000  0.62790000  1.0 -0.541192776
O  O34  1  0.88280000  0.14328000  0.52230000  1.0 -0.4503962048
O  O35  1  0.06270000  0.44418000  0.56760000  1.0 -0.5767138512
O  O36  1  0.03750000  0.40701000  0.67800000  1.0 -0.5024773688
O  O37  1  0.90400000  0.37806000  0.27630000  1.0 -0.4503962048
O  O38  1  0.81700000  0.31350000  0.26930000  1.0 -0.5153093846
O  O39  1  0.83160000  0.26115000  0.64130000  1.0 -0.5024773688
O  O40  1  0.76200000  0.23383000  0.51570000  1.0 -0.508788994
O  O41  1  0.31410000  0.00395000  0.16830000  1.0 -0.5302376659
O  O42  1  0.19510000  0.97419000  0.04700000  1.0 -0.5677648247
O  O43  1  0.42140000  0.88300000  0.88190000  1.0 -0.5302376659
O  O44  1  0.65430000  0.87164000  0.91850000  1.0 -0.4845903725
O  O45  1  0.94300000  0.97944000  0.11290000  1.0 -0.5677648247
O  O46  1  0.84480000  0.01159000  0.20480000  1.0 -0.4734475524
O  O47  1  0.14400000  0.95599000  0.28700000  1.0 -0.1092081529
O  O48  1  0.25900000  0.81480000  0.75520000  1.0 0.0236546113
O  O49  1  0.19540000  0.90800000  0.73690000  1.0 0.1390763962
O  O50  1  0.49240000  0.92830000  0.74430000  1.0 -0.1615793915
O  O51  1  0.56870000  0.83510000  0.77390000  1.0 -0.0465157568
O  O52  1  0.35370000  0.86218000  0.62380000  1.0 -0.2765490175
O  O53  1  0.37400000  0.80870000  0.79000000  1.0 0.0016365562
O  O54  1  0.14400000  0.87410000  0.72710000  1.0 -0.0199003743
O  O55  1  0.33200000  0.93970000  0.70640000  1.0 -0.1272934326
O  O56  1  0.58600000  0.86980000  0.74010000  1.0 0.0796625516
O  O57  1  0.08520000  0.45436000  0.84350000  1.0 -0.4906152994
O  O58  1  0.29810000  0.44257000  0.82820000  1.0 -0.5024773688
O  O59  1  0.53240000  0.30832000  0.11880000  1.0 -0.5302376659
O  O60  1  0.62650000  0.36526000  0.07500000  1.0 -0.4906152994
O  O61  1  0.02260000  0.32365000  0.12790000  1.0 -0.541192776
O  O62  1  0.88280000  0.35672000  0.02230000  1.0 -0.4503962048
O  O63  1  0.06270000  0.05582000  0.06760000  1.0 -0.5767138512
O  O64  1  0.03750000  0.09299000  0.17800000  1.0 -0.5024773688
O  O65  1  0.90400000  0.12194000  0.77630000  1.0 -0.4503962048
O  O66  1  0.81700000  0.18650000  0.76930000  1.0 -0.5153093846
O  O67  1  0.83160000  0.23885000  0.14130000  1.0 -0.5024773688
O  O68  1  0.76200000  0.26617000  0.01570000  1.0 -0.508788994
O  O69  1  0.31410000  0.49605000  0.66830000  1.0 -0.5302376659
O  O70  1  0.19510000  0.52581000  0.54700000  1.0 -0.5677648247
O  O71  1  0.42140000  0.61700000  0.38190000  1.0 -0.5302376659
O  O72  1  0.65430000  0.62836000  0.41850000  1.0 -0.4906152994
O  O73  1  0.94300000  0.52056000  0.61290000  1.0 -0.5677648247
O  O74  1  0.84480000  0.48841000  0.70480000  1.0 -0.4734475524
O  O75  1  0.14400000  0.54401000  0.78700000  1.0 -0.1092081529
O  O76  1  0.25900000  0.68520000  0.25520000  1.0 0.0236546113
O  O77  1  0.19540000  0.59200000  0.23690000  1.0 0.1390763962
O  O78  1  0.49240000  0.57170000  0.24430000  1.0 -0.1615793915
O  O79  1  0.56870000  0.66490000  0.27390000  1.0 -0.0465157568
O  O80  1  0.35370000  0.63782000  0.12380000  1.0 -0.2765490175
O  O81  1  0.37400000  0.69130000  0.29000000  1.0 0.0016365562
O  O82  1  0.14400000  0.62590000  0.22710000  1.0 -0.0199003743
O  O83  1  0.33200000  0.56030000  0.20640000  1.0 -0.1272934326
O  O84  1  0.58600000  0.63020000  0.24010000  1.0 0.0796625516
O  O85  1  0.91480000  0.95436000  0.65650000  1.0 -0.4906152994
O  O86  1  0.70190000  0.94257000  0.67180000  1.0 -0.5024773688
O  O87  1  0.46760000  0.80832000  0.38120000  1.0 -0.5302376659
O  O88  1  0.37350000  0.86526000  0.42500000  1.0 -0.4906152994
O  O89  1  0.97740000  0.82365000  0.37210000  1.0 -0.541192776
O  O90  1  0.11720000  0.85672000  0.47770000  1.0 -0.4503962048
O  O91  1  0.93730000  0.55582000  0.43240000  1.0 -0.5767138512
O  O92  1  0.96250000  0.59299000  0.32200000  1.0 -0.5024773688
O  O93  1  0.09600000  0.62194000  0.72370000  1.0 -0.4503962048
O  O94  1  0.18300000  0.68650000  0.73070000  1.0 -0.5153093846
O  O95  1  0.16840000  0.73885000  0.35870000  1.0 -0.5024773688
O  O96  1  0.23800000  0.76617000  0.48430000  1.0 -0.508788994
O  O97  1  0.68590000  0.99605000  0.83170000  1.0 -0.5302376659
O  O98  1  0.80490000  0.02581000  0.95300000  1.0 -0.5677648247
O  O99  1  0.57860000  0.11700000  0.11810000  1.0 -0.5302376659
O  O100  1  0.34570000  0.12836000  0.08150000  1.0 -0.4845903725
O  O101  1  0.05700000  0.02056000  0.88710000  1.0 -0.5677648247
O  O102  1  0.15520000  0.98841000  0.79520000  1.0 -0.4734475524
O  O103  1  0.85600000  0.04401000  0.71300000  1.0 -0.1036863462
O  O104  1  0.74100000  0.18520000  0.24480000  1.0 0.0236546113
O  O105  1  0.80460000  0.09200000  0.26310000  1.0 0.1493773094
O  O106  1  0.50760000  0.07170000  0.25570000  1.0 -0.1615793915
O  O107  1  0.43130000  0.16490000  0.22610000  1.0 -0.0465157568
O  O108  1  0.64630000  0.13782000  0.37620000  1.0 -0.2765490175
O  O109  1  0.62600000  0.19130000  0.21000000  1.0 0.0016365562
O  O110  1  0.85600000  0.12590000  0.27290000  1.0 -0.0199003743
O  O111  1  0.66800000  0.06030000  0.29360000  1.0 -0.1272934326
O  O112  1  0.41400000  0.13020000  0.25990000  1.0 0.0796625516
