# DDEC6 charges by PACMAN v1.1 (https://github.com/mtap-research/PACMAN-charge/)
data_FIXLAC_ion_pacman
_symmetry_space_group_name_H-M   'P 1'
_cell_length_a   11.16880000
_cell_length_b   16.07220000
_cell_length_c   20.21350000
_cell_angle_alpha   90.00000000
_cell_angle_beta   92.58900000
_cell_angle_gamma   90.00000000
_symmetry_Int_Tables_number   1
_chemical_formula_structural   Co5H30C48N2O31
_chemical_formula_sum   'Co10 H60 C96 N4 O62'
_cell_volume   3624.76481036
_cell_formula_units_Z   2
loop_
 _symmetry_equiv_pos_site_id
 _symmetry_equiv_pos_as_xyz
  1  'x, y, z'
loop_
 _atom_site_type_symbol
 _atom_site_label
 _atom_site_symmetry_multiplicity
 _atom_site_fract_x
 _atom_site_fract_y
 _atom_site_fract_z
 _atom_site_occupancy
 _atom_site_charge
Co  Co1  1  0.26768000  0.09567000  0.02650000  1.0 1.2132105524
Co  Co2  1  0.42170000  0.92716000  0.09171000  1.0 1.1113616521
Co  Co3  1  0.13501000  0.94603000  0.11376000  1.0 1.0265977079
Co  Co4  1  0.09840000  0.06945000  0.61842000  1.0 1.0579124385
Co  Co5  1  0.23717000  0.19109000  0.49700000  1.0 1.1340993339
Co  Co6  1  0.73232000  0.59567000  0.97350000  1.0 1.2132105524
Co  Co7  1  0.57830000  0.42716000  0.90829000  1.0 1.1113616521
Co  Co8  1  0.86499000  0.44603000  0.88624000  1.0 1.0265977079
Co  Co9  1  0.90160000  0.56945000  0.38158000  1.0 1.0579124385
Co  Co10  1  0.76283000  0.69109000  0.50300000  1.0 1.1340993339
H  H1  1  0.41280000  0.80011000  0.89298000  1.0 0.1317763956
H  H2  1  0.23870000  0.00967000  0.83610000  1.0 0.1317763956
H  H3  1  0.31725000  0.83803000  0.69909000  1.0 0.120641524
H  H4  1  0.55877000  0.86335000  0.28889000  1.0 0.120641524
H  H5  1  0.56102000  0.92631000  0.48241000  1.0 0.1317763956
H  H6  1  0.40093000  0.07887000  0.34508000  1.0 0.1394597916
H  H7  1  0.12279000  0.03603000  0.34230000  1.0 0.1317763956
H  H8  1  0.98238000  0.88642000  0.47995000  1.0 0.1394597916
H  H9  1  0.01781000  0.80170000  0.29239000  1.0 0.1394597916
H  H10  1  0.24012000  0.52311000  0.93423000  1.0 0.1394597916
H  H11  1  0.04630000  0.70673000  0.01568000  1.0 0.1317763956
H  H12  1  0.41058000  0.71883000  0.02252000  1.0 0.1317763956
H  H13  1  0.51217000  0.64023000  0.81368000  1.0 0.3692439342
H  H14  1  0.30301000  0.03792000  0.13617000  1.0 0.3692439342
H  H15  1  0.28388000  0.15767000  0.61620000  1.0 0.3920641834
H  H16  1  0.30834000  0.08171000  0.57850000  1.0 0.3920641834
H  H17  1  0.58720000  0.30011000  0.10702000  1.0 0.1317763956
H  H18  1  0.76130000  0.50967000  0.16390000  1.0 0.1317763956
H  H19  1  0.68275000  0.33803000  0.30091000  1.0 0.120641524
H  H20  1  0.44123000  0.36335000  0.71111000  1.0 0.120641524
H  H21  1  0.43898000  0.42631000  0.51759000  1.0 0.1317763956
H  H22  1  0.59907000  0.57887000  0.65492000  1.0 0.1394597916
H  H23  1  0.87721000  0.53603000  0.65770000  1.0 0.1317763956
H  H24  1  0.01762000  0.38642000  0.52005000  1.0 0.1394597916
H  H25  1  0.98219000  0.30170000  0.70761000  1.0 0.1394597916
H  H26  1  0.75988000  0.02311000  0.06577000  1.0 0.1394597916
H  H27  1  0.95370000  0.20673000  0.98432000  1.0 0.1317763956
H  H28  1  0.58942000  0.21883000  0.97748000  1.0 0.1317763956
H  H29  1  0.48783000  0.14023000  0.18632000  1.0 0.3692439342
H  H30  1  0.69699000  0.53792000  0.86383000  1.0 0.3692439342
H  H31  1  0.71612000  0.65767000  0.38380000  1.0 0.3920641834
H  H32  1  0.69166000  0.58171000  0.42150000  1.0 0.3920641834
H  H33  1  0.70355000  0.29979000  0.71212000  1.0 0.1499607674
H  H34  1  0.63289000  0.25712000  0.81157000  1.0 0.1499607674
H  H35  1  0.50558000  0.04882000  0.72988000  1.0 0.1394597916
H  H36  1  0.58389000  0.08195000  0.63136000  1.0 0.1499607674
H  H37  1  0.43493000  0.09066000  0.83617000  1.0 0.1394597916
H  H38  1  0.56202000  0.10348000  0.87460000  1.0 0.1499607674
H  H39  1  0.47206000  0.18041000  0.86457000  1.0 0.1605981005
H  H40  1  0.66314000  0.33927000  0.59837000  1.0 0.1394597916
H  H41  1  0.73335000  0.37098000  0.49812000  1.0 0.1394597916
H  H42  1  0.75967000  0.09868000  0.57036000  1.0 0.1499607674
H  H43  1  0.84405000  0.13911000  0.47220000  1.0 0.1394597916
H  H44  1  0.84942000  0.34135000  0.41009000  1.0 0.1605981005
H  H45  1  0.93960000  0.26455000  0.42017000  1.0 0.1605981005
H  H46  1  0.81420000  0.25214000  0.37989000  1.0 0.1499607674
H  H47  1  0.29645000  0.79979000  0.28788000  1.0 0.1499607674
H  H48  1  0.36711000  0.75712000  0.18843000  1.0 0.1499607674
H  H49  1  0.49442000  0.54882000  0.27012000  1.0 0.1394597916
H  H50  1  0.41611000  0.58195000  0.36864000  1.0 0.1499607674
H  H51  1  0.56507000  0.59066000  0.16383000  1.0 0.1394597916
H  H52  1  0.43798000  0.60348000  0.12540000  1.0 0.1499607674
H  H53  1  0.52794000  0.68041000  0.13543000  1.0 0.1605981005
H  H54  1  0.33686000  0.83927000  0.40163000  1.0 0.1394597916
H  H55  1  0.26665000  0.87098000  0.50188000  1.0 0.1394597916
H  H56  1  0.24033000  0.59868000  0.42964000  1.0 0.1499607674
H  H57  1  0.15595000  0.63911000  0.52780000  1.0 0.1394597916
H  H58  1  0.15058000  0.84135000  0.58991000  1.0 0.1605981005
H  H59  1  0.06040000  0.76455000  0.57983000  1.0 0.1605981005
H  H60  1  0.18580000  0.75214000  0.62011000  1.0 0.1499607674
C  C1  1  0.42200000  0.72430000  0.77520000  1.0 0.5474955732
C  C2  1  0.36970000  0.80680000  0.79440000  1.0 -0.0291049346
C  C3  1  0.37530000  0.83360000  0.85930000  1.0 -0.0944419956
C  C4  1  0.32570000  0.91040000  0.87530000  1.0 -0.0196461792
C  C5  1  0.27280000  0.95750000  0.82530000  1.0 -0.1073271308
C  C6  1  0.26720000  0.93210000  0.75980000  1.0 -0.0291049346
C  C7  1  0.31780000  0.85620000  0.74380000  1.0 -0.1197362427
C  C8  1  0.20840000  0.98410000  0.70630000  1.0 0.5236925775
C  C9  1  0.32860000  0.94290000  0.94550000  1.0 0.5909841055
C  C10  1  0.63900000  0.80410000  0.40460000  1.0 0.5593633945
C  C11  1  0.57300000  0.88470000  0.38760000  1.0 -0.0291049346
C  C12  1  0.53870000  0.90150000  0.32250000  1.0 -0.1267705044
C  C13  1  0.53920000  0.93830000  0.43750000  1.0 -0.1396843076
C  C14  1  0.47290000  0.01010000  0.42130000  1.0 -0.0196461792
C  C15  1  0.44290000  0.02890000  0.35580000  1.0 -0.1000437951
C  C16  1  0.47450000  0.97430000  0.30510000  1.0 -0.0196461792
C  C17  1  0.43680000  0.98930000  0.23410000  1.0 0.5725478525
C  C18  1  0.34140000  0.61620000  0.97450000  1.0 -0.0196461792
C  C19  1  0.46000000  0.57970000  0.95730000  1.0 0.5814611906
C  C20  1  0.08900000  0.03660000  0.47020000  1.0 0.5725478525
C  C21  1  0.06060000  0.97010000  0.41940000  1.0 -0.0196461792
C  C22  1  0.09000000  0.98390000  0.35420000  1.0 -0.1197362427
C  C23  1  0.95220000  0.74760000  0.40960000  1.0 0.5814611906
C  C24  1  0.99650000  0.83110000  0.39000000  1.0 -0.0291049346
C  C25  1  0.00900000  0.89450000  0.43640000  1.0 -0.1197362427
C  C26  1  0.02730000  0.84480000  0.32440000  1.0 -0.1267705044
C  C27  1  0.07240000  0.92290000  0.30650000  1.0 -0.0013992028
C  C28  1  0.09940000  0.94060000  0.23480000  1.0 0.5378418857
C  C29  1  0.01050000  0.56510000  0.95320000  1.0 0.6005513961
C  C30  1  0.12550000  0.60860000  0.97220000  1.0 -0.0196461792
C  C31  1  0.23690000  0.57480000  0.95690000  1.0 -0.1000437951
C  C32  1  0.12150000  0.68360000  0.00540000  1.0 -0.1073271308
C  C33  1  0.22750000  0.72570000  0.02380000  1.0 -0.0196461792
C  C34  1  0.33820000  0.69130000  0.00910000  1.0 -0.1197362427
C  C35  1  0.22300000  0.80700000  0.05990000  1.0 0.5725478525
C  C36  1  0.42900000  0.06370000  0.47630000  1.0 0.5593633945
C  C37  1  0.57800000  0.22430000  0.22480000  1.0 0.5474955732
C  C38  1  0.63030000  0.30680000  0.20560000  1.0 -0.0291049346
C  C39  1  0.62470000  0.33360000  0.14070000  1.0 -0.0944419956
C  C40  1  0.67430000  0.41040000  0.12470000  1.0 -0.0196461792
C  C41  1  0.72720000  0.45750000  0.17470000  1.0 -0.1073271308
C  C42  1  0.73280000  0.43210000  0.24020000  1.0 -0.0291049346
C  C43  1  0.68220000  0.35620000  0.25620000  1.0 -0.1197362427
C  C44  1  0.79160000  0.48410000  0.29370000  1.0 0.5236925775
C  C45  1  0.67140000  0.44290000  0.05450000  1.0 0.5909841055
C  C46  1  0.36100000  0.30410000  0.59540000  1.0 0.5593633945
C  C47  1  0.42700000  0.38470000  0.61240000  1.0 -0.0291049346
C  C48  1  0.46130000  0.40150000  0.67750000  1.0 -0.1267705044
C  C49  1  0.46080000  0.43830000  0.56250000  1.0 -0.1396843076
C  C50  1  0.52710000  0.51010000  0.57870000  1.0 -0.0196461792
C  C51  1  0.55710000  0.52890000  0.64420000  1.0 -0.1000437951
C  C52  1  0.52550000  0.47430000  0.69490000  1.0 -0.0196461792
C  C53  1  0.56320000  0.48930000  0.76590000  1.0 0.5725478525
C  C54  1  0.65860000  0.11620000  0.02550000  1.0 -0.0196461792
C  C55  1  0.54000000  0.07970000  0.04270000  1.0 0.5814611906
C  C56  1  0.91100000  0.53660000  0.52980000  1.0 0.5725478525
C  C57  1  0.93940000  0.47010000  0.58060000  1.0 -0.0196461792
C  C58  1  0.91000000  0.48390000  0.64580000  1.0 -0.1197362427
C  C59  1  0.04780000  0.24760000  0.59040000  1.0 0.5814611906
C  C60  1  0.00350000  0.33110000  0.61000000  1.0 -0.0291049346
C  C61  1  0.99100000  0.39450000  0.56360000  1.0 -0.1197362427
C  C62  1  0.97270000  0.34480000  0.67560000  1.0 -0.1267705044
C  C63  1  0.92760000  0.42290000  0.69350000  1.0 -0.0013992028
C  C64  1  0.90060000  0.44060000  0.76520000  1.0 0.5378418857
C  C65  1  0.98950000  0.06510000  0.04680000  1.0 0.6005513961
C  C66  1  0.87450000  0.10860000  0.02780000  1.0 -0.0196461792
C  C67  1  0.76310000  0.07480000  0.04310000  1.0 -0.1000437951
C  C68  1  0.87850000  0.18360000  0.99460000  1.0 -0.1073271308
C  C69  1  0.77250000  0.22570000  0.97620000  1.0 -0.0196461792
C  C70  1  0.66180000  0.19130000  0.99090000  1.0 -0.1197362427
C  C71  1  0.77700000  0.30700000  0.94010000  1.0 0.5725478525
C  C72  1  0.57100000  0.56370000  0.52370000  1.0 0.5593633945
C  C73  1  0.65500000  0.19370000  0.66020000  1.0 0.120641524
C  C74  1  0.66550000  0.24720000  0.71560000  1.0 -0.1531664287
C  C75  1  0.62070000  0.22290000  0.77350000  1.0 0.0285201278
C  C76  1  0.54740000  0.09990000  0.72590000  1.0 0.011762259
C  C77  1  0.59340000  0.11930000  0.66770000  1.0 -0.1531664287
C  C78  1  0.50200000  0.12940000  0.84450000  1.0 -0.3788983529
C  C79  1  0.70290000  0.21560000  0.59620000  1.0 0.1145215774
C  C80  1  0.69810000  0.29690000  0.57270000  1.0 -0.1782710558
C  C81  1  0.74220000  0.31580000  0.51450000  1.0 0.0285201278
C  C82  1  0.75690000  0.15530000  0.55680000  1.0 -0.1616941845
C  C83  1  0.80550000  0.17920000  0.49840000  1.0 0.0285201278
C  C84  1  0.85510000  0.28110000  0.41710000  1.0 -0.3584417855
C  C85  1  0.34500000  0.69370000  0.33980000  1.0 0.120641524
C  C86  1  0.33450000  0.74720000  0.28440000  1.0 -0.1531664287
C  C87  1  0.37930000  0.72290000  0.22650000  1.0 0.0285201278
C  C88  1  0.45260000  0.59990000  0.27410000  1.0 0.011762259
C  C89  1  0.40660000  0.61930000  0.33230000  1.0 -0.1531664287
C  C90  1  0.49800000  0.62940000  0.15550000  1.0 -0.3788983529
C  C91  1  0.29710000  0.71560000  0.40380000  1.0 0.1145215774
C  C92  1  0.30190000  0.79690000  0.42730000  1.0 -0.1782710558
C  C93  1  0.25780000  0.81580000  0.48550000  1.0 0.0285201278
C  C94  1  0.24310000  0.65530000  0.44320000  1.0 -0.1616941845
C  C95  1  0.19450000  0.67920000  0.50160000  1.0 0.0285201278
C  C96  1  0.14490000  0.78110000  0.58290000  1.0 -0.3584417855
N  N1  1  0.55850000  0.15060000  0.77870000  1.0 0.1605981005
N  N2  1  0.79900000  0.25940000  0.47800000  1.0 0.1499607674
N  N3  1  0.44150000  0.65060000  0.22130000  1.0 0.1605981005
N  N4  1  0.20100000  0.75940000  0.52200000  1.0 0.1499607674
O  O1  1  0.47740000  0.68480000  0.82500000  1.0 -0.4550361639
O  O2  1  0.41440000  0.69690000  0.71930000  1.0 -0.4752345687
O  O3  1  0.16840000  0.05610000  0.72100000  1.0 -0.5219964838
O  O4  1  0.19810000  0.95900000  0.64800000  1.0 -0.5319409823
O  O5  1  0.40260000  0.90880000  0.98680000  1.0 -0.5504637813
O  O6  1  0.26000000  0.00210000  0.95580000  1.0 -0.5571370131
O  O7  1  0.65640000  0.75510000  0.35730000  1.0 -0.5392507991
O  O8  1  0.66880000  0.79280000  0.46430000  1.0 -0.5392507991
O  O9  1  0.45440000  0.51760000  0.92020000  1.0 -0.5062564319
O  O10  1  0.55270000  0.61290000  0.98250000  1.0 -0.5392507991
O  O11  1  0.91770000  0.74180000  0.46870000  1.0 -0.5675437903
O  O12  1  0.95700000  0.68850000  0.36920000  1.0 -0.5219964838
O  O13  1  0.10650000  0.87920000  0.19600000  1.0 -0.5219964838
O  O14  1  0.11300000  0.01320000  0.21680000  1.0 -0.495308817
O  O15  1  0.01790000  0.49830000  0.92020000  1.0 -0.5219964838
O  O16  1  0.91630000  0.59900000  0.97010000  1.0 -0.5504637813
O  O17  1  0.39320000  0.13680000  0.46090000  1.0 -0.5571370131
O  O18  1  0.30930000  0.82490000  0.09960000  1.0 -0.5675437903
O  O19  1  0.21160000  0.25840000  0.40810000  1.0 -0.1396843076
O  O20  1  0.13180000  0.85230000  0.04910000  1.0 -0.5062564319
O  O21  1  0.04910000  0.02450000  0.52750000  1.0 -0.5504637813
O  O22  1  0.14840000  0.09710000  0.45150000  1.0 -0.5319409823
O  O23  1  0.56720000  0.83870000  0.09700000  1.0 -0.1073271308
O  O24  1  0.44860000  0.92860000  0.19610000  1.0 -0.5392507991
O  O25  1  0.26940000  0.20180000  0.09090000  1.0 -0.1000437951
O  O26  1  0.24510000  0.18210000  0.94620000  1.0 -0.1396843076
O  O27  1  0.28250000  0.01100000  0.10120000  1.0 -0.9093927449
O  O28  1  0.26200000  0.12150000  0.58760000  1.0 -0.7469142383
O  O29  1  0.42650000  0.03350000  0.53370000  1.0 -0.5504637813
O  O30  1  0.93320000  0.02200000  0.64940000  1.0 -0.3212076282
O  O31  1  0.39870000  0.05980000  0.21770000  1.0 -0.4909286207
O  O32  1  0.52260000  0.18480000  0.17500000  1.0 -0.4550361639
O  O33  1  0.58560000  0.19690000  0.28070000  1.0 -0.4752345687
O  O34  1  0.83160000  0.55610000  0.27900000  1.0 -0.5219964838
O  O35  1  0.80190000  0.45900000  0.35200000  1.0 -0.5319409823
O  O36  1  0.59740000  0.40880000  0.01320000  1.0 -0.5504637813
O  O37  1  0.74000000  0.50210000  0.04420000  1.0 -0.5571370131
O  O38  1  0.34360000  0.25510000  0.64270000  1.0 -0.5392507991
O  O39  1  0.33120000  0.29280000  0.53570000  1.0 -0.5392507991
O  O40  1  0.54560000  0.01760000  0.07980000  1.0 -0.5062564319
O  O41  1  0.44730000  0.11290000  0.01750000  1.0 -0.5392507991
O  O42  1  0.08230000  0.24180000  0.53130000  1.0 -0.5675437903
O  O43  1  0.04300000  0.18850000  0.63080000  1.0 -0.5219964838
O  O44  1  0.89350000  0.37920000  0.80400000  1.0 -0.5219964838
O  O45  1  0.88700000  0.51320000  0.78320000  1.0 -0.495308817
O  O46  1  0.98210000  0.99830000  0.07980000  1.0 -0.5219964838
O  O47  1  0.08370000  0.09900000  0.02990000  1.0 -0.5504637813
O  O48  1  0.60680000  0.63680000  0.53910000  1.0 -0.5571370131
O  O49  1  0.69070000  0.32490000  0.90040000  1.0 -0.5675437903
O  O50  1  0.78840000  0.75840000  0.59190000  1.0 -0.1396843076
O  O51  1  0.86820000  0.35230000  0.95090000  1.0 -0.5062564319
O  O52  1  0.95090000  0.52450000  0.47250000  1.0 -0.5504637813
O  O53  1  0.85160000  0.59710000  0.54850000  1.0 -0.5319409823
O  O54  1  0.43280000  0.33870000  0.90300000  1.0 -0.1073271308
O  O55  1  0.55140000  0.42860000  0.80390000  1.0 -0.5392507991
O  O56  1  0.73060000  0.70180000  0.90910000  1.0 -0.1073271308
O  O57  1  0.75490000  0.68210000  0.05380000  1.0 -0.1396843076
O  O58  1  0.71750000  0.51100000  0.89880000  1.0 -0.9093927449
O  O59  1  0.73800000  0.62150000  0.41240000  1.0 -0.7469142383
O  O60  1  0.57350000  0.53350000  0.46630000  1.0 -0.5504637813
O  O61  1  0.06680000  0.52200000  0.35060000  1.0 -0.3212076282
O  O62  1  0.60130000  0.55980000  0.78230000  1.0 -0.4909286207
