# DDEC6 charges by PACMAN v1.1 (https://github.com/mtap-research/PACMAN-charge/)
data_FIXMAD_ASR_pacman
_symmetry_space_group_name_H-M   'P 1'
_cell_length_a   10.17090000
_cell_length_b   10.66520000
_cell_length_c   29.44880000
_cell_angle_alpha   90.00000000
_cell_angle_beta   98.36200000
_cell_angle_gamma   90.00000000
_symmetry_Int_Tables_number   1
_chemical_formula_structural   Cd4CoH12(C9O7)4
_chemical_formula_sum   'Cd8 Co2 H24 C72 O56'
_cell_volume   3160.48904969
_cell_formula_units_Z   2
loop_
 _symmetry_equiv_pos_site_id
 _symmetry_equiv_pos_as_xyz
  1  'x, y, z'
loop_
 _atom_site_type_symbol
 _atom_site_label
 _atom_site_symmetry_multiplicity
 _atom_site_fract_x
 _atom_site_fract_y
 _atom_site_fract_z
 _atom_site_occupancy
 _atom_site_charge
Cd  Cd1  1  0.74318000  0.60648000  0.85488000  1.0 0.9420017389
Cd  Cd2  1  0.02958000  0.79611000  0.89505000  1.0 1.0202756909
Cd  Cd3  1  0.25682000  0.10648000  0.64512000  1.0 0.9420017389
Cd  Cd4  1  0.97042000  0.29611000  0.60495000  1.0 1.0202756909
Cd  Cd5  1  0.25682000  0.39352000  0.14512000  1.0 0.9420017389
Cd  Cd6  1  0.97042000  0.20389000  0.10495000  1.0 1.0202756909
Cd  Cd7  1  0.74318000  0.89352000  0.35488000  1.0 0.9420017389
Cd  Cd8  1  0.02958000  0.70389000  0.39505000  1.0 1.0202756909
Co  Co1  1  0.50000000  0.50000000  0.00000000  1.0 0.9893020776
Co  Co2  1  0.50000000  0.00000000  0.50000000  1.0 0.9893020776
H  H1  1  0.75526000  0.07075000  0.96011000  1.0 0.1335186871
H  H2  1  0.35726000  0.12220000  0.94995000  1.0 0.1385571969
H  H3  1  0.50398000  0.79390000  0.90817000  1.0 0.1385571969
H  H4  1  0.25719000  0.59070000  0.85350000  1.0 0.1385571969
H  H5  1  0.00114000  0.44473000  0.74907000  1.0 0.1335186871
H  H6  1  0.39618000  0.42007000  0.74690000  1.0 0.1335186871
H  H7  1  0.24474000  0.57075000  0.53989000  1.0 0.1335186871
H  H8  1  0.64274000  0.62220000  0.55005000  1.0 0.1385571969
H  H9  1  0.49602000  0.29390000  0.59183000  1.0 0.1385571969
H  H10  1  0.74281000  0.09070000  0.64650000  1.0 0.1385571969
H  H11  1  0.99886000  0.94473000  0.75093000  1.0 0.1335186871
H  H12  1  0.60382000  0.92007000  0.75310000  1.0 0.1335186871
H  H13  1  0.24474000  0.92925000  0.03989000  1.0 0.1335186871
H  H14  1  0.64274000  0.87780000  0.05005000  1.0 0.1385571969
H  H15  1  0.49602000  0.20610000  0.09183000  1.0 0.1385571969
H  H16  1  0.74281000  0.40930000  0.14650000  1.0 0.1385571969
H  H17  1  0.99886000  0.55527000  0.25093000  1.0 0.1335186871
H  H18  1  0.60382000  0.57993000  0.25310000  1.0 0.1335186871
H  H19  1  0.75526000  0.42925000  0.46011000  1.0 0.1335186871
H  H20  1  0.35726000  0.37780000  0.44995000  1.0 0.1385571969
H  H21  1  0.50398000  0.70610000  0.40817000  1.0 0.1385571969
H  H22  1  0.25719000  0.90930000  0.35350000  1.0 0.1385571969
H  H23  1  0.00114000  0.05527000  0.24907000  1.0 0.1335186871
H  H24  1  0.39618000  0.07993000  0.24690000  1.0 0.1335186871
C  C1  1  0.76380000  0.84600000  0.92152000  1.0 0.5957670448
C  C2  1  0.64670000  0.92060000  0.93238000  1.0 -0.0202624355
C  C3  1  0.66740000  0.04040000  0.95147000  1.0 -0.0981609753
C  C4  1  0.55980000  0.11510000  0.95783000  1.0 -0.0270472192
C  C5  1  0.43080000  0.07100000  0.94550000  1.0 -0.0981609753
C  C6  1  0.40950000  0.95090000  0.92650000  1.0 -0.002893144
C  C7  1  0.51810000  0.87590000  0.92050000  1.0 -0.0981609753
C  C8  1  0.27090000  0.90340000  0.91270000  1.0 0.5464370983
C  C9  1  0.58270000  0.24430000  0.97790000  1.0 0.5464370983
C  C10  1  0.48750000  0.54330000  0.82280000  1.0 0.5464370983
C  C11  1  0.34710000  0.51230000  0.80260000  1.0 -0.0128115636
C  C12  1  0.24100000  0.54850000  0.82480000  1.0 -0.0894856888
C  C13  1  0.11140000  0.52260000  0.80490000  1.0 -0.0202624355
C  C14  1  0.99520000  0.55840000  0.82840000  1.0 0.5828922328
C  C15  1  0.08980000  0.46050000  0.76300000  1.0 -0.0981609753
C  C16  1  0.32340000  0.44700000  0.76130000  1.0 -0.0981609753
C  C17  1  0.19440000  0.42070000  0.74100000  1.0 -0.0270472192
C  C18  1  0.16700000  0.34840000  0.69670000  1.0 0.5897366491
C  C19  1  0.23620000  0.34600000  0.57848000  1.0 0.5957670448
C  C20  1  0.35330000  0.42060000  0.56762000  1.0 -0.0202624355
C  C21  1  0.33260000  0.54040000  0.54853000  1.0 -0.0981609753
C  C22  1  0.44020000  0.61510000  0.54217000  1.0 -0.0270472192
C  C23  1  0.56920000  0.57100000  0.55450000  1.0 -0.0981609753
C  C24  1  0.59050000  0.45090000  0.57350000  1.0 -0.002893144
C  C25  1  0.48190000  0.37590000  0.57950000  1.0 -0.0981609753
C  C26  1  0.72910000  0.40340000  0.58730000  1.0 0.5464370983
C  C27  1  0.41730000  0.74430000  0.52210000  1.0 0.5464370983
C  C28  1  0.51250000  0.04330000  0.67720000  1.0 0.5464370983
C  C29  1  0.65290000  0.01230000  0.69740000  1.0 -0.0128115636
C  C30  1  0.75900000  0.04850000  0.67520000  1.0 -0.0894856888
C  C31  1  0.88860000  0.02260000  0.69510000  1.0 -0.0202624355
C  C32  1  0.00480000  0.05840000  0.67160000  1.0 0.5828922328
C  C33  1  0.91020000  0.96050000  0.73700000  1.0 -0.0981609753
C  C34  1  0.67660000  0.94700000  0.73870000  1.0 -0.0981609753
C  C35  1  0.80560000  0.92070000  0.75900000  1.0 -0.0270472192
C  C36  1  0.83300000  0.84840000  0.80330000  1.0 0.5897366491
C  C37  1  0.23620000  0.15400000  0.07848000  1.0 0.5957670448
C  C38  1  0.35330000  0.07940000  0.06762000  1.0 -0.0202624355
C  C39  1  0.33260000  0.95960000  0.04853000  1.0 -0.0981609753
C  C40  1  0.44020000  0.88490000  0.04217000  1.0 -0.0270472192
C  C41  1  0.56920000  0.92900000  0.05450000  1.0 -0.0981609753
C  C42  1  0.59050000  0.04910000  0.07350000  1.0 -0.002893144
C  C43  1  0.48190000  0.12410000  0.07950000  1.0 -0.0981609753
C  C44  1  0.72910000  0.09660000  0.08730000  1.0 0.5464370983
C  C45  1  0.41730000  0.75570000  0.02210000  1.0 0.5464370983
C  C46  1  0.51250000  0.45670000  0.17720000  1.0 0.5464370983
C  C47  1  0.65290000  0.48770000  0.19740000  1.0 -0.0128115636
C  C48  1  0.75900000  0.45150000  0.17520000  1.0 -0.0894856888
C  C49  1  0.88860000  0.47740000  0.19510000  1.0 -0.0202624355
C  C50  1  0.00480000  0.44160000  0.17160000  1.0 0.5828922328
C  C51  1  0.91020000  0.53950000  0.23700000  1.0 -0.0981609753
C  C52  1  0.67660000  0.55300000  0.23870000  1.0 -0.0981609753
C  C53  1  0.80560000  0.57930000  0.25900000  1.0 -0.0270472192
C  C54  1  0.83300000  0.65160000  0.30330000  1.0 0.5897366491
C  C55  1  0.76380000  0.65400000  0.42152000  1.0 0.5957670448
C  C56  1  0.64670000  0.57940000  0.43238000  1.0 -0.0202624355
C  C57  1  0.66740000  0.45960000  0.45147000  1.0 -0.0981609753
C  C58  1  0.55980000  0.38490000  0.45783000  1.0 -0.0270472192
C  C59  1  0.43080000  0.42900000  0.44550000  1.0 -0.0981609753
C  C60  1  0.40950000  0.54910000  0.42650000  1.0 -0.002893144
C  C61  1  0.51810000  0.62410000  0.42050000  1.0 -0.0981609753
C  C62  1  0.27090000  0.59660000  0.41270000  1.0 0.5464370983
C  C63  1  0.58270000  0.25570000  0.47790000  1.0 0.5464370983
C  C64  1  0.48750000  0.95670000  0.32280000  1.0 0.5464370983
C  C65  1  0.34710000  0.98770000  0.30260000  1.0 -0.0128115636
C  C66  1  0.24100000  0.95150000  0.32480000  1.0 -0.0894856888
C  C67  1  0.11140000  0.97740000  0.30490000  1.0 -0.0202624355
C  C68  1  0.99520000  0.94160000  0.32840000  1.0 0.5828922328
C  C69  1  0.08980000  0.03950000  0.26300000  1.0 -0.0981609753
C  C70  1  0.32340000  0.05300000  0.26130000  1.0 -0.0981609753
C  C71  1  0.19440000  0.07930000  0.24100000  1.0 -0.0270472192
C  C72  1  0.16700000  0.15160000  0.19670000  1.0 0.5897366491
O  O1  1  0.75170000  0.72740000  0.91858000  1.0 -0.6118131789
O  O2  1  0.86430000  0.90660000  0.91526000  1.0 -0.518454543
O  O3  1  0.17300000  0.96850000  0.91943000  1.0 -0.5023857715
O  O4  1  0.80160000  0.41360000  0.90400000  1.0 0.3331075596
O  O5  1  0.25500000  0.79600000  0.89432000  1.0 -0.518454543
O  O6  1  0.49010000  0.32250000  0.97118000  1.0 -0.5729113134
O  O7  1  0.69170000  0.26620000  0.00220000  1.0 -0.5408968143
O  O8  1  0.57870000  0.52150000  0.79969000  1.0 -0.5302445802
O  O9  1  0.51130000  0.58950000  0.86268000  1.0 -0.5408968143
O  O10  1  0.01580000  0.59780000  0.86919000  1.0 -0.5902693781
O  O11  1  0.88100000  0.54490000  0.80642000  1.0 -0.5119959625
O  O12  1  0.04690000  0.34600000  0.67765000  1.0 -0.5572616371
O  O13  1  0.26400000  0.29620000  0.68221000  1.0 -0.5408968143
O  O14  1  0.75240000  0.42740000  0.89370000  1.0 0.2124092591
O  O15  1  0.24830000  0.22740000  0.58142000  1.0 -0.6118131789
O  O16  1  0.13570000  0.40660000  0.58474000  1.0 -0.518454543
O  O17  1  0.82700000  0.46850000  0.58057000  1.0 -0.5023857715
O  O18  1  0.19840000  0.91360000  0.59600000  1.0 0.3331075596
O  O19  1  0.74500000  0.29600000  0.60568000  1.0 -0.518454543
O  O20  1  0.50990000  0.82250000  0.52882000  1.0 -0.5729113134
O  O21  1  0.30830000  0.76620000  0.49780000  1.0 -0.5408968143
O  O22  1  0.42130000  0.02150000  0.70031000  1.0 -0.5302445802
O  O23  1  0.48870000  0.08950000  0.63732000  1.0 -0.5408968143
O  O24  1  0.98420000  0.09780000  0.63081000  1.0 -0.5902693781
O  O25  1  0.11900000  0.04490000  0.69358000  1.0 -0.5119959625
O  O26  1  0.95310000  0.84600000  0.82235000  1.0 -0.5572616371
O  O27  1  0.73600000  0.79620000  0.81779000  1.0 -0.5408968143
O  O28  1  0.24760000  0.92740000  0.60630000  1.0 0.2124092591
O  O29  1  0.24830000  0.27260000  0.08142000  1.0 -0.6118131789
O  O30  1  0.13570000  0.09340000  0.08474000  1.0 -0.518454543
O  O31  1  0.82700000  0.03150000  0.08057000  1.0 -0.5023857715
O  O32  1  0.19840000  0.58640000  0.09600000  1.0 0.3331075596
O  O33  1  0.74500000  0.20400000  0.10568000  1.0 -0.518454543
O  O34  1  0.50990000  0.67750000  0.02882000  1.0 -0.5729113134
O  O35  1  0.30830000  0.73380000  0.99780000  1.0 -0.5408968143
O  O36  1  0.42130000  0.47850000  0.20031000  1.0 -0.5302445802
O  O37  1  0.48870000  0.41050000  0.13732000  1.0 -0.5408968143
O  O38  1  0.98420000  0.40220000  0.13081000  1.0 -0.5902693781
O  O39  1  0.11900000  0.45510000  0.19358000  1.0 -0.5119959625
O  O40  1  0.95310000  0.65400000  0.32235000  1.0 -0.5572616371
O  O41  1  0.73600000  0.70380000  0.31779000  1.0 -0.5408968143
O  O42  1  0.24760000  0.57260000  0.10630000  1.0 0.2124092591
O  O43  1  0.75170000  0.77260000  0.41858000  1.0 -0.6118131789
O  O44  1  0.86430000  0.59340000  0.41526000  1.0 -0.518454543
O  O45  1  0.17300000  0.53150000  0.41943000  1.0 -0.5023857715
O  O46  1  0.80160000  0.08640000  0.40400000  1.0 0.3359706489
O  O47  1  0.25500000  0.70400000  0.39432000  1.0 -0.518454543
O  O48  1  0.49010000  0.17750000  0.47118000  1.0 -0.5729113134
O  O49  1  0.69170000  0.23380000  0.50220000  1.0 -0.5408968143
O  O50  1  0.57870000  0.97850000  0.29969000  1.0 -0.5302445802
O  O51  1  0.51130000  0.91050000  0.36268000  1.0 -0.5408968143
O  O52  1  0.01580000  0.90220000  0.36919000  1.0 -0.5902693781
O  O53  1  0.88100000  0.95510000  0.30642000  1.0 -0.5119959625
O  O54  1  0.04690000  0.15400000  0.17765000  1.0 -0.5572616371
O  O55  1  0.26400000  0.20380000  0.18221000  1.0 -0.5408968143
O  O56  1  0.75240000  0.07260000  0.39370000  1.0 0.2124092591
