# DDEC6 charges by PACMAN v1.1 (https://github.com/mtap-research/PACMAN-charge/)
data_FIXMEH_ion_pacman
_symmetry_space_group_name_H-M   'P 1'
_cell_length_a   10.20720000
_cell_length_b   10.20720000
_cell_length_c   16.59930000
_cell_angle_alpha   77.86260000
_cell_angle_beta   102.13700000
_cell_angle_gamma   80.53700000
_symmetry_Int_Tables_number   1
_chemical_formula_structural   Cd2H12C15NO9
_chemical_formula_sum   'Cd8 H48 C60 N4 O36'
_cell_volume   1613.12373128
_cell_formula_units_Z   4
loop_
 _symmetry_equiv_pos_site_id
 _symmetry_equiv_pos_as_xyz
  1  'x, y, z'
loop_
 _atom_site_type_symbol
 _atom_site_label
 _atom_site_symmetry_multiplicity
 _atom_site_fract_x
 _atom_site_fract_y
 _atom_site_fract_z
 _atom_site_occupancy
 _atom_site_charge
Cd  Cd1  1  0.09040000  0.57120000  0.57521000  1.0 0.6304525571
Cd  Cd2  1  0.08090000  0.63550000  0.57517000  1.0 0.6083107726
Cd  Cd3  1  0.57120000  0.09040000  0.92479000  1.0 0.6304525571
Cd  Cd4  1  0.63550000  0.08090000  0.92483000  1.0 0.6083107726
Cd  Cd5  1  0.90960000  0.42880000  0.42479000  1.0 0.6304525571
Cd  Cd6  1  0.91910000  0.36450000  0.42483000  1.0 0.6083107726
Cd  Cd7  1  0.42880000  0.90960000  0.07521000  1.0 0.6304525571
Cd  Cd8  1  0.36450000  0.91910000  0.07517000  1.0 0.6083107726
H  H1  1  0.26500000  0.31220000  0.85400000  1.0 0.1225490194
H  H2  1  0.21650000  0.71330000  0.85710000  1.0 0.1225490194
H  H3  1  0.37800000  0.41840000  0.07720000  1.0 0.1225490194
H  H4  1  0.95260000  0.87640000  0.47820000  1.0 0.2687569843
H  H5  1  0.08320000  0.88020000  0.52340000  1.0 0.2687569843
H  H6  1  0.31220000  0.26500000  0.64600000  1.0 0.1225490194
H  H7  1  0.71330000  0.21650000  0.64290000  1.0 0.1225490194
H  H8  1  0.41840000  0.37800000  0.42280000  1.0 0.1225490194
H  H9  1  0.87640000  0.95260000  0.02180000  1.0 0.2687569843
H  H10  1  0.88020000  0.08320000  0.97660000  1.0 0.2687569843
H  H11  1  0.73500000  0.68780000  0.14600000  1.0 0.1295528249
H  H12  1  0.78350000  0.28670000  0.14290000  1.0 0.1225490194
H  H13  1  0.62200000  0.58160000  0.92280000  1.0 0.1225490194
H  H14  1  0.04740000  0.12360000  0.52180000  1.0 0.2687569843
H  H15  1  0.91680000  0.11980000  0.47660000  1.0 0.2687569843
H  H16  1  0.68780000  0.73500000  0.35400000  1.0 0.1295528249
H  H17  1  0.28670000  0.78350000  0.35710000  1.0 0.1225490194
H  H18  1  0.58160000  0.62200000  0.57720000  1.0 0.1225490194
H  H19  1  0.12360000  0.04740000  0.97820000  1.0 0.2687569843
H  H20  1  0.11980000  0.91680000  0.02340000  1.0 0.2687569843
H  H21  1  0.86300000  0.27240000  0.73810000  1.0 0.1512550903
H  H22  1  0.75620000  0.41680000  0.69760000  1.0 0.1442600028
H  H23  1  0.91060000  0.40120000  0.68850000  1.0 0.1512550903
H  H24  1  0.02870000  0.27470000  0.00700000  1.0 0.1225490194
H  H25  1  0.90500000  0.67720000  0.88240000  1.0 0.1295528249
H  H26  1  0.95700000  0.21820000  0.87830000  1.0 0.1061902554
H  H27  1  0.83970000  0.61430000  0.75630000  1.0 0.1295528249
H  H28  1  0.13700000  0.72760000  0.26190000  1.0 0.1512550903
H  H29  1  0.24380000  0.58320000  0.30240000  1.0 0.1442600028
H  H30  1  0.08940000  0.59880000  0.31150000  1.0 0.1512550903
H  H31  1  0.97130000  0.72530000  0.99300000  1.0 0.1225490194
H  H32  1  0.09500000  0.32280000  0.11760000  1.0 0.1295528249
H  H33  1  0.04300000  0.78180000  0.12170000  1.0 0.1061902554
H  H34  1  0.16030000  0.38570000  0.24370000  1.0 0.1295528249
H  H35  1  0.27240000  0.86300000  0.76190000  1.0 0.1512550903
H  H36  1  0.41680000  0.75620000  0.80240000  1.0 0.1442600028
H  H37  1  0.40120000  0.91060000  0.81150000  1.0 0.1512550903
H  H38  1  0.27470000  0.02870000  0.49300000  1.0 0.1225490194
H  H39  1  0.67720000  0.90500000  0.61760000  1.0 0.1295528249
H  H40  1  0.21820000  0.95700000  0.62170000  1.0 0.1061902554
H  H41  1  0.61430000  0.83970000  0.74370000  1.0 0.1295528249
H  H42  1  0.72760000  0.13700000  0.23810000  1.0 0.1512550903
H  H43  1  0.58320000  0.24380000  0.19760000  1.0 0.1442600028
H  H44  1  0.59880000  0.08940000  0.18850000  1.0 0.1512550903
H  H45  1  0.72530000  0.97130000  0.50700000  1.0 0.1225490194
H  H46  1  0.32280000  0.09500000  0.38240000  1.0 0.1295528249
H  H47  1  0.78180000  0.04300000  0.37830000  1.0 0.1061902554
H  H48  1  0.38570000  0.16030000  0.25630000  1.0 0.1295528249
C  C1  1  0.16740000  0.55980000  0.74580000  1.0 0.5210134522
C  C2  1  0.35380000  0.19520000  0.01770000  1.0 0.4561166799
C  C3  1  0.27160000  0.38120000  0.88420000  1.0 -0.1348266487
C  C4  1  0.30700000  0.58240000  0.97300000  1.0 -0.0110439666
C  C5  1  0.32350000  0.34490000  0.97260000  1.0 -0.0162349634
C  C6  1  0.24680000  0.61880000  0.88620000  1.0 -0.122766403
C  C7  1  0.34190000  0.44430000  0.01720000  1.0 -0.1348266487
C  C8  1  0.22930000  0.52010000  0.84050000  1.0 -0.0110439666
C  C9  1  0.33650000  0.68970000  0.01990000  1.0 0.5031222836
C  C10  1  0.55980000  0.16740000  0.75420000  1.0 0.5210134522
C  C11  1  0.19520000  0.35380000  0.48230000  1.0 0.4544518427
C  C12  1  0.38120000  0.27160000  0.61580000  1.0 -0.1348266487
C  C13  1  0.58240000  0.30700000  0.52700000  1.0 -0.0110439666
C  C14  1  0.34490000  0.32350000  0.52740000  1.0 -0.0162349634
C  C15  1  0.61880000  0.24680000  0.61380000  1.0 -0.122766403
C  C16  1  0.44430000  0.34190000  0.48280000  1.0 -0.1348266487
C  C17  1  0.52010000  0.22930000  0.65950000  1.0 -0.0110439666
C  C18  1  0.68970000  0.33650000  0.48010000  1.0 0.5031222836
C  C19  1  0.83260000  0.44020000  0.25420000  1.0 0.5210134522
C  C20  1  0.64620000  0.80480000  0.98230000  1.0 0.4561166799
C  C21  1  0.72840000  0.61880000  0.11580000  1.0 -0.1348266487
C  C22  1  0.69300000  0.41760000  0.02700000  1.0 -0.0110439666
C  C23  1  0.67650000  0.65510000  0.02740000  1.0 -0.0162349634
C  C24  1  0.75320000  0.38120000  0.11380000  1.0 -0.122766403
C  C25  1  0.65810000  0.55570000  0.98280000  1.0 -0.1348266487
C  C26  1  0.77070000  0.47990000  0.15950000  1.0 -0.0110439666
C  C27  1  0.66350000  0.31030000  0.98010000  1.0 0.5031222836
C  C28  1  0.44020000  0.83260000  0.24580000  1.0 0.5210134522
C  C29  1  0.80480000  0.64620000  0.51770000  1.0 0.4561166799
C  C30  1  0.61880000  0.72840000  0.38420000  1.0 -0.1359628155
C  C31  1  0.41760000  0.69300000  0.47300000  1.0 -0.0110439666
C  C32  1  0.65510000  0.67650000  0.47260000  1.0 -0.0162349634
C  C33  1  0.38120000  0.75320000  0.38620000  1.0 -0.122766403
C  C34  1  0.55570000  0.65810000  0.51720000  1.0 -0.1348266487
C  C35  1  0.47990000  0.77070000  0.34050000  1.0 -0.0110439666
C  C36  1  0.31030000  0.66350000  0.51990000  1.0 0.5031222836
C  C37  1  0.85230000  0.37230000  0.72590000  1.0 -0.3623402579
C  C38  1  0.97670000  0.48270000  0.95900000  1.0 0.0979856165
C  C39  1  0.99020000  0.34560000  0.95600000  1.0 -0.1901338859
C  C40  1  0.91780000  0.58280000  0.88280000  1.0 -0.1840740158
C  C41  1  0.94790000  0.31170000  0.87970000  1.0 0.0203269483
C  C42  1  0.87843000  0.54517000  0.80810000  1.0 0.0203269483
C  C43  1  0.14770000  0.62770000  0.27410000  1.0 -0.3623402579
C  C44  1  0.02330000  0.51730000  0.04100000  1.0 0.0979856165
C  C45  1  0.00980000  0.65440000  0.04400000  1.0 -0.1901338859
C  C46  1  0.08220000  0.41720000  0.11720000  1.0 -0.1840740158
C  C47  1  0.05210000  0.68830000  0.12030000  1.0 0.0147794248
C  C48  1  0.12157000  0.45483000  0.19190000  1.0 0.0203269483
C  C49  1  0.37230000  0.85230000  0.77410000  1.0 -0.3623402579
C  C50  1  0.48270000  0.97670000  0.54100000  1.0 0.0979856165
C  C51  1  0.34560000  0.99020000  0.54400000  1.0 -0.1901338859
C  C52  1  0.58280000  0.91780000  0.61720000  1.0 -0.1840740158
C  C53  1  0.31170000  0.94790000  0.62030000  1.0 0.0147794248
C  C54  1  0.54517000  0.87843000  0.69190000  1.0 0.0255913497
C  C55  1  0.62770000  0.14770000  0.22590000  1.0 -0.3623402579
C  C56  1  0.51730000  0.02330000  0.45900000  1.0 0.0979856165
C  C57  1  0.65440000  0.00980000  0.45600000  1.0 -0.1901338859
C  C58  1  0.41720000  0.08220000  0.38280000  1.0 -0.1840740158
C  C59  1  0.68830000  0.05210000  0.37970000  1.0 0.0203269483
C  C60  1  0.45483000  0.12157000  0.30810000  1.0 0.0255913497
N  N1  1  0.89360000  0.41280000  0.80700000  1.0 0.160514264
N  N2  1  0.10640000  0.58720000  0.19300000  1.0 0.160514264
N  N3  1  0.41280000  0.89360000  0.69300000  1.0 0.160514264
N  N4  1  0.58720000  0.10640000  0.30700000  1.0 0.160514264
O  O1  1  0.15060000  0.46440000  0.70850000  1.0 -0.4620271705
O  O2  1  0.13450000  0.68510000  0.70690000  1.0 -0.4902662897
O  O3  1  0.38290000  0.10930000  0.97500000  1.0 -0.4772817804
O  O4  1  0.34420000  0.15940000  0.09210000  1.0 -0.4902662897
O  O5  1  0.38480000  0.65780000  0.09760000  1.0 -0.4902662897
O  O6  1  0.31400000  0.81280000  0.97470000  1.0 -0.4620271705
O  O7  1  0.00030000  0.88710000  0.52630000  1.0 -0.4620271705
O  O8  1  0.05790000  0.06330000  0.38330000  1.0 0.0589481355
O  O9  1  0.00670000  0.91630000  0.37070000  1.0 -0.4195174589
O  O10  1  0.46440000  0.15060000  0.79150000  1.0 -0.4620271705
O  O11  1  0.68510000  0.13450000  0.79310000  1.0 -0.4902662897
O  O12  1  0.10930000  0.38290000  0.52500000  1.0 -0.4772817804
O  O13  1  0.15940000  0.34420000  0.40790000  1.0 -0.4902662897
O  O14  1  0.65780000  0.38480000  0.40240000  1.0 -0.4902662897
O  O15  1  0.81280000  0.31400000  0.52530000  1.0 -0.4620271705
O  O16  1  0.88710000  0.00030000  0.97370000  1.0 -0.4620271705
O  O17  1  0.06330000  0.05790000  0.11670000  1.0 0.0589481355
O  O18  1  0.91630000  0.00670000  0.12930000  1.0 -0.4195174589
O  O19  1  0.84940000  0.53560000  0.29150000  1.0 -0.4620271705
O  O20  1  0.86550000  0.31490000  0.29310000  1.0 -0.4902662897
O  O21  1  0.61710000  0.89070000  0.02500000  1.0 -0.4772817804
O  O22  1  0.65580000  0.84060000  0.90790000  1.0 -0.4902662897
O  O23  1  0.61520000  0.34220000  0.90240000  1.0 -0.4902662897
O  O24  1  0.68600000  0.18720000  0.02530000  1.0 -0.4620271705
O  O25  1  0.99970000  0.11290000  0.47370000  1.0 -0.4620271705
O  O26  1  0.94210000  0.93670000  0.61670000  1.0 0.0589481355
O  O27  1  0.99330000  0.08370000  0.62930000  1.0 -0.4195174589
O  O28  1  0.53560000  0.84940000  0.20850000  1.0 -0.4620271705
O  O29  1  0.31490000  0.86550000  0.20690000  1.0 -0.4902662897
O  O30  1  0.89070000  0.61710000  0.47500000  1.0 -0.4772817804
O  O31  1  0.84060000  0.65580000  0.59210000  1.0 -0.4902662897
O  O32  1  0.34220000  0.61520000  0.59760000  1.0 -0.4902662897
O  O33  1  0.18720000  0.68600000  0.47470000  1.0 -0.4650248452
O  O34  1  0.11290000  0.99970000  0.02630000  1.0 -0.4620271705
O  O35  1  0.93670000  0.94210000  0.88330000  1.0 0.0676117824
O  O36  1  0.08370000  0.99330000  0.87070000  1.0 -0.4195174589
