# DDEC6 charges by PACMAN v1.1 (https://github.com/mtap-research/PACMAN-charge/)
data_FIXMIL_ion_pacman
_symmetry_space_group_name_H-M   'P 1'
_cell_length_a   8.10240000
_cell_length_b   8.12860000
_cell_length_c   15.36650000
_cell_angle_alpha   101.21200000
_cell_angle_beta   102.07800000
_cell_angle_gamma   102.17300000
_symmetry_Int_Tables_number   1
_chemical_formula_structural   Cd5H16C18(NO2)3
_chemical_formula_sum   'Cd10 H32 C36 N6 O12'
_cell_volume   936.78786281
_cell_formula_units_Z   2
loop_
 _symmetry_equiv_pos_site_id
 _symmetry_equiv_pos_as_xyz
  1  'x, y, z'
loop_
 _atom_site_type_symbol
 _atom_site_label
 _atom_site_symmetry_multiplicity
 _atom_site_fract_x
 _atom_site_fract_y
 _atom_site_fract_z
 _atom_site_occupancy
 _atom_site_charge
Cd  Cd1  1  0.99373000  0.86646000  0.84805000  1.0 0.0002840046
Cd  Cd2  1  0.91410000  0.79130000  0.84840000  1.0 0.0264584446
Cd  Cd3  1  0.02100000  0.89500000  0.91260000  1.0 -0.0531430491
Cd  Cd4  1  0.96200000  0.83500000  0.78360000  1.0 -0.037859675
Cd  Cd5  1  0.08200000  0.92900000  0.84830000  1.0 0.0098291421
Cd  Cd6  1  0.00627000  0.13354000  0.15195000  1.0 -0.001311508
Cd  Cd7  1  0.08590000  0.20870000  0.15160000  1.0 0.0220376445
Cd  Cd8  1  0.97900000  0.10500000  0.08740000  1.0 -0.0531430491
Cd  Cd9  1  0.03800000  0.16500000  0.21640000  1.0 -0.037859675
Cd  Cd10  1  0.91800000  0.07100000  0.15170000  1.0 0.0098291421
H  H1  1  0.46289000  0.86968000  0.93720000  1.0 0.1627317347
H  H2  1  0.06861000  0.47307000  0.93471000  1.0 0.1627317347
H  H3  1  0.49805000  0.37597000  0.85859000  1.0 0.1394949592
H  H4  1  0.87741000  0.73891000  0.51241000  1.0 0.1319176793
H  H5  1  0.21039000  0.92485000  0.98095000  1.0 0.1900233231
H  H6  1  0.06595000  0.77609000  0.98646000  1.0 0.2180514984
H  H7  1  0.17764000  0.46100000  0.71285000  1.0 0.1751103006
H  H8  1  0.21926000  0.32954000  0.64464000  1.0 0.1627317347
H  H9  1  0.14546000  0.43969000  0.63587000  1.0 0.0552173644
H  H10  1  0.53711000  0.13032000  0.06280000  1.0 0.1627317347
H  H11  1  0.93139000  0.52693000  0.06529000  1.0 0.1627317347
H  H12  1  0.50195000  0.62403000  0.14141000  1.0 0.1394949592
H  H13  1  0.12259000  0.26109000  0.48759000  1.0 0.1319176793
H  H14  1  0.78961000  0.07515000  0.01905000  1.0 0.1900233231
H  H15  1  0.93405000  0.22391000  0.01354000  1.0 0.2180514984
H  H16  1  0.82236000  0.53900000  0.28715000  1.0 0.1751103006
H  H17  1  0.78074000  0.67046000  0.35536000  1.0 0.1627317347
H  H18  1  0.85454000  0.56031000  0.36413000  1.0 0.0486744054
H  H19  1  0.69080000  0.41471000  0.73676000  1.0 0.1394949592
H  H20  1  0.53750000  0.56750000  0.65371000  1.0 0.1484854944
H  H21  1  0.55281000  0.27105000  0.41756000  1.0 0.1394949592
H  H22  1  0.70026000  0.10833000  0.49761000  1.0 0.1319176793
H  H23  1  0.91331000  0.13981000  0.65891000  1.0 0.1394949592
H  H24  1  0.73950000  0.04405000  0.68167000  1.0 0.1394949592
H  H25  1  0.85650000  0.22843000  0.74642000  1.0 0.1484854944
H  H26  1  0.30920000  0.58529000  0.26324000  1.0 0.1394949592
H  H27  1  0.46250000  0.43250000  0.34629000  1.0 0.1484854944
H  H28  1  0.44719000  0.72895000  0.58244000  1.0 0.1394949592
H  H29  1  0.29974000  0.89167000  0.50239000  1.0 0.1319176793
H  H30  1  0.08669000  0.86019000  0.34109000  1.0 0.1394949592
H  H31  1  0.26050000  0.95595000  0.31833000  1.0 0.1394949592
H  H32  1  0.14350000  0.77157000  0.25358000  1.0 0.1484854944
C  C1  1  0.67990000  0.69860000  0.87680000  1.0 0.2806693666
C  C2  1  0.50920000  0.63090000  0.89580000  1.0 0.0264584446
C  C3  1  0.41510000  0.74850000  0.92810000  1.0 -0.1728806891
C  C4  1  0.26080000  0.69280000  0.94600000  1.0 0.1089677838
C  C5  1  0.18180000  0.51290000  0.92640000  1.0 -0.1808349587
C  C6  1  0.26990000  0.39480000  0.89510000  1.0 0.0264584446
C  C7  1  0.43670000  0.45640000  0.87990000  1.0 -0.0857681133
C  C8  1  0.18940000  0.20630000  0.87680000  1.0 0.3008360765
C  C9  1  0.00040000  0.70450000  0.67940000  1.0 0.2647298179
C  C10  1  0.99800000  0.59110000  0.58610000  1.0 0.0002840046
C  C11  1  0.08300000  0.46150000  0.58140000  1.0 0.1089677838
C  C12  1  0.92310000  0.64000000  0.50700000  1.0 -0.1258858092
C  C13  1  0.32010000  0.30140000  0.12320000  1.0 0.2806693666
C  C14  1  0.49080000  0.36910000  0.10420000  1.0 0.0220376445
C  C15  1  0.58490000  0.25150000  0.07190000  1.0 -0.1728806891
C  C16  1  0.73920000  0.30720000  0.05400000  1.0 0.1089677838
C  C17  1  0.81820000  0.48710000  0.07360000  1.0 -0.1808349587
C  C18  1  0.73010000  0.60520000  0.10490000  1.0 0.0264584446
C  C19  1  0.56330000  0.54360000  0.12010000  1.0 -0.0857681133
C  C20  1  0.81060000  0.79370000  0.12320000  1.0 0.3008360765
C  C21  1  0.99960000  0.29550000  0.32060000  1.0 0.2652659021
C  C22  1  0.00200000  0.40890000  0.41390000  1.0 -0.001311508
C  C23  1  0.91700000  0.53850000  0.41860000  1.0 0.1089677838
C  C24  1  0.07690000  0.36000000  0.49300000  1.0 -0.1258858092
C  C25  1  0.66300000  0.38400000  0.67150000  1.0 0.0486744054
C  C26  1  0.57500000  0.47700000  0.62120000  1.0 -0.1728806891
C  C27  1  0.53700000  0.44600000  0.52640000  1.0 0.1089677838
C  C28  1  0.58200000  0.30280000  0.48280000  1.0 -0.1728806891
C  C29  1  0.66900000  0.20400000  0.52990000  1.0 0.0486744054
C  C30  1  0.81400000  0.15700000  0.68300000  1.0 -0.361136327
C  C31  1  0.33700000  0.61600000  0.32850000  1.0 0.0486744054
C  C32  1  0.42500000  0.52300000  0.37880000  1.0 -0.1728806891
C  C33  1  0.46300000  0.55400000  0.47360000  1.0 0.1089677838
C  C34  1  0.41800000  0.69720000  0.51720000  1.0 -0.1728806891
C  C35  1  0.33100000  0.79600000  0.47010000  1.0 0.0486744054
C  C36  1  0.18600000  0.84300000  0.31700000  1.0 -0.361136327
N  N1  1  0.16720000  0.81320000  0.97480000  1.0 -0.287153507
N  N2  1  0.17100000  0.41300000  0.65680000  1.0 -0.4561083414
N  N3  1  0.83280000  0.18680000  0.02520000  1.0 -0.287153507
N  N4  1  0.82900000  0.58700000  0.34320000  1.0 -0.4561083414
N  N5  1  0.70930000  0.24730000  0.62480000  1.0 0.0899824478
N  N6  1  0.29070000  0.75270000  0.37520000  1.0 0.0899824478
O  O1  1  0.73220000  0.85650000  0.88020000  1.0 -0.2459476687
O  O2  1  0.77520000  0.59590000  0.86340000  1.0 -0.3375301905
O  O3  1  0.03400000  0.15770000  0.88740000  1.0 -0.287153507
O  O4  1  0.26970000  0.09700000  0.85450000  1.0 -0.3163828947
O  O5  1  0.07100000  0.66540000  0.74880000  1.0 -0.2459476687
O  O6  1  0.91750000  0.81280000  0.68160000  1.0 -0.287153507
O  O7  1  0.26780000  0.14350000  0.11980000  1.0 -0.2448559798
O  O8  1  0.22480000  0.40410000  0.13660000  1.0 -0.3375301905
O  O9  1  0.96600000  0.84230000  0.11260000  1.0 -0.287153507
O  O10  1  0.73030000  0.90300000  0.14550000  1.0 -0.3163828947
O  O11  1  0.92900000  0.33460000  0.25120000  1.0 -0.2459476687
O  O12  1  0.08250000  0.18720000  0.31840000  1.0 -0.287153507
