# DDEC6 charges by PACMAN v1.1 (https://github.com/mtap-research/PACMAN-charge/)
data_FIYQAI_FSR_pacman
_symmetry_space_group_name_H-M   'P 1'
_cell_length_a   13.32980000
_cell_length_b   13.32980000
_cell_length_c   13.32980000
_cell_angle_alpha   127.32800000
_cell_angle_beta   111.90200000
_cell_angle_gamma   91.18010000
_symmetry_Int_Tables_number   1
_chemical_formula_structural   CuH2C8O5F
_chemical_formula_sum   'Cu4 H8 C32 O20 F4'
_cell_volume   1646.77398487
_cell_formula_units_Z   4
loop_
 _symmetry_equiv_pos_site_id
 _symmetry_equiv_pos_as_xyz
  1  'x, y, z'
loop_
 _atom_site_type_symbol
 _atom_site_label
 _atom_site_symmetry_multiplicity
 _atom_site_fract_x
 _atom_site_fract_y
 _atom_site_fract_z
 _atom_site_occupancy
 _atom_site_charge
Cu  Cu1  1  0.05494000  0.48444000  0.42950000  1.0 0.898348991
Cu  Cu2  1  0.44506000  0.87456000  0.42950000  1.0 0.898348991
Cu  Cu3  1  0.94506000  0.51556000  0.57050000  1.0 0.898348991
Cu  Cu4  1  0.55494000  0.12544000  0.57050000  1.0 0.898348991
H  H1  1  0.04990000  0.83990000  0.49700000  1.0 0.1380982736
H  H2  1  0.45010000  0.94710000  0.79000000  1.0 0.1380982736
H  H3  1  0.65710000  0.16010000  0.21000000  1.0 0.1380982736
H  H4  1  0.84290000  0.05290000  0.50300000  1.0 0.1380982736
H  H5  1  0.95010000  0.16010000  0.50300000  1.0 0.1380982736
H  H6  1  0.54990000  0.05290000  0.21000000  1.0 0.1380982736
H  H7  1  0.34290000  0.83990000  0.79000000  1.0 0.1380982736
H  H8  1  0.15710000  0.94710000  0.49700000  1.0 0.1380982736
C  C1  1  0.91140000  0.78440000  0.50020000  1.0 -0.1175163281
C  C2  1  0.98340000  0.85820000  0.49880000  1.0 -0.1120323108
C  C3  1  0.94170000  0.67580000  0.49670000  1.0 0.5927957677
C  C4  1  0.58860000  0.08880000  0.87300000  1.0 -0.1175163281
C  C5  1  0.51660000  0.01540000  0.87480000  1.0 -0.1120323108
C  C6  1  0.55830000  0.05500000  0.73410000  1.0 0.5927957677
C  C7  1  0.71580000  0.21560000  0.12700000  1.0 -0.1175163281
C  C8  1  0.64060000  0.14180000  0.12520000  1.0 -0.1120323108
C  C9  1  0.82090000  0.32420000  0.26590000  1.0 0.5927957677
C  C10  1  0.78420000  0.91120000  0.49980000  1.0 -0.1175163281
C  C11  1  0.85940000  0.98460000  0.50120000  1.0 -0.1120323108
C  C12  1  0.67910000  0.94500000  0.50330000  1.0 0.5953189174
C  C13  1  0.08860000  0.21560000  0.49980000  1.0 -0.1175163281
C  C14  1  0.01660000  0.14180000  0.50120000  1.0 -0.1120323108
C  C15  1  0.05830000  0.32420000  0.50330000  1.0 0.5927957677
C  C16  1  0.41140000  0.91120000  0.12700000  1.0 -0.1175163281
C  C17  1  0.48340000  0.98460000  0.12520000  1.0 -0.1120323108
C  C18  1  0.44170000  0.94500000  0.26590000  1.0 0.5927957677
C  C19  1  0.28420000  0.78440000  0.87300000  1.0 -0.1175163281
C  C20  1  0.35940000  0.85820000  0.87480000  1.0 -0.1120323108
C  C21  1  0.17910000  0.67580000  0.73410000  1.0 0.5927957677
C  C22  1  0.21580000  0.08880000  0.50020000  1.0 -0.1175163281
C  C23  1  0.14060000  0.01540000  0.49880000  1.0 -0.1120323108
C  C24  1  0.32090000  0.05500000  0.49670000  1.0 0.5927957677
C  C25  1  0.81030000  0.81030000  0.50000000  1.0 0.263000373
C  C26  1  0.95910000  0.95910000  0.50000000  1.0 0.070526805
C  C27  1  0.68970000  0.18970000  0.00000000  1.0 0.263000373
C  C28  1  0.54090000  0.04090000  0.00000000  1.0 0.070526805
C  C29  1  0.18970000  0.18970000  0.50000000  1.0 0.263000373
C  C30  1  0.04090000  0.04090000  0.50000000  1.0 0.070526805
C  C31  1  0.31030000  0.81030000  0.00000000  1.0 0.263000373
C  C32  1  0.45910000  0.95910000  0.00000000  1.0 0.070526805
O  O1  1  0.00020000  0.62400000  0.43960000  1.0 -0.4967326855
O  O2  1  0.90640000  0.64690000  0.55590000  1.0 -0.5105914732
O  O3  1  0.49980000  0.93940000  0.62380000  1.0 -0.4967326855
O  O4  1  0.59360000  0.14950000  0.74050000  1.0 -0.5105914732
O  O5  1  0.81560000  0.37600000  0.37620000  1.0 -0.4967326855
O  O6  1  0.90900000  0.35310000  0.25950000  1.0 -0.5105914732
O  O7  1  0.68440000  0.06060000  0.56040000  1.0 -0.4967326855
O  O8  1  0.59100000  0.85050000  0.44410000  1.0 -0.5105914732
O  O9  1  0.99980000  0.37600000  0.56040000  1.0 -0.4967326855
O  O10  1  0.09360000  0.35310000  0.44410000  1.0 -0.5105914732
O  O11  1  0.50020000  0.06060000  0.37620000  1.0 -0.4967326855
O  O12  1  0.40640000  0.85050000  0.25950000  1.0 -0.5105914732
O  O13  1  0.18440000  0.62400000  0.62380000  1.0 -0.4967326855
O  O14  1  0.09100000  0.64690000  0.74050000  1.0 -0.5105914732
O  O15  1  0.31560000  0.93940000  0.43960000  1.0 -0.4967326855
O  O16  1  0.40900000  0.14950000  0.55590000  1.0 -0.5105914732
O  O17  1  0.14650000  0.46620000  0.31970000  1.0 -0.1175163281
O  O18  1  0.35350000  0.67320000  0.31970000  1.0 -0.1175163281
O  O19  1  0.85350000  0.53380000  0.68030000  1.0 -0.1175163281
O  O20  1  0.64650000  0.32680000  0.68030000  1.0 -0.1175163281
F  F1  1  0.73850000  0.73850000  0.50000000  1.0 -0.1030331159
F  F2  1  0.76150000  0.26150000  0.00000000  1.0 -0.1030331159
F  F3  1  0.26150000  0.26150000  0.50000000  1.0 -0.1030331159
F  F4  1  0.23850000  0.73850000  0.00000000  1.0 -0.1030331159
