# DDEC6 charges by PACMAN v1.1 (https://github.com/mtap-research/PACMAN-charge/)
data_FIYQUC_ASR_pacman
_symmetry_space_group_name_H-M   'P 1'
_cell_length_a   9.97000000
_cell_length_b   12.83500000
_cell_length_c   20.75600000
_cell_angle_alpha   98.25200000
_cell_angle_beta   92.59500000
_cell_angle_gamma   111.29900000
_symmetry_Int_Tables_number   1
_chemical_formula_structural   Co2H22C37N4O9
_chemical_formula_sum   'Co4 H44 C74 N8 O18'
_cell_volume   2435.30032478
_cell_formula_units_Z   2
loop_
 _symmetry_equiv_pos_site_id
 _symmetry_equiv_pos_as_xyz
  1  'x, y, z'
loop_
 _atom_site_type_symbol
 _atom_site_label
 _atom_site_symmetry_multiplicity
 _atom_site_fract_x
 _atom_site_fract_y
 _atom_site_fract_z
 _atom_site_occupancy
 _atom_site_charge
Co  Co1  1  0.43884000  0.74117000  0.85439000  1.0 0.8262898056
Co  Co2  1  0.29349000  0.30604000  0.42739000  1.0 0.5896168678
Co  Co3  1  0.56116000  0.25883000  0.14561000  1.0 0.8262898056
Co  Co4  1  0.70651000  0.69396000  0.57261000  1.0 0.5896168678
H  H1  1  0.38780000  0.69560000  0.38350000  1.0 0.1392721317
H  H2  1  0.35480000  0.54820000  0.43900000  1.0 0.1196555971
H  H3  1  0.31000000  0.47450000  0.21620000  1.0 0.1392721317
H  H4  1  0.40550000  0.94150000  0.17660000  1.0 0.1392721317
H  H5  1  0.49210000  0.09910000  0.25900000  1.0 0.150654073
H  H6  1  0.34300000  0.50770000  0.64260000  1.0 0.1313525206
H  H7  1  0.92240000  0.74410000  0.85980000  1.0 0.1313525206
H  H8  1  0.45410000  0.24960000  0.31630000  1.0 0.1115720271
H  H9  1  0.40120000  0.62670000  0.16860000  1.0 0.1313525206
H  H10  1  0.25450000  0.99250000  0.80670000  1.0 0.1196555971
H  H11  1  0.28770000  0.33450000  0.27810000  1.0 0.0980866021
H  H12  1  0.19820000  0.89360000  0.35490000  1.0 0.1392721317
H  H13  1  0.16270000  0.04970000  0.40760000  1.0 0.1115720271
H  H14  1  0.54170000  0.93770000  0.08890000  1.0 0.1392721317
H  H15  1  0.21610000  0.16890000  0.62210000  1.0 0.1392721317
H  H16  1  0.86560000  0.01600000  0.81370000  1.0 0.1196555971
H  H17  1  0.27370000  0.35610000  0.80030000  1.0 0.1313525206
H  H18  1  0.28200000  0.61240000  0.06120000  1.0 0.1392721317
H  H19  1  0.56550000  0.91830000  0.97910000  1.0 0.1115720271
H  H20  1  0.32100000  0.60250000  0.95280000  1.0 0.1196555971
H  H21  1  0.13810000  0.17710000  0.80840000  1.0 0.1595143481
H  H22  1  0.01930000  0.10860000  0.75210000  1.0 0.150654073
H  H23  1  0.61220000  0.30440000  0.61650000  1.0 0.1392721317
H  H24  1  0.64520000  0.45180000  0.56100000  1.0 0.1196555971
H  H25  1  0.69000000  0.52550000  0.78380000  1.0 0.1392721317
H  H26  1  0.59450000  0.05850000  0.82340000  1.0 0.1392721317
H  H27  1  0.50790000  0.90090000  0.74100000  1.0 0.150654073
H  H28  1  0.65700000  0.49230000  0.35740000  1.0 0.1313525206
H  H29  1  0.07760000  0.25590000  0.14020000  1.0 0.1313525206
H  H30  1  0.54590000  0.75040000  0.68370000  1.0 0.1115720271
H  H31  1  0.59880000  0.37330000  0.83140000  1.0 0.1313525206
H  H32  1  0.74550000  0.00750000  0.19330000  1.0 0.1196555971
H  H33  1  0.71230000  0.66550000  0.72190000  1.0 0.0980866021
H  H34  1  0.80180000  0.10640000  0.64510000  1.0 0.1392721317
H  H35  1  0.83730000  0.95030000  0.59240000  1.0 0.1115720271
H  H36  1  0.45830000  0.06230000  0.91110000  1.0 0.1392721317
H  H37  1  0.78390000  0.83110000  0.37790000  1.0 0.1392721317
H  H38  1  0.13440000  0.98400000  0.18630000  1.0 0.1196555971
H  H39  1  0.72630000  0.64390000  0.19970000  1.0 0.1313525206
H  H40  1  0.71800000  0.38760000  0.93880000  1.0 0.1392721317
H  H41  1  0.43450000  0.08170000  0.02090000  1.0 0.1115720271
H  H42  1  0.67900000  0.39750000  0.04720000  1.0 0.1196555971
H  H43  1  0.86190000  0.82290000  0.19160000  1.0 0.1595143481
H  H44  1  0.98070000  0.89140000  0.24790000  1.0 0.150654073
C  C1  1  0.40370000  0.78350000  0.16080000  1.0 0.1115720271
C  C2  1  0.42030000  0.77630000  0.08960000  1.0 0.1115720271
C  C3  1  0.36740000  0.69830000  0.25740000  1.0 0.2125983267
C  C4  1  0.28350000  0.32700000  0.54860000  1.0 0.5305853813
C  C5  1  0.36880000  0.87900000  0.26130000  1.0 0.2012878089
C  C6  1  0.34940000  0.97850000  0.29920000  1.0 0.0814461118
C  C7  1  0.36510000  0.62260000  0.36050000  1.0 -0.1679512234
C  C8  1  0.20410000  0.79790000  0.84590000  1.0 0.5408990859
C  C9  1  0.35020000  0.60290000  0.29290000  1.0 0.0814461118
C  C10  1  0.34600000  0.53300000  0.39350000  1.0 0.0923515438
C  C11  1  0.32020000  0.49210000  0.26160000  1.0 -0.1794138336
C  C12  1  0.39460000  0.87820000  0.19597000  1.0 -0.2081902173
C  C13  1  0.87130000  0.87300000  0.83761000  1.0 0.0027208862
C  C14  1  0.10520000  0.85870000  0.83530000  1.0 -0.0065892622
C  C15  1  0.35700000  0.56230000  0.77180000  1.0 0.5408990859
C  C16  1  0.31480000  0.44930000  0.72810000  1.0 0.0027208862
C  C17  1  0.42460000  0.08660000  0.28930000  1.0 -0.149147679
C  C18  1  0.28000000  0.33800000  0.62150000  1.0 -0.0031296129
C  C19  1  0.31680000  0.44210000  0.66100000  1.0 -0.1257137479
C  C20  1  0.95980000  0.81420000  0.84640000  1.0 -0.1241230936
C  C21  1  0.40110000  0.17700000  0.32390000  1.0 0.0814461118
C  C22  1  0.39240000  0.69130000  0.19150000  1.0 -0.2321664886
C  C23  1  0.71380000  0.82270000  0.84980000  1.0 0.5087167351
C  C24  1  0.15800000  0.96190000  0.81470000  1.0 -0.149147679
C  C25  1  0.30560000  0.40780000  0.29950000  1.0 0.0814461118
C  C26  1  0.23870000  0.24650000  0.71500000  1.0 0.1899731188
C  C27  1  0.25050000  0.96520000  0.34560000  1.0 -0.2081902173
C  C28  1  0.23110000  0.05980000  0.37770000  1.0 0.0814461118
C  C29  1  0.49660000  0.86700000  0.06250000  1.0 -0.1985442163
C  C30  1  0.24070000  0.23920000  0.64880000  1.0 -0.2081902173
C  C31  1  0.92510000  0.97540000  0.81850000  1.0 -0.1794138336
C  C32  1  0.06870000  0.02020000  0.80590000  1.0 -0.0031296129
C  C33  1  0.27550000  0.35170000  0.75530000  1.0 -0.2387279989
C  C34  1  0.34460000  0.67560000  0.04630000  1.0 -0.1932498337
C  C35  1  0.50810000  0.85530000  0.99580000  1.0 0.0980866021
C  C36  1  0.36470000  0.67170000  0.98090000  1.0 0.0923515438
C  C37  1  0.11090000  0.11310000  0.77280000  1.0 0.0278734798
C  C38  1  0.59630000  0.21650000  0.83920000  1.0 0.1115720271
C  C39  1  0.57970000  0.22370000  0.91040000  1.0 0.1115720271
C  C40  1  0.63260000  0.30170000  0.74260000  1.0 0.2125983267
C  C41  1  0.71650000  0.67300000  0.45140000  1.0 0.5305853813
C  C42  1  0.63120000  0.12100000  0.73870000  1.0 0.2012878089
C  C43  1  0.65060000  0.02150000  0.70080000  1.0 0.0814461118
C  C44  1  0.63490000  0.37740000  0.63950000  1.0 -0.1679512234
C  C45  1  0.79590000  0.20210000  0.15410000  1.0 0.5408990859
C  C46  1  0.64980000  0.39710000  0.70710000  1.0 0.0814461118
C  C47  1  0.65400000  0.46700000  0.60650000  1.0 0.0923515438
C  C48  1  0.67980000  0.50790000  0.73840000  1.0 -0.1794138336
C  C49  1  0.60540000  0.12180000  0.80403000  1.0 -0.2081902173
C  C50  1  0.12870000  0.12700000  0.16239000  1.0 0.0027208862
C  C51  1  0.89480000  0.14130000  0.16470000  1.0 -0.0065892622
C  C52  1  0.64300000  0.43770000  0.22820000  1.0 0.5408990859
C  C53  1  0.68520000  0.55070000  0.27190000  1.0 0.0027208862
C  C54  1  0.57540000  0.91340000  0.71070000  1.0 -0.149147679
C  C55  1  0.72000000  0.66200000  0.37850000  1.0 -0.0031296129
C  C56  1  0.68320000  0.55790000  0.33900000  1.0 -0.1257137479
C  C57  1  0.04020000  0.18580000  0.15360000  1.0 -0.1241230936
C  C58  1  0.59890000  0.82300000  0.67610000  1.0 0.0814461118
C  C59  1  0.60760000  0.30870000  0.80850000  1.0 -0.2321664886
C  C60  1  0.28620000  0.17730000  0.15020000  1.0 0.5087167351
C  C61  1  0.84200000  0.03810000  0.18530000  1.0 -0.149147679
C  C62  1  0.69440000  0.59220000  0.70050000  1.0 0.0814461118
C  C63  1  0.76130000  0.75350000  0.28500000  1.0 0.1899731188
C  C64  1  0.74950000  0.03480000  0.65440000  1.0 -0.2081902173
C  C65  1  0.76890000  0.94020000  0.62230000  1.0 0.0814461118
C  C66  1  0.50340000  0.13300000  0.93750000  1.0 -0.1985442163
C  C67  1  0.75930000  0.76080000  0.35120000  1.0 -0.2081902173
C  C68  1  0.07490000  0.02460000  0.18150000  1.0 -0.1794138336
C  C69  1  0.93130000  0.97980000  0.19410000  1.0 -0.0031296129
C  C70  1  0.72450000  0.64830000  0.24470000  1.0 -0.2387279989
C  C71  1  0.65540000  0.32440000  0.95370000  1.0 -0.1932498337
C  C72  1  0.49190000  0.14470000  0.00420000  1.0 0.0980866021
C  C73  1  0.63530000  0.32830000  0.01910000  1.0 0.0923515438
C  C74  1  0.88910000  0.88690000  0.22720000  1.0 0.0278734798
N  N1  1  0.35480000  0.79000000  0.29129000  1.0 -0.3138847025
N  N2  1  0.44260000  0.76070000  0.95562000  1.0 -0.2321664886
N  N3  1  0.31590000  0.42690000  0.36481000  1.0 -0.2387279989
N  N4  1  0.30530000  0.16480000  0.36795000  1.0 -0.2387279989
N  N5  1  0.64520000  0.21000000  0.70871000  1.0 -0.3138847025
N  N6  1  0.55740000  0.23930000  0.04438000  1.0 -0.2321664886
N  N7  1  0.68410000  0.57310000  0.63519000  1.0 -0.2457673819
N  N8  1  0.69470000  0.83520000  0.63205000  1.0 -0.2387279989
O  O1  1  0.39430000  0.65080000  0.74822000  1.0 -0.526954201
O  O2  1  0.26760000  0.23310000  0.51519000  1.0 -0.5488030882
O  O3  1  0.30500000  0.41300000  0.52142000  1.0 -0.5376703711
O  O4  1  0.35380000  0.56550000  0.83313000  1.0 -0.5376703711
O  O5  1  0.33380000  0.84280000  0.83462000  1.0 -0.5488030882
O  O6  1  0.65930000  0.72200000  0.85510000  1.0 -0.5008248658
O  O7  1  0.15980000  0.70720000  0.86720000  1.0 -0.5376703711
O  O8  1  0.64060000  0.88170000  0.85100000  1.0 -0.5103364558
O  O9  1  0.18100000  0.14470000  0.73960000  1.0 -0.1091298805
O  O10  1  0.60570000  0.34920000  0.25178000  1.0 -0.526954201
O  O11  1  0.73240000  0.76690000  0.48481000  1.0 -0.5488030882
O  O12  1  0.69500000  0.58700000  0.47858000  1.0 -0.5376703711
O  O13  1  0.64620000  0.43450000  0.16687000  1.0 -0.5376703711
O  O14  1  0.66620000  0.15720000  0.16538000  1.0 -0.5488030882
O  O15  1  0.34070000  0.27800000  0.14490000  1.0 -0.5008248658
O  O16  1  0.84020000  0.29280000  0.13280000  1.0 -0.5376703711
O  O17  1  0.35940000  0.11830000  0.14900000  1.0 -0.5103364558
O  O18  1  0.81900000  0.85530000  0.26040000  1.0 -0.1091298805
