# DDEC6 charges by PACMAN v1.1 (https://github.com/mtap-research/PACMAN-charge/)
data_FIYQIQ_ion_pacman
_symmetry_space_group_name_H-M   'P 1'
_cell_length_a   9.64600000
_cell_length_b   10.22900000
_cell_length_c   12.12800000
_cell_angle_alpha   110.33500000
_cell_angle_beta   105.41900000
_cell_angle_gamma   90.73400000
_symmetry_Int_Tables_number   1
_chemical_formula_structural   Co3H32C46(NO10)2
_chemical_formula_sum   'Co3 H32 C46 N2 O20'
_cell_volume   1074.33966905
_cell_formula_units_Z   1
loop_
 _symmetry_equiv_pos_site_id
 _symmetry_equiv_pos_as_xyz
  1  'x, y, z'
loop_
 _atom_site_type_symbol
 _atom_site_label
 _atom_site_symmetry_multiplicity
 _atom_site_fract_x
 _atom_site_fract_y
 _atom_site_fract_z
 _atom_site_occupancy
 _atom_site_charge
Co  Co1  1  0.45029000  0.70986000  0.25564000  1.0 0.9601236927
Co  Co2  1  0.54971000  0.29014000  0.74436000  1.0 0.9601236927
Co  Co3  1  0.50000000  0.00000000  0.50000000  1.0 1.0792070376
H  H1  1  0.94010000  0.74630000  0.29400000  1.0 0.1236060681
H  H2  1  0.89910000  0.89490000  0.63950000  1.0 0.1293455633
H  H3  1  0.29390000  0.83610000  0.58930000  1.0 0.1293455633
H  H4  1  0.09530000  0.89050000  0.80140000  1.0 0.0859626206
H  H5  1  0.24110000  0.83400000  0.77330000  1.0 0.1495571481
H  H6  1  0.31990000  0.28210000  0.95060000  1.0 0.1555241393
H  H7  1  0.45750000  0.25090000  0.28670000  1.0 0.1383092711
H  H8  1  0.31120000  0.90080000  0.98620000  1.0 0.1293455633
H  H9  1  0.08440000  0.93130000  0.80430000  1.0 0.10019523
H  H10  1  0.09300000  0.05880000  0.75650000  1.0 0.1383092711
H  H11  1  0.05990000  0.25370000  0.70600000  1.0 0.1236060681
H  H12  1  0.10090000  0.10510000  0.36050000  1.0 0.1293455633
H  H13  1  0.70610000  0.16390000  0.41070000  1.0 0.1293455633
H  H14  1  0.90470000  0.10950000  0.19860000  1.0 0.0859626206
H  H15  1  0.75890000  0.16600000  0.22670000  1.0 0.1495571481
H  H16  1  0.68010000  0.71790000  0.04940000  1.0 0.1555241393
H  H17  1  0.54250000  0.74910000  0.71330000  1.0 0.1383092711
H  H18  1  0.68880000  0.09920000  0.01380000  1.0 0.1293455633
H  H19  1  0.91560000  0.06870000  0.19570000  1.0 0.10019523
H  H20  1  0.90700000  0.94120000  0.24350000  1.0 0.1383092711
H  H21  1  0.80650000  0.37400000  0.95880000  1.0 0.2763237553
H  H22  1  0.02910000  0.31400000  0.99960000  1.0 0.1140110092
H  H23  1  0.66550000  0.47650000  0.09020000  1.0 0.1383092711
H  H24  1  0.14330000  0.33710000  0.20860000  1.0 0.1293455633
H  H25  1  0.76930000  0.47730000  0.28920000  1.0 0.1383092711
H  H26  1  0.01300000  0.43410000  0.35650000  1.0 0.1140110092
H  H27  1  0.19350000  0.62600000  0.04120000  1.0 0.2763237553
H  H28  1  0.97090000  0.68600000  0.00040000  1.0 0.1140110092
H  H29  1  0.33450000  0.52350000  0.90980000  1.0 0.1383092711
H  H30  1  0.85670000  0.66290000  0.79140000  1.0 0.1293455633
H  H31  1  0.23070000  0.52270000  0.71080000  1.0 0.1383092711
H  H32  1  0.98700000  0.56590000  0.64350000  1.0 0.1140110092
C  C1  1  0.22900000  0.75840000  0.34910000  1.0 0.581051245
C  C2  1  0.13270000  0.79290000  0.43010000  1.0 0.0015995081
C  C3  1  0.98270000  0.78140000  0.38050000  1.0 -0.1636948091
C  C4  1  0.89640000  0.82220000  0.45960000  1.0 0.0088101728
C  C5  1  0.73450000  0.81790000  0.41150000  1.0 0.581051245
C  C6  1  0.95870000  0.86710000  0.58620000  1.0 -0.2598496182
C  C7  1  0.10590000  0.87160000  0.63490000  1.0 0.0316314856
C  C8  1  0.19250000  0.83390000  0.55630000  1.0 -0.1932564629
C  C9  1  0.17080000  0.90140000  0.76270000  1.0 0.0181726604
C  C10  1  0.30570000  0.07790000  0.94700000  1.0 0.2022327381
C  C11  1  0.33690000  0.22670000  0.00050000  1.0 -0.2818159414
C  C12  1  0.39310000  0.28930000  0.12770000  1.0 0.0015995081
C  C13  1  0.42110000  0.44590000  0.18690000  1.0 0.5529457079
C  C14  1  0.41810000  0.20760000  0.20020000  1.0 -0.1636948091
C  C15  1  0.38540000  0.06300000  0.14630000  1.0 0.0088101728
C  C16  1  0.42040000  0.97330000  0.22320000  1.0 0.581051245
C  C17  1  0.33150000  0.00020000  0.02200000  1.0 -0.2972851647
C  C18  1  0.13130000  0.96950000  0.75680000  1.0 0.0316314856
C  C19  1  0.77100000  0.24160000  0.65090000  1.0 0.581051245
C  C20  1  0.86730000  0.20710000  0.56990000  1.0 0.0015995081
C  C21  1  0.01730000  0.21860000  0.61950000  1.0 -0.1636948091
C  C22  1  0.10360000  0.17780000  0.54040000  1.0 0.0088101728
C  C23  1  0.26550000  0.18210000  0.58850000  1.0 0.581051245
C  C24  1  0.04130000  0.13290000  0.41380000  1.0 -0.2598496182
C  C25  1  0.89410000  0.12840000  0.36510000  1.0 0.0316314856
C  C26  1  0.80750000  0.16610000  0.44370000  1.0 -0.1932564629
C  C27  1  0.82920000  0.09860000  0.23730000  1.0 0.0181726604
C  C28  1  0.69430000  0.92210000  0.05300000  1.0 0.2022327381
C  C29  1  0.66310000  0.77330000  0.99950000  1.0 -0.2818159414
C  C30  1  0.60690000  0.71070000  0.87230000  1.0 0.0015995081
C  C31  1  0.57890000  0.55410000  0.81310000  1.0 0.5529457079
C  C32  1  0.58190000  0.79240000  0.79980000  1.0 -0.1636948091
C  C33  1  0.61460000  0.93700000  0.85370000  1.0 0.0088101728
C  C34  1  0.57960000  0.02670000  0.77680000  1.0 0.581051245
C  C35  1  0.66850000  0.99980000  0.97800000  1.0 -0.2972851647
C  C36  1  0.86870000  0.03050000  0.24320000  1.0 0.0316314856
C  C37  1  0.98180000  0.34880000  0.06200000  1.0 0.0598574626
C  C38  1  0.75710000  0.44580000  0.11540000  1.0 0.0434658649
C  C39  1  0.04900000  0.36300000  0.18500000  1.0 -0.1701762667
C  C40  1  0.82300000  0.45080000  0.23120000  1.0 -0.1701762667
C  C41  1  0.97000000  0.41900000  0.27200000  1.0 -0.0816881535
C  C42  1  0.01820000  0.65120000  0.93800000  1.0 0.0598574626
C  C43  1  0.24290000  0.55420000  0.88460000  1.0 0.0434658649
C  C44  1  0.95100000  0.63700000  0.81500000  1.0 -0.1701762667
C  C45  1  0.17700000  0.54920000  0.76880000  1.0 -0.1701762667
C  C46  1  0.03000000  0.58100000  0.72800000  1.0 -0.0816881535
N  N1  1  0.84660000  0.38720000  0.03660000  1.0 -0.1463001026
N  N2  1  0.15340000  0.61280000  0.96340000  1.0 -0.1463001026
O  O1  1  0.36610000  0.79540000  0.39790000  1.0 -0.5966598643
O  O2  1  0.18060000  0.69040000  0.23630000  1.0 -0.533080901
O  O3  1  0.66870000  0.73470000  0.30380000  1.0 -0.556959833
O  O4  1  0.67710000  0.90260000  0.48710000  1.0 -0.5883829845
O  O5  1  0.23460000  0.02480000  0.81450000  1.0 -0.0033965257
O  O6  1  0.40310000  0.51840000  0.11710000  1.0 -0.5503901792
O  O7  1  0.46580000  0.50650000  0.30170000  1.0 -0.5155604137
O  O8  1  0.46890000  0.03340000  0.33730000  1.0 -0.556959833
O  O9  1  0.39840000  0.84030000  0.16630000  1.0 -0.5503901792
O  O10  1  0.30620000  0.99410000  0.81530000  1.0 -0.0137297222
O  O11  1  0.63390000  0.20460000  0.60210000  1.0 -0.5966598643
O  O12  1  0.81940000  0.30960000  0.76370000  1.0 -0.533080901
O  O13  1  0.33130000  0.26530000  0.69620000  1.0 -0.556959833
O  O14  1  0.32290000  0.09740000  0.51290000  1.0 -0.5883829845
O  O15  1  0.76540000  0.97520000  0.18550000  1.0 -0.0033965257
O  O16  1  0.59690000  0.48160000  0.88290000  1.0 -0.5503901792
O  O17  1  0.53420000  0.49350000  0.69830000  1.0 -0.5155604137
O  O18  1  0.53110000  0.96660000  0.66270000  1.0 -0.556959833
O  O19  1  0.60160000  0.15970000  0.83370000  1.0 -0.5503901792
O  O20  1  0.69380000  0.00590000  0.18470000  1.0 -0.0137297222
