# DDEC6 charges by PACMAN v1.1 (https://github.com/mtap-research/PACMAN-charge/)
data_FIYQOW_ASR_pacman
_symmetry_space_group_name_H-M   'P 1'
_cell_length_a   10.93700000
_cell_length_b   10.93700000
_cell_length_c   12.14200000
_cell_angle_alpha   68.46770000
_cell_angle_beta   111.53200000
_cell_angle_gamma   98.62810000
_symmetry_Int_Tables_number   1
_chemical_formula_structural   Ni2H12C18O11
_chemical_formula_sum   'Ni4 H24 C36 O22'
_cell_volume   1256.55726491
_cell_formula_units_Z   2
loop_
 _symmetry_equiv_pos_site_id
 _symmetry_equiv_pos_as_xyz
  1  'x, y, z'
loop_
 _atom_site_type_symbol
 _atom_site_label
 _atom_site_symmetry_multiplicity
 _atom_site_fract_x
 _atom_site_fract_y
 _atom_site_fract_z
 _atom_site_occupancy
 _atom_site_charge
Ni  Ni1  1  0.23993000  0.43159000  0.60443000  1.0 0.8957426947
Ni  Ni2  1  0.43159000  0.23993000  0.89557000  1.0 0.8957426947
Ni  Ni3  1  0.76007000  0.56841000  0.39557000  1.0 0.8957426947
Ni  Ni4  1  0.56841000  0.76007000  0.10443000  1.0 0.8957426947
H  H1  1  0.34070000  0.88090000  0.75290000  1.0 0.1398311637
H  H2  1  0.11250000  0.80870000  0.43260000  1.0 0.1240162503
H  H3  1  0.13790000  0.17610000  0.44610000  1.0 0.1398311637
H  H4  1  0.91850000  0.98190000  0.30470000  1.0 0.1117527213
H  H5  1  0.97940000  0.12660000  0.25840000  1.0 0.219976696
H  H6  1  0.48700000  0.41500000  0.73700000  1.0 0.3744823139
H  H7  1  0.88090000  0.34070000  0.74710000  1.0 0.1398311637
H  H8  1  0.80870000  0.11250000  0.06740000  1.0 0.1240162503
H  H9  1  0.17610000  0.13790000  0.05390000  1.0 0.1398311637
H  H10  1  0.98190000  0.91850000  0.19530000  1.0 0.1117527213
H  H11  1  0.12660000  0.97940000  0.24160000  1.0 0.219976696
H  H12  1  0.41500000  0.48700000  0.76300000  1.0 0.3744823139
H  H13  1  0.65930000  0.11910000  0.24710000  1.0 0.1398311637
H  H14  1  0.88750000  0.19130000  0.56740000  1.0 0.1240162503
H  H15  1  0.86210000  0.82390000  0.55390000  1.0 0.1398311637
H  H16  1  0.08150000  0.01810000  0.69530000  1.0 0.1117527213
H  H17  1  0.02060000  0.87340000  0.74160000  1.0 0.219976696
H  H18  1  0.51300000  0.58500000  0.26300000  1.0 0.3744823139
H  H19  1  0.11910000  0.65930000  0.25290000  1.0 0.1398311637
H  H20  1  0.19130000  0.88750000  0.93260000  1.0 0.1240162503
H  H21  1  0.82390000  0.86210000  0.94610000  1.0 0.1398311637
H  H22  1  0.01810000  0.08150000  0.80470000  1.0 0.1117527213
H  H23  1  0.87340000  0.02060000  0.75840000  1.0 0.219976696
H  H24  1  0.58500000  0.51300000  0.23700000  1.0 0.3744823139
C  C1  1  0.29260000  0.14540000  0.67450000  1.0 0.5788069766
C  C2  1  0.24500000  0.04320000  0.61060000  1.0 -0.0193895765
C  C3  1  0.28280000  0.91140000  0.66830000  1.0 -0.1655913677
C  C4  1  0.23450000  0.82590000  0.60050000  1.0 -0.0035328406
C  C5  1  0.14750000  0.86870000  0.47710000  1.0 -0.269039401
C  C6  1  0.11230000  0.00010000  0.41970000  1.0 0.1311875087
C  C7  1  0.16150000  0.08630000  0.48610000  1.0 -0.269039401
C  C8  1  0.27630000  0.68470000  0.65500000  1.0 0.5724046033
C  C9  1  0.99860000  0.03160000  0.29230000  1.0 0.0425585209
C  C10  1  0.14540000  0.29260000  0.82550000  1.0 0.5788069766
C  C11  1  0.04320000  0.24500000  0.88940000  1.0 -0.0193895765
C  C12  1  0.91140000  0.28280000  0.83170000  1.0 -0.1655913677
C  C13  1  0.82590000  0.23450000  0.89950000  1.0 -0.0035328406
C  C14  1  0.86870000  0.14750000  0.02290000  1.0 -0.269039401
C  C15  1  0.00010000  0.11230000  0.08030000  1.0 0.1311875087
C  C16  1  0.08630000  0.16150000  0.01390000  1.0 -0.269039401
C  C17  1  0.68470000  0.27630000  0.84500000  1.0 0.5724046033
C  C18  1  0.03160000  0.99860000  0.20770000  1.0 0.0425585209
C  C19  1  0.70740000  0.85460000  0.32550000  1.0 0.5788069766
C  C20  1  0.75500000  0.95680000  0.38940000  1.0 -0.0193895765
C  C21  1  0.71720000  0.08860000  0.33170000  1.0 -0.1655913677
C  C22  1  0.76550000  0.17410000  0.39950000  1.0 -0.0035328406
C  C23  1  0.85250000  0.13130000  0.52290000  1.0 -0.269039401
C  C24  1  0.88770000  0.99990000  0.58030000  1.0 0.1311875087
C  C25  1  0.83850000  0.91370000  0.51390000  1.0 -0.269039401
C  C26  1  0.72370000  0.31530000  0.34500000  1.0 0.5724046033
C  C27  1  0.00140000  0.96840000  0.70770000  1.0 0.0425585209
C  C28  1  0.85460000  0.70740000  0.17450000  1.0 0.5788069766
C  C29  1  0.95680000  0.75500000  0.11060000  1.0 -0.0193895765
C  C30  1  0.08860000  0.71720000  0.16830000  1.0 -0.1655913677
C  C31  1  0.17410000  0.76550000  0.10050000  1.0 -0.0035328406
C  C32  1  0.13130000  0.85250000  0.97710000  1.0 -0.269039401
C  C33  1  0.99990000  0.88770000  0.91970000  1.0 0.1311875087
C  C34  1  0.91370000  0.83850000  0.98610000  1.0 -0.269039401
C  C35  1  0.31530000  0.72370000  0.15500000  1.0 0.5724046033
C  C36  1  0.96840000  0.00140000  0.79230000  1.0 0.0425585209
O  O1  1  0.28121000  0.26305000  0.59880000  1.0 -0.5694223244
O  O2  1  0.34080000  0.11246000  0.79220000  1.0 -0.5509178835
O  O3  1  0.38438000  0.65242000  0.74630000  1.0 -0.5354885656
O  O4  1  0.20265000  0.60859000  0.60240000  1.0 -0.5814824302
O  O5  1  0.06080000  0.07340000  0.28990000  1.0 -0.0193895765
O  O6  1  0.26305000  0.28121000  0.90120000  1.0 -0.5694223244
O  O7  1  0.11246000  0.34080000  0.70780000  1.0 -0.5509178835
O  O8  1  0.65242000  0.38438000  0.75370000  1.0 -0.5354885656
O  O9  1  0.60859000  0.20265000  0.89760000  1.0 -0.5814824302
O  O10  1  0.07340000  0.06080000  0.21010000  1.0 -0.0193895765
O  O11  1  0.41800000  0.41800000  0.75000000  1.0 -0.6935556132
O  O12  1  0.71879000  0.73695000  0.40120000  1.0 -0.5694223244
O  O13  1  0.65920000  0.88754000  0.20780000  1.0 -0.5509178835
O  O14  1  0.61562000  0.34758000  0.25370000  1.0 -0.5354885656
O  O15  1  0.79735000  0.39141000  0.39760000  1.0 -0.5814824302
O  O16  1  0.93920000  0.92660000  0.71010000  1.0 -0.0193895765
O  O17  1  0.73695000  0.71879000  0.09880000  1.0 -0.5694223244
O  O18  1  0.88754000  0.65920000  0.29220000  1.0 -0.5509178835
O  O19  1  0.34758000  0.61562000  0.24630000  1.0 -0.5354885656
O  O20  1  0.39141000  0.79735000  0.10240000  1.0 -0.5814824302
O  O21  1  0.92660000  0.93920000  0.78990000  1.0 -0.0193895765
O  O22  1  0.58200000  0.58200000  0.25000000  1.0 -0.6956333715
