# DDEC6 charges by PACMAN v1.1 (https://github.com/mtap-research/PACMAN-charge/)
data_FIYRAJ_ASR_pacman
_symmetry_space_group_name_H-M   'P 1'
_cell_length_a   10.13600000
_cell_length_b   13.29500000
_cell_length_c   21.03200000
_cell_angle_alpha   98.32500000
_cell_angle_beta   94.95000000
_cell_angle_gamma   112.38600000
_symmetry_Int_Tables_number   1
_chemical_formula_structural   Cd2H22C37N4O9
_chemical_formula_sum   'Cd4 H44 C74 N8 O18'
_cell_volume   2561.85901443
_cell_formula_units_Z   2
loop_
 _symmetry_equiv_pos_site_id
 _symmetry_equiv_pos_as_xyz
  1  'x, y, z'
loop_
 _atom_site_type_symbol
 _atom_site_label
 _atom_site_symmetry_multiplicity
 _atom_site_fract_x
 _atom_site_fract_y
 _atom_site_fract_z
 _atom_site_occupancy
 _atom_site_charge
Cd  Cd1  1  0.05345000  0.74782000  0.14888000  1.0 0.877169078
Cd  Cd2  1  0.20524000  0.19718000  0.58074000  1.0 0.7842576259
Cd  Cd3  1  0.94655000  0.25218000  0.85112000  1.0 0.877169078
Cd  Cd4  1  0.79476000  0.80282000  0.41926000  1.0 0.7842576259
H  H1  1  0.17270000  0.89490000  0.04730000  1.0 0.1190096879
H  H2  1  0.93940000  0.57880000  0.01320000  1.0 0.1096127087
H  H3  1  0.19690000  0.89050000  0.94050000  1.0 0.1395973363
H  H4  1  0.95950000  0.56280000  0.90520000  1.0 0.1319144079
H  H5  1  0.10060000  0.56660000  0.82400000  1.0 0.1395973363
H  H6  1  0.15960000  0.70970000  0.66860000  1.0 0.1096127087
H  H7  1  0.20720000  0.15180000  0.72820000  1.0 0.1096127087
H  H8  1  0.18420000  0.01520000  0.78640000  1.0 0.1523520752
H  H9  1  0.10460000  0.80310000  0.61840000  1.0 0.1395973363
H  H10  1  0.13260000  0.94660000  0.56580000  1.0 0.1096127087
H  H11  1  0.33080000  0.46000000  0.59920000  1.0 0.1096127087
H  H12  1  0.29720000  0.61360000  0.64980000  1.0 0.1319144079
H  H13  1  0.00770000  0.41190000  0.74170000  1.0 0.1523520752
H  H14  1  0.04470000  0.26630000  0.68690000  1.0 0.1190096879
H  H15  1  0.29060000  0.32720000  0.38120000  1.0 0.1395973363
H  H16  1  0.22510000  0.14300000  0.20420000  1.0 0.1319144079
H  H17  1  0.16050000  0.99710000  0.35890000  1.0 0.1319144079
H  H18  1  0.55520000  0.73880000  0.14760000  1.0 0.1319144079
H  H19  1  0.62230000  0.47540000  0.18740000  1.0 0.1190096879
H  H20  1  0.23820000  0.48860000  0.19740000  1.0 0.1190096879
H  H21  1  0.47830000  0.38660000  0.25130000  1.0 0.1395973363
H  H22  1  0.35140000  0.31450000  0.19720000  1.0 0.1523520752
H  H23  1  0.82730000  0.10510000  0.95270000  1.0 0.1190096879
H  H24  1  0.06060000  0.42120000  0.98680000  1.0 0.1096127087
H  H25  1  0.80310000  0.10950000  0.05950000  1.0 0.1395973363
H  H26  1  0.04050000  0.43720000  0.09480000  1.0 0.1319144079
H  H27  1  0.89940000  0.43340000  0.17600000  1.0 0.1395973363
H  H28  1  0.84040000  0.29030000  0.33140000  1.0 0.1096127087
H  H29  1  0.79280000  0.84820000  0.27180000  1.0 0.1096127087
H  H30  1  0.81580000  0.98480000  0.21360000  1.0 0.1523520752
H  H31  1  0.89540000  0.19690000  0.38160000  1.0 0.1395973363
H  H32  1  0.86740000  0.05340000  0.43420000  1.0 0.1096127087
H  H33  1  0.66920000  0.54000000  0.40080000  1.0 0.1096127087
H  H34  1  0.70280000  0.38640000  0.35020000  1.0 0.1319144079
H  H35  1  0.99230000  0.58810000  0.25830000  1.0 0.1523520752
H  H36  1  0.95530000  0.73370000  0.31310000  1.0 0.1190096879
H  H37  1  0.70940000  0.67280000  0.61880000  1.0 0.1395973363
H  H38  1  0.77490000  0.85700000  0.79580000  1.0 0.1319144079
H  H39  1  0.83950000  0.00290000  0.64110000  1.0 0.1319144079
H  H40  1  0.44480000  0.26120000  0.85240000  1.0 0.1319144079
H  H41  1  0.37770000  0.52460000  0.81260000  1.0 0.1190096879
H  H42  1  0.76180000  0.51140000  0.80260000  1.0 0.1190096879
H  H43  1  0.52170000  0.61340000  0.74870000  1.0 0.1395973363
H  H44  1  0.64860000  0.68550000  0.80280000  1.0 0.1523520752
C  C1  1  0.12800000  0.82790000  0.01800000  1.0 0.0791688075
C  C2  1  0.99160000  0.64230000  0.99790000  1.0 0.0874746496
C  C3  1  0.14360000  0.82550000  0.95420000  1.0 -0.1802366769
C  C4  1  0.07920000  0.72460000  0.90880000  1.0 0.1017405903
C  C5  1  0.00290000  0.63180000  0.93280000  1.0 -0.1984547584
C  C6  1  0.09830000  0.72020000  0.83980000  1.0 0.1890633458
C  C7  1  0.10920000  0.62720000  0.80480000  1.0 -0.2222366304
C  C8  1  0.13320000  0.62640000  0.74050000  1.0 0.1017405903
C  C9  1  0.14360000  0.71190000  0.71150000  1.0 -0.2112041807
C  C10  1  0.13090000  0.79990000  0.74500000  1.0 0.1890633458
C  C11  1  0.18860000  0.08090000  0.70590000  1.0 0.0791688075
C  C12  1  0.17400000  0.99900000  0.74130000  1.0 -0.1577667019
C  C13  1  0.14380000  0.89210000  0.70930000  1.0 0.1017405903
C  C14  1  0.12730000  0.87370000  0.64220000  1.0 -0.1984547584
C  C15  1  0.14470000  0.96090000  0.61100000  1.0 0.0874746496
C  C16  1  0.26450000  0.45060000  0.62820000  1.0 0.0791688075
C  C17  1  0.24680000  0.54390000  0.65900000  1.0 -0.2222366304
C  C18  1  0.15110000  0.52890000  0.70380000  1.0 0.1190096879
C  C19  1  0.07470000  0.42410000  0.71310000  1.0 -0.1526014304
C  C20  1  0.09750000  0.33720000  0.67990000  1.0 0.0791688075
C  C21  1  0.22730000  0.16320000  0.38180000  1.0 -0.0159532719
C  C22  1  0.26660000  0.25840000  0.35480000  1.0 -0.2112041807
C  C23  1  0.26960000  0.24970000  0.28800000  1.0 0.1890633458
C  C24  1  0.22760000  0.14840000  0.24900000  1.0 -0.2222366304
C  C25  1  0.18890000  0.05400000  0.27490000  1.0 0.0024540021
C  C26  1  0.18780000  0.06110000  0.34140000  1.0 -0.1215896609
C  C27  1  0.14400000  0.94420000  0.23050000  1.0 0.5569607669
C  C28  1  0.27730000  0.67700000  0.16170000  1.0 0.5383820389
C  C29  1  0.37960000  0.62240000  0.17110000  1.0 -0.0133351015
C  C30  1  0.52120000  0.66960000  0.15930000  1.0 -0.1215896609
C  C31  1  0.61160000  0.61450000  0.16490000  1.0 -0.0133351015
C  C32  1  0.56150000  0.51250000  0.18340000  1.0 -0.1802366769
C  C33  1  0.42200000  0.46540000  0.19610000  1.0 -0.0005796638
C  C34  1  0.33270000  0.52070000  0.18940000  1.0 -0.1526014304
C  C35  1  0.38460000  0.37980000  0.23140000  1.0 0.0306552255
C  C36  1  0.22130000  0.17460000  0.45280000  1.0 0.5383820389
C  C37  1  0.76290000  0.66470000  0.15200000  1.0 0.5383820389
C  C38  1  0.87200000  0.17210000  0.98200000  1.0 0.0791688075
C  C39  1  0.00840000  0.35770000  0.00210000  1.0 0.0874746496
C  C40  1  0.85640000  0.17450000  0.04580000  1.0 -0.1802366769
C  C41  1  0.92080000  0.27540000  0.09120000  1.0 0.1017405903
C  C42  1  0.99710000  0.36820000  0.06720000  1.0 -0.1984547584
C  C43  1  0.90170000  0.27980000  0.16020000  1.0 0.1890633458
C  C44  1  0.89080000  0.37280000  0.19520000  1.0 -0.2222366304
C  C45  1  0.86680000  0.37360000  0.25950000  1.0 0.1017405903
C  C46  1  0.85640000  0.28810000  0.28850000  1.0 -0.2112041807
C  C47  1  0.86910000  0.20010000  0.25500000  1.0 0.1890633458
C  C48  1  0.81140000  0.91910000  0.29410000  1.0 0.0791688075
C  C49  1  0.82600000  0.00100000  0.25870000  1.0 -0.1577667019
C  C50  1  0.85620000  0.10790000  0.29070000  1.0 0.1017405903
C  C51  1  0.87270000  0.12630000  0.35780000  1.0 -0.1984547584
C  C52  1  0.85530000  0.03910000  0.38900000  1.0 0.0874746496
C  C53  1  0.73550000  0.54940000  0.37180000  1.0 0.0791688075
C  C54  1  0.75320000  0.45610000  0.34100000  1.0 -0.2222366304
C  C55  1  0.84890000  0.47110000  0.29620000  1.0 0.1190096879
C  C56  1  0.92530000  0.57590000  0.28690000  1.0 -0.1526014304
C  C57  1  0.90250000  0.66280000  0.32010000  1.0 0.0791688075
C  C58  1  0.77270000  0.83680000  0.61820000  1.0 -0.0159532719
C  C59  1  0.73340000  0.74160000  0.64520000  1.0 -0.2112041807
C  C60  1  0.73040000  0.75030000  0.71200000  1.0 0.1890633458
C  C61  1  0.77240000  0.85160000  0.75100000  1.0 -0.2222366304
C  C62  1  0.81110000  0.94600000  0.72510000  1.0 0.0024540021
C  C63  1  0.81220000  0.93890000  0.65860000  1.0 -0.1215896609
C  C64  1  0.85600000  0.05580000  0.76950000  1.0 0.5569607669
C  C65  1  0.72270000  0.32300000  0.83830000  1.0 0.5383820389
C  C66  1  0.62040000  0.37760000  0.82890000  1.0 -0.0133351015
C  C67  1  0.47880000  0.33040000  0.84070000  1.0 -0.1215896609
C  C68  1  0.38840000  0.38550000  0.83510000  1.0 -0.0133351015
C  C69  1  0.43850000  0.48750000  0.81660000  1.0 -0.1802366769
C  C70  1  0.57800000  0.53460000  0.80390000  1.0 -0.0005796638
C  C71  1  0.66730000  0.47930000  0.81060000  1.0 -0.1526014304
C  C72  1  0.61540000  0.62020000  0.76860000  1.0 0.0306552255
C  C73  1  0.77870000  0.82540000  0.54720000  1.0 0.5383820389
C  C74  1  0.23710000  0.33530000  0.84800000  1.0 0.5383820389
N  N1  1  0.05050000  0.73710000  0.04000000  1.0 -0.2293278521
N  N2  1  0.17750000  0.06360000  0.64100000  1.0 -0.2472989655
N  N3  1  0.10720000  0.80720000  0.80840000  1.0 -0.3743240184
N  N4  1  0.19130000  0.34890000  0.63820000  1.0 -0.2472989655
N  N5  1  0.94950000  0.26290000  0.96000000  1.0 -0.2293278521
N  N6  1  0.82250000  0.93640000  0.35900000  1.0 -0.2472989655
N  N7  1  0.89280000  0.19280000  0.19160000  1.0 -0.3743240184
N  N8  1  0.80870000  0.65110000  0.36180000  1.0 -0.2472989655
O  O1  1  0.14960000  0.62610000  0.17090000  1.0 -0.5573498156
O  O2  1  0.24270000  0.26520000  0.48500000  1.0 -0.5497060067
O  O3  1  0.19500000  0.08990000  0.47820000  1.0 -0.5497060067
O  O4  1  0.14770000  0.94150000  0.17040000  1.0 -0.5397604948
O  O5  1  0.10550000  0.85740000  0.25408000  1.0 -0.5573498156
O  O6  1  0.83380000  0.60380000  0.14610000  1.0 -0.5573498156
O  O7  1  0.81820000  0.76480000  0.14900000  1.0 -0.5337682909
O  O8  1  0.31990000  0.77030000  0.14580000  1.0 -0.5397604948
O  O9  1  0.31870000  0.35070000  0.26710000  1.0 -0.109552393
O  O10  1  0.85040000  0.37390000  0.82910000  1.0 -0.5573498156
O  O11  1  0.75730000  0.73480000  0.51500000  1.0 -0.5497060067
O  O12  1  0.80500000  0.91010000  0.52180000  1.0 -0.5497060067
O  O13  1  0.85230000  0.05850000  0.82960000  1.0 -0.5397604948
O  O14  1  0.89450000  0.14260000  0.74592000  1.0 -0.5573498156
O  O15  1  0.16620000  0.39620000  0.85390000  1.0 -0.5573498156
O  O16  1  0.18180000  0.23520000  0.85100000  1.0 -0.5337682909
O  O17  1  0.68010000  0.22970000  0.85420000  1.0 -0.5397604948
O  O18  1  0.68130000  0.64930000  0.73290000  1.0 -0.109552393
