# DDEC6 charges by PACMAN v1.1 (https://github.com/mtap-research/PACMAN-charge/)
data_FIYSAK_ASR_pacman
_symmetry_space_group_name_H-M   'P 1'
_cell_length_a   16.04640000
_cell_length_b   16.04640000
_cell_length_c   16.04640000
_cell_angle_alpha   96.35530000
_cell_angle_beta   96.35530000
_cell_angle_gamma   141.13400000
_symmetry_Int_Tables_number   1
_chemical_formula_structural   AlC7NO5
_chemical_formula_sum   'Al8 C56 N8 O40'
_cell_volume   2444.96538273
_cell_formula_units_Z   8
loop_
 _symmetry_equiv_pos_site_id
 _symmetry_equiv_pos_as_xyz
  1  'x, y, z'
loop_
 _atom_site_type_symbol
 _atom_site_label
 _atom_site_symmetry_multiplicity
 _atom_site_fract_x
 _atom_site_fract_y
 _atom_site_fract_z
 _atom_site_occupancy
 _atom_site_charge
Al  Al1  1  0.41509000  0.85729000  0.93160000  1.0 1.6575953729
Al  Al2  1  0.92569000  0.48349000  0.06840000  1.0 1.6575953729
Al  Al3  1  0.73349000  0.16509000  0.05780000  1.0 1.6575953729
Al  Al4  1  0.10729000  0.67569000  0.94220000  1.0 1.6575953729
Al  Al5  1  0.41509000  0.48349000  0.55780000  1.0 1.6575953729
Al  Al6  1  0.92569000  0.85729000  0.44220000  1.0 1.6575953729
Al  Al7  1  0.73349000  0.67569000  0.56840000  1.0 1.6575953729
Al  Al8  1  0.10729000  0.16509000  0.43160000  1.0 1.6575953729
C  C1  1  0.67810000  0.03500000  0.88310000  1.0 0.6702032156
C  C2  1  0.74270000  0.02740000  0.82810000  1.0 -0.1341440685
C  C3  1  0.88120000  0.15790000  0.83710000  1.0 0.068313782
C  C4  1  0.14870000  0.56660000  0.81330000  1.0 0.6702032156
C  C5  1  0.07170000  0.44900000  0.73270000  1.0 -0.1437749535
C  C6  1  0.92700000  0.34120000  0.69820000  1.0 0.097174355
C  C7  1  0.15190000  0.79500000  0.11690000  1.0 0.6702032156
C  C8  1  0.19930000  0.91460000  0.17190000  1.0 -0.1341440685
C  C9  1  0.32080000  0.04410000  0.16290000  1.0 0.068313782
C  C10  1  0.75330000  0.33540000  0.18670000  1.0 0.6702032156
C  C11  1  0.71630000  0.33900000  0.26730000  1.0 -0.1437749535
C  C12  1  0.64300000  0.22880000  0.30180000  1.0 0.097174355
C  C13  1  0.04500000  0.42810000  0.14310000  1.0 0.6702032156
C  C14  1  0.16460000  0.49270000  0.21530000  1.0 -0.1341440685
C  C15  1  0.29410000  0.63120000  0.22330000  1.0 0.068313782
C  C16  1  0.58540000  0.89870000  0.08210000  1.0 0.6702032156
C  C17  1  0.58900000  0.82170000  0.12270000  1.0 -0.1437749535
C  C18  1  0.47880000  0.67700000  0.08580000  1.0 0.097174355
C  C19  1  0.28500000  0.90190000  0.85690000  1.0 0.6702032156
C  C20  1  0.27740000  0.94930000  0.78470000  1.0 -0.1341440685
C  C21  1  0.40790000  0.07080000  0.77670000  1.0 0.068313782
C  C22  1  0.81660000  0.50330000  0.91790000  1.0 0.6702032156
C  C23  1  0.69900000  0.46630000  0.87730000  1.0 -0.1437749535
C  C24  1  0.59120000  0.39300000  0.91420000  1.0 0.097174355
C  C25  1  0.67810000  0.79500000  0.64310000  1.0 0.6702032156
C  C26  1  0.74270000  0.91460000  0.71530000  1.0 -0.1341440685
C  C27  1  0.88120000  0.04410000  0.72330000  1.0 0.068313782
C  C28  1  0.14870000  0.33540000  0.58210000  1.0 0.6702032156
C  C29  1  0.07170000  0.33900000  0.62270000  1.0 -0.1437749535
C  C30  1  0.92700000  0.22880000  0.58580000  1.0 0.097174355
C  C31  1  0.15190000  0.03500000  0.35690000  1.0 0.6702032156
C  C32  1  0.19930000  0.02740000  0.28470000  1.0 -0.1341440685
C  C33  1  0.32080000  0.15790000  0.27670000  1.0 0.068313782
C  C34  1  0.75330000  0.56660000  0.41790000  1.0 0.6702032156
C  C35  1  0.71630000  0.44900000  0.37730000  1.0 -0.1437749535
C  C36  1  0.64300000  0.34120000  0.41420000  1.0 0.097174355
C  C37  1  0.04500000  0.90190000  0.61690000  1.0 0.6702032156
C  C38  1  0.16460000  0.94930000  0.67190000  1.0 -0.1341440685
C  C39  1  0.29410000  0.07080000  0.66290000  1.0 0.068313782
C  C40  1  0.58540000  0.50330000  0.68670000  1.0 0.6702032156
C  C41  1  0.58900000  0.46630000  0.76730000  1.0 -0.1437749535
C  C42  1  0.47880000  0.39300000  0.80180000  1.0 0.097174355
C  C43  1  0.28500000  0.42810000  0.38310000  1.0 0.6702032156
C  C44  1  0.27740000  0.49270000  0.32810000  1.0 -0.1341440685
C  C45  1  0.40790000  0.63120000  0.33710000  1.0 0.068313782
C  C46  1  0.81660000  0.89870000  0.31330000  1.0 0.6702032156
C  C47  1  0.69900000  0.82170000  0.23270000  1.0 -0.1437749535
C  C48  1  0.59120000  0.67700000  0.19820000  1.0 0.097174355
C  C49  1  0.67100000  0.90500000  0.76600000  1.0 0.139313466
C  C50  1  0.15070000  0.45200000  0.69870000  1.0 0.068313782
C  C51  1  0.13900000  0.90500000  0.23400000  1.0 0.139313466
C  C52  1  0.75330000  0.45200000  0.30130000  1.0 0.0754309028
C  C53  1  0.15500000  0.42100000  0.26600000  1.0 0.139313466
C  C54  1  0.70200000  0.90070000  0.19870000  1.0 0.0754309028
C  C55  1  0.15500000  0.88900000  0.73400000  1.0 0.139313466
C  C56  1  0.70200000  0.50330000  0.80130000  1.0 0.0754309028
N  N1  1  0.95090000  0.16300000  0.78790000  1.0 -0.0391619624
N  N2  1  0.86610000  0.25400000  0.61210000  1.0 -0.0473778181
N  N3  1  0.37510000  0.16300000  0.21210000  1.0 -0.0391619624
N  N4  1  0.64190000  0.25400000  0.38790000  1.0 -0.0473778181
N  N5  1  0.41300000  0.70090000  0.28790000  1.0 -0.0391619624
N  N6  1  0.50400000  0.61610000  0.11210000  1.0 -0.0473778181
N  N7  1  0.41300000  0.12510000  0.71210000  1.0 -0.0391619624
N  N8  1  0.50400000  0.39190000  0.88790000  1.0 -0.0473778181
O  O1  1  0.54790000  0.03690000  0.99880000  1.0 -0.8505171854
O  O2  1  0.54620000  0.91470000  0.86290000  1.0 -0.517571768
O  O3  1  0.75580000  0.10330000  0.96510000  1.0 -0.517571768
O  O4  1  0.28260000  0.66880000  0.85140000  1.0 -0.5452444189
O  O5  1  0.07820000  0.56530000  0.84750000  1.0 -0.517571768
O  O6  1  0.03810000  0.54910000  0.00120000  1.0 -0.8505171854
O  O7  1  0.05180000  0.68330000  0.13710000  1.0 -0.517571768
O  O8  1  0.13820000  0.79070000  0.03490000  1.0 -0.517571768
O  O9  1  0.81740000  0.43120000  0.14860000  1.0 -0.5440641022
O  O10  1  0.71780000  0.23070000  0.15250000  1.0 -0.517571768
O  O11  1  0.79910000  0.29790000  0.01100000  1.0 -0.8612327211
O  O12  1  0.93330000  0.29620000  0.13150000  1.0 -0.517571768
O  O13  1  0.04070000  0.50580000  0.15250000  1.0 -0.517571768
O  O14  1  0.68120000  0.03260000  0.11380000  1.0 -0.5440641022
O  O15  1  0.48070000  0.82820000  0.01290000  1.0 -0.517571768
O  O16  1  0.28690000  0.78810000  0.98900000  1.0 -0.8505171854
O  O17  1  0.16470000  0.80180000  0.86850000  1.0 -0.517571768
O  O18  1  0.35330000  0.88820000  0.84750000  1.0 -0.517571768
O  O19  1  0.91880000  0.56740000  0.88620000  1.0 -0.5440641022
O  O20  1  0.81530000  0.46780000  0.98710000  1.0 -0.517571768
O  O21  1  0.54790000  0.54910000  0.51100000  1.0 -0.8505171854
O  O22  1  0.54620000  0.68330000  0.63150000  1.0 -0.517571768
O  O23  1  0.75580000  0.79070000  0.65250000  1.0 -0.517571768
O  O24  1  0.28260000  0.43120000  0.61380000  1.0 -0.5440641022
O  O25  1  0.07820000  0.23070000  0.51290000  1.0 -0.517571768
O  O26  1  0.03810000  0.03690000  0.48900000  1.0 -0.8505171854
O  O27  1  0.05180000  0.91470000  0.36850000  1.0 -0.517571768
O  O28  1  0.13820000  0.10330000  0.34750000  1.0 -0.517571768
O  O29  1  0.81740000  0.66880000  0.38620000  1.0 -0.5440641022
O  O30  1  0.71780000  0.56530000  0.48710000  1.0 -0.517571768
O  O31  1  0.79910000  0.78810000  0.50120000  1.0 -0.8505171854
O  O32  1  0.93330000  0.80180000  0.63710000  1.0 -0.517571768
O  O33  1  0.04070000  0.88820000  0.53490000  1.0 -0.517571768
O  O34  1  0.68120000  0.56740000  0.64860000  1.0 -0.5440641022
O  O35  1  0.48070000  0.46780000  0.65250000  1.0 -0.517571768
O  O36  1  0.28690000  0.29790000  0.49880000  1.0 -0.8505171854
O  O37  1  0.16470000  0.29620000  0.36290000  1.0 -0.517571768
O  O38  1  0.35330000  0.50580000  0.46510000  1.0 -0.517571768
O  O39  1  0.91880000  0.03260000  0.35140000  1.0 -0.5440641022
O  O40  1  0.81530000  0.82820000  0.34750000  1.0 -0.517571768
